# generated using pymatgen
data_NiH17C29N3O5
_symmetry_space_group_name_H-M   'P 1'
_cell_length_a   19.60250000
_cell_length_b   23.52740000
_cell_length_c   25.92230000
_cell_angle_alpha   90.00000000
_cell_angle_beta   90.00000000
_cell_angle_gamma   90.00000000
_symmetry_Int_Tables_number   1
_chemical_formula_structural   NiH17C29N3O5
_chemical_formula_sum   'Ni16 H272 C464 N48 O80'
_cell_volume   11955.25740279
_cell_formula_units_Z   16
loop_
 _symmetry_equiv_pos_site_id
 _symmetry_equiv_pos_as_xyz
  1  'x, y, z'
loop_
 _atom_site_type_symbol
 _atom_site_label
 _atom_site_symmetry_multiplicity
 _atom_site_fract_x
 _atom_site_fract_y
 _atom_site_fract_z
 _atom_site_occupancy
 _atom_site_charge
  Ni  Ni1  1  0.316200  0.335240  0.200280  1.0  0.7473
  Ni  Ni2  1  0.816200  0.835240  0.700280  1.0  0.7479
  Ni  Ni3  1  0.683800  0.835240  0.299720  1.0  0.7519
  Ni  Ni4  1  0.183800  0.335240  0.799720  1.0  0.7524
  Ni  Ni5  1  0.816200  0.335240  0.299720  1.0  0.7508
  Ni  Ni6  1  0.316200  0.835240  0.799720  1.0  0.7472
  Ni  Ni7  1  0.183800  0.835240  0.200280  1.0  0.7498
  Ni  Ni8  1  0.683800  0.335240  0.700280  1.0  0.7463
  Ni  Ni9  1  0.183800  0.664760  0.700280  1.0  0.7497
  Ni  Ni10  1  0.683800  0.164760  0.200280  1.0  0.7503
  Ni  Ni11  1  0.816200  0.164760  0.799720  1.0  0.7519
  Ni  Ni12  1  0.316200  0.664760  0.299720  1.0  0.7525
  Ni  Ni13  1  0.683800  0.664760  0.799720  1.0  0.7541
  Ni  Ni14  1  0.183800  0.164760  0.299720  1.0  0.7506
  Ni  Ni15  1  0.316200  0.164760  0.700280  1.0  0.7487
  Ni  Ni16  1  0.816200  0.664760  0.200280  1.0  0.7452
  H  H17  1  0.771300  0.341900  0.603300  1.0  0.0809
  H  H18  1  0.824700  0.409300  0.553700  1.0  0.1289
  H  H19  1  0.702800  0.527300  0.618600  1.0  0.1275
  H  H20  1  0.652200  0.456100  0.665300  1.0  0.0836
  H  H21  1  0.850600  0.477500  0.495900  1.0  0.1114
  H  H22  1  0.911700  0.641500  0.502800  1.0  0.1247
  H  H23  1  0.929300  0.706800  0.568300  1.0  0.1202
  H  H24  1  0.917700  0.787100  0.618900  1.0  0.0837
  H  H25  1  0.742100  0.733400  0.670400  1.0  0.0779
  H  H26  1  0.749200  0.652700  0.621700  1.0  0.1196
  H  H27  1  0.941100  0.626700  0.418200  1.0  0.119
  H  H28  1  0.020200  0.608300  0.353600  1.0  0.1227
  H  H29  1  0.034500  0.446000  0.401900  1.0  0.1168
  H  H30  1  0.952500  0.463200  0.463900  1.0  0.1075
  H  H31  1  0.981100  0.452000  0.309800  1.0  0.125
  H  H32  1  0.087300  0.329700  0.235600  1.0  0.1149
  H  H33  1  0.186500  0.464100  0.298600  1.0  0.1208
  H  H34  1  0.271300  0.841900  0.103300  1.0  0.0809
  H  H35  1  0.324700  0.909300  0.053700  1.0  0.1289
  H  H36  1  0.202800  0.027300  0.118600  1.0  0.1275
  H  H37  1  0.152200  0.956100  0.165300  1.0  0.0836
  H  H38  1  0.350600  0.977500  0.995900  1.0  0.1114
  H  H39  1  0.411700  0.141500  0.002800  1.0  0.1247
  H  H40  1  0.429300  0.206800  0.068300  1.0  0.1202
  H  H41  1  0.417700  0.287100  0.118900  1.0  0.0837
  H  H42  1  0.242100  0.233400  0.170400  1.0  0.0779
  H  H43  1  0.249200  0.152700  0.121700  1.0  0.1196
  H  H44  1  0.441100  0.126700  0.918200  1.0  0.119
  H  H45  1  0.520200  0.108300  0.853600  1.0  0.1227
  H  H46  1  0.534500  0.946000  0.901900  1.0  0.1168
  H  H47  1  0.452500  0.963200  0.963900  1.0  0.1075
  H  H48  1  0.481100  0.952000  0.809800  1.0  0.125
  H  H49  1  0.587300  0.829700  0.735600  1.0  0.1149
  H  H50  1  0.686500  0.964100  0.798600  1.0  0.1208
  H  H51  1  0.228700  0.841900  0.896700  1.0  0.0802
  H  H52  1  0.175300  0.909300  0.946300  1.0  0.1292
  H  H53  1  0.297200  0.027300  0.881400  1.0  0.1274
  H  H54  1  0.347800  0.956100  0.834700  1.0  0.0832
  H  H55  1  0.149400  0.977500  0.004100  1.0  0.1117
  H  H56  1  0.088300  0.141500  0.997200  1.0  0.1251
  H  H57  1  0.070700  0.206800  0.931700  1.0  0.1195
  H  H58  1  0.082300  0.287100  0.881100  1.0  0.0832
  H  H59  1  0.257900  0.233400  0.829600  1.0  0.0783
  H  H60  1  0.250800  0.152700  0.878300  1.0  0.1198
  H  H61  1  0.058900  0.126700  0.081800  1.0  0.1178
  H  H62  1  0.979800  0.108300  0.146400  1.0  0.1225
  H  H63  1  0.965500  0.946000  0.098100  1.0  0.1164
  H  H64  1  0.047500  0.963200  0.036100  1.0  0.1071
  H  H65  1  0.018900  0.952000  0.190200  1.0  0.1252
  H  H66  1  0.912700  0.829700  0.264400  1.0  0.115
  H  H67  1  0.813500  0.964100  0.201400  1.0  0.1214
  H  H68  1  0.728700  0.341900  0.396700  1.0  0.0802
  H  H69  1  0.675300  0.409300  0.446300  1.0  0.1292
  H  H70  1  0.797200  0.527300  0.381400  1.0  0.1274
  H  H71  1  0.847800  0.456100  0.334700  1.0  0.0832
  H  H72  1  0.649400  0.477500  0.504100  1.0  0.1117
  H  H73  1  0.588300  0.641500  0.497200  1.0  0.1251
  H  H74  1  0.570700  0.706800  0.431700  1.0  0.1195
  H  H75  1  0.582300  0.787100  0.381100  1.0  0.0832
  H  H76  1  0.757900  0.733400  0.329600  1.0  0.0783
  H  H77  1  0.750800  0.652700  0.378300  1.0  0.1198
  H  H78  1  0.558900  0.626700  0.581800  1.0  0.1178
  H  H79  1  0.479800  0.608300  0.646400  1.0  0.1225
  H  H80  1  0.465500  0.446000  0.598100  1.0  0.1164
  H  H81  1  0.547500  0.463200  0.536100  1.0  0.1071
  H  H82  1  0.518900  0.452000  0.690200  1.0  0.1252
  H  H83  1  0.412700  0.329700  0.764400  1.0  0.115
  H  H84  1  0.313500  0.464100  0.701400  1.0  0.1214
  H  H85  1  0.271300  0.341900  0.896700  1.0  0.0806
  H  H86  1  0.324700  0.409300  0.946300  1.0  0.1296
  H  H87  1  0.202800  0.527300  0.881400  1.0  0.1277
  H  H88  1  0.152200  0.456100  0.834700  1.0  0.0832
  H  H89  1  0.350600  0.477500  0.004100  1.0  0.1117
  H  H90  1  0.411700  0.641500  0.997200  1.0  0.1244
  H  H91  1  0.429300  0.706800  0.931700  1.0  0.1206
  H  H92  1  0.417700  0.787100  0.881100  1.0  0.0838
  H  H93  1  0.242100  0.733400  0.829600  1.0  0.0778
  H  H94  1  0.249200  0.652700  0.878300  1.0  0.1196
  H  H95  1  0.441100  0.626700  0.081800  1.0  0.1183
  H  H96  1  0.520200  0.608300  0.146400  1.0  0.1221
  H  H97  1  0.534500  0.446000  0.098100  1.0  0.1166
  H  H98  1  0.452500  0.463200  0.036100  1.0  0.1073
  H  H99  1  0.481100  0.452000  0.190200  1.0  0.1252
  H  H100  1  0.587300  0.329700  0.264400  1.0  0.1149
  H  H101  1  0.686500  0.464100  0.201400  1.0  0.1207
  H  H102  1  0.771300  0.841900  0.396700  1.0  0.0806
  H  H103  1  0.824700  0.909300  0.446300  1.0  0.1296
  H  H104  1  0.702800  0.027300  0.381400  1.0  0.1277
  H  H105  1  0.652200  0.956100  0.334700  1.0  0.0832
  H  H106  1  0.850600  0.977500  0.504100  1.0  0.1117
  H  H107  1  0.911700  0.141500  0.497200  1.0  0.1244
  H  H108  1  0.929300  0.206800  0.431700  1.0  0.1206
  H  H109  1  0.917700  0.287100  0.381100  1.0  0.0838
  H  H110  1  0.742100  0.233400  0.329600  1.0  0.0778
  H  H111  1  0.749200  0.152700  0.378300  1.0  0.1196
  H  H112  1  0.941100  0.126700  0.581800  1.0  0.1183
  H  H113  1  0.020200  0.108300  0.646400  1.0  0.1221
  H  H114  1  0.034500  0.946000  0.598100  1.0  0.1166
  H  H115  1  0.952500  0.963200  0.536100  1.0  0.1073
  H  H116  1  0.981100  0.952000  0.690200  1.0  0.1252
  H  H117  1  0.087300  0.829700  0.764400  1.0  0.1149
  H  H118  1  0.186500  0.964100  0.701400  1.0  0.1207
  H  H119  1  0.728700  0.841900  0.603300  1.0  0.0803
  H  H120  1  0.675300  0.909300  0.553700  1.0  0.1287
  H  H121  1  0.797200  0.027300  0.618600  1.0  0.1273
  H  H122  1  0.847800  0.956100  0.665300  1.0  0.0836
  H  H123  1  0.649400  0.977500  0.495900  1.0  0.1113
  H  H124  1  0.588300  0.141500  0.502800  1.0  0.1256
  H  H125  1  0.570700  0.206800  0.568300  1.0  0.1194
  H  H126  1  0.582300  0.287100  0.618900  1.0  0.0832
  H  H127  1  0.757900  0.233400  0.670400  1.0  0.078
  H  H128  1  0.750800  0.152700  0.621700  1.0  0.1198
  H  H129  1  0.558900  0.126700  0.418200  1.0  0.1187
  H  H130  1  0.479800  0.108300  0.353600  1.0  0.1231
  H  H131  1  0.465500  0.946000  0.401900  1.0  0.1166
  H  H132  1  0.547500  0.963200  0.463900  1.0  0.1073
  H  H133  1  0.518900  0.952000  0.309800  1.0  0.1252
  H  H134  1  0.412700  0.829700  0.235600  1.0  0.1152
  H  H135  1  0.313500  0.964100  0.298600  1.0  0.1213
  H  H136  1  0.228700  0.341900  0.103300  1.0  0.0803
  H  H137  1  0.175300  0.409300  0.053700  1.0  0.1287
  H  H138  1  0.297200  0.527300  0.118600  1.0  0.1273
  H  H139  1  0.347800  0.456100  0.165300  1.0  0.0836
  H  H140  1  0.149400  0.477500  0.995900  1.0  0.1113
  H  H141  1  0.088300  0.641500  0.002800  1.0  0.1256
  H  H142  1  0.070700  0.706800  0.068300  1.0  0.1194
  H  H143  1  0.082300  0.787100  0.118900  1.0  0.0832
  H  H144  1  0.257900  0.733400  0.170400  1.0  0.078
  H  H145  1  0.250800  0.652700  0.121700  1.0  0.1198
  H  H146  1  0.058900  0.626700  0.918200  1.0  0.1187
  H  H147  1  0.979800  0.608300  0.853600  1.0  0.1231
  H  H148  1  0.965500  0.446000  0.901900  1.0  0.1166
  H  H149  1  0.047500  0.463200  0.963900  1.0  0.1073
  H  H150  1  0.018900  0.452000  0.809800  1.0  0.1252
  H  H151  1  0.912700  0.329700  0.735600  1.0  0.1152
  H  H152  1  0.813500  0.464100  0.798600  1.0  0.1213
  H  H153  1  0.728700  0.658100  0.103300  1.0  0.0808
  H  H154  1  0.675300  0.590700  0.053700  1.0  0.1297
  H  H155  1  0.797200  0.472700  0.118600  1.0  0.1275
  H  H156  1  0.847800  0.543900  0.165300  1.0  0.0843
  H  H157  1  0.649400  0.522500  0.995900  1.0  0.1118
  H  H158  1  0.588300  0.358500  0.002800  1.0  0.1254
  H  H159  1  0.570700  0.293200  0.068300  1.0  0.1192
  H  H160  1  0.582300  0.212900  0.118900  1.0  0.0831
  H  H161  1  0.757900  0.266600  0.170400  1.0  0.0784
  H  H162  1  0.750800  0.347300  0.121700  1.0  0.1196
  H  H163  1  0.558900  0.373300  0.918200  1.0  0.1181
  H  H164  1  0.479800  0.391700  0.853600  1.0  0.1218
  H  H165  1  0.465500  0.554000  0.901900  1.0  0.1167
  H  H166  1  0.547500  0.536800  0.963900  1.0  0.1079
  H  H167  1  0.518900  0.548000  0.809800  1.0  0.1254
  H  H168  1  0.412700  0.670300  0.735600  1.0  0.1141
  H  H169  1  0.313500  0.535900  0.798600  1.0  0.1215
  H  H170  1  0.228700  0.158100  0.603300  1.0  0.0808
  H  H171  1  0.175300  0.090700  0.553700  1.0  0.1297
  H  H172  1  0.297200  0.972700  0.618600  1.0  0.1275
  H  H173  1  0.347800  0.043900  0.665300  1.0  0.0843
  H  H174  1  0.149400  0.022500  0.495900  1.0  0.1118
  H  H175  1  0.088300  0.858500  0.502800  1.0  0.1254
  H  H176  1  0.070700  0.793200  0.568300  1.0  0.1192
  H  H177  1  0.082300  0.712900  0.618900  1.0  0.0831
  H  H178  1  0.257900  0.766600  0.670400  1.0  0.0784
  H  H179  1  0.250800  0.847300  0.621700  1.0  0.1196
  H  H180  1  0.058900  0.873300  0.418200  1.0  0.1181
  H  H181  1  0.979800  0.891700  0.353600  1.0  0.1218
  H  H182  1  0.965500  0.054000  0.401900  1.0  0.1167
  H  H183  1  0.047500  0.036800  0.463900  1.0  0.1079
  H  H184  1  0.018900  0.048000  0.309800  1.0  0.1254
  H  H185  1  0.912700  0.170300  0.235600  1.0  0.1141
  H  H186  1  0.813500  0.035900  0.298600  1.0  0.1215
  H  H187  1  0.271300  0.158100  0.396700  1.0  0.0807
  H  H188  1  0.324700  0.090700  0.446300  1.0  0.1298
  H  H189  1  0.202800  0.972700  0.381400  1.0  0.1276
  H  H190  1  0.152200  0.043900  0.334700  1.0  0.083
  H  H191  1  0.350600  0.022500  0.504100  1.0  0.112
  H  H192  1  0.411700  0.858500  0.497200  1.0  0.1249
  H  H193  1  0.429300  0.793200  0.431700  1.0  0.1205
  H  H194  1  0.417700  0.712900  0.381100  1.0  0.0838
  H  H195  1  0.242100  0.766600  0.329600  1.0  0.0782
  H  H196  1  0.249200  0.847300  0.378300  1.0  0.1196
  H  H197  1  0.441100  0.873300  0.581800  1.0  0.1178
  H  H198  1  0.520200  0.891700  0.646400  1.0  0.1216
  H  H199  1  0.534500  0.054000  0.598100  1.0  0.1167
  H  H200  1  0.452500  0.036800  0.536100  1.0  0.1084
  H  H201  1  0.481100  0.048000  0.690200  1.0  0.1253
  H  H202  1  0.587300  0.170300  0.764400  1.0  0.1142
  H  H203  1  0.686500  0.035900  0.701400  1.0  0.1211
  H  H204  1  0.771300  0.658100  0.896700  1.0  0.0807
  H  H205  1  0.824700  0.590700  0.946300  1.0  0.1298
  H  H206  1  0.702800  0.472700  0.881400  1.0  0.1276
  H  H207  1  0.652200  0.543900  0.834700  1.0  0.083
  H  H208  1  0.850600  0.522500  0.004100  1.0  0.112
  H  H209  1  0.911700  0.358500  0.997200  1.0  0.1249
  H  H210  1  0.929300  0.293200  0.931700  1.0  0.1205
  H  H211  1  0.917700  0.212900  0.881100  1.0  0.0838
  H  H212  1  0.742100  0.266600  0.829600  1.0  0.0782
  H  H213  1  0.749200  0.347300  0.878300  1.0  0.1196
  H  H214  1  0.941100  0.373300  0.081800  1.0  0.1178
  H  H215  1  0.020200  0.391700  0.146400  1.0  0.1216
  H  H216  1  0.034500  0.554000  0.098100  1.0  0.1167
  H  H217  1  0.952500  0.536800  0.036100  1.0  0.1084
  H  H218  1  0.981100  0.548000  0.190200  1.0  0.1253
  H  H219  1  0.087300  0.670300  0.264400  1.0  0.1142
  H  H220  1  0.186500  0.535900  0.201400  1.0  0.1211
  H  H221  1  0.228700  0.658100  0.396700  1.0  0.0809
  H  H222  1  0.175300  0.590700  0.446300  1.0  0.1298
  H  H223  1  0.297200  0.472700  0.381400  1.0  0.1276
  H  H224  1  0.347800  0.543900  0.334700  1.0  0.0833
  H  H225  1  0.149400  0.522500  0.504100  1.0  0.1119
  H  H226  1  0.088300  0.358500  0.497200  1.0  0.1255
  H  H227  1  0.070700  0.293200  0.431700  1.0  0.1191
  H  H228  1  0.082300  0.212900  0.381100  1.0  0.0832
  H  H229  1  0.257900  0.266600  0.329600  1.0  0.0783
  H  H230  1  0.250800  0.347300  0.378300  1.0  0.1197
  H  H231  1  0.058900  0.373300  0.581800  1.0  0.1179
  H  H232  1  0.979800  0.391700  0.646400  1.0  0.1217
  H  H233  1  0.965500  0.554000  0.598100  1.0  0.1166
  H  H234  1  0.047500  0.536800  0.536100  1.0  0.108
  H  H235  1  0.018900  0.548000  0.690200  1.0  0.1254
  H  H236  1  0.912700  0.670300  0.764400  1.0  0.1141
  H  H237  1  0.813500  0.535900  0.701400  1.0  0.1214
  H  H238  1  0.728700  0.158100  0.896700  1.0  0.0809
  H  H239  1  0.675300  0.090700  0.946300  1.0  0.1298
  H  H240  1  0.797200  0.972700  0.881400  1.0  0.1276
  H  H241  1  0.847800  0.043900  0.834700  1.0  0.0833
  H  H242  1  0.649400  0.022500  0.004100  1.0  0.1119
  H  H243  1  0.588300  0.858500  0.997200  1.0  0.1255
  H  H244  1  0.570700  0.793200  0.931700  1.0  0.1191
  H  H245  1  0.582300  0.712900  0.881100  1.0  0.0832
  H  H246  1  0.757900  0.766600  0.829600  1.0  0.0783
  H  H247  1  0.750800  0.847300  0.878300  1.0  0.1197
  H  H248  1  0.558900  0.873300  0.081800  1.0  0.1179
  H  H249  1  0.479800  0.891700  0.146400  1.0  0.1217
  H  H250  1  0.465500  0.054000  0.098100  1.0  0.1166
  H  H251  1  0.547500  0.036800  0.036100  1.0  0.108
  H  H252  1  0.518900  0.048000  0.190200  1.0  0.1254
  H  H253  1  0.412700  0.170300  0.264400  1.0  0.1141
  H  H254  1  0.313500  0.035900  0.201400  1.0  0.1214
  H  H255  1  0.771300  0.158100  0.103300  1.0  0.0805
  H  H256  1  0.824700  0.090700  0.053700  1.0  0.1296
  H  H257  1  0.702800  0.972700  0.118600  1.0  0.1276
  H  H258  1  0.652200  0.043900  0.165300  1.0  0.0837
  H  H259  1  0.850600  0.022500  0.995900  1.0  0.112
  H  H260  1  0.911700  0.858500  0.002800  1.0  0.125
  H  H261  1  0.929300  0.793200  0.068300  1.0  0.1203
  H  H262  1  0.917700  0.712900  0.118900  1.0  0.0835
  H  H263  1  0.742100  0.766600  0.170400  1.0  0.0781
  H  H264  1  0.749200  0.847300  0.121700  1.0  0.1195
  H  H265  1  0.941100  0.873300  0.918200  1.0  0.1181
  H  H266  1  0.020200  0.891700  0.853600  1.0  0.1218
  H  H267  1  0.034500  0.054000  0.901900  1.0  0.1169
  H  H268  1  0.952500  0.036800  0.963900  1.0  0.1083
  H  H269  1  0.981100  0.048000  0.809800  1.0  0.1251
  H  H270  1  0.087300  0.170300  0.735600  1.0  0.114
  H  H271  1  0.186500  0.035900  0.798600  1.0  0.121
  H  H272  1  0.271300  0.658100  0.603300  1.0  0.0805
  H  H273  1  0.324700  0.590700  0.553700  1.0  0.1296
  H  H274  1  0.202800  0.472700  0.618600  1.0  0.1276
  H  H275  1  0.152200  0.543900  0.665300  1.0  0.0837
  H  H276  1  0.350600  0.522500  0.495900  1.0  0.112
  H  H277  1  0.411700  0.358500  0.502800  1.0  0.125
  H  H278  1  0.429300  0.293200  0.568300  1.0  0.1203
  H  H279  1  0.417700  0.212900  0.618900  1.0  0.0835
  H  H280  1  0.242100  0.266600  0.670400  1.0  0.0781
  H  H281  1  0.249200  0.347300  0.621700  1.0  0.1195
  H  H282  1  0.441100  0.373300  0.418200  1.0  0.1181
  H  H283  1  0.520200  0.391700  0.353600  1.0  0.1218
  H  H284  1  0.534500  0.554000  0.401900  1.0  0.1169
  H  H285  1  0.452500  0.536800  0.463900  1.0  0.1083
  H  H286  1  0.481100  0.548000  0.309800  1.0  0.1251
  H  H287  1  0.587300  0.670300  0.235600  1.0  0.114
  H  H288  1  0.686500  0.535900  0.298600  1.0  0.121
  C  C289  1  0.757650  0.380410  0.606930  1.0  0.1673
  C  C290  1  0.789940  0.420400  0.577240  1.0  -0.1992
  C  C291  1  0.771670  0.477120  0.581640  1.0  0.0506
  C  C292  1  0.718560  0.489330  0.615050  1.0  -0.1759
  C  C293  1  0.688810  0.446560  0.642960  1.0  0.1723
  C  C294  1  0.809910  0.523190  0.555070  1.0  0.2295
  C  C295  1  0.850110  0.513930  0.511650  1.0  -0.1196
  C  C296  1  0.889440  0.557500  0.491220  1.0  0.0676
  C  C297  1  0.885910  0.610230  0.515430  1.0  -0.1123
  C  C298  1  0.843960  0.616510  0.558440  1.0  0.2329
  C  C299  1  0.839710  0.670700  0.588310  1.0  -0.0182
  C  C300  1  0.889670  0.711400  0.588990  1.0  -0.1857
  C  C301  1  0.882610  0.759240  0.619680  1.0  0.1427
  C  C302  1  0.781230  0.728100  0.649360  1.0  0.1675
  C  C303  1  0.784870  0.679940  0.620080  1.0  -0.1742
  C  C304  1  0.937820  0.546750  0.448260  1.0  0.0524
  C  C305  1  0.959380  0.589530  0.414700  1.0  -0.1368
  C  C306  1  0.006710  0.578800  0.376500  1.0  -0.1519
  C  C307  1  0.034290  0.525320  0.371670  1.0  0.2935
  C  C308  1  0.014690  0.482690  0.404760  1.0  -0.1966
  C  C309  1  0.966560  0.493270  0.441910  1.0  -0.1194
  C  C310  1  0.083610  0.465150  0.308550  1.0  0.23
  C  C311  1  0.023330  0.436500  0.298690  1.0  -0.1239
  C  C312  1  0.024700  0.385430  0.272680  1.0  -0.1566
  C  C313  1  0.086350  0.364320  0.254500  1.0  -0.0637
  C  C314  1  0.146270  0.393400  0.263780  1.0  -0.1368
  C  C315  1  0.145360  0.444260  0.291540  1.0  -0.1167
  C  C316  1  0.959420  0.353510  0.264910  1.0  0.6724
  C  C317  1  0.212020  0.371070  0.242620  1.0  0.6448
  C  C318  1  0.257650  0.880410  0.106930  1.0  0.1673
  C  C319  1  0.289940  0.920400  0.077240  1.0  -0.1992
  C  C320  1  0.271670  0.977120  0.081640  1.0  0.0506
  C  C321  1  0.218560  0.989330  0.115050  1.0  -0.1759
  C  C322  1  0.188810  0.946560  0.142960  1.0  0.1723
  C  C323  1  0.309910  0.023190  0.055070  1.0  0.2295
  C  C324  1  0.350110  0.013930  0.011650  1.0  -0.1196
  C  C325  1  0.389440  0.057500  0.991220  1.0  0.0676
  C  C326  1  0.385910  0.110230  0.015430  1.0  -0.1123
  C  C327  1  0.343960  0.116510  0.058440  1.0  0.2329
  C  C328  1  0.339710  0.170700  0.088310  1.0  -0.0182
  C  C329  1  0.389670  0.211400  0.088990  1.0  -0.1857
  C  C330  1  0.382610  0.259240  0.119680  1.0  0.1427
  C  C331  1  0.281230  0.228100  0.149360  1.0  0.1675
  C  C332  1  0.284870  0.179940  0.120080  1.0  -0.1742
  C  C333  1  0.437820  0.046750  0.948260  1.0  0.0524
  C  C334  1  0.459380  0.089530  0.914700  1.0  -0.1368
  C  C335  1  0.506710  0.078800  0.876500  1.0  -0.1519
  C  C336  1  0.534290  0.025320  0.871670  1.0  0.2935
  C  C337  1  0.514690  0.982690  0.904760  1.0  -0.1966
  C  C338  1  0.466560  0.993270  0.941910  1.0  -0.1194
  C  C339  1  0.583610  0.965150  0.808550  1.0  0.23
  C  C340  1  0.523330  0.936500  0.798690  1.0  -0.1239
  C  C341  1  0.524700  0.885430  0.772680  1.0  -0.1566
  C  C342  1  0.586350  0.864320  0.754500  1.0  -0.0637
  C  C343  1  0.646270  0.893400  0.763780  1.0  -0.1368
  C  C344  1  0.645360  0.944260  0.791540  1.0  -0.1167
  C  C345  1  0.459420  0.853510  0.764910  1.0  0.6724
  C  C346  1  0.712020  0.871070  0.742620  1.0  0.6448
  C  C347  1  0.242350  0.880410  0.893070  1.0  0.1686
  C  C348  1  0.210060  0.920400  0.922760  1.0  -0.1982
  C  C349  1  0.228330  0.977120  0.918360  1.0  0.0502
  C  C350  1  0.281440  0.989330  0.884950  1.0  -0.1778
  C  C351  1  0.311190  0.946560  0.857040  1.0  0.1711
  C  C352  1  0.190090  0.023190  0.944930  1.0  0.23
  C  C353  1  0.149890  0.013930  0.988350  1.0  -0.1191
  C  C354  1  0.110560  0.057500  0.008780  1.0  0.067
  C  C355  1  0.114090  0.110230  0.984570  1.0  -0.1146
  C  C356  1  0.156040  0.116510  0.941560  1.0  0.2328
  C  C357  1  0.160290  0.170700  0.911690  1.0  -0.0171
  C  C358  1  0.110330  0.211400  0.911010  1.0  -0.1874
  C  C359  1  0.117390  0.259240  0.880320  1.0  0.1426
  C  C360  1  0.218770  0.228100  0.850640  1.0  0.1678
  C  C361  1  0.215130  0.179940  0.879920  1.0  -0.1743
  C  C362  1  0.062180  0.046750  0.051740  1.0  0.0522
  C  C363  1  0.040620  0.089530  0.085300  1.0  -0.1369
  C  C364  1  0.993290  0.078800  0.123500  1.0  -0.1533
  C  C365  1  0.965710  0.025320  0.128330  1.0  0.2946
  C  C366  1  0.985310  0.982690  0.095240  1.0  -0.1959
  C  C367  1  0.033440  0.993270  0.058090  1.0  -0.1203
  C  C368  1  0.916390  0.965150  0.191450  1.0  0.2303
  C  C369  1  0.976670  0.936500  0.201310  1.0  -0.1235
  C  C370  1  0.975300  0.885430  0.227320  1.0  -0.1553
  C  C371  1  0.913650  0.864320  0.245500  1.0  -0.063
  C  C372  1  0.853730  0.893400  0.236220  1.0  -0.1373
  C  C373  1  0.854640  0.944260  0.208460  1.0  -0.1178
  C  C374  1  0.040580  0.853510  0.235090  1.0  0.6729
  C  C375  1  0.787980  0.871070  0.257380  1.0  0.6457
  C  C376  1  0.742350  0.380410  0.393070  1.0  0.1686
  C  C377  1  0.710060  0.420400  0.422760  1.0  -0.1982
  C  C378  1  0.728330  0.477120  0.418360  1.0  0.0502
  C  C379  1  0.781440  0.489330  0.384950  1.0  -0.1778
  C  C380  1  0.811190  0.446560  0.357040  1.0  0.1711
  C  C381  1  0.690090  0.523190  0.444930  1.0  0.23
  C  C382  1  0.649890  0.513930  0.488350  1.0  -0.1191
  C  C383  1  0.610560  0.557500  0.508780  1.0  0.067
  C  C384  1  0.614090  0.610230  0.484570  1.0  -0.1146
  C  C385  1  0.656040  0.616510  0.441560  1.0  0.2328
  C  C386  1  0.660290  0.670700  0.411690  1.0  -0.0171
  C  C387  1  0.610330  0.711400  0.411010  1.0  -0.1874
  C  C388  1  0.617390  0.759240  0.380320  1.0  0.1426
  C  C389  1  0.718770  0.728100  0.350640  1.0  0.1678
  C  C390  1  0.715130  0.679940  0.379920  1.0  -0.1743
  C  C391  1  0.562180  0.546750  0.551740  1.0  0.0522
  C  C392  1  0.540620  0.589530  0.585300  1.0  -0.1369
  C  C393  1  0.493290  0.578800  0.623500  1.0  -0.1533
  C  C394  1  0.465710  0.525320  0.628330  1.0  0.2946
  C  C395  1  0.485310  0.482690  0.595240  1.0  -0.1959
  C  C396  1  0.533440  0.493270  0.558090  1.0  -0.1203
  C  C397  1  0.416390  0.465150  0.691450  1.0  0.2303
  C  C398  1  0.476670  0.436500  0.701310  1.0  -0.1235
  C  C399  1  0.475300  0.385430  0.727320  1.0  -0.1553
  C  C400  1  0.413650  0.364320  0.745500  1.0  -0.063
  C  C401  1  0.353730  0.393400  0.736220  1.0  -0.1373
  C  C402  1  0.354640  0.444260  0.708460  1.0  -0.1178
  C  C403  1  0.540580  0.353510  0.735090  1.0  0.6729
  C  C404  1  0.287980  0.371070  0.757380  1.0  0.6457
  C  C405  1  0.257650  0.380410  0.893070  1.0  0.1684
  C  C406  1  0.289940  0.420400  0.922760  1.0  -0.1996
  C  C407  1  0.271670  0.477120  0.918360  1.0  0.0508
  C  C408  1  0.218560  0.489330  0.884950  1.0  -0.1765
  C  C409  1  0.188810  0.446560  0.857040  1.0  0.1715
  C  C410  1  0.309910  0.523190  0.944930  1.0  0.2296
  C  C411  1  0.350110  0.513930  0.988350  1.0  -0.1197
  C  C412  1  0.389440  0.557500  0.008780  1.0  0.0676
  C  C413  1  0.385910  0.610230  0.984570  1.0  -0.1128
  C  C414  1  0.343960  0.616510  0.941560  1.0  0.2326
  C  C415  1  0.339710  0.670700  0.911690  1.0  -0.0162
  C  C416  1  0.389670  0.711400  0.911010  1.0  -0.1856
  C  C417  1  0.382610  0.759240  0.880320  1.0  0.1429
  C  C418  1  0.281230  0.728100  0.850640  1.0  0.1665
  C  C419  1  0.284870  0.679940  0.879920  1.0  -0.1744
  C  C420  1  0.437820  0.546750  0.051740  1.0  0.0527
  C  C421  1  0.459380  0.589530  0.085300  1.0  -0.1377
  C  C422  1  0.506710  0.578800  0.123500  1.0  -0.1527
  C  C423  1  0.534290  0.525320  0.128330  1.0  0.2937
  C  C424  1  0.514690  0.482690  0.095240  1.0  -0.1964
  C  C425  1  0.466560  0.493270  0.058090  1.0  -0.1198
  C  C426  1  0.583610  0.465150  0.191450  1.0  0.2301
  C  C427  1  0.523330  0.436500  0.201310  1.0  -0.1235
  C  C428  1  0.524700  0.385430  0.227320  1.0  -0.1558
  C  C429  1  0.586350  0.364320  0.245500  1.0  -0.0624
  C  C430  1  0.646270  0.393400  0.236220  1.0  -0.1366
  C  C431  1  0.645360  0.444260  0.208460  1.0  -0.1166
  C  C432  1  0.459420  0.353510  0.235090  1.0  0.6724
  C  C433  1  0.712020  0.371070  0.257380  1.0  0.6455
  C  C434  1  0.757650  0.880410  0.393070  1.0  0.1684
  C  C435  1  0.789940  0.920400  0.422760  1.0  -0.1996
  C  C436  1  0.771670  0.977120  0.418360  1.0  0.0508
  C  C437  1  0.718560  0.989330  0.384950  1.0  -0.1765
  C  C438  1  0.688810  0.946560  0.357040  1.0  0.1715
  C  C439  1  0.809910  0.023190  0.444930  1.0  0.2296
  C  C440  1  0.850110  0.013930  0.488350  1.0  -0.1197
  C  C441  1  0.889440  0.057500  0.508780  1.0  0.0676
  C  C442  1  0.885910  0.110230  0.484570  1.0  -0.1128
  C  C443  1  0.843960  0.116510  0.441560  1.0  0.2326
  C  C444  1  0.839710  0.170700  0.411690  1.0  -0.0162
  C  C445  1  0.889670  0.211400  0.411010  1.0  -0.1856
  C  C446  1  0.882610  0.259240  0.380320  1.0  0.1429
  C  C447  1  0.781230  0.228100  0.350640  1.0  0.1665
  C  C448  1  0.784870  0.179940  0.379920  1.0  -0.1744
  C  C449  1  0.937820  0.046750  0.551740  1.0  0.0527
  C  C450  1  0.959380  0.089530  0.585300  1.0  -0.1377
  C  C451  1  0.006710  0.078800  0.623500  1.0  -0.1527
  C  C452  1  0.034290  0.025320  0.628330  1.0  0.2937
  C  C453  1  0.014690  0.982690  0.595240  1.0  -0.1964
  C  C454  1  0.966560  0.993270  0.558090  1.0  -0.1198
  C  C455  1  0.083610  0.965150  0.691450  1.0  0.2301
  C  C456  1  0.023330  0.936500  0.701310  1.0  -0.1235
  C  C457  1  0.024700  0.885430  0.727320  1.0  -0.1558
  C  C458  1  0.086350  0.864320  0.745500  1.0  -0.0624
  C  C459  1  0.146270  0.893400  0.736220  1.0  -0.1366
  C  C460  1  0.145360  0.944260  0.708460  1.0  -0.1166
  C  C461  1  0.959420  0.853510  0.735090  1.0  0.6724
  C  C462  1  0.212020  0.871070  0.757380  1.0  0.6455
  C  C463  1  0.742350  0.880410  0.606930  1.0  0.1674
  C  C464  1  0.710060  0.920400  0.577240  1.0  -0.1982
  C  C465  1  0.728330  0.977120  0.581640  1.0  0.05
  C  C466  1  0.781440  0.989330  0.615050  1.0  -0.1772
  C  C467  1  0.811190  0.946560  0.642960  1.0  0.1717
  C  C468  1  0.690090  0.023190  0.555070  1.0  0.23
  C  C469  1  0.649890  0.013930  0.511650  1.0  -0.1188
  C  C470  1  0.610560  0.057500  0.491220  1.0  0.067
  C  C471  1  0.614090  0.110230  0.515430  1.0  -0.1139
  C  C472  1  0.656040  0.116510  0.558440  1.0  0.2333
  C  C473  1  0.660290  0.170700  0.588310  1.0  -0.0184
  C  C474  1  0.610330  0.211400  0.588990  1.0  -0.1869
  C  C475  1  0.617390  0.259240  0.619680  1.0  0.1425
  C  C476  1  0.718770  0.228100  0.649360  1.0  0.1686
  C  C477  1  0.715130  0.179940  0.620080  1.0  -0.1742
  C  C478  1  0.562180  0.046750  0.448260  1.0  0.0522
  C  C479  1  0.540620  0.089530  0.414700  1.0  -0.1361
  C  C480  1  0.493290  0.078800  0.376500  1.0  -0.1528
  C  C481  1  0.465710  0.025320  0.371670  1.0  0.2945
  C  C482  1  0.485310  0.982690  0.404760  1.0  -0.1962
  C  C483  1  0.533440  0.993270  0.441910  1.0  -0.1201
  C  C484  1  0.416390  0.965150  0.308550  1.0  0.2303
  C  C485  1  0.476670  0.936500  0.298690  1.0  -0.1238
  C  C486  1  0.475300  0.885430  0.272680  1.0  -0.1557
  C  C487  1  0.413650  0.864320  0.254500  1.0  -0.064
  C  C488  1  0.353730  0.893400  0.263780  1.0  -0.1377
  C  C489  1  0.354640  0.944260  0.291540  1.0  -0.1177
  C  C490  1  0.540580  0.853510  0.264910  1.0  0.6725
  C  C491  1  0.287980  0.871070  0.242620  1.0  0.6452
  C  C492  1  0.242350  0.380410  0.106930  1.0  0.1674
  C  C493  1  0.210060  0.420400  0.077240  1.0  -0.1982
  C  C494  1  0.228330  0.477120  0.081640  1.0  0.05
  C  C495  1  0.281440  0.489330  0.115050  1.0  -0.1772
  C  C496  1  0.311190  0.446560  0.142960  1.0  0.1717
  C  C497  1  0.190090  0.523190  0.055070  1.0  0.23
  C  C498  1  0.149890  0.513930  0.011650  1.0  -0.1188
  C  C499  1  0.110560  0.557500  0.991220  1.0  0.067
  C  C500  1  0.114090  0.610230  0.015430  1.0  -0.1139
  C  C501  1  0.156040  0.616510  0.058440  1.0  0.2333
  C  C502  1  0.160290  0.670700  0.088310  1.0  -0.0184
  C  C503  1  0.110330  0.711400  0.088990  1.0  -0.1869
  C  C504  1  0.117390  0.759240  0.119680  1.0  0.1425
  C  C505  1  0.218770  0.728100  0.149360  1.0  0.1686
  C  C506  1  0.215130  0.679940  0.120080  1.0  -0.1742
  C  C507  1  0.062180  0.546750  0.948260  1.0  0.0522
  C  C508  1  0.040620  0.589530  0.914700  1.0  -0.1361
  C  C509  1  0.993290  0.578800  0.876500  1.0  -0.1528
  C  C510  1  0.965710  0.525320  0.871670  1.0  0.2945
  C  C511  1  0.985310  0.482690  0.904760  1.0  -0.1962
  C  C512  1  0.033440  0.493270  0.941910  1.0  -0.1201
  C  C513  1  0.916390  0.465150  0.808550  1.0  0.2303
  C  C514  1  0.976670  0.436500  0.798690  1.0  -0.1238
  C  C515  1  0.975300  0.385430  0.772680  1.0  -0.1557
  C  C516  1  0.913650  0.364320  0.754500  1.0  -0.064
  C  C517  1  0.853730  0.393400  0.763780  1.0  -0.1377
  C  C518  1  0.854640  0.444260  0.791540  1.0  -0.1177
  C  C519  1  0.040580  0.353510  0.764910  1.0  0.6725
  C  C520  1  0.787980  0.371070  0.742620  1.0  0.6452
  C  C521  1  0.742350  0.619590  0.106930  1.0  0.1672
  C  C522  1  0.710060  0.579600  0.077240  1.0  -0.1993
  C  C523  1  0.728330  0.522880  0.081640  1.0  0.0503
  C  C524  1  0.781440  0.510670  0.115050  1.0  -0.1777
  C  C525  1  0.811190  0.553440  0.142960  1.0  0.1718
  C  C526  1  0.690090  0.476810  0.055070  1.0  0.2298
  C  C527  1  0.649890  0.486070  0.011650  1.0  -0.1202
  C  C528  1  0.610560  0.442500  0.991220  1.0  0.0669
  C  C529  1  0.614090  0.389770  0.015430  1.0  -0.1116
  C  C530  1  0.656040  0.383490  0.058440  1.0  0.2328
  C  C531  1  0.660290  0.329300  0.088310  1.0  -0.0183
  C  C532  1  0.610330  0.288600  0.088990  1.0  -0.1871
  C  C533  1  0.617390  0.240760  0.119680  1.0  0.1429
  C  C534  1  0.718770  0.271900  0.149360  1.0  0.1689
  C  C535  1  0.715130  0.320060  0.120080  1.0  -0.1743
  C  C536  1  0.562180  0.453250  0.948260  1.0  0.0527
  C  C537  1  0.540620  0.410470  0.914700  1.0  -0.1373
  C  C538  1  0.493290  0.421200  0.876500  1.0  -0.1539
  C  C539  1  0.465710  0.474680  0.871670  1.0  0.2946
  C  C540  1  0.485310  0.517310  0.904760  1.0  -0.1959
  C  C541  1  0.533440  0.506730  0.941910  1.0  -0.1217
  C  C542  1  0.416390  0.534850  0.808550  1.0  0.2306
  C  C543  1  0.476670  0.563500  0.798690  1.0  -0.1237
  C  C544  1  0.475300  0.614570  0.772680  1.0  -0.1557
  C  C545  1  0.413650  0.635680  0.754500  1.0  -0.0629
  C  C546  1  0.353730  0.606600  0.763780  1.0  -0.1374
  C  C547  1  0.354640  0.555740  0.791540  1.0  -0.1173
  C  C548  1  0.540580  0.646490  0.764910  1.0  0.674
  C  C549  1  0.287980  0.628930  0.742620  1.0  0.6451
  C  C550  1  0.242350  0.119590  0.606930  1.0  0.1672
  C  C551  1  0.210060  0.079600  0.577240  1.0  -0.1993
  C  C552  1  0.228330  0.022880  0.581640  1.0  0.0503
  C  C553  1  0.281440  0.010670  0.615050  1.0  -0.1777
  C  C554  1  0.311190  0.053440  0.642960  1.0  0.1718
  C  C555  1  0.190090  0.976810  0.555070  1.0  0.2298
  C  C556  1  0.149890  0.986070  0.511650  1.0  -0.1202
  C  C557  1  0.110560  0.942500  0.491220  1.0  0.0669
  C  C558  1  0.114090  0.889770  0.515430  1.0  -0.1116
  C  C559  1  0.156040  0.883490  0.558440  1.0  0.2328
  C  C560  1  0.160290  0.829300  0.588310  1.0  -0.0183
  C  C561  1  0.110330  0.788600  0.588990  1.0  -0.1871
  C  C562  1  0.117390  0.740760  0.619680  1.0  0.1429
  C  C563  1  0.218770  0.771900  0.649360  1.0  0.1689
  C  C564  1  0.215130  0.820060  0.620080  1.0  -0.1743
  C  C565  1  0.062180  0.953250  0.448260  1.0  0.0527
  C  C566  1  0.040620  0.910470  0.414700  1.0  -0.1373
  C  C567  1  0.993290  0.921200  0.376500  1.0  -0.1539
  C  C568  1  0.965710  0.974680  0.371670  1.0  0.2946
  C  C569  1  0.985310  0.017310  0.404760  1.0  -0.1959
  C  C570  1  0.033440  0.006730  0.441910  1.0  -0.1217
  C  C571  1  0.916390  0.034850  0.308550  1.0  0.2306
  C  C572  1  0.976670  0.063500  0.298690  1.0  -0.1237
  C  C573  1  0.975300  0.114570  0.272680  1.0  -0.1557
  C  C574  1  0.913650  0.135680  0.254500  1.0  -0.0629
  C  C575  1  0.853730  0.106600  0.263780  1.0  -0.1374
  C  C576  1  0.854640  0.055740  0.291540  1.0  -0.1173
  C  C577  1  0.040580  0.146490  0.264910  1.0  0.674
  C  C578  1  0.787980  0.128930  0.242620  1.0  0.6451
  C  C579  1  0.257650  0.119590  0.393070  1.0  0.1675
  C  C580  1  0.289940  0.079600  0.422760  1.0  -0.1991
  C  C581  1  0.271670  0.022880  0.418360  1.0  0.0507
  C  C582  1  0.218560  0.010670  0.384950  1.0  -0.1767
  C  C583  1  0.188810  0.053440  0.357040  1.0  0.1719
  C  C584  1  0.309910  0.976810  0.444930  1.0  0.2294
  C  C585  1  0.350110  0.986070  0.488350  1.0  -0.1202
  C  C586  1  0.389440  0.942500  0.508780  1.0  0.0683
  C  C587  1  0.385910  0.889770  0.484570  1.0  -0.1118
  C  C588  1  0.343960  0.883490  0.441560  1.0  0.2327
  C  C589  1  0.339710  0.829300  0.411690  1.0  -0.0172
  C  C590  1  0.389670  0.788600  0.411010  1.0  -0.1858
  C  C591  1  0.382610  0.740760  0.380320  1.0  0.1432
  C  C592  1  0.281230  0.771900  0.350640  1.0  0.1666
  C  C593  1  0.284870  0.820060  0.379920  1.0  -0.1741
  C  C594  1  0.437820  0.953250  0.551740  1.0  0.0532
  C  C595  1  0.459380  0.910470  0.585300  1.0  -0.1363
  C  C596  1  0.506710  0.921200  0.623500  1.0  -0.1532
  C  C597  1  0.534290  0.974680  0.628330  1.0  0.2942
  C  C598  1  0.514690  0.017310  0.595240  1.0  -0.1961
  C  C599  1  0.466560  0.006730  0.558090  1.0  -0.121
  C  C600  1  0.583610  0.034850  0.691450  1.0  0.2305
  C  C601  1  0.523330  0.063500  0.701310  1.0  -0.1237
  C  C602  1  0.524700  0.114570  0.727320  1.0  -0.1548
  C  C603  1  0.586350  0.135680  0.745500  1.0  -0.0618
  C  C604  1  0.646270  0.106600  0.736220  1.0  -0.1371
  C  C605  1  0.645360  0.055740  0.708460  1.0  -0.1166
  C  C606  1  0.459420  0.146490  0.735090  1.0  0.673
  C  C607  1  0.712020  0.128930  0.757380  1.0  0.6452
  C  C608  1  0.757650  0.619590  0.893070  1.0  0.1675
  C  C609  1  0.789940  0.579600  0.922760  1.0  -0.1991
  C  C610  1  0.771670  0.522880  0.918360  1.0  0.0507
  C  C611  1  0.718560  0.510670  0.884950  1.0  -0.1767
  C  C612  1  0.688810  0.553440  0.857040  1.0  0.1719
  C  C613  1  0.809910  0.476810  0.944930  1.0  0.2294
  C  C614  1  0.850110  0.486070  0.988350  1.0  -0.1202
  C  C615  1  0.889440  0.442500  0.008780  1.0  0.0683
  C  C616  1  0.885910  0.389770  0.984570  1.0  -0.1118
  C  C617  1  0.843960  0.383490  0.941560  1.0  0.2327
  C  C618  1  0.839710  0.329300  0.911690  1.0  -0.0172
  C  C619  1  0.889670  0.288600  0.911010  1.0  -0.1858
  C  C620  1  0.882610  0.240760  0.880320  1.0  0.1432
  C  C621  1  0.781230  0.271900  0.850640  1.0  0.1666
  C  C622  1  0.784870  0.320060  0.879920  1.0  -0.1741
  C  C623  1  0.937820  0.453250  0.051740  1.0  0.0532
  C  C624  1  0.959380  0.410470  0.085300  1.0  -0.1363
  C  C625  1  0.006710  0.421200  0.123500  1.0  -0.1532
  C  C626  1  0.034290  0.474680  0.128330  1.0  0.2942
  C  C627  1  0.014690  0.517310  0.095240  1.0  -0.1961
  C  C628  1  0.966560  0.506730  0.058090  1.0  -0.121
  C  C629  1  0.083610  0.534850  0.191450  1.0  0.2305
  C  C630  1  0.023330  0.563500  0.201310  1.0  -0.1237
  C  C631  1  0.024700  0.614570  0.227320  1.0  -0.1548
  C  C632  1  0.086350  0.635680  0.245500  1.0  -0.0618
  C  C633  1  0.146270  0.606600  0.236220  1.0  -0.1371
  C  C634  1  0.145360  0.555740  0.208460  1.0  -0.1166
  C  C635  1  0.959420  0.646490  0.235090  1.0  0.673
  C  C636  1  0.212020  0.628930  0.257380  1.0  0.6452
  C  C637  1  0.242350  0.619590  0.393070  1.0  0.1669
  C  C638  1  0.210060  0.579600  0.422760  1.0  -0.1991
  C  C639  1  0.228330  0.522880  0.418360  1.0  0.0502
  C  C640  1  0.281440  0.510670  0.384950  1.0  -0.1777
  C  C641  1  0.311190  0.553440  0.357040  1.0  0.1714
  C  C642  1  0.190090  0.476810  0.444930  1.0  0.2299
  C  C643  1  0.149890  0.486070  0.488350  1.0  -0.12
  C  C644  1  0.110560  0.442500  0.508780  1.0  0.0676
  C  C645  1  0.114090  0.389770  0.484570  1.0  -0.1113
  C  C646  1  0.156040  0.383490  0.441560  1.0  0.2326
  C  C647  1  0.160290  0.329300  0.411690  1.0  -0.0181
  C  C648  1  0.110330  0.288600  0.411010  1.0  -0.1874
  C  C649  1  0.117390  0.240760  0.380320  1.0  0.1431
  C  C650  1  0.218770  0.271900  0.350640  1.0  0.1676
  C  C651  1  0.215130  0.320060  0.379920  1.0  -0.1745
  C  C652  1  0.062180  0.453250  0.551740  1.0  0.0529
  C  C653  1  0.040620  0.410470  0.585300  1.0  -0.1373
  C  C654  1  0.993290  0.421200  0.623500  1.0  -0.154
  C  C655  1  0.965710  0.474680  0.628330  1.0  0.2947
  C  C656  1  0.985310  0.517310  0.595240  1.0  -0.1958
  C  C657  1  0.033440  0.506730  0.558090  1.0  -0.1217
  C  C658  1  0.916390  0.534850  0.691450  1.0  0.2307
  C  C659  1  0.976670  0.563500  0.701310  1.0  -0.1235
  C  C660  1  0.975300  0.614570  0.727320  1.0  -0.1552
  C  C661  1  0.913650  0.635680  0.745500  1.0  -0.0621
  C  C662  1  0.853730  0.606600  0.736220  1.0  -0.1372
  C  C663  1  0.854640  0.555740  0.708460  1.0  -0.1174
  C  C664  1  0.040580  0.646490  0.735090  1.0  0.6734
  C  C665  1  0.787980  0.628930  0.757380  1.0  0.6454
  C  C666  1  0.742350  0.119590  0.893070  1.0  0.1669
  C  C667  1  0.710060  0.079600  0.922760  1.0  -0.1991
  C  C668  1  0.728330  0.022880  0.918360  1.0  0.0502
  C  C669  1  0.781440  0.010670  0.884950  1.0  -0.1777
  C  C670  1  0.811190  0.053440  0.857040  1.0  0.1714
  C  C671  1  0.690090  0.976810  0.944930  1.0  0.2299
  C  C672  1  0.649890  0.986070  0.988350  1.0  -0.12
  C  C673  1  0.610560  0.942500  0.008780  1.0  0.0676
  C  C674  1  0.614090  0.889770  0.984570  1.0  -0.1113
  C  C675  1  0.656040  0.883490  0.941560  1.0  0.2326
  C  C676  1  0.660290  0.829300  0.911690  1.0  -0.0181
  C  C677  1  0.610330  0.788600  0.911010  1.0  -0.1874
  C  C678  1  0.617390  0.740760  0.880320  1.0  0.1431
  C  C679  1  0.718770  0.771900  0.850640  1.0  0.1676
  C  C680  1  0.715130  0.820060  0.879920  1.0  -0.1745
  C  C681  1  0.562180  0.953250  0.051740  1.0  0.0529
  C  C682  1  0.540620  0.910470  0.085300  1.0  -0.1373
  C  C683  1  0.493290  0.921200  0.123500  1.0  -0.154
  C  C684  1  0.465710  0.974680  0.128330  1.0  0.2947
  C  C685  1  0.485310  0.017310  0.095240  1.0  -0.1958
  C  C686  1  0.533440  0.006730  0.058090  1.0  -0.1217
  C  C687  1  0.416390  0.034850  0.191450  1.0  0.2307
  C  C688  1  0.476670  0.063500  0.201310  1.0  -0.1235
  C  C689  1  0.475300  0.114570  0.227320  1.0  -0.1552
  C  C690  1  0.413650  0.135680  0.245500  1.0  -0.0621
  C  C691  1  0.353730  0.106600  0.236220  1.0  -0.1372
  C  C692  1  0.354640  0.055740  0.208460  1.0  -0.1174
  C  C693  1  0.540580  0.146490  0.235090  1.0  0.6734
  C  C694  1  0.287980  0.128930  0.257380  1.0  0.6454
  C  C695  1  0.757650  0.119590  0.106930  1.0  0.1675
  C  C696  1  0.789940  0.079600  0.077240  1.0  -0.199
  C  C697  1  0.771670  0.022880  0.081640  1.0  0.0508
  C  C698  1  0.718560  0.010670  0.115050  1.0  -0.1767
  C  C699  1  0.688810  0.053440  0.142960  1.0  0.1724
  C  C700  1  0.809910  0.976810  0.055070  1.0  0.2293
  C  C701  1  0.850110  0.986070  0.011650  1.0  -0.1205
  C  C702  1  0.889440  0.942500  0.991220  1.0  0.0676
  C  C703  1  0.885910  0.889770  0.015430  1.0  -0.112
  C  C704  1  0.843960  0.883490  0.058440  1.0  0.2327
  C  C705  1  0.839710  0.829300  0.088310  1.0  -0.0179
  C  C706  1  0.889670  0.788600  0.088990  1.0  -0.186
  C  C707  1  0.882610  0.740760  0.119680  1.0  0.1426
  C  C708  1  0.781230  0.771900  0.149360  1.0  0.168
  C  C709  1  0.784870  0.820060  0.120080  1.0  -0.1739
  C  C710  1  0.937820  0.953250  0.948260  1.0  0.0527
  C  C711  1  0.959380  0.910470  0.914700  1.0  -0.1363
  C  C712  1  0.006710  0.921200  0.876500  1.0  -0.1533
  C  C713  1  0.034290  0.974680  0.871670  1.0  0.2939
  C  C714  1  0.014690  0.017310  0.904760  1.0  -0.196
  C  C715  1  0.966560  0.006730  0.941910  1.0  -0.1208
  C  C716  1  0.083610  0.034850  0.808550  1.0  0.2303
  C  C717  1  0.023330  0.063500  0.798690  1.0  -0.124
  C  C718  1  0.024700  0.114570  0.772680  1.0  -0.1556
  C  C719  1  0.086350  0.135680  0.754500  1.0  -0.0627
  C  C720  1  0.146270  0.106600  0.763780  1.0  -0.1372
  C  C721  1  0.145360  0.055740  0.791540  1.0  -0.1167
  C  C722  1  0.959420  0.146490  0.764910  1.0  0.6739
  C  C723  1  0.212020  0.128930  0.742620  1.0  0.6447
  C  C724  1  0.257650  0.619590  0.606930  1.0  0.1675
  C  C725  1  0.289940  0.579600  0.577240  1.0  -0.199
  C  C726  1  0.271670  0.522880  0.581640  1.0  0.0508
  C  C727  1  0.218560  0.510670  0.615050  1.0  -0.1767
  C  C728  1  0.188810  0.553440  0.642960  1.0  0.1724
  C  C729  1  0.309910  0.476810  0.555070  1.0  0.2293
  C  C730  1  0.350110  0.486070  0.511650  1.0  -0.1205
  C  C731  1  0.389440  0.442500  0.491220  1.0  0.0676
  C  C732  1  0.385910  0.389770  0.515430  1.0  -0.112
  C  C733  1  0.343960  0.383490  0.558440  1.0  0.2327
  C  C734  1  0.339710  0.329300  0.588310  1.0  -0.0179
  C  C735  1  0.389670  0.288600  0.588990  1.0  -0.186
  C  C736  1  0.382610  0.240760  0.619680  1.0  0.1426
  C  C737  1  0.281230  0.271900  0.649360  1.0  0.168
  C  C738  1  0.284870  0.320060  0.620080  1.0  -0.1739
  C  C739  1  0.437820  0.453250  0.448260  1.0  0.0527
  C  C740  1  0.459380  0.410470  0.414700  1.0  -0.1363
  C  C741  1  0.506710  0.421200  0.376500  1.0  -0.1533
  C  C742  1  0.534290  0.474680  0.371670  1.0  0.2939
  C  C743  1  0.514690  0.517310  0.404760  1.0  -0.196
  C  C744  1  0.466560  0.506730  0.441910  1.0  -0.1208
  C  C745  1  0.583610  0.534850  0.308550  1.0  0.2303
  C  C746  1  0.523330  0.563500  0.298690  1.0  -0.124
  C  C747  1  0.524700  0.614570  0.272680  1.0  -0.1556
  C  C748  1  0.586350  0.635680  0.254500  1.0  -0.0627
  C  C749  1  0.646270  0.606600  0.263780  1.0  -0.1372
  C  C750  1  0.645360  0.555740  0.291540  1.0  -0.1167
  C  C751  1  0.459420  0.646490  0.264910  1.0  0.6739
  C  C752  1  0.712020  0.628930  0.242620  1.0  0.6447
  N  N753  1  0.708230  0.392290  0.640620  1.0  -0.3116
  N  N754  1  0.806040  0.574200  0.577580  1.0  -0.4265
  N  N755  1  0.829220  0.767920  0.650070  1.0  -0.3215
  N  N756  1  0.208230  0.892290  0.140620  1.0  -0.3116
  N  N757  1  0.306040  0.074200  0.077580  1.0  -0.4265
  N  N758  1  0.329220  0.267920  0.150070  1.0  -0.3215
  N  N759  1  0.291770  0.892290  0.859380  1.0  -0.3092
  N  N760  1  0.193960  0.074200  0.922420  1.0  -0.4242
  N  N761  1  0.170780  0.267920  0.849930  1.0  -0.3225
  N  N762  1  0.791770  0.392290  0.359380  1.0  -0.3092
  N  N763  1  0.693960  0.574200  0.422420  1.0  -0.4242
  N  N764  1  0.670780  0.767920  0.349930  1.0  -0.3225
  N  N765  1  0.208230  0.392290  0.859380  1.0  -0.3116
  N  N766  1  0.306040  0.574200  0.922420  1.0  -0.4261
  N  N767  1  0.329220  0.767920  0.849930  1.0  -0.3215
  N  N768  1  0.708230  0.892290  0.359380  1.0  -0.3116
  N  N769  1  0.806040  0.074200  0.422420  1.0  -0.4261
  N  N770  1  0.829220  0.267920  0.349930  1.0  -0.3215
  N  N771  1  0.791770  0.892290  0.640620  1.0  -0.3089
  N  N772  1  0.693960  0.074200  0.577580  1.0  -0.4244
  N  N773  1  0.670780  0.267920  0.650070  1.0  -0.3227
  N  N774  1  0.291770  0.392290  0.140620  1.0  -0.3089
  N  N775  1  0.193960  0.574200  0.077580  1.0  -0.4244
  N  N776  1  0.170780  0.767920  0.150070  1.0  -0.3227
  N  N777  1  0.791770  0.607710  0.140620  1.0  -0.3082
  N  N778  1  0.693960  0.425800  0.077580  1.0  -0.4234
  N  N779  1  0.670780  0.232080  0.150070  1.0  -0.323
  N  N780  1  0.291770  0.107710  0.640620  1.0  -0.3082
  N  N781  1  0.193960  0.925800  0.577580  1.0  -0.4234
  N  N782  1  0.170780  0.732080  0.650070  1.0  -0.323
  N  N783  1  0.208230  0.107710  0.359380  1.0  -0.3102
  N  N784  1  0.306040  0.925800  0.422420  1.0  -0.4267
  N  N785  1  0.329220  0.732080  0.349930  1.0  -0.3229
  N  N786  1  0.708230  0.607710  0.859380  1.0  -0.3102
  N  N787  1  0.806040  0.425800  0.922420  1.0  -0.4267
  N  N788  1  0.829220  0.232080  0.849930  1.0  -0.3229
  N  N789  1  0.291770  0.607710  0.359380  1.0  -0.3082
  N  N790  1  0.193960  0.425800  0.422420  1.0  -0.4247
  N  N791  1  0.170780  0.232080  0.349930  1.0  -0.3237
  N  N792  1  0.791770  0.107710  0.859380  1.0  -0.3082
  N  N793  1  0.693960  0.925800  0.922420  1.0  -0.4247
  N  N794  1  0.670780  0.732080  0.849930  1.0  -0.3237
  N  N795  1  0.708230  0.107710  0.140620  1.0  -0.3105
  N  N796  1  0.806040  0.925800  0.077580  1.0  -0.426
  N  N797  1  0.829220  0.732080  0.150070  1.0  -0.3224
  N  N798  1  0.208230  0.607710  0.640620  1.0  -0.3105
  N  N799  1  0.306040  0.425800  0.577580  1.0  -0.426
  N  N800  1  0.329220  0.232080  0.650070  1.0  -0.3224
  O  O801  1  0.955780  0.319810  0.227920  1.0  -0.5555
  O  O802  1  0.912640  0.363380  0.297140  1.0  -0.5941
  O  O803  1  0.210780  0.326400  0.214880  1.0  -0.5566
  O  O804  1  0.267430  0.396250  0.251000  1.0  -0.5554
  O  O805  1  0.084080  0.517140  0.334380  1.0  -0.2506
  O  O806  1  0.455780  0.819810  0.727920  1.0  -0.5555
  O  O807  1  0.412640  0.863380  0.797140  1.0  -0.5941
  O  O808  1  0.710780  0.826400  0.714880  1.0  -0.5566
  O  O809  1  0.767430  0.896250  0.751000  1.0  -0.5554
  O  O810  1  0.584080  0.017140  0.834380  1.0  -0.2506
  O  O811  1  0.044220  0.819810  0.272080  1.0  -0.5538
  O  O812  1  0.087360  0.863380  0.202860  1.0  -0.5955
  O  O813  1  0.789220  0.826400  0.285120  1.0  -0.5562
  O  O814  1  0.732570  0.896250  0.249000  1.0  -0.5555
  O  O815  1  0.915920  0.017140  0.165620  1.0  -0.2516
  O  O816  1  0.544220  0.319810  0.772080  1.0  -0.5538
  O  O817  1  0.587360  0.363380  0.702860  1.0  -0.5955
  O  O818  1  0.289220  0.326400  0.785120  1.0  -0.5562
  O  O819  1  0.232570  0.396250  0.749000  1.0  -0.5555
  O  O820  1  0.415920  0.517140  0.665620  1.0  -0.2516
  O  O821  1  0.455780  0.319810  0.272080  1.0  -0.554
  O  O822  1  0.412640  0.363380  0.202860  1.0  -0.5942
  O  O823  1  0.710780  0.326400  0.285120  1.0  -0.556
  O  O824  1  0.767430  0.396250  0.249000  1.0  -0.5555
  O  O825  1  0.584080  0.517140  0.165620  1.0  -0.2512
  O  O826  1  0.955780  0.819810  0.772080  1.0  -0.554
  O  O827  1  0.912640  0.863380  0.702860  1.0  -0.5942
  O  O828  1  0.210780  0.826400  0.785120  1.0  -0.556
  O  O829  1  0.267430  0.896250  0.749000  1.0  -0.5555
  O  O830  1  0.084080  0.017140  0.665620  1.0  -0.2512
  O  O831  1  0.544220  0.819810  0.227920  1.0  -0.5551
  O  O832  1  0.587360  0.863380  0.297140  1.0  -0.5954
  O  O833  1  0.289220  0.826400  0.214880  1.0  -0.5564
  O  O834  1  0.232570  0.896250  0.251000  1.0  -0.5552
  O  O835  1  0.415920  0.017140  0.334380  1.0  -0.2512
  O  O836  1  0.044220  0.319810  0.727920  1.0  -0.5551
  O  O837  1  0.087360  0.363380  0.797140  1.0  -0.5954
  O  O838  1  0.789220  0.326400  0.714880  1.0  -0.5564
  O  O839  1  0.732570  0.396250  0.751000  1.0  -0.5552
  O  O840  1  0.915920  0.517140  0.834380  1.0  -0.2512
  O  O841  1  0.544220  0.680190  0.727920  1.0  -0.5539
  O  O842  1  0.587360  0.636620  0.797140  1.0  -0.5956
  O  O843  1  0.289220  0.673600  0.714880  1.0  -0.5567
  O  O844  1  0.232570  0.603750  0.751000  1.0  -0.557
  O  O845  1  0.415920  0.482860  0.834380  1.0  -0.2504
  O  O846  1  0.044220  0.180190  0.227920  1.0  -0.5539
  O  O847  1  0.087360  0.136620  0.297140  1.0  -0.5956
  O  O848  1  0.789220  0.173600  0.214880  1.0  -0.5567
  O  O849  1  0.732570  0.103750  0.251000  1.0  -0.557
  O  O850  1  0.915920  0.982860  0.334380  1.0  -0.2504
  O  O851  1  0.455780  0.180190  0.772080  1.0  -0.5545
  O  O852  1  0.412640  0.136620  0.702860  1.0  -0.5943
  O  O853  1  0.710780  0.173600  0.785120  1.0  -0.5564
  O  O854  1  0.767430  0.103750  0.749000  1.0  -0.5572
  O  O855  1  0.584080  0.982860  0.665620  1.0  -0.2501
  O  O856  1  0.955780  0.680190  0.272080  1.0  -0.5545
  O  O857  1  0.912640  0.636620  0.202860  1.0  -0.5943
  O  O858  1  0.210780  0.673600  0.285120  1.0  -0.5564
  O  O859  1  0.267430  0.603750  0.249000  1.0  -0.5572
  O  O860  1  0.084080  0.482860  0.165620  1.0  -0.2501
  O  O861  1  0.044220  0.680190  0.772080  1.0  -0.5541
  O  O862  1  0.087360  0.636620  0.702860  1.0  -0.5956
  O  O863  1  0.789220  0.673600  0.785120  1.0  -0.5564
  O  O864  1  0.732570  0.603750  0.749000  1.0  -0.5576
  O  O865  1  0.915920  0.482860  0.665620  1.0  -0.2507
  O  O866  1  0.544220  0.180190  0.272080  1.0  -0.5541
  O  O867  1  0.587360  0.136620  0.202860  1.0  -0.5956
  O  O868  1  0.289220  0.173600  0.285120  1.0  -0.5564
  O  O869  1  0.232570  0.103750  0.249000  1.0  -0.5576
  O  O870  1  0.415920  0.982860  0.165620  1.0  -0.2507
  O  O871  1  0.955780  0.180190  0.727920  1.0  -0.5545
  O  O872  1  0.912640  0.136620  0.797140  1.0  -0.5943
  O  O873  1  0.210780  0.173600  0.714880  1.0  -0.5569
  O  O874  1  0.267430  0.103750  0.751000  1.0  -0.5569
  O  O875  1  0.084080  0.982860  0.834380  1.0  -0.2497
  O  O876  1  0.455780  0.680190  0.227920  1.0  -0.5545
  O  O877  1  0.412640  0.636620  0.297140  1.0  -0.5943
  O  O878  1  0.710780  0.673600  0.214880  1.0  -0.5569
  O  O879  1  0.767430  0.603750  0.251000  1.0  -0.5569
  O  O880  1  0.584080  0.482860  0.334380  1.0  -0.2497
