# generated using pymatgen
data_Cu3H38C44(NO2)6
_symmetry_space_group_name_H-M   'P 1'
_cell_length_a   22.53500000
_cell_length_b   22.53500000
_cell_length_c   29.63500000
_cell_angle_alpha   90.00000000
_cell_angle_beta   90.00000000
_cell_angle_gamma   120.00000000
_symmetry_Int_Tables_number   1
_chemical_formula_structural   Cu3H38C44(NO2)6
_chemical_formula_sum   'Cu27 H342 C396 N54 O108'
_cell_volume   13033.18884652
_cell_formula_units_Z   9
loop_
 _symmetry_equiv_pos_site_id
 _symmetry_equiv_pos_as_xyz
  1  'x, y, z'
loop_
 _atom_site_type_symbol
 _atom_site_label
 _atom_site_symmetry_multiplicity
 _atom_site_fract_x
 _atom_site_fract_y
 _atom_site_fract_z
 _atom_site_occupancy
 _atom_site_charge
  Cu  Cu1  1  0.259030  0.452350  0.722590  1.0  0.8393
  Cu  Cu2  1  0.220020  0.061550  0.649520  1.0  0.8337
  Cu  Cu3  1  0.544030  0.107540  0.540200  1.0  0.8789
  Cu  Cu4  1  0.547650  0.806680  0.722590  1.0  0.8398
  Cu  Cu5  1  0.938450  0.158470  0.649520  1.0  0.8319
  Cu  Cu6  1  0.892460  0.436500  0.540200  1.0  0.879
  Cu  Cu7  1  0.193320  0.740970  0.722590  1.0  0.8397
  Cu  Cu8  1  0.841530  0.779980  0.649520  1.0  0.8316
  Cu  Cu9  1  0.563500  0.455970  0.540200  1.0  0.8786
  Cu  Cu10  1  0.210700  0.440870  0.873530  1.0  0.8789
  Cu  Cu11  1  0.925700  0.785680  0.055920  1.0  0.8393
  Cu  Cu12  1  0.886690  0.394880  0.982850  1.0  0.8337
  Cu  Cu13  1  0.559130  0.769830  0.873530  1.0  0.879
  Cu  Cu14  1  0.214320  0.140010  0.055920  1.0  0.8398
  Cu  Cu15  1  0.605120  0.491800  0.982850  1.0  0.8319
  Cu  Cu16  1  0.230170  0.789300  0.873530  1.0  0.8786
  Cu  Cu17  1  0.859990  0.074300  0.055920  1.0  0.8397
  Cu  Cu18  1  0.508200  0.113310  0.982850  1.0  0.8316
  Cu  Cu19  1  0.877370  0.774200  0.206860  1.0  0.8789
  Cu  Cu20  1  0.592360  0.119020  0.389260  1.0  0.8393
  Cu  Cu21  1  0.553350  0.728220  0.316190  1.0  0.8337
  Cu  Cu22  1  0.225800  0.103160  0.206860  1.0  0.8791
  Cu  Cu23  1  0.880980  0.473350  0.389260  1.0  0.8398
  Cu  Cu24  1  0.271780  0.825140  0.316190  1.0  0.8318
  Cu  Cu25  1  0.896840  0.122630  0.206860  1.0  0.8787
  Cu  Cu26  1  0.526650  0.407640  0.389260  1.0  0.8397
  Cu  Cu27  1  0.174860  0.446650  0.316190  1.0  0.8315
  H  H28  1  0.441100  0.440800  0.657500  1.0  0.1117
  H  H29  1  0.422700  0.400600  0.703300  1.0  0.1052
  H  H30  1  0.365500  0.338500  0.619500  1.0  0.0887
  H  H31  1  0.353100  0.268400  0.701300  1.0  0.1095
  H  H32  1  0.295400  0.282000  0.684000  1.0  0.0932
  H  H33  1  0.470600  0.329800  0.667600  1.0  0.0996
  H  H34  1  0.432500  0.283000  0.626000  1.0  0.1051
  H  H35  1  0.330500  0.598600  0.593100  1.0  0.0984
  H  H36  1  0.387500  0.615900  0.629400  1.0  0.097
  H  H37  1  0.064300  0.104900  0.709400  1.0  0.0808
  H  H38  1  0.062300  0.066400  0.754000  1.0  0.0881
  H  H39  1  0.250100  0.315100  0.747900  1.0  0.0792
  H  H40  1  0.165400  0.206100  0.766600  1.0  0.1133
  H  H41  1  0.054200  0.182400  0.772800  1.0  0.105
  H  H42  1  0.028300  0.269200  0.760100  1.0  0.1327
  H  H43  1  0.019700  0.362400  0.761900  1.0  0.1242
  H  H44  1  0.015400  0.463900  0.750900  1.0  0.1081
  H  H45  1  0.112900  0.562600  0.728800  1.0  0.1152
  H  H46  1  0.210500  0.557600  0.713400  1.0  0.076
  H  H47  1  0.377800  0.124800  0.654800  1.0  0.0924
  H  H48  1  0.454800  0.084400  0.652500  1.0  0.1293
  H  H49  1  0.414100  0.970200  0.639000  1.0  0.0967
  H  H50  1  0.297300  0.894500  0.634900  1.0  0.1239
  H  H51  1  0.184800  0.831600  0.630300  1.0  0.12
  H  H52  1  0.066600  0.774600  0.616300  1.0  0.1149
  H  H53  1  0.011200  0.838400  0.614300  1.0  0.1154
  H  H54  1  0.074600  0.955600  0.627300  1.0  0.0814
  H  H55  1  0.665930  0.268870  0.431670  1.0  0.09
  H  H56  1  0.719330  0.282070  0.469670  1.0  0.1112
  H  H57  1  0.549330  0.975570  0.549270  1.0  0.0895
  H  H58  1  0.471130  0.857270  0.552070  1.0  0.122
  H  H59  1  0.355530  0.822970  0.550970  1.0  0.0944
  H  H60  1  0.320830  0.898870  0.537170  1.0  0.1232
  H  H61  1  0.293030  0.983870  0.529470  1.0  0.1236
  H  H62  1  0.277130  0.070470  0.525670  1.0  0.1125
  H  H63  1  0.376230  0.190970  0.528270  1.0  0.1271
  H  H64  1  0.484830  0.199670  0.528470  1.0  0.0715
  H  H65  1  0.559200  0.000300  0.657500  1.0  0.1109
  H  H66  1  0.599400  0.022100  0.703300  1.0  0.1057
  H  H67  1  0.661500  0.027000  0.619500  1.0  0.0895
  H  H68  1  0.731600  0.084700  0.701300  1.0  0.1103
  H  H69  1  0.718000  0.013400  0.684000  1.0  0.0915
  H  H70  1  0.670200  0.140800  0.667600  1.0  0.1042
  H  H71  1  0.717000  0.149500  0.626000  1.0  0.1024
  H  H72  1  0.401400  0.731900  0.593100  1.0  0.098
  H  H73  1  0.384100  0.771600  0.629400  1.0  0.098
  H  H74  1  0.895100  0.959400  0.709400  1.0  0.0807
  H  H75  1  0.933600  0.995900  0.754000  1.0  0.0892
  H  H76  1  0.684900  0.935000  0.747900  1.0  0.0782
  H  H77  1  0.793900  0.959300  0.766600  1.0  0.1138
  H  H78  1  0.817600  0.871800  0.772800  1.0  0.1071
  H  H79  1  0.730800  0.759100  0.760100  1.0  0.1302
  H  H80  1  0.637600  0.657300  0.761900  1.0  0.1246
  H  H81  1  0.536100  0.551500  0.750900  1.0  0.1083
  H  H82  1  0.437400  0.550300  0.728800  1.0  0.1137
  H  H83  1  0.442400  0.652900  0.713400  1.0  0.0772
  H  H84  1  0.875200  0.253000  0.654800  1.0  0.0933
  H  H85  1  0.915600  0.370400  0.652500  1.0  0.1285
  H  H86  1  0.029800  0.443900  0.639000  1.0  0.0956
  H  H87  1  0.105500  0.402800  0.634900  1.0  0.123
  H  H88  1  0.168400  0.353200  0.630300  1.0  0.12
  H  H89  1  0.225400  0.292000  0.616300  1.0  0.1167
  H  H90  1  0.161600  0.172800  0.614300  1.0  0.1156
  H  H91  1  0.044400  0.119000  0.627300  1.0  0.0841
  H  H92  1  0.731130  0.397070  0.431670  1.0  0.0894
  H  H93  1  0.717930  0.437270  0.469670  1.0  0.1124
  H  H94  1  0.024430  0.573770  0.549270  1.0  0.0886
  H  H95  1  0.142730  0.613870  0.552070  1.0  0.1231
  H  H96  1  0.177030  0.532570  0.550970  1.0  0.0949
  H  H97  1  0.101130  0.421970  0.537170  1.0  0.1217
  H  H98  1  0.016130  0.309170  0.529470  1.0  0.1236
  H  H99  1  0.929530  0.206670  0.525670  1.0  0.1132
  H  H100  1  0.809030  0.185270  0.528270  1.0  0.1286
  H  H101  1  0.800330  0.285170  0.528470  1.0  0.0725
  H  H102  1  0.999700  0.558900  0.657500  1.0  0.1144
  H  H103  1  0.977900  0.577300  0.703300  1.0  0.1064
  H  H104  1  0.973000  0.634500  0.619500  1.0  0.0885
  H  H105  1  0.915300  0.646900  0.701300  1.0  0.1121
  H  H106  1  0.986600  0.704600  0.684000  1.0  0.0934
  H  H107  1  0.859200  0.529400  0.667600  1.0  0.1032
  H  H108  1  0.850500  0.567500  0.626000  1.0  0.1035
  H  H109  1  0.268100  0.669500  0.593100  1.0  0.0991
  H  H110  1  0.228400  0.612500  0.629400  1.0  0.0978
  H  H111  1  0.040600  0.935700  0.709400  1.0  0.0832
  H  H112  1  0.004100  0.937700  0.754000  1.0  0.0906
  H  H113  1  0.065000  0.749900  0.747900  1.0  0.0802
  H  H114  1  0.040700  0.834600  0.766600  1.0  0.1142
  H  H115  1  0.128200  0.945800  0.772800  1.0  0.1042
  H  H116  1  0.240900  0.971700  0.760100  1.0  0.1324
  H  H117  1  0.342700  0.980300  0.761900  1.0  0.1257
  H  H118  1  0.448500  0.984600  0.750900  1.0  0.1075
  H  H119  1  0.449700  0.887100  0.728800  1.0  0.1155
  H  H120  1  0.347100  0.789500  0.713400  1.0  0.0765
  H  H121  1  0.747000  0.622200  0.654800  1.0  0.0924
  H  H122  1  0.629600  0.545200  0.652500  1.0  0.1294
  H  H123  1  0.556100  0.585900  0.639000  1.0  0.0938
  H  H124  1  0.597200  0.702700  0.634900  1.0  0.1235
  H  H125  1  0.646800  0.815200  0.630300  1.0  0.1194
  H  H126  1  0.708000  0.933400  0.616300  1.0  0.116
  H  H127  1  0.827200  0.988800  0.614300  1.0  0.1152
  H  H128  1  0.881000  0.925400  0.627300  1.0  0.0817
  H  H129  1  0.602930  0.334070  0.431670  1.0  0.0913
  H  H130  1  0.562730  0.280670  0.469670  1.0  0.115
  H  H131  1  0.426230  0.450670  0.549270  1.0  0.0899
  H  H132  1  0.386130  0.528870  0.552070  1.0  0.1245
  H  H133  1  0.467430  0.644470  0.550970  1.0  0.0929
  H  H134  1  0.578030  0.679170  0.537170  1.0  0.1222
  H  H135  1  0.690830  0.706970  0.529470  1.0  0.1239
  H  H136  1  0.793330  0.722870  0.525670  1.0  0.1117
  H  H137  1  0.814730  0.623770  0.528270  1.0  0.127
  H  H138  1  0.714830  0.515170  0.528470  1.0  0.0712
  H  H139  1  0.333333  0.666667  0.674800  1.0  0.0803
  H  H140  1  0.666667  0.333333  0.514070  1.0  0.0903
  H  H141  1  0.000000  0.000000  0.671100  1.0  0.078
  H  H142  1  0.332600  0.602200  0.765000  1.0  0.09
  H  H143  1  0.386000  0.615400  0.803000  1.0  0.1112
  H  H144  1  0.216000  0.308900  0.882600  1.0  0.0895
  H  H145  1  0.137800  0.190600  0.885400  1.0  0.122
  H  H146  1  0.022200  0.156300  0.884300  1.0  0.0944
  H  H147  1  0.987500  0.232200  0.870500  1.0  0.1232
  H  H148  1  0.959700  0.317200  0.862800  1.0  0.1236
  H  H149  1  0.943800  0.403800  0.859000  1.0  0.1125
  H  H150  1  0.042900  0.524300  0.861600  1.0  0.1271
  H  H151  1  0.151500  0.533000  0.861800  1.0  0.0715
  H  H152  1  0.107770  0.774130  0.990830  1.0  0.1118
  H  H153  1  0.089370  0.733930  0.036630  1.0  0.1052
  H  H154  1  0.032170  0.671830  0.952830  1.0  0.0887
  H  H155  1  0.019770  0.601730  0.034630  1.0  0.1095
  H  H156  1  0.962070  0.615330  0.017330  1.0  0.0932
  H  H157  1  0.137270  0.663130  0.000930  1.0  0.1023
  H  H158  1  0.099170  0.616330  0.959330  1.0  0.1051
  H  H159  1  0.997170  0.931930  0.926430  1.0  0.0984
  H  H160  1  0.054170  0.949230  0.962730  1.0  0.0973
  H  H161  1  0.730970  0.438230  0.042730  1.0  0.0808
  H  H162  1  0.728970  0.399730  0.087330  1.0  0.0926
  H  H163  1  0.916770  0.648430  0.081230  1.0  0.0792
  H  H164  1  0.832070  0.539430  0.099930  1.0  0.1133
  H  H165  1  0.720870  0.515730  0.106130  1.0  0.105
  H  H166  1  0.694970  0.602530  0.093430  1.0  0.1327
  H  H167  1  0.686370  0.695730  0.095230  1.0  0.1242
  H  H168  1  0.682070  0.797230  0.084230  1.0  0.108
  H  H169  1  0.779570  0.895930  0.062130  1.0  0.1152
  H  H170  1  0.877170  0.890930  0.046730  1.0  0.076
  H  H171  1  0.044470  0.458130  0.988130  1.0  0.0924
  H  H172  1  0.121470  0.417730  0.985830  1.0  0.1293
  H  H173  1  0.080770  0.303530  0.972330  1.0  0.0967
  H  H174  1  0.963970  0.227830  0.968230  1.0  0.1239
  H  H175  1  0.851470  0.164930  0.963630  1.0  0.12
  H  H176  1  0.733270  0.107930  0.949630  1.0  0.1149
  H  H177  1  0.677870  0.171730  0.947630  1.0  0.1154
  H  H178  1  0.741270  0.288930  0.960630  1.0  0.0814
  H  H179  1  0.397800  0.730400  0.765000  1.0  0.0894
  H  H180  1  0.384600  0.770600  0.803000  1.0  0.1124
  H  H181  1  0.691100  0.907100  0.882600  1.0  0.0886
  H  H182  1  0.809400  0.947200  0.885400  1.0  0.1231
  H  H183  1  0.843700  0.865900  0.884300  1.0  0.0949
  H  H184  1  0.767800  0.755300  0.870500  1.0  0.1217
  H  H185  1  0.682800  0.642500  0.862800  1.0  0.1236
  H  H186  1  0.596200  0.540000  0.859000  1.0  0.1132
  H  H187  1  0.475700  0.518600  0.861600  1.0  0.1286
  H  H188  1  0.467000  0.618500  0.861800  1.0  0.0725
  H  H189  1  0.225870  0.333630  0.990830  1.0  0.1109
  H  H190  1  0.266070  0.355430  0.036630  1.0  0.1057
  H  H191  1  0.328170  0.360330  0.952830  1.0  0.0895
  H  H192  1  0.398270  0.418030  0.034630  1.0  0.1103
  H  H193  1  0.384670  0.346730  0.017330  1.0  0.0915
  H  H194  1  0.336870  0.474130  0.000930  1.0  0.1014
  H  H195  1  0.383670  0.482830  0.959330  1.0  0.1024
  H  H196  1  0.068070  0.065230  0.926430  1.0  0.098
  H  H197  1  0.050770  0.104930  0.962730  1.0  0.098
  H  H198  1  0.561770  0.292730  0.042730  1.0  0.0807
  H  H199  1  0.600270  0.329230  0.087330  1.0  0.092
  H  H200  1  0.351570  0.268330  0.081230  1.0  0.0782
  H  H201  1  0.460570  0.292630  0.099930  1.0  0.1138
  H  H202  1  0.484270  0.205130  0.106130  1.0  0.1071
  H  H203  1  0.397470  0.092430  0.093430  1.0  0.1302
  H  H204  1  0.304270  0.990630  0.095230  1.0  0.1246
  H  H205  1  0.202770  0.884830  0.084230  1.0  0.1083
  H  H206  1  0.104070  0.883630  0.062130  1.0  0.1137
  H  H207  1  0.109070  0.986230  0.046730  1.0  0.0772
  H  H208  1  0.541870  0.586330  0.988130  1.0  0.0933
  H  H209  1  0.582270  0.703730  0.985830  1.0  0.1285
  H  H210  1  0.696470  0.777230  0.972330  1.0  0.0956
  H  H211  1  0.772170  0.736130  0.968230  1.0  0.123
  H  H212  1  0.835070  0.686530  0.963630  1.0  0.12
  H  H213  1  0.892070  0.625330  0.949630  1.0  0.1167
  H  H214  1  0.828270  0.506130  0.947630  1.0  0.1156
  H  H215  1  0.711070  0.452330  0.960630  1.0  0.0841
  H  H216  1  0.269600  0.667400  0.765000  1.0  0.0913
  H  H217  1  0.229400  0.614000  0.803000  1.0  0.115
  H  H218  1  0.092900  0.784000  0.882600  1.0  0.0899
  H  H219  1  0.052800  0.862200  0.885400  1.0  0.1245
  H  H220  1  0.134100  0.977800  0.884300  1.0  0.0929
  H  H221  1  0.244700  0.012500  0.870500  1.0  0.1222
  H  H222  1  0.357500  0.040300  0.862800  1.0  0.1239
  H  H223  1  0.460000  0.056200  0.859000  1.0  0.1117
  H  H224  1  0.481400  0.957100  0.861600  1.0  0.127
  H  H225  1  0.381500  0.848500  0.861800  1.0  0.0712
  H  H226  1  0.666370  0.892230  0.990830  1.0  0.1144
  H  H227  1  0.644570  0.910630  0.036630  1.0  0.1064
  H  H228  1  0.639670  0.967830  0.952830  1.0  0.0885
  H  H229  1  0.581970  0.980230  0.034630  1.0  0.1121
  H  H230  1  0.653270  0.037930  0.017330  1.0  0.0934
  H  H231  1  0.525870  0.862730  0.000930  1.0  0.1034
  H  H232  1  0.517170  0.900830  0.959330  1.0  0.1035
  H  H233  1  0.934770  0.002830  0.926430  1.0  0.0991
  H  H234  1  0.895070  0.945830  0.962730  1.0  0.0978
  H  H235  1  0.707270  0.269030  0.042730  1.0  0.0832
  H  H236  1  0.670770  0.271030  0.087330  1.0  0.0895
  H  H237  1  0.731670  0.083230  0.081230  1.0  0.0802
  H  H238  1  0.707370  0.167930  0.099930  1.0  0.1142
  H  H239  1  0.794870  0.279130  0.106130  1.0  0.1042
  H  H240  1  0.907570  0.305030  0.093430  1.0  0.1324
  H  H241  1  0.009370  0.313630  0.095230  1.0  0.1257
  H  H242  1  0.115170  0.317930  0.084230  1.0  0.1075
  H  H243  1  0.116370  0.220430  0.062130  1.0  0.1155
  H  H244  1  0.013770  0.122830  0.046730  1.0  0.0765
  H  H245  1  0.413670  0.955530  0.988130  1.0  0.0924
  H  H246  1  0.296270  0.878530  0.985830  1.0  0.1294
  H  H247  1  0.222770  0.919230  0.972330  1.0  0.0938
  H  H248  1  0.263870  0.036030  0.968230  1.0  0.1235
  H  H249  1  0.313470  0.148530  0.963630  1.0  0.1194
  H  H250  1  0.374670  0.266730  0.949630  1.0  0.116
  H  H251  1  0.493870  0.322130  0.947630  1.0  0.1152
  H  H252  1  0.547670  0.258730  0.960630  1.0  0.0817
  H  H253  1  0.333333  0.666667  0.847400  1.0  0.0903
  H  H254  1  0.000000  0.000000  0.008130  1.0  0.0803
  H  H255  1  0.666667  0.333333  0.004430  1.0  0.0781
  H  H256  1  0.999270  0.935530  0.098330  1.0  0.09
  H  H257  1  0.052670  0.948730  0.136330  1.0  0.1112
  H  H258  1  0.882670  0.642230  0.215930  1.0  0.0895
  H  H259  1  0.804470  0.523930  0.218730  1.0  0.1221
  H  H260  1  0.688870  0.489630  0.217630  1.0  0.0944
  H  H261  1  0.654170  0.565530  0.203830  1.0  0.1232
  H  H262  1  0.626370  0.650530  0.196130  1.0  0.1236
  H  H263  1  0.610470  0.737130  0.192330  1.0  0.1125
  H  H264  1  0.709570  0.857630  0.194930  1.0  0.127
  H  H265  1  0.818170  0.866330  0.195130  1.0  0.0715
  H  H266  1  0.774430  0.107470  0.324170  1.0  0.1118
  H  H267  1  0.756030  0.067270  0.369970  1.0  0.1052
  H  H268  1  0.698830  0.005170  0.286170  1.0  0.0887
  H  H269  1  0.686430  0.935070  0.367970  1.0  0.1095
  H  H270  1  0.628730  0.948670  0.350670  1.0  0.0932
  H  H271  1  0.803930  0.996470  0.334270  1.0  0.0996
  H  H272  1  0.765830  0.949670  0.292670  1.0  0.1053
  H  H273  1  0.663830  0.265270  0.259770  1.0  0.0985
  H  H274  1  0.720830  0.282570  0.296070  1.0  0.0969
  H  H275  1  0.397630  0.771570  0.376070  1.0  0.0808
  H  H276  1  0.395630  0.733070  0.420670  1.0  0.0881
  H  H277  1  0.583430  0.981770  0.414570  1.0  0.0792
  H  H278  1  0.498730  0.872770  0.433270  1.0  0.1133
  H  H279  1  0.387530  0.849070  0.439470  1.0  0.105
  H  H280  1  0.361630  0.935870  0.426770  1.0  0.1327
  H  H281  1  0.353030  0.029070  0.428570  1.0  0.1242
  H  H282  1  0.348730  0.130570  0.417570  1.0  0.108
  H  H283  1  0.446230  0.229270  0.395470  1.0  0.1152
  H  H284  1  0.543830  0.224270  0.380070  1.0  0.076
  H  H285  1  0.711130  0.791470  0.321470  1.0  0.0924
  H  H286  1  0.788130  0.751070  0.319170  1.0  0.1293
  H  H287  1  0.747430  0.636870  0.305670  1.0  0.0967
  H  H288  1  0.630630  0.561170  0.301570  1.0  0.1239
  H  H289  1  0.518130  0.498270  0.296970  1.0  0.12
  H  H290  1  0.399930  0.441270  0.282970  1.0  0.1149
  H  H291  1  0.344530  0.505070  0.280970  1.0  0.1154
  H  H292  1  0.407930  0.622270  0.293970  1.0  0.0833
  H  H293  1  0.064470  0.063730  0.098330  1.0  0.0894
  H  H294  1  0.051270  0.103930  0.136330  1.0  0.1124
  H  H295  1  0.357770  0.240430  0.215930  1.0  0.0886
  H  H296  1  0.476070  0.280530  0.218730  1.0  0.1231
  H  H297  1  0.510370  0.199230  0.217630  1.0  0.0949
  H  H298  1  0.434470  0.088630  0.203830  1.0  0.1217
  H  H299  1  0.349470  0.975830  0.196130  1.0  0.1236
  H  H300  1  0.262870  0.873330  0.192330  1.0  0.1132
  H  H301  1  0.142370  0.851930  0.194930  1.0  0.1286
  H  H302  1  0.133670  0.951830  0.195130  1.0  0.0725
  H  H303  1  0.892530  0.666970  0.324170  1.0  0.1109
  H  H304  1  0.932730  0.688770  0.369970  1.0  0.1057
  H  H305  1  0.994830  0.693670  0.286170  1.0  0.0895
  H  H306  1  0.064930  0.751370  0.367970  1.0  0.1103
  H  H307  1  0.051330  0.680070  0.350670  1.0  0.0915
  H  H308  1  0.003530  0.807470  0.334270  1.0  0.1042
  H  H309  1  0.050330  0.816170  0.292670  1.0  0.1024
  H  H310  1  0.734730  0.398570  0.259770  1.0  0.0994
  H  H311  1  0.717430  0.438270  0.296070  1.0  0.098
  H  H312  1  0.228430  0.626070  0.376070  1.0  0.0807
  H  H313  1  0.266930  0.662570  0.420670  1.0  0.0892
  H  H314  1  0.018230  0.601670  0.414570  1.0  0.0782
  H  H315  1  0.127230  0.625970  0.433270  1.0  0.1138
  H  H316  1  0.150930  0.538470  0.439470  1.0  0.1071
  H  H317  1  0.064130  0.425770  0.426770  1.0  0.1302
  H  H318  1  0.970930  0.323970  0.428570  1.0  0.1246
  H  H319  1  0.869430  0.218170  0.417570  1.0  0.1083
  H  H320  1  0.770730  0.216970  0.395470  1.0  0.1137
  H  H321  1  0.775730  0.319570  0.380070  1.0  0.0772
  H  H322  1  0.208530  0.919670  0.321470  1.0  0.0933
  H  H323  1  0.248930  0.037070  0.319170  1.0  0.1285
  H  H324  1  0.363130  0.110570  0.305670  1.0  0.0956
  H  H325  1  0.438830  0.069470  0.301570  1.0  0.123
  H  H326  1  0.501730  0.019870  0.296970  1.0  0.12
  H  H327  1  0.558730  0.958670  0.282970  1.0  0.1167
  H  H328  1  0.494930  0.839470  0.280970  1.0  0.1156
  H  H329  1  0.377730  0.785670  0.293970  1.0  0.0816
  H  H330  1  0.936270  0.000730  0.098330  1.0  0.0913
  H  H331  1  0.896070  0.947330  0.136330  1.0  0.115
  H  H332  1  0.759570  0.117330  0.215930  1.0  0.0899
  H  H333  1  0.719470  0.195530  0.218730  1.0  0.1246
  H  H334  1  0.800770  0.311130  0.217630  1.0  0.093
  H  H335  1  0.911370  0.345830  0.203830  1.0  0.1222
  H  H336  1  0.024170  0.373630  0.196130  1.0  0.1239
  H  H337  1  0.126670  0.389530  0.192330  1.0  0.1117
  H  H338  1  0.148070  0.290430  0.194930  1.0  0.1269
  H  H339  1  0.048170  0.181830  0.195130  1.0  0.0712
  H  H340  1  0.333030  0.225570  0.324170  1.0  0.1144
  H  H341  1  0.311230  0.243970  0.369970  1.0  0.1064
  H  H342  1  0.306330  0.301170  0.286170  1.0  0.0885
  H  H343  1  0.248630  0.313570  0.367970  1.0  0.1121
  H  H344  1  0.319930  0.371270  0.350670  1.0  0.0934
  H  H345  1  0.192530  0.196070  0.334270  1.0  0.1032
  H  H346  1  0.183830  0.234170  0.292670  1.0  0.1035
  H  H347  1  0.601430  0.336170  0.259770  1.0  0.099
  H  H348  1  0.561730  0.279170  0.296070  1.0  0.0982
  H  H349  1  0.373930  0.602370  0.376070  1.0  0.0832
  H  H350  1  0.337430  0.604370  0.420670  1.0  0.0906
  H  H351  1  0.398330  0.416570  0.414570  1.0  0.0802
  H  H352  1  0.374030  0.501270  0.433270  1.0  0.1142
  H  H353  1  0.461530  0.612470  0.439470  1.0  0.1042
  H  H354  1  0.574230  0.638370  0.426770  1.0  0.1324
  H  H355  1  0.676030  0.646970  0.428570  1.0  0.1257
  H  H356  1  0.781830  0.651270  0.417570  1.0  0.1075
  H  H357  1  0.783030  0.553770  0.395470  1.0  0.1155
  H  H358  1  0.680430  0.456170  0.380070  1.0  0.0765
  H  H359  1  0.080330  0.288870  0.321470  1.0  0.0924
  H  H360  1  0.962930  0.211870  0.319170  1.0  0.1294
  H  H361  1  0.889430  0.252570  0.305670  1.0  0.0938
  H  H362  1  0.930530  0.369370  0.301570  1.0  0.1235
  H  H363  1  0.980130  0.481870  0.296970  1.0  0.1194
  H  H364  1  0.041330  0.600070  0.282970  1.0  0.116
  H  H365  1  0.160530  0.655470  0.280970  1.0  0.1152
  H  H366  1  0.214330  0.592070  0.293970  1.0  0.0823
  H  H367  1  0.000000  0.000000  0.180730  1.0  0.0903
  H  H368  1  0.666667  0.333333  0.341470  1.0  0.0803
  H  H369  1  0.333333  0.666667  0.337770  1.0  0.0781
  C  C370  1  0.345100  0.415000  0.680000  1.0  0.7408
  C  C371  1  0.404900  0.402500  0.673800  1.0  -0.3074
  C  C372  1  0.385300  0.336900  0.648500  1.0  0.1012
  C  C373  1  0.331800  0.273800  0.674400  1.0  -0.2811
  C  C374  1  0.300400  0.207400  0.647800  1.0  0.7312
  C  C375  1  0.448000  0.327700  0.639300  1.0  -0.3056
  C  C376  1  0.498500  0.382400  0.607800  1.0  0.7013
  C  C377  1  0.292200  0.540500  0.650780  1.0  0.6925
  C  C378  1  0.340700  0.605600  0.625090  1.0  -0.2614
  C  C379  1  0.129200  0.065700  0.707300  1.0  0.7174
  C  C380  1  0.064000  0.064700  0.721300  1.0  -0.2449
  C  C381  1  0.205200  0.305900  0.750500  1.0  0.1665
  C  C382  1  0.154500  0.240300  0.761700  1.0  -0.1616
  C  C383  1  0.088800  0.226400  0.765400  1.0  -0.1056
  C  C384  1  0.073300  0.278100  0.758300  1.0  -0.1189
  C  C385  1  0.126800  0.343700  0.748300  1.0  0.1978
  C  C386  1  0.117600  0.404000  0.743000  1.0  0.1976
  C  C387  1  0.058000  0.402400  0.751900  1.0  -0.1373
  C  C388  1  0.055900  0.463500  0.745700  1.0  -0.0975
  C  C389  1  0.113200  0.521700  0.732100  1.0  -0.1043
  C  C390  1  0.171500  0.518400  0.723400  1.0  0.1097
  C  C391  1  0.361300  0.078200  0.651000  1.0  0.159
  C  C392  1  0.408100  0.054400  0.649000  1.0  -0.1372
  C  C393  1  0.383500  0.986400  0.641800  1.0  -0.0752
  C  C394  1  0.314300  0.941200  0.638800  1.0  -0.1428
  C  C395  1  0.270900  0.968300  0.641700  1.0  0.176
  C  C396  1  0.196500  0.926000  0.635900  1.0  0.1659
  C  C397  1  0.161500  0.856000  0.629300  1.0  -0.1455
  C  C398  1  0.090800  0.821800  0.621000  1.0  -0.1002
  C  C399  1  0.058000  0.859400  0.620000  1.0  -0.132
  C  C400  1  0.096800  0.930200  0.627700  1.0  0.1553
  C  C401  1  0.624030  0.204270  0.484930  1.0  0.7158
  C  C402  1  0.672930  0.272470  0.464080  1.0  -0.2804
  C  C403  1  0.502730  0.959970  0.546970  1.0  0.1706
  C  C404  1  0.456230  0.888870  0.549270  1.0  -0.1411
  C  C405  1  0.388030  0.868970  0.547270  1.0  -0.089
  C  C406  1  0.367330  0.913670  0.540070  1.0  -0.1824
  C  C407  1  0.415730  0.982970  0.537070  1.0  0.2159
  C  C408  1  0.400430  0.038070  0.532770  1.0  0.1109
  C  C409  1  0.330630  0.027970  0.529770  1.0  -0.1836
  C  C410  1  0.321630  0.078170  0.527770  1.0  -0.1252
  C  C411  1  0.381830  0.152770  0.528570  1.0  -0.1572
  C  C412  1  0.445930  0.156470  0.529670  1.0  0.1794
  C  C413  1  0.585000  0.930100  0.680000  1.0  0.7441
  C  C414  1  0.597500  0.002400  0.673800  1.0  -0.309
  C  C415  1  0.663100  0.048400  0.648500  1.0  0.1021
  C  C416  1  0.726200  0.058000  0.674400  1.0  -0.2824
  C  C417  1  0.792600  0.093000  0.647800  1.0  0.7295
  C  C418  1  0.672300  0.120300  0.639300  1.0  -0.3111
  C  C419  1  0.617600  0.116100  0.607800  1.0  0.7052
  C  C420  1  0.459500  0.751700  0.650780  1.0  0.6898
  C  C421  1  0.394400  0.735100  0.625090  1.0  -0.2609
  C  C422  1  0.934300  0.063500  0.707300  1.0  0.718
  C  C423  1  0.935300  0.999300  0.721300  1.0  -0.2491
  C  C424  1  0.694100  0.899300  0.750500  1.0  0.1629
  C  C425  1  0.759700  0.914200  0.761700  1.0  -0.1581
  C  C426  1  0.773600  0.862400  0.765400  1.0  -0.1077
  C  C427  1  0.721900  0.795200  0.758300  1.0  -0.1144
  C  C428  1  0.656300  0.783100  0.748300  1.0  0.197
  C  C429  1  0.596000  0.713600  0.743000  1.0  0.198
  C  C430  1  0.597600  0.655600  0.751900  1.0  -0.146
  C  C431  1  0.536500  0.592400  0.745700  1.0  -0.0925
  C  C432  1  0.478300  0.591500  0.732100  1.0  -0.1105
  C  C433  1  0.481600  0.653100  0.723400  1.0  0.1081
  C  C434  1  0.921800  0.283100  0.651000  1.0  0.1624
  C  C435  1  0.945600  0.353700  0.649000  1.0  -0.1432
  C  C436  1  0.013600  0.397100  0.641800  1.0  -0.0719
  C  C437  1  0.058800  0.373100  0.638800  1.0  -0.1422
  C  C438  1  0.031700  0.302600  0.641700  1.0  0.1756
  C  C439  1  0.074000  0.270500  0.635900  1.0  0.1654
  C  C440  1  0.144000  0.305500  0.629300  1.0  -0.1477
  C  C441  1  0.178200  0.269000  0.621000  1.0  -0.1004
  C  C442  1  0.140600  0.198600  0.620000  1.0  -0.1322
  C  C443  1  0.069800  0.166600  0.627700  1.0  0.1565
  C  C444  1  0.795730  0.419770  0.484930  1.0  0.7142
  C  C445  1  0.727530  0.400470  0.464080  1.0  -0.2786
  C  C446  1  0.040030  0.542770  0.546970  1.0  0.1671
  C  C447  1  0.111130  0.567370  0.549270  1.0  -0.1383
  C  C448  1  0.131030  0.519070  0.547270  1.0  -0.0931
  C  C449  1  0.086330  0.453670  0.540070  1.0  -0.1757
  C  C450  1  0.017030  0.432770  0.537070  1.0  0.2162
  C  C451  1  0.961930  0.362370  0.532770  1.0  0.1109
  C  C452  1  0.972030  0.302670  0.529770  1.0  -0.1846
  C  C453  1  0.921830  0.243470  0.527770  1.0  -0.1231
  C  C454  1  0.847230  0.229070  0.528570  1.0  -0.1519
  C  C455  1  0.843530  0.289470  0.529670  1.0  0.1784
  C  C456  1  0.069900  0.654900  0.680000  1.0  0.7422
  C  C457  1  0.997600  0.595100  0.673800  1.0  -0.3094
  C  C458  1  0.951600  0.614700  0.648500  1.0  0.1022
  C  C459  1  0.942000  0.668200  0.674400  1.0  -0.2836
  C  C460  1  0.907000  0.699600  0.647800  1.0  0.7264
  C  C461  1  0.879700  0.552000  0.639300  1.0  -0.3041
  C  C462  1  0.883900  0.501500  0.607800  1.0  0.7049
  C  C463  1  0.248300  0.707800  0.650780  1.0  0.6901
  C  C464  1  0.264900  0.659300  0.625090  1.0  -0.2623
  C  C465  1  0.936500  0.870800  0.707300  1.0  0.7205
  C  C466  1  0.000700  0.936000  0.721300  1.0  -0.2409
  C  C467  1  0.100700  0.794800  0.750500  1.0  0.1604
  C  C468  1  0.085800  0.845500  0.761700  1.0  -0.1616
  C  C469  1  0.137600  0.911200  0.765400  1.0  -0.1054
  C  C470  1  0.204800  0.926700  0.758300  1.0  -0.1192
  C  C471  1  0.216900  0.873200  0.748300  1.0  0.1977
  C  C472  1  0.286400  0.882400  0.743000  1.0  0.1959
  C  C473  1  0.344400  0.942000  0.751900  1.0  -0.1464
  C  C474  1  0.407600  0.944100  0.745700  1.0  -0.0873
  C  C475  1  0.408500  0.886800  0.732100  1.0  -0.1122
  C  C476  1  0.346900  0.828500  0.723400  1.0  0.1099
  C  C477  1  0.716900  0.638700  0.651000  1.0  0.1605
  C  C478  1  0.646300  0.591900  0.649000  1.0  -0.1382
  C  C479  1  0.602900  0.616500  0.641800  1.0  -0.0739
  C  C480  1  0.626900  0.685700  0.638800  1.0  -0.1421
  C  C481  1  0.697400  0.729100  0.641700  1.0  0.176
  C  C482  1  0.729500  0.803500  0.635900  1.0  0.1657
  C  C483  1  0.694500  0.838500  0.629300  1.0  -0.1448
  C  C484  1  0.731000  0.909200  0.621000  1.0  -0.0989
  C  C485  1  0.801400  0.942000  0.620000  1.0  -0.1313
  C  C486  1  0.833400  0.903200  0.627700  1.0  0.1537
  C  C487  1  0.580230  0.375970  0.484930  1.0  0.7154
  C  C488  1  0.599530  0.327070  0.464080  1.0  -0.2838
  C  C489  1  0.457230  0.497270  0.546970  1.0  0.1651
  C  C490  1  0.432630  0.543770  0.549270  1.0  -0.141
  C  C491  1  0.480930  0.611970  0.547270  1.0  -0.0907
  C  C492  1  0.546330  0.632670  0.540070  1.0  -0.1804
  C  C493  1  0.567230  0.584270  0.537070  1.0  0.2167
  C  C494  1  0.637630  0.599570  0.532770  1.0  0.1113
  C  C495  1  0.697330  0.669370  0.529770  1.0  -0.1863
  C  C496  1  0.756530  0.678370  0.527770  1.0  -0.1221
  C  C497  1  0.770930  0.618170  0.528570  1.0  -0.1502
  C  C498  1  0.710530  0.554070  0.529670  1.0  0.1827
  C  C499  1  0.333333  0.666667  0.641700  1.0  0.0425
  C  C500  1  0.666667  0.333333  0.480970  1.0  0.0789
  C  C501  1  0.000000  0.000000  0.704200  1.0  0.077
  C  C502  1  0.290700  0.537600  0.818260  1.0  0.7158
  C  C503  1  0.339600  0.605800  0.797410  1.0  -0.2804
  C  C504  1  0.169400  0.293300  0.880300  1.0  0.1706
  C  C505  1  0.122900  0.222200  0.882600  1.0  -0.1411
  C  C506  1  0.054700  0.202300  0.880600  1.0  -0.089
  C  C507  1  0.034000  0.247000  0.873400  1.0  -0.1824
  C  C508  1  0.082400  0.316300  0.870400  1.0  0.2159
  C  C509  1  0.067100  0.371400  0.866100  1.0  0.1109
  C  C510  1  0.997300  0.361300  0.863100  1.0  -0.1836
  C  C511  1  0.988300  0.411500  0.861100  1.0  -0.1252
  C  C512  1  0.048500  0.486100  0.861900  1.0  -0.1572
  C  C513  1  0.112600  0.489800  0.863000  1.0  0.1794
  C  C514  1  0.011770  0.748330  0.013330  1.0  0.7408
  C  C515  1  0.071570  0.735830  0.007130  1.0  -0.3074
  C  C516  1  0.051970  0.670230  0.981830  1.0  0.1012
  C  C517  1  0.998470  0.607130  0.007730  1.0  -0.2811
  C  C518  1  0.967070  0.540730  0.981130  1.0  0.7312
  C  C519  1  0.114670  0.661030  0.972630  1.0  -0.3056
  C  C520  1  0.165170  0.715730  0.941130  1.0  0.7013
  C  C521  1  0.958870  0.873830  0.984110  1.0  0.6925
  C  C522  1  0.007370  0.938930  0.958420  1.0  -0.2614
  C  C523  1  0.795870  0.399030  0.040630  1.0  0.7174
  C  C524  1  0.730670  0.398030  0.054630  1.0  -0.2449
  C  C525  1  0.871870  0.639230  0.083830  1.0  0.1665
  C  C526  1  0.821170  0.573630  0.095030  1.0  -0.1616
  C  C527  1  0.755470  0.559730  0.098730  1.0  -0.1056
  C  C528  1  0.739970  0.611430  0.091630  1.0  -0.1189
  C  C529  1  0.793470  0.677030  0.081630  1.0  0.1978
  C  C530  1  0.784270  0.737330  0.076330  1.0  0.1976
  C  C531  1  0.724670  0.735730  0.085230  1.0  -0.1373
  C  C532  1  0.722570  0.796830  0.079030  1.0  -0.0975
  C  C533  1  0.779870  0.855030  0.065430  1.0  -0.1043
  C  C534  1  0.838170  0.851730  0.056730  1.0  0.1097
  C  C535  1  0.027970  0.411530  0.984330  1.0  0.159
  C  C536  1  0.074770  0.387730  0.982330  1.0  -0.1372
  C  C537  1  0.050170  0.319730  0.975130  1.0  -0.0752
  C  C538  1  0.980970  0.274530  0.972130  1.0  -0.1428
  C  C539  1  0.937570  0.301630  0.975030  1.0  0.176
  C  C540  1  0.863170  0.259330  0.969230  1.0  0.1659
  C  C541  1  0.828170  0.189330  0.962630  1.0  -0.1455
  C  C542  1  0.757470  0.155130  0.954330  1.0  -0.1002
  C  C543  1  0.724670  0.192730  0.953330  1.0  -0.132
  C  C544  1  0.763470  0.263530  0.961030  1.0  0.1553
  C  C545  1  0.462400  0.753100  0.818260  1.0  0.7142
  C  C546  1  0.394200  0.733800  0.797410  1.0  -0.2786
  C  C547  1  0.706700  0.876100  0.880300  1.0  0.1671
  C  C548  1  0.777800  0.900700  0.882600  1.0  -0.1383
  C  C549  1  0.797700  0.852400  0.880600  1.0  -0.0931
  C  C550  1  0.753000  0.787000  0.873400  1.0  -0.1757
  C  C551  1  0.683700  0.766100  0.870400  1.0  0.2162
  C  C552  1  0.628600  0.695700  0.866100  1.0  0.1109
  C  C553  1  0.638700  0.636000  0.863100  1.0  -0.1846
  C  C554  1  0.588500  0.576800  0.861100  1.0  -0.1231
  C  C555  1  0.513900  0.562400  0.861900  1.0  -0.1519
  C  C556  1  0.510200  0.622800  0.863000  1.0  0.1784
  C  C557  1  0.251670  0.263430  0.013330  1.0  0.7441
  C  C558  1  0.264170  0.335730  0.007130  1.0  -0.309
  C  C559  1  0.329770  0.381730  0.981830  1.0  0.1021
  C  C560  1  0.392870  0.391330  0.007730  1.0  -0.2824
  C  C561  1  0.459270  0.426330  0.981130  1.0  0.7295
  C  C562  1  0.338970  0.453630  0.972630  1.0  -0.3111
  C  C563  1  0.284270  0.449430  0.941130  1.0  0.7052
  C  C564  1  0.126170  0.085030  0.984110  1.0  0.69
  C  C565  1  0.061070  0.068430  0.958420  1.0  -0.261
  C  C566  1  0.600970  0.396830  0.040630  1.0  0.718
  C  C567  1  0.601970  0.332630  0.054630  1.0  -0.2491
  C  C568  1  0.360770  0.232630  0.083830  1.0  0.1629
  C  C569  1  0.426370  0.247530  0.095030  1.0  -0.1581
  C  C570  1  0.440270  0.195730  0.098730  1.0  -0.1077
  C  C571  1  0.388570  0.128530  0.091630  1.0  -0.1144
  C  C572  1  0.322970  0.116430  0.081630  1.0  0.197
  C  C573  1  0.262670  0.046930  0.076330  1.0  0.198
  C  C574  1  0.264270  0.988930  0.085230  1.0  -0.146
  C  C575  1  0.203170  0.925730  0.079030  1.0  -0.0925
  C  C576  1  0.144970  0.924830  0.065430  1.0  -0.1105
  C  C577  1  0.148270  0.986430  0.056730  1.0  0.1085
  C  C578  1  0.588470  0.616430  0.984330  1.0  0.1624
  C  C579  1  0.612270  0.687030  0.982330  1.0  -0.1432
  C  C580  1  0.680270  0.730430  0.975130  1.0  -0.0719
  C  C581  1  0.725470  0.706430  0.972130  1.0  -0.1422
  C  C582  1  0.698370  0.635930  0.975030  1.0  0.1756
  C  C583  1  0.740670  0.603830  0.969230  1.0  0.1654
  C  C584  1  0.810670  0.638830  0.962630  1.0  -0.1477
  C  C585  1  0.844870  0.602330  0.954330  1.0  -0.1004
  C  C586  1  0.807270  0.531930  0.953330  1.0  -0.1322
  C  C587  1  0.736470  0.499930  0.961030  1.0  0.1565
  C  C588  1  0.246900  0.709300  0.818260  1.0  0.7154
  C  C589  1  0.266200  0.660400  0.797410  1.0  -0.2838
  C  C590  1  0.123900  0.830600  0.880300  1.0  0.1651
  C  C591  1  0.099300  0.877100  0.882600  1.0  -0.141
  C  C592  1  0.147600  0.945300  0.880600  1.0  -0.0907
  C  C593  1  0.213000  0.966000  0.873400  1.0  -0.1804
  C  C594  1  0.233900  0.917600  0.870400  1.0  0.2167
  C  C595  1  0.304300  0.932900  0.866100  1.0  0.1113
  C  C596  1  0.364000  0.002700  0.863100  1.0  -0.1863
  C  C597  1  0.423200  0.011700  0.861100  1.0  -0.1221
  C  C598  1  0.437600  0.951500  0.861900  1.0  -0.1502
  C  C599  1  0.377200  0.887400  0.863000  1.0  0.1827
  C  C600  1  0.736570  0.988230  0.013330  1.0  0.7422
  C  C601  1  0.664270  0.928430  0.007130  1.0  -0.3094
  C  C602  1  0.618270  0.948030  0.981830  1.0  0.1022
  C  C603  1  0.608670  0.001530  0.007730  1.0  -0.2836
  C  C604  1  0.573670  0.032930  0.981130  1.0  0.7264
  C  C605  1  0.546370  0.885330  0.972630  1.0  -0.3041
  C  C606  1  0.550570  0.834830  0.941130  1.0  0.7049
  C  C607  1  0.914970  0.041130  0.984110  1.0  0.6901
  C  C608  1  0.931570  0.992630  0.958420  1.0  -0.2622
  C  C609  1  0.603170  0.204130  0.040630  1.0  0.7204
  C  C610  1  0.667370  0.269330  0.054630  1.0  -0.2409
  C  C611  1  0.767370  0.128130  0.083830  1.0  0.1604
  C  C612  1  0.752470  0.178830  0.095030  1.0  -0.1616
  C  C613  1  0.804270  0.244530  0.098730  1.0  -0.1054
  C  C614  1  0.871470  0.260030  0.091630  1.0  -0.1192
  C  C615  1  0.883570  0.206530  0.081630  1.0  0.1977
  C  C616  1  0.953070  0.215730  0.076330  1.0  0.1959
  C  C617  1  0.011070  0.275330  0.085230  1.0  -0.1464
  C  C618  1  0.074270  0.277430  0.079030  1.0  -0.0873
  C  C619  1  0.075170  0.220130  0.065430  1.0  -0.1122
  C  C620  1  0.013570  0.161830  0.056730  1.0  0.1099
  C  C621  1  0.383570  0.972030  0.984330  1.0  0.1605
  C  C622  1  0.312970  0.925230  0.982330  1.0  -0.1382
  C  C623  1  0.269570  0.949830  0.975130  1.0  -0.0739
  C  C624  1  0.293570  0.019030  0.972130  1.0  -0.1421
  C  C625  1  0.364070  0.062430  0.975030  1.0  0.176
  C  C626  1  0.396170  0.136830  0.969230  1.0  0.1657
  C  C627  1  0.361170  0.171830  0.962630  1.0  -0.1448
  C  C628  1  0.397670  0.242530  0.954330  1.0  -0.0989
  C  C629  1  0.468070  0.275330  0.953330  1.0  -0.1313
  C  C630  1  0.500070  0.236530  0.961030  1.0  0.1537
  C  C631  1  0.333333  0.666667  0.814300  1.0  0.0787
  C  C632  1  0.000000  0.000000  0.975030  1.0  0.0425
  C  C633  1  0.666667  0.333333  0.037530  1.0  0.077
  C  C634  1  0.957370  0.870930  0.151590  1.0  0.7158
  C  C635  1  0.006270  0.939130  0.130740  1.0  -0.2804
  C  C636  1  0.836070  0.626630  0.213630  1.0  0.1706
  C  C637  1  0.789570  0.555530  0.215930  1.0  -0.1413
  C  C638  1  0.721370  0.535630  0.213930  1.0  -0.0891
  C  C639  1  0.700670  0.580330  0.206730  1.0  -0.1826
  C  C640  1  0.749070  0.649630  0.203730  1.0  0.2159
  C  C641  1  0.733770  0.704730  0.199430  1.0  0.1109
  C  C642  1  0.663970  0.694630  0.196430  1.0  -0.1836
  C  C643  1  0.654970  0.744830  0.194430  1.0  -0.1251
  C  C644  1  0.715170  0.819430  0.195230  1.0  -0.1572
  C  C645  1  0.779270  0.823130  0.196330  1.0  0.1794
  C  C646  1  0.678430  0.081670  0.346670  1.0  0.7408
  C  C647  1  0.738230  0.069170  0.340470  1.0  -0.3074
  C  C648  1  0.718630  0.003570  0.315170  1.0  0.1012
  C  C649  1  0.665130  0.940470  0.341070  1.0  -0.2811
  C  C650  1  0.633730  0.874070  0.314470  1.0  0.7312
  C  C651  1  0.781330  0.994370  0.305970  1.0  -0.3056
  C  C652  1  0.831830  0.049070  0.274470  1.0  0.7011
  C  C653  1  0.625530  0.207170  0.317450  1.0  0.6925
  C  C654  1  0.674030  0.272270  0.291760  1.0  -0.2614
  C  C655  1  0.462530  0.732370  0.373970  1.0  0.7174
  C  C656  1  0.397330  0.731370  0.387970  1.0  -0.2449
  C  C657  1  0.538530  0.972570  0.417170  1.0  0.1665
  C  C658  1  0.487830  0.906970  0.428370  1.0  -0.1616
  C  C659  1  0.422130  0.893070  0.432070  1.0  -0.1056
  C  C660  1  0.406630  0.944770  0.424970  1.0  -0.1189
  C  C661  1  0.460130  0.010370  0.414970  1.0  0.1978
  C  C662  1  0.450930  0.070670  0.409670  1.0  0.1976
  C  C663  1  0.391330  0.069070  0.418570  1.0  -0.1373
  C  C664  1  0.389230  0.130170  0.412370  1.0  -0.0975
  C  C665  1  0.446530  0.188370  0.398770  1.0  -0.1043
  C  C666  1  0.504830  0.185070  0.390070  1.0  0.11
  C  C667  1  0.694630  0.744870  0.317670  1.0  0.1591
  C  C668  1  0.741430  0.721070  0.315670  1.0  -0.1372
  C  C669  1  0.716830  0.653070  0.308470  1.0  -0.0752
  C  C670  1  0.647630  0.607870  0.305470  1.0  -0.1428
  C  C671  1  0.604230  0.634970  0.308370  1.0  0.1764
  C  C672  1  0.529830  0.592670  0.302570  1.0  0.1657
  C  C673  1  0.494830  0.522670  0.295970  1.0  -0.1456
  C  C674  1  0.424130  0.488470  0.287670  1.0  -0.1002
  C  C675  1  0.391330  0.526070  0.286670  1.0  -0.132
  C  C676  1  0.430130  0.596870  0.294370  1.0  0.1553
  C  C677  1  0.129070  0.086430  0.151590  1.0  0.7142
  C  C678  1  0.060870  0.067130  0.130740  1.0  -0.2786
  C  C679  1  0.373370  0.209430  0.213630  1.0  0.1671
  C  C680  1  0.444470  0.234030  0.215930  1.0  -0.1384
  C  C681  1  0.464370  0.185730  0.213930  1.0  -0.0932
  C  C682  1  0.419670  0.120330  0.206730  1.0  -0.1759
  C  C683  1  0.350370  0.099430  0.203730  1.0  0.2162
  C  C684  1  0.295270  0.029030  0.199430  1.0  0.1109
  C  C685  1  0.305370  0.969330  0.196430  1.0  -0.1846
  C  C686  1  0.255170  0.910130  0.194430  1.0  -0.1229
  C  C687  1  0.180570  0.895730  0.195230  1.0  -0.1518
  C  C688  1  0.176870  0.956130  0.196330  1.0  0.1784
  C  C689  1  0.918330  0.596770  0.346670  1.0  0.7441
  C  C690  1  0.930830  0.669070  0.340470  1.0  -0.309
  C  C691  1  0.996430  0.715070  0.315170  1.0  0.1021
  C  C692  1  0.059530  0.724670  0.341070  1.0  -0.2824
  C  C693  1  0.125930  0.759670  0.314470  1.0  0.7295
  C  C694  1  0.005630  0.786970  0.305970  1.0  -0.3111
  C  C695  1  0.950930  0.782770  0.274470  1.0  0.7052
  C  C696  1  0.792830  0.418370  0.317450  1.0  0.6898
  C  C697  1  0.727730  0.401770  0.291760  1.0  -0.2609
  C  C698  1  0.267630  0.730170  0.373970  1.0  0.718
  C  C699  1  0.268630  0.665970  0.387970  1.0  -0.2491
  C  C700  1  0.027430  0.565970  0.417170  1.0  0.1629
  C  C701  1  0.093030  0.580870  0.428370  1.0  -0.1581
  C  C702  1  0.106930  0.529070  0.432070  1.0  -0.1077
  C  C703  1  0.055230  0.461870  0.424970  1.0  -0.1144
  C  C704  1  0.989630  0.449770  0.414970  1.0  0.197
  C  C705  1  0.929330  0.380270  0.409670  1.0  0.198
  C  C706  1  0.930930  0.322270  0.418570  1.0  -0.146
  C  C707  1  0.869830  0.259070  0.412370  1.0  -0.0925
  C  C708  1  0.811630  0.258170  0.398770  1.0  -0.1105
  C  C709  1  0.814930  0.319770  0.390070  1.0  0.1085
  C  C710  1  0.255130  0.949770  0.317670  1.0  0.1625
  C  C711  1  0.278930  0.020370  0.315670  1.0  -0.1432
  C  C712  1  0.346930  0.063770  0.308470  1.0  -0.0719
  C  C713  1  0.392130  0.039770  0.305470  1.0  -0.1422
  C  C714  1  0.365030  0.969270  0.308370  1.0  0.1757
  C  C715  1  0.407330  0.937170  0.302570  1.0  0.1654
  C  C716  1  0.477330  0.972170  0.295970  1.0  -0.1477
  C  C717  1  0.511530  0.935670  0.287670  1.0  -0.1004
  C  C718  1  0.473930  0.865270  0.286670  1.0  -0.1322
  C  C719  1  0.403130  0.833270  0.294370  1.0  0.1565
  C  C720  1  0.913570  0.042630  0.151590  1.0  0.7154
  C  C721  1  0.932870  0.993730  0.130740  1.0  -0.2838
  C  C722  1  0.790570  0.163930  0.213630  1.0  0.1651
  C  C723  1  0.765970  0.210430  0.215930  1.0  -0.1411
  C  C724  1  0.814270  0.278630  0.213930  1.0  -0.0908
  C  C725  1  0.879670  0.299330  0.206730  1.0  -0.1806
  C  C726  1  0.900570  0.250930  0.203730  1.0  0.2167
  C  C727  1  0.970970  0.266230  0.199430  1.0  0.1113
  C  C728  1  0.030670  0.336030  0.196430  1.0  -0.1863
  C  C729  1  0.089870  0.345030  0.194430  1.0  -0.122
  C  C730  1  0.104270  0.284830  0.195230  1.0  -0.1502
  C  C731  1  0.043870  0.220730  0.196330  1.0  0.1827
  C  C732  1  0.403230  0.321570  0.346670  1.0  0.7422
  C  C733  1  0.330930  0.261770  0.340470  1.0  -0.3094
  C  C734  1  0.284930  0.281370  0.315170  1.0  0.1022
  C  C735  1  0.275330  0.334870  0.341070  1.0  -0.2836
  C  C736  1  0.240330  0.366270  0.314470  1.0  0.7264
  C  C737  1  0.213030  0.218670  0.305970  1.0  -0.3041
  C  C738  1  0.217230  0.168170  0.274470  1.0  0.7045
  C  C739  1  0.581630  0.374470  0.317450  1.0  0.6901
  C  C740  1  0.598230  0.325970  0.291760  1.0  -0.2623
  C  C741  1  0.269830  0.537470  0.373970  1.0  0.7205
  C  C742  1  0.334030  0.602670  0.387970  1.0  -0.2409
  C  C743  1  0.434030  0.461470  0.417170  1.0  0.1604
  C  C744  1  0.419130  0.512170  0.428370  1.0  -0.1616
  C  C745  1  0.470930  0.577870  0.432070  1.0  -0.1054
  C  C746  1  0.538130  0.593370  0.424970  1.0  -0.1192
  C  C747  1  0.550230  0.539870  0.414970  1.0  0.1977
  C  C748  1  0.619730  0.549070  0.409670  1.0  0.1959
  C  C749  1  0.677730  0.608670  0.418570  1.0  -0.1464
  C  C750  1  0.740930  0.610770  0.412370  1.0  -0.0873
  C  C751  1  0.741830  0.553470  0.398770  1.0  -0.1122
  C  C752  1  0.680230  0.495170  0.390070  1.0  0.1102
  C  C753  1  0.050230  0.305370  0.317670  1.0  0.1606
  C  C754  1  0.979630  0.258570  0.315670  1.0  -0.1381
  C  C755  1  0.936230  0.283170  0.308470  1.0  -0.0739
  C  C756  1  0.960230  0.352370  0.305470  1.0  -0.1421
  C  C757  1  0.030730  0.395770  0.308370  1.0  0.1759
  C  C758  1  0.062830  0.470170  0.302570  1.0  0.1654
  C  C759  1  0.027830  0.505170  0.295970  1.0  -0.1448
  C  C760  1  0.064330  0.575870  0.287670  1.0  -0.0989
  C  C761  1  0.134730  0.608670  0.286670  1.0  -0.1313
  C  C762  1  0.166730  0.569870  0.294370  1.0  0.1537
  C  C763  1  0.000000  0.000000  0.147630  1.0  0.0789
  C  C764  1  0.666667  0.333333  0.308370  1.0  0.0425
  C  C765  1  0.333333  0.666667  0.370870  1.0  0.077
  N  N766  1  0.191800  0.356700  0.743130  1.0  -0.3097
  N  N767  1  0.174200  0.461100  0.728790  1.0  -0.3143
  N  N768  1  0.293600  0.035700  0.647600  1.0  -0.2973
  N  N769  1  0.163700  0.962400  0.635300  1.0  -0.3154
  N  N770  1  0.482130  0.005570  0.541770  1.0  -0.3032
  N  N771  1  0.454630  0.103370  0.532370  1.0  -0.3317
  N  N772  1  0.643300  0.835100  0.743130  1.0  -0.3093
  N  N773  1  0.538900  0.713100  0.728790  1.0  -0.3175
  N  N774  1  0.964300  0.257900  0.647600  1.0  -0.2903
  N  N775  1  0.037600  0.201300  0.635300  1.0  -0.3161
  N  N776  1  0.994430  0.476570  0.541770  1.0  -0.3082
  N  N777  1  0.896630  0.351270  0.532370  1.0  -0.3305
  N  N778  1  0.164900  0.808200  0.743130  1.0  -0.3068
  N  N779  1  0.286900  0.825800  0.728790  1.0  -0.3153
  N  N780  1  0.742100  0.706400  0.647600  1.0  -0.2916
  N  N781  1  0.798700  0.836300  0.635300  1.0  -0.3144
  N  N782  1  0.523430  0.517870  0.541770  1.0  -0.3066
  N  N783  1  0.648730  0.545370  0.532370  1.0  -0.3322
  N  N784  1  0.148800  0.338900  0.875100  1.0  -0.3032
  N  N785  1  0.121300  0.436700  0.865700  1.0  -0.3317
  N  N786  1  0.858470  0.690030  0.076460  1.0  -0.3097
  N  N787  1  0.840870  0.794430  0.062120  1.0  -0.3143
  N  N788  1  0.960270  0.369030  0.980930  1.0  -0.2973
  N  N789  1  0.830370  0.295730  0.968630  1.0  -0.3154
  N  N790  1  0.661100  0.809900  0.875100  1.0  -0.3082
  N  N791  1  0.563300  0.684600  0.865700  1.0  -0.3305
  N  N792  1  0.309970  0.168430  0.076460  1.0  -0.3093
  N  N793  1  0.205570  0.046430  0.062120  1.0  -0.3175
  N  N794  1  0.630970  0.591230  0.980930  1.0  -0.2903
  N  N795  1  0.704270  0.534630  0.968630  1.0  -0.3161
  N  N796  1  0.190100  0.851200  0.875100  1.0  -0.3066
  N  N797  1  0.315400  0.878700  0.865700  1.0  -0.3322
  N  N798  1  0.831570  0.141530  0.076460  1.0  -0.3068
  N  N799  1  0.953570  0.159130  0.062120  1.0  -0.3153
  N  N800  1  0.408770  0.039730  0.980930  1.0  -0.2916
  N  N801  1  0.465370  0.169630  0.968630  1.0  -0.3144
  N  N802  1  0.815470  0.672230  0.208430  1.0  -0.3032
  N  N803  1  0.787970  0.770030  0.199030  1.0  -0.3317
  N  N804  1  0.525130  0.023370  0.409800  1.0  -0.3097
  N  N805  1  0.507530  0.127770  0.395460  1.0  -0.3143
  N  N806  1  0.626930  0.702370  0.314270  1.0  -0.2972
  N  N807  1  0.497030  0.629070  0.301970  1.0  -0.3154
  N  N808  1  0.327770  0.143230  0.208430  1.0  -0.3082
  N  N809  1  0.229970  0.017930  0.199030  1.0  -0.3305
  N  N810  1  0.976630  0.501770  0.409800  1.0  -0.3093
  N  N811  1  0.872230  0.379770  0.395460  1.0  -0.3175
  N  N812  1  0.297630  0.924570  0.314270  1.0  -0.2902
  N  N813  1  0.370930  0.867970  0.301970  1.0  -0.3161
  N  N814  1  0.856770  0.184530  0.208430  1.0  -0.3066
  N  N815  1  0.982070  0.212030  0.199030  1.0  -0.3322
  N  N816  1  0.498230  0.474870  0.409800  1.0  -0.3068
  N  N817  1  0.620230  0.492470  0.395460  1.0  -0.3153
  N  N818  1  0.075430  0.373070  0.314270  1.0  -0.2914
  N  N819  1  0.132030  0.502970  0.301970  1.0  -0.3144
  O  O820  1  0.335600  0.433800  0.719050  1.0  -0.5969
  O  O821  1  0.308400  0.407500  0.647800  1.0  -0.5566
  O  O822  1  0.282600  0.154300  0.668900  1.0  -0.584
  O  O823  1  0.291800  0.208100  0.606300  1.0  -0.5255
  O  O824  1  0.553100  0.431000  0.622600  1.0  -0.6426
  O  O825  1  0.482900  0.377200  0.565700  1.0  -0.5897
  O  O826  1  0.312100  0.538860  0.691440  1.0  -0.5716
  O  O827  1  0.238000  0.495200  0.634000  1.0  -0.5551
  O  O828  1  0.139900  0.068600  0.664880  1.0  -0.6042
  O  O829  1  0.167600  0.062000  0.735850  1.0  -0.6072
  O  O830  1  0.609830  0.149570  0.464910  1.0  -0.6799
  O  O831  1  0.598630  0.203970  0.523440  1.0  -0.5835
  O  O832  1  0.566200  0.901800  0.719050  1.0  -0.5961
  O  O833  1  0.592500  0.900900  0.647800  1.0  -0.5577
  O  O834  1  0.845700  0.128300  0.668900  1.0  -0.5825
  O  O835  1  0.791900  0.083700  0.606300  1.0  -0.525
  O  O836  1  0.569000  0.122100  0.622600  1.0  -0.6429
  O  O837  1  0.622800  0.105700  0.565700  1.0  -0.5899
  O  O838  1  0.461140  0.773240  0.691440  1.0  -0.5739
  O  O839  1  0.504800  0.742800  0.634000  1.0  -0.5545
  O  O840  1  0.931400  0.071300  0.664880  1.0  -0.6028
  O  O841  1  0.938000  0.105600  0.735850  1.0  -0.6056
  O  O842  1  0.850430  0.460270  0.464910  1.0  -0.6742
  O  O843  1  0.796030  0.394670  0.523440  1.0  -0.5847
  O  O844  1  0.098200  0.664400  0.719050  1.0  -0.5973
  O  O845  1  0.099100  0.691600  0.647800  1.0  -0.5561
  O  O846  1  0.871700  0.717400  0.668900  1.0  -0.584
  O  O847  1  0.916300  0.708200  0.606300  1.0  -0.5252
  O  O848  1  0.877900  0.446900  0.622600  1.0  -0.6463
  O  O849  1  0.894300  0.517100  0.565700  1.0  -0.5892
  O  O850  1  0.226760  0.687900  0.691440  1.0  -0.5714
  O  O851  1  0.257200  0.762000  0.634000  1.0  -0.5547
  O  O852  1  0.928700  0.860100  0.664880  1.0  -0.6032
  O  O853  1  0.894400  0.832400  0.735850  1.0  -0.6051
  O  O854  1  0.539730  0.390170  0.464910  1.0  -0.6771
  O  O855  1  0.605330  0.401370  0.523440  1.0  -0.5833
  O  O856  1  0.276500  0.482900  0.798240  1.0  -0.6799
  O  O857  1  0.265300  0.537300  0.856770  1.0  -0.5835
  O  O858  1  0.002270  0.767130  0.052380  1.0  -0.5969
  O  O859  1  0.975070  0.740830  0.981130  1.0  -0.5566
  O  O860  1  0.949270  0.487630  0.002230  1.0  -0.584
  O  O861  1  0.958470  0.541430  0.939630  1.0  -0.5255
  O  O862  1  0.219770  0.764330  0.955930  1.0  -0.6426
  O  O863  1  0.149570  0.710530  0.899030  1.0  -0.5897
  O  O864  1  0.978770  0.872190  0.024770  1.0  -0.5716
  O  O865  1  0.904670  0.828530  0.967330  1.0  -0.5551
  O  O866  1  0.806570  0.401930  0.998210  1.0  -0.6042
  O  O867  1  0.834270  0.395330  0.069180  1.0  -0.6072
  O  O868  1  0.517100  0.793600  0.798240  1.0  -0.6742
  O  O869  1  0.462700  0.728000  0.856770  1.0  -0.5847
  O  O870  1  0.232870  0.235130  0.052380  1.0  -0.5961
  O  O871  1  0.259170  0.234230  0.981130  1.0  -0.5577
  O  O872  1  0.512370  0.461630  0.002230  1.0  -0.5825
  O  O873  1  0.458570  0.417030  0.939630  1.0  -0.525
  O  O874  1  0.235670  0.455430  0.955930  1.0  -0.6429
  O  O875  1  0.289470  0.439030  0.899030  1.0  -0.5899
  O  O876  1  0.127810  0.106570  0.024770  1.0  -0.5741
  O  O877  1  0.171470  0.076130  0.967330  1.0  -0.5545
  O  O878  1  0.598070  0.404630  0.998210  1.0  -0.6028
  O  O879  1  0.604670  0.438930  0.069180  1.0  -0.6056
  O  O880  1  0.206400  0.723500  0.798240  1.0  -0.6771
  O  O881  1  0.272000  0.734700  0.856770  1.0  -0.5833
  O  O882  1  0.764870  0.997730  0.052380  1.0  -0.5973
  O  O883  1  0.765770  0.024930  0.981130  1.0  -0.5561
  O  O884  1  0.538370  0.050730  0.002230  1.0  -0.584
  O  O885  1  0.582970  0.041530  0.939630  1.0  -0.5252
  O  O886  1  0.544570  0.780230  0.955930  1.0  -0.6463
  O  O887  1  0.560970  0.850430  0.899030  1.0  -0.5892
  O  O888  1  0.893430  0.021230  0.024770  1.0  -0.5714
  O  O889  1  0.923870  0.095330  0.967330  1.0  -0.5547
  O  O890  1  0.595370  0.193430  0.998210  1.0  -0.6032
  O  O891  1  0.561070  0.165730  0.069180  1.0  -0.6051
  O  O892  1  0.943170  0.816230  0.131570  1.0  -0.6799
  O  O893  1  0.931970  0.870630  0.190100  1.0  -0.5834
  O  O894  1  0.668930  0.100470  0.385720  1.0  -0.5969
  O  O895  1  0.641730  0.074170  0.314470  1.0  -0.5566
  O  O896  1  0.615930  0.820970  0.335570  1.0  -0.584
  O  O897  1  0.625130  0.874770  0.272970  1.0  -0.5255
  O  O898  1  0.886430  0.097670  0.289270  1.0  -0.6425
  O  O899  1  0.816230  0.043870  0.232370  1.0  -0.5897
  O  O900  1  0.645430  0.205530  0.358110  1.0  -0.5677
  O  O901  1  0.571330  0.161870  0.300670  1.0  -0.5551
  O  O902  1  0.473230  0.735270  0.331550  1.0  -0.6042
  O  O903  1  0.500930  0.728670  0.402520  1.0  -0.6072
  O  O904  1  0.183770  0.126930  0.131570  1.0  -0.6742
  O  O905  1  0.129370  0.061330  0.190100  1.0  -0.5847
  O  O906  1  0.899530  0.568470  0.385720  1.0  -0.5961
  O  O907  1  0.925830  0.567570  0.314470  1.0  -0.5577
  O  O908  1  0.179030  0.794970  0.335570  1.0  -0.5825
  O  O909  1  0.125230  0.750370  0.272970  1.0  -0.525
  O  O910  1  0.902330  0.788770  0.289270  1.0  -0.6429
  O  O911  1  0.956130  0.772370  0.232370  1.0  -0.5899
  O  O912  1  0.794470  0.439910  0.358110  1.0  -0.57
  O  O913  1  0.838130  0.409470  0.300670  1.0  -0.5545
  O  O914  1  0.264730  0.737970  0.331550  1.0  -0.6027
  O  O915  1  0.271330  0.772270  0.402520  1.0  -0.6056
  O  O916  1  0.873070  0.056830  0.131570  1.0  -0.677
  O  O917  1  0.938670  0.068030  0.190100  1.0  -0.5833
  O  O918  1  0.431530  0.331070  0.385720  1.0  -0.5973
  O  O919  1  0.432430  0.358270  0.314470  1.0  -0.5561
  O  O920  1  0.205030  0.384070  0.335570  1.0  -0.584
  O  O921  1  0.249630  0.374870  0.272970  1.0  -0.5252
  O  O922  1  0.211230  0.113570  0.289270  1.0  -0.6463
  O  O923  1  0.227630  0.183770  0.232370  1.0  -0.5892
  O  O924  1  0.560090  0.354570  0.358110  1.0  -0.5676
  O  O925  1  0.590530  0.428670  0.300670  1.0  -0.5547
  O  O926  1  0.262030  0.526770  0.331550  1.0  -0.6032
  O  O927  1  0.227730  0.499070  0.402520  1.0  -0.6051
