# generated using pymatgen
data_ZnH3C8NO4
_symmetry_space_group_name_H-M   'P 1'
_cell_length_a   38.56900000
_cell_length_b   38.56900000
_cell_length_c   28.64700000
_cell_angle_alpha   90.00000000
_cell_angle_beta   90.00000000
_cell_angle_gamma   120.00000000
_symmetry_Int_Tables_number   1
_chemical_formula_structural   ZnH3C8NO4
_chemical_formula_sum   'Zn72 H216 C576 N72 O288'
_cell_volume   36905.11282621
_cell_formula_units_Z   72
loop_
 _symmetry_equiv_pos_site_id
 _symmetry_equiv_pos_as_xyz
  1  'x, y, z'
loop_
 _atom_site_type_symbol
 _atom_site_label
 _atom_site_symmetry_multiplicity
 _atom_site_fract_x
 _atom_site_fract_y
 _atom_site_fract_z
 _atom_site_occupancy
 _atom_site_charge
  Zn  Zn1  1  0.719440  0.242050  0.453370  1.0  1.1088
  Zn  Zn2  1  0.738650  0.217000  0.543920  1.0  1.0815
  Zn  Zn3  1  0.969660  0.232750  0.549760  1.0  1.1478
  Zn  Zn4  1  0.015330  0.258780  0.460140  1.0  1.1455
  Zn  Zn5  1  0.386110  0.575380  0.786700  1.0  1.1089
  Zn  Zn6  1  0.405320  0.550330  0.877250  1.0  1.0818
  Zn  Zn7  1  0.636330  0.566080  0.883090  1.0  1.1462
  Zn  Zn8  1  0.682000  0.592110  0.793470  1.0  1.1454
  Zn  Zn9  1  0.052770  0.908720  0.120040  1.0  1.1089
  Zn  Zn10  1  0.071980  0.883670  0.210590  1.0  1.0814
  Zn  Zn11  1  0.302990  0.899420  0.216430  1.0  1.1478
  Zn  Zn12  1  0.348660  0.925450  0.126810  1.0  1.1455
  Zn  Zn13  1  0.757950  0.477390  0.453370  1.0  1.11
  Zn  Zn14  1  0.783000  0.521650  0.543920  1.0  1.0823
  Zn  Zn15  1  0.767250  0.736910  0.549760  1.0  1.1501
  Zn  Zn16  1  0.741220  0.756550  0.460140  1.0  1.1476
  Zn  Zn17  1  0.424620  0.810720  0.786700  1.0  1.11
  Zn  Zn18  1  0.449670  0.854980  0.877250  1.0  1.0826
  Zn  Zn19  1  0.433920  0.070240  0.883090  1.0  1.1484
  Zn  Zn20  1  0.407890  0.089880  0.793470  1.0  1.1477
  Zn  Zn21  1  0.091280  0.144060  0.120040  1.0  1.11
  Zn  Zn22  1  0.116330  0.188320  0.210590  1.0  1.0825
  Zn  Zn23  1  0.100580  0.403580  0.216430  1.0  1.15
  Zn  Zn24  1  0.074550  0.423220  0.126810  1.0  1.1476
  Zn  Zn25  1  0.522610  0.280560  0.453370  1.0  1.1075
  Zn  Zn26  1  0.478350  0.261350  0.543920  1.0  1.0812
  Zn  Zn27  1  0.263090  0.030340  0.549760  1.0  1.1482
  Zn  Zn28  1  0.243450  0.984670  0.460140  1.0  1.1484
  Zn  Zn29  1  0.189280  0.613890  0.786700  1.0  1.1076
  Zn  Zn30  1  0.145020  0.594680  0.877250  1.0  1.0811
  Zn  Zn31  1  0.929760  0.363670  0.883090  1.0  1.1499
  Zn  Zn32  1  0.910120  0.318000  0.793470  1.0  1.1483
  Zn  Zn33  1  0.855940  0.947230  0.120040  1.0  1.1075
  Zn  Zn34  1  0.811680  0.928020  0.210590  1.0  1.0811
  Zn  Zn35  1  0.596420  0.697010  0.216430  1.0  1.1481
  Zn  Zn36  1  0.576780  0.651340  0.126810  1.0  1.1484
  Zn  Zn37  1  0.280560  0.757950  0.546630  1.0  1.1116
  Zn  Zn38  1  0.261350  0.783000  0.456080  1.0  1.0824
  Zn  Zn39  1  0.030340  0.767250  0.450240  1.0  1.149
  Zn  Zn40  1  0.984670  0.741220  0.539860  1.0  1.1464
  Zn  Zn41  1  0.947230  0.091280  0.879960  1.0  1.1116
  Zn  Zn42  1  0.928020  0.116330  0.789410  1.0  1.0824
  Zn  Zn43  1  0.697010  0.100580  0.783570  1.0  1.149
  Zn  Zn44  1  0.651340  0.074550  0.873190  1.0  1.1464
  Zn  Zn45  1  0.613890  0.424620  0.213300  1.0  1.1116
  Zn  Zn46  1  0.594680  0.449670  0.122750  1.0  1.0828
  Zn  Zn47  1  0.363670  0.433920  0.116910  1.0  1.1474
  Zn  Zn48  1  0.318000  0.407890  0.206530  1.0  1.1465
  Zn  Zn49  1  0.242050  0.522610  0.546630  1.0  1.1136
  Zn  Zn50  1  0.217000  0.478350  0.456080  1.0  1.0835
  Zn  Zn51  1  0.232750  0.263090  0.450240  1.0  1.1506
  Zn  Zn52  1  0.258780  0.243450  0.539860  1.0  1.1469
  Zn  Zn53  1  0.908720  0.855940  0.879960  1.0  1.1136
  Zn  Zn54  1  0.883670  0.811680  0.789410  1.0  1.0836
  Zn  Zn55  1  0.899420  0.596420  0.783570  1.0  1.1505
  Zn  Zn56  1  0.925450  0.576780  0.873190  1.0  1.1469
  Zn  Zn57  1  0.575380  0.189280  0.213300  1.0  1.1136
  Zn  Zn58  1  0.550330  0.145020  0.122750  1.0  1.0837
  Zn  Zn59  1  0.566080  0.929760  0.116910  1.0  1.1488
  Zn  Zn60  1  0.592110  0.910120  0.206530  1.0  1.1471
  Zn  Zn61  1  0.477390  0.719440  0.546630  1.0  1.1114
  Zn  Zn62  1  0.521650  0.738650  0.456080  1.0  1.0819
  Zn  Zn63  1  0.736910  0.969660  0.450240  1.0  1.1491
  Zn  Zn64  1  0.756550  0.015330  0.539860  1.0  1.1469
  Zn  Zn65  1  0.144060  0.052770  0.879960  1.0  1.1113
  Zn  Zn66  1  0.188320  0.071980  0.789410  1.0  1.0818
  Zn  Zn67  1  0.403580  0.302990  0.783570  1.0  1.149
  Zn  Zn68  1  0.423220  0.348660  0.873190  1.0  1.1469
  Zn  Zn69  1  0.810720  0.386110  0.213300  1.0  1.1114
  Zn  Zn70  1  0.854980  0.405320  0.122750  1.0  1.0818
  Zn  Zn71  1  0.070240  0.636330  0.116910  1.0  1.1507
  Zn  Zn72  1  0.089880  0.682000  0.206530  1.0  1.1468
  H  H73  1  0.830400  0.282600  0.396600  1.0  0.1246
  H  H74  1  0.938700  0.291500  0.397600  1.0  0.1158
  H  H75  1  0.864600  0.246200  0.510200  1.0  0.1099
  H  H76  1  0.876400  0.336800  0.278100  1.0  0.1165
  H  H77  1  0.951600  0.386400  0.169000  1.0  0.1014
  H  H78  1  0.985600  0.346700  0.280200  1.0  0.1153
  H  H79  1  0.952000  0.145800  0.392200  1.0  0.0984
  H  H80  1  0.844500  0.044800  0.384400  1.0  0.1234
  H  H81  1  0.878000  0.113200  0.502100  1.0  0.1129
  H  H82  1  0.004200  0.132200  0.273400  1.0  0.1208
  H  H83  1  0.963500  0.058100  0.160300  1.0  0.106
  H  H84  1  0.889700  0.037200  0.268900  1.0  0.1173
  H  H85  1  0.497070  0.615930  0.729930  1.0  0.1246
  H  H86  1  0.605370  0.624830  0.730930  1.0  0.1158
  H  H87  1  0.531270  0.579530  0.843530  1.0  0.1099
  H  H88  1  0.543070  0.670130  0.611430  1.0  0.1165
  H  H89  1  0.618270  0.719730  0.502330  1.0  0.1014
  H  H90  1  0.652270  0.680030  0.613530  1.0  0.1153
  H  H91  1  0.618670  0.479130  0.725530  1.0  0.0984
  H  H92  1  0.511170  0.378130  0.717730  1.0  0.1234
  H  H93  1  0.544670  0.446530  0.835430  1.0  0.1129
  H  H94  1  0.670870  0.465530  0.606730  1.0  0.1208
  H  H95  1  0.630170  0.391430  0.493630  1.0  0.106
  H  H96  1  0.556370  0.370530  0.602230  1.0  0.1173
  H  H97  1  0.163730  0.949270  0.063270  1.0  0.1246
  H  H98  1  0.272030  0.958170  0.064270  1.0  0.1158
  H  H99  1  0.197930  0.912870  0.176870  1.0  0.1099
  H  H100  1  0.209730  0.003470  0.944770  1.0  0.1178
  H  H101  1  0.284930  0.053070  0.835670  1.0  0.1014
  H  H102  1  0.318930  0.013370  0.946870  1.0  0.1153
  H  H103  1  0.285330  0.812470  0.058870  1.0  0.0984
  H  H104  1  0.177830  0.711470  0.051070  1.0  0.1234
  H  H105  1  0.211330  0.779870  0.168770  1.0  0.1129
  H  H106  1  0.337530  0.798870  0.940070  1.0  0.1208
  H  H107  1  0.296830  0.724770  0.826970  1.0  0.106
  H  H108  1  0.223030  0.703870  0.935570  1.0  0.1173
  H  H109  1  0.717400  0.547800  0.396600  1.0  0.1245
  H  H110  1  0.708500  0.647200  0.397600  1.0  0.1152
  H  H111  1  0.753800  0.618400  0.510200  1.0  0.1099
  H  H112  1  0.663200  0.539600  0.278100  1.0  0.1164
  H  H113  1  0.613600  0.565200  0.169000  1.0  0.1017
  H  H114  1  0.653300  0.638900  0.280200  1.0  0.116
  H  H115  1  0.854200  0.806200  0.392200  1.0  0.0994
  H  H116  1  0.955200  0.799700  0.384400  1.0  0.1232
  H  H117  1  0.886800  0.764800  0.502100  1.0  0.1129
  H  H118  1  0.867800  0.872000  0.273400  1.0  0.1204
  H  H119  1  0.941900  0.905400  0.160300  1.0  0.1066
  H  H120  1  0.962800  0.852500  0.268900  1.0  0.1171
  H  H121  1  0.384070  0.881130  0.729930  1.0  0.1245
  H  H122  1  0.375170  0.980530  0.730930  1.0  0.1152
  H  H123  1  0.420470  0.951730  0.843530  1.0  0.1099
  H  H124  1  0.329870  0.872930  0.611430  1.0  0.1164
  H  H125  1  0.280270  0.898530  0.502330  1.0  0.1017
  H  H126  1  0.319970  0.972230  0.613530  1.0  0.116
  H  H127  1  0.520870  0.139530  0.725530  1.0  0.0994
  H  H128  1  0.621870  0.133030  0.717730  1.0  0.1232
  H  H129  1  0.553470  0.098130  0.835430  1.0  0.1129
  H  H130  1  0.534470  0.205330  0.606730  1.0  0.1204
  H  H131  1  0.608570  0.238730  0.493630  1.0  0.1066
  H  H132  1  0.629470  0.185830  0.602230  1.0  0.1171
  H  H133  1  0.050730  0.214470  0.063270  1.0  0.1245
  H  H134  1  0.041830  0.313870  0.064270  1.0  0.1152
  H  H135  1  0.087130  0.285070  0.176870  1.0  0.1099
  H  H136  1  0.996530  0.206270  0.944770  1.0  0.1177
  H  H137  1  0.946930  0.231870  0.835670  1.0  0.1017
  H  H138  1  0.986630  0.305570  0.946870  1.0  0.116
  H  H139  1  0.187530  0.472870  0.058870  1.0  0.0994
  H  H140  1  0.288530  0.466370  0.051070  1.0  0.1232
  H  H141  1  0.220130  0.431470  0.168770  1.0  0.1129
  H  H142  1  0.201130  0.538670  0.940070  1.0  0.1204
  H  H143  1  0.275230  0.572070  0.826970  1.0  0.1066
  H  H144  1  0.296130  0.519170  0.935570  1.0  0.1171
  H  H145  1  0.452200  0.169600  0.396600  1.0  0.1239
  H  H146  1  0.352800  0.061300  0.397600  1.0  0.1158
  H  H147  1  0.381600  0.135400  0.510200  1.0  0.1099
  H  H148  1  0.460400  0.123600  0.278100  1.0  0.1173
  H  H149  1  0.434800  0.048400  0.169000  1.0  0.1018
  H  H150  1  0.361100  0.014400  0.280200  1.0  0.115
  H  H151  1  0.193800  0.048000  0.392200  1.0  0.0995
  H  H152  1  0.200300  0.155500  0.384400  1.0  0.1238
  H  H153  1  0.235200  0.122000  0.502100  1.0  0.1129
  H  H154  1  0.128000  0.995800  0.273400  1.0  0.1199
  H  H155  1  0.094600  0.036500  0.160300  1.0  0.106
  H  H156  1  0.147500  0.110300  0.268900  1.0  0.1185
  H  H157  1  0.118870  0.502930  0.729930  1.0  0.1239
  H  H158  1  0.019470  0.394630  0.730930  1.0  0.1158
  H  H159  1  0.048270  0.468730  0.843530  1.0  0.1099
  H  H160  1  0.127070  0.456930  0.611430  1.0  0.1173
  H  H161  1  0.101470  0.381730  0.502330  1.0  0.1018
  H  H162  1  0.027770  0.347730  0.613530  1.0  0.115
  H  H163  1  0.860470  0.381330  0.725530  1.0  0.0995
  H  H164  1  0.866970  0.488830  0.717730  1.0  0.1238
  H  H165  1  0.901870  0.455330  0.835430  1.0  0.1129
  H  H166  1  0.794670  0.329130  0.606730  1.0  0.1199
  H  H167  1  0.761270  0.369830  0.493630  1.0  0.1061
  H  H168  1  0.814170  0.443630  0.602230  1.0  0.1185
  H  H169  1  0.785530  0.836270  0.063270  1.0  0.1239
  H  H170  1  0.686130  0.727970  0.064270  1.0  0.1158
  H  H171  1  0.714930  0.802070  0.176870  1.0  0.1099
  H  H172  1  0.793730  0.790270  0.944770  1.0  0.1173
  H  H173  1  0.768130  0.715070  0.835670  1.0  0.1018
  H  H174  1  0.694430  0.681070  0.946870  1.0  0.115
  H  H175  1  0.527130  0.714670  0.058870  1.0  0.0995
  H  H176  1  0.533630  0.822170  0.051070  1.0  0.1238
  H  H177  1  0.568530  0.788670  0.168770  1.0  0.1129
  H  H178  1  0.461330  0.662470  0.940070  1.0  0.1199
  H  H179  1  0.427930  0.703170  0.826970  1.0  0.106
  H  H180  1  0.480830  0.776970  0.935570  1.0  0.1185
  H  H181  1  0.169600  0.717400  0.603400  1.0  0.1244
  H  H182  1  0.061300  0.708500  0.602400  1.0  0.1159
  H  H183  1  0.135400  0.753800  0.489800  1.0  0.1097
  H  H184  1  0.123600  0.663200  0.721900  1.0  0.1163
  H  H185  1  0.048400  0.613600  0.831000  1.0  0.1012
  H  H186  1  0.014400  0.653300  0.719800  1.0  0.1155
  H  H187  1  0.048000  0.854200  0.607800  1.0  0.099
  H  H188  1  0.155500  0.955200  0.615600  1.0  0.1239
  H  H189  1  0.122000  0.886800  0.497900  1.0  0.1123
  H  H190  1  0.995800  0.867800  0.726600  1.0  0.1204
  H  H191  1  0.036500  0.941900  0.839700  1.0  0.1059
  H  H192  1  0.110300  0.962800  0.731100  1.0  0.1169
  H  H193  1  0.836270  0.050730  0.936730  1.0  0.1244
  H  H194  1  0.727970  0.041830  0.935730  1.0  0.1159
  H  H195  1  0.802070  0.087130  0.823130  1.0  0.1097
  H  H196  1  0.790270  0.996530  0.055230  1.0  0.118
  H  H197  1  0.715070  0.946930  0.164330  1.0  0.1012
  H  H198  1  0.681070  0.986630  0.053130  1.0  0.1155
  H  H199  1  0.714670  0.187530  0.941130  1.0  0.099
  H  H200  1  0.822170  0.288530  0.948930  1.0  0.1239
  H  H201  1  0.788670  0.220130  0.831230  1.0  0.1123
  H  H202  1  0.662470  0.201130  0.059930  1.0  0.1204
  H  H203  1  0.703170  0.275230  0.173030  1.0  0.1059
  H  H204  1  0.776970  0.296130  0.064430  1.0  0.1169
  H  H205  1  0.502930  0.384070  0.270070  1.0  0.1244
  H  H206  1  0.394630  0.375170  0.269070  1.0  0.1159
  H  H207  1  0.468730  0.420470  0.156470  1.0  0.1097
  H  H208  1  0.456930  0.329870  0.388570  1.0  0.1163
  H  H209  1  0.381730  0.280270  0.497670  1.0  0.1012
  H  H210  1  0.347730  0.319970  0.386470  1.0  0.1155
  H  H211  1  0.381330  0.520870  0.274470  1.0  0.099
  H  H212  1  0.488830  0.621870  0.282270  1.0  0.1239
  H  H213  1  0.455330  0.553470  0.164570  1.0  0.1123
  H  H214  1  0.329130  0.534470  0.393270  1.0  0.1204
  H  H215  1  0.369830  0.608570  0.506370  1.0  0.1058
  H  H216  1  0.443630  0.629470  0.397770  1.0  0.1169
  H  H217  1  0.282600  0.452200  0.603400  1.0  0.1254
  H  H218  1  0.291500  0.352800  0.602400  1.0  0.1157
  H  H219  1  0.246200  0.381600  0.489800  1.0  0.1095
  H  H220  1  0.336800  0.460400  0.721900  1.0  0.116
  H  H221  1  0.386400  0.434800  0.831000  1.0  0.1012
  H  H222  1  0.346700  0.361100  0.719800  1.0  0.116
  H  H223  1  0.145800  0.193800  0.607800  1.0  0.0993
  H  H224  1  0.044800  0.200300  0.615600  1.0  0.1236
  H  H225  1  0.113200  0.235200  0.497900  1.0  0.1125
  H  H226  1  0.132200  0.128000  0.726600  1.0  0.12
  H  H227  1  0.058100  0.094600  0.839700  1.0  0.1063
  H  H228  1  0.037200  0.147500  0.731100  1.0  0.117
  H  H229  1  0.949270  0.785530  0.936730  1.0  0.1254
  H  H230  1  0.958170  0.686130  0.935730  1.0  0.1157
  H  H231  1  0.912870  0.714930  0.823130  1.0  0.1095
  H  H232  1  0.003470  0.793730  0.055230  1.0  0.1176
  H  H233  1  0.053070  0.768130  0.164330  1.0  0.1012
  H  H234  1  0.013370  0.694430  0.053130  1.0  0.116
  H  H235  1  0.812470  0.527130  0.941130  1.0  0.0993
  H  H236  1  0.711470  0.533630  0.948930  1.0  0.1236
  H  H237  1  0.779870  0.568530  0.831230  1.0  0.1125
  H  H238  1  0.798870  0.461330  0.059930  1.0  0.12
  H  H239  1  0.724770  0.427930  0.173030  1.0  0.1063
  H  H240  1  0.703870  0.480830  0.064430  1.0  0.117
  H  H241  1  0.615930  0.118870  0.270070  1.0  0.1254
  H  H242  1  0.624830  0.019470  0.269070  1.0  0.1157
  H  H243  1  0.579530  0.048270  0.156470  1.0  0.1095
  H  H244  1  0.670130  0.127070  0.388570  1.0  0.116
  H  H245  1  0.719730  0.101470  0.497670  1.0  0.1012
  H  H246  1  0.680030  0.027770  0.386470  1.0  0.116
  H  H247  1  0.479130  0.860470  0.274470  1.0  0.0993
  H  H248  1  0.378130  0.866970  0.282270  1.0  0.1236
  H  H249  1  0.446530  0.901870  0.164570  1.0  0.1125
  H  H250  1  0.465530  0.794670  0.393270  1.0  0.12
  H  H251  1  0.391430  0.761270  0.506370  1.0  0.1064
  H  H252  1  0.370530  0.814170  0.397770  1.0  0.117
  H  H253  1  0.547800  0.830400  0.603400  1.0  0.1245
  H  H254  1  0.647200  0.938700  0.602400  1.0  0.1164
  H  H255  1  0.618400  0.864600  0.489800  1.0  0.1098
  H  H256  1  0.539600  0.876400  0.721900  1.0  0.1166
  H  H257  1  0.565200  0.951600  0.831000  1.0  0.1009
  H  H258  1  0.638900  0.985600  0.719800  1.0  0.1152
  H  H259  1  0.806200  0.952000  0.607800  1.0  0.0992
  H  H260  1  0.799700  0.844500  0.615600  1.0  0.1233
  H  H261  1  0.764800  0.878000  0.497900  1.0  0.1127
  H  H262  1  0.872000  0.004200  0.726600  1.0  0.1201
  H  H263  1  0.905400  0.963500  0.839700  1.0  0.1057
  H  H264  1  0.852500  0.889700  0.731100  1.0  0.1176
  H  H265  1  0.214470  0.163730  0.936730  1.0  0.1245
  H  H266  1  0.313870  0.272030  0.935730  1.0  0.1164
  H  H267  1  0.285070  0.197930  0.823130  1.0  0.1098
  H  H268  1  0.206270  0.209730  0.055230  1.0  0.1166
  H  H269  1  0.231870  0.284930  0.164330  1.0  0.1009
  H  H270  1  0.305570  0.318930  0.053130  1.0  0.1152
  H  H271  1  0.472870  0.285330  0.941130  1.0  0.0992
  H  H272  1  0.466370  0.177830  0.948930  1.0  0.1233
  H  H273  1  0.431470  0.211330  0.831230  1.0  0.1127
  H  H274  1  0.538670  0.337530  0.059930  1.0  0.1201
  H  H275  1  0.572070  0.296830  0.173030  1.0  0.1057
  H  H276  1  0.519170  0.223030  0.064430  1.0  0.1176
  H  H277  1  0.881130  0.497070  0.270070  1.0  0.1245
  H  H278  1  0.980530  0.605370  0.269070  1.0  0.1164
  H  H279  1  0.951730  0.531270  0.156470  1.0  0.1098
  H  H280  1  0.872930  0.543070  0.388570  1.0  0.1166
  H  H281  1  0.898530  0.618270  0.497670  1.0  0.1009
  H  H282  1  0.972230  0.652270  0.386470  1.0  0.1152
  H  H283  1  0.139530  0.618670  0.274470  1.0  0.0992
  H  H284  1  0.133030  0.511170  0.282270  1.0  0.1233
  H  H285  1  0.098130  0.544670  0.164570  1.0  0.1127
  H  H286  1  0.205330  0.670870  0.393270  1.0  0.1201
  H  H287  1  0.238730  0.630170  0.506370  1.0  0.1058
  H  H288  1  0.185830  0.556370  0.397770  1.0  0.1176
  C  C289  1  0.841800  0.261800  0.456200  1.0  -0.1215
  C  C290  1  0.849800  0.278600  0.412300  1.0  -0.0929
  C  C291  1  0.885300  0.289400  0.391400  1.0  0.1074
  C  C292  1  0.914200  0.284200  0.413100  1.0  0.0158
  C  C293  1  0.907400  0.268000  0.458500  1.0  -0.1493
  C  C294  1  0.870100  0.257000  0.479600  1.0  0.0091
  C  C295  1  0.802300  0.249100  0.477200  1.0  0.6979
  C  C296  1  0.936700  0.259600  0.481700  1.0  0.7415
  C  C297  1  0.929300  0.338300  0.285400  1.0  0.1807
  C  C298  1  0.901400  0.344900  0.263600  1.0  -0.0208
  C  C299  1  0.910100  0.363900  0.218900  1.0  -0.1296
  C  C300  1  0.946100  0.374900  0.199300  1.0  -0.0015
  C  C301  1  0.975600  0.370000  0.222200  1.0  -0.1637
  C  C302  1  0.966400  0.351100  0.264600  1.0  -0.1032
  C  C303  1  0.879900  0.370800  0.196700  1.0  0.7153
  C  C304  1  0.016100  0.383900  0.201200  1.0  0.7044
  C  C305  1  0.919500  0.136900  0.448700  1.0  -0.1125
  C  C306  1  0.927600  0.127500  0.407000  1.0  -0.0698
  C  C307  1  0.901400  0.091600  0.383900  1.0  0.1779
  C  C308  1  0.864400  0.066600  0.401900  1.0  -0.1231
  C  C309  1  0.856600  0.074600  0.447800  1.0  -0.1501
  C  C310  1  0.883500  0.108600  0.471100  1.0  0.0026
  C  C311  1  0.947400  0.174500  0.471600  1.0  0.7127
  C  C312  1  0.817300  0.045300  0.469100  1.0  0.7313
  C  C313  1  0.983400  0.110000  0.257200  1.0  -0.057
  C  C314  1  0.990900  0.099400  0.214000  1.0  -0.1848
  C  C315  1  0.959100  0.065500  0.190400  1.0  0.0159
  C  C316  1  0.923700  0.044600  0.210800  1.0  -0.1449
  C  C317  1  0.915000  0.053600  0.254600  1.0  -0.0761
  C  C318  1  0.945200  0.088300  0.277100  1.0  0.1209
  C  C319  1  0.031700  0.122300  0.194900  1.0  0.7333
  C  C320  1  0.888800  0.005400  0.187500  1.0  0.672
  C  C321  1  0.508470  0.595130  0.789530  1.0  -0.1215
  C  C322  1  0.516470  0.611930  0.745630  1.0  -0.093
  C  C323  1  0.551970  0.622730  0.724730  1.0  0.1074
  C  C324  1  0.580870  0.617530  0.746430  1.0  0.0157
  C  C325  1  0.574070  0.601330  0.791830  1.0  -0.1493
  C  C326  1  0.536770  0.590330  0.812930  1.0  0.0091
  C  C327  1  0.468970  0.582430  0.810530  1.0  0.6981
  C  C328  1  0.603370  0.592930  0.815030  1.0  0.7415
  C  C329  1  0.595970  0.671630  0.618730  1.0  0.1807
  C  C330  1  0.568070  0.678230  0.596930  1.0  -0.0208
  C  C331  1  0.576770  0.697230  0.552230  1.0  -0.1296
  C  C332  1  0.612770  0.708230  0.532630  1.0  -0.0015
  C  C333  1  0.642270  0.703330  0.555530  1.0  -0.1637
  C  C334  1  0.633070  0.684430  0.597930  1.0  -0.1032
  C  C335  1  0.546570  0.704130  0.530030  1.0  0.7153
  C  C336  1  0.682770  0.717230  0.534530  1.0  0.7044
  C  C337  1  0.586170  0.470230  0.782030  1.0  -0.1125
  C  C338  1  0.594270  0.460830  0.740330  1.0  -0.0698
  C  C339  1  0.568070  0.424930  0.717230  1.0  0.1779
  C  C340  1  0.531070  0.399930  0.735230  1.0  -0.1231
  C  C341  1  0.523270  0.407930  0.781130  1.0  -0.1501
  C  C342  1  0.550170  0.441930  0.804430  1.0  0.0026
  C  C343  1  0.614070  0.507830  0.804930  1.0  0.7127
  C  C344  1  0.483970  0.378630  0.802430  1.0  0.7313
  C  C345  1  0.650070  0.443330  0.590530  1.0  -0.057
  C  C346  1  0.657570  0.432730  0.547330  1.0  -0.1848
  C  C347  1  0.625770  0.398830  0.523730  1.0  0.0159
  C  C348  1  0.590370  0.377930  0.544130  1.0  -0.1446
  C  C349  1  0.581670  0.386930  0.587930  1.0  -0.0761
  C  C350  1  0.611870  0.421630  0.610430  1.0  0.1209
  C  C351  1  0.698370  0.455630  0.528230  1.0  0.7333
  C  C352  1  0.555470  0.338730  0.520830  1.0  0.672
  C  C353  1  0.175130  0.928470  0.122870  1.0  -0.1215
  C  C354  1  0.183130  0.945270  0.078970  1.0  -0.0925
  C  C355  1  0.218630  0.956070  0.058070  1.0  0.1073
  C  C356  1  0.247530  0.950870  0.079770  1.0  0.0158
  C  C357  1  0.240730  0.934670  0.125170  1.0  -0.1493
  C  C358  1  0.203430  0.923670  0.146270  1.0  0.0091
  C  C359  1  0.135630  0.915770  0.143870  1.0  0.698
  C  C360  1  0.270030  0.926270  0.148370  1.0  0.7415
  C  C361  1  0.262630  0.004970  0.952070  1.0  0.1793
  C  C362  1  0.234730  0.011570  0.930270  1.0  -0.0307
  C  C363  1  0.243430  0.030570  0.885570  1.0  -0.1231
  C  C364  1  0.279430  0.041570  0.865970  1.0  -0.0015
  C  C365  1  0.308930  0.036670  0.888870  1.0  -0.1637
  C  C366  1  0.299730  0.017770  0.931270  1.0  -0.1034
  C  C367  1  0.213230  0.037470  0.863370  1.0  0.7154
  C  C368  1  0.349430  0.050570  0.867870  1.0  0.7042
  C  C369  1  0.252830  0.803570  0.115370  1.0  -0.1125
  C  C370  1  0.260930  0.794170  0.073670  1.0  -0.0698
  C  C371  1  0.234730  0.758270  0.050570  1.0  0.1779
  C  C372  1  0.197730  0.733270  0.068570  1.0  -0.1232
  C  C373  1  0.189930  0.741270  0.114470  1.0  -0.1507
  C  C374  1  0.216830  0.775270  0.137770  1.0  0.0026
  C  C375  1  0.280730  0.841170  0.138270  1.0  0.7127
  C  C376  1  0.150630  0.711970  0.135770  1.0  0.7314
  C  C377  1  0.316730  0.776670  0.923870  1.0  -0.057
  C  C378  1  0.324230  0.766070  0.880670  1.0  -0.1848
  C  C379  1  0.292430  0.732170  0.857070  1.0  0.0159
  C  C380  1  0.257030  0.711270  0.877470  1.0  -0.1446
  C  C381  1  0.248330  0.720270  0.921270  1.0  -0.0761
  C  C382  1  0.278530  0.754970  0.943770  1.0  0.1209
  C  C383  1  0.365030  0.788970  0.861570  1.0  0.7336
  C  C384  1  0.222130  0.672070  0.854170  1.0  0.672
  C  C385  1  0.738200  0.580000  0.456200  1.0  -0.121
  C  C386  1  0.721400  0.571200  0.412300  1.0  -0.0915
  C  C387  1  0.710600  0.595900  0.391400  1.0  0.1075
  C  C388  1  0.715800  0.630000  0.413100  1.0  0.0153
  C  C389  1  0.732000  0.639400  0.458500  1.0  -0.1491
  C  C390  1  0.743000  0.613100  0.479600  1.0  0.0107
  C  C391  1  0.750900  0.553200  0.477200  1.0  0.6979
  C  C392  1  0.740400  0.677100  0.481700  1.0  0.7433
  C  C393  1  0.661700  0.591000  0.285400  1.0  0.1807
  C  C394  1  0.655100  0.556500  0.263600  1.0  -0.0228
  C  C395  1  0.636100  0.546200  0.218900  1.0  -0.1298
  C  C396  1  0.625100  0.571200  0.199300  1.0  -0.0011
  C  C397  1  0.630000  0.605600  0.222200  1.0  -0.1628
  C  C398  1  0.648900  0.615300  0.264600  1.0  -0.1054
  C  C399  1  0.629200  0.509100  0.196700  1.0  0.7158
  C  C400  1  0.616100  0.632200  0.201200  1.0  0.7037
  C  C401  1  0.863100  0.782600  0.448700  1.0  -0.1126
  C  C402  1  0.872500  0.800100  0.407000  1.0  -0.0685
  C  C403  1  0.908400  0.809800  0.383900  1.0  0.1782
  C  C404  1  0.933400  0.797800  0.401900  1.0  -0.1222
  C  C405  1  0.925400  0.782000  0.447800  1.0  -0.1514
  C  C406  1  0.891400  0.774900  0.471100  1.0  0.0029
  C  C407  1  0.825500  0.772900  0.471600  1.0  0.713
  C  C408  1  0.954700  0.772000  0.469100  1.0  0.7312
  C  C409  1  0.890000  0.873400  0.257200  1.0  -0.0551
  C  C410  1  0.900600  0.891500  0.214000  1.0  -0.185
  C  C411  1  0.934500  0.893600  0.190400  1.0  0.0156
  C  C412  1  0.955400  0.879100  0.210800  1.0  -0.146
  C  C413  1  0.946400  0.861400  0.254600  1.0  -0.0758
  C  C414  1  0.911700  0.856900  0.277100  1.0  0.1209
  C  C415  1  0.877700  0.909400  0.194900  1.0  0.7334
  C  C416  1  0.994600  0.883400  0.187500  1.0  0.6705
  C  C417  1  0.404870  0.913330  0.789530  1.0  -0.1212
  C  C418  1  0.388070  0.904530  0.745630  1.0  -0.0915
  C  C419  1  0.377270  0.929230  0.724730  1.0  0.1073
  C  C420  1  0.382470  0.963330  0.746430  1.0  0.0153
  C  C421  1  0.398670  0.972730  0.791830  1.0  -0.1491
  C  C422  1  0.409670  0.946430  0.812930  1.0  0.0107
  C  C423  1  0.417570  0.886530  0.810530  1.0  0.6978
  C  C424  1  0.407070  0.010430  0.815030  1.0  0.7433
  C  C425  1  0.328370  0.924330  0.618730  1.0  0.1807
  C  C426  1  0.321770  0.889830  0.596930  1.0  -0.0228
  C  C427  1  0.302770  0.879530  0.552230  1.0  -0.1298
  C  C428  1  0.291770  0.904530  0.532630  1.0  -0.0011
  C  C429  1  0.296670  0.938930  0.555530  1.0  -0.1628
  C  C430  1  0.315570  0.948630  0.597930  1.0  -0.1054
  C  C431  1  0.295870  0.842430  0.530030  1.0  0.7158
  C  C432  1  0.282770  0.965530  0.534530  1.0  0.7037
  C  C433  1  0.529770  0.115930  0.782030  1.0  -0.1126
  C  C434  1  0.539170  0.133430  0.740330  1.0  -0.0685
  C  C435  1  0.575070  0.143130  0.717230  1.0  0.1782
  C  C436  1  0.600070  0.131130  0.735230  1.0  -0.1222
  C  C437  1  0.592070  0.115330  0.781130  1.0  -0.1514
  C  C438  1  0.558070  0.108230  0.804430  1.0  0.0029
  C  C439  1  0.492170  0.106230  0.804930  1.0  0.713
  C  C440  1  0.621370  0.105330  0.802430  1.0  0.7312
  C  C441  1  0.556670  0.206730  0.590530  1.0  -0.0551
  C  C442  1  0.567270  0.224830  0.547330  1.0  -0.185
  C  C443  1  0.601170  0.226930  0.523730  1.0  0.0156
  C  C444  1  0.622070  0.212430  0.544130  1.0  -0.1458
  C  C445  1  0.613070  0.194730  0.587930  1.0  -0.0758
  C  C446  1  0.578370  0.190230  0.610430  1.0  0.1209
  C  C447  1  0.544370  0.242730  0.528230  1.0  0.7334
  C  C448  1  0.661270  0.216730  0.520830  1.0  0.6705
  C  C449  1  0.071530  0.246670  0.122870  1.0  -0.121
  C  C450  1  0.054730  0.237870  0.078970  1.0  -0.0921
  C  C451  1  0.043930  0.262570  0.058070  1.0  0.1075
  C  C452  1  0.049130  0.296670  0.079770  1.0  0.0153
  C  C453  1  0.065330  0.306070  0.125170  1.0  -0.1491
  C  C454  1  0.076330  0.279770  0.146270  1.0  0.0107
  C  C455  1  0.084230  0.219870  0.143870  1.0  0.698
  C  C456  1  0.073730  0.343770  0.148370  1.0  0.7433
  C  C457  1  0.995030  0.257670  0.952070  1.0  0.1789
  C  C458  1  0.988430  0.223170  0.930270  1.0  -0.0315
  C  C459  1  0.969430  0.212870  0.885570  1.0  -0.1235
  C  C460  1  0.958430  0.237870  0.865970  1.0  -0.0011
  C  C461  1  0.963330  0.272270  0.888870  1.0  -0.1628
  C  C462  1  0.982230  0.281970  0.931270  1.0  -0.1054
  C  C463  1  0.962530  0.175770  0.863370  1.0  0.7158
  C  C464  1  0.949430  0.298870  0.867870  1.0  0.7036
  C  C465  1  0.196430  0.449270  0.115370  1.0  -0.1126
  C  C466  1  0.205830  0.466770  0.073670  1.0  -0.0685
  C  C467  1  0.241730  0.476470  0.050570  1.0  0.1782
  C  C468  1  0.266730  0.464470  0.068570  1.0  -0.1222
  C  C469  1  0.258730  0.448670  0.114470  1.0  -0.152
  C  C470  1  0.224730  0.441570  0.137770  1.0  0.0029
  C  C471  1  0.158830  0.439570  0.138270  1.0  0.713
  C  C472  1  0.288030  0.438670  0.135770  1.0  0.7312
  C  C473  1  0.223330  0.540070  0.923870  1.0  -0.0551
  C  C474  1  0.233930  0.558170  0.880670  1.0  -0.1851
  C  C475  1  0.267830  0.560270  0.857070  1.0  0.0156
  C  C476  1  0.288730  0.545770  0.877470  1.0  -0.1458
  C  C477  1  0.279730  0.528070  0.921270  1.0  -0.0763
  C  C478  1  0.245030  0.523570  0.943770  1.0  0.1209
  C  C479  1  0.211030  0.576070  0.861570  1.0  0.7329
  C  C480  1  0.327930  0.550070  0.854170  1.0  0.6705
  C  C481  1  0.420000  0.158200  0.456200  1.0  -0.121
  C  C482  1  0.428800  0.150200  0.412300  1.0  -0.0938
  C  C483  1  0.404100  0.114700  0.391400  1.0  0.1077
  C  C484  1  0.370000  0.085800  0.413100  1.0  0.0148
  C  C485  1  0.360600  0.092600  0.458500  1.0  -0.1493
  C  C486  1  0.386900  0.129900  0.479600  1.0  0.0093
  C  C487  1  0.446800  0.197700  0.477200  1.0  0.6998
  C  C488  1  0.322900  0.063300  0.481700  1.0  0.7417
  C  C489  1  0.409000  0.070700  0.285400  1.0  0.181
  C  C490  1  0.443500  0.098600  0.263600  1.0  -0.0227
  C  C491  1  0.453800  0.089900  0.218900  1.0  -0.1297
  C  C492  1  0.428800  0.053900  0.199300  1.0  -0.0007
  C  C493  1  0.394400  0.024400  0.222200  1.0  -0.1626
  C  C494  1  0.384700  0.033600  0.264600  1.0  -0.1046
  C  C495  1  0.490900  0.120100  0.196700  1.0  0.7165
  C  C496  1  0.367800  0.983900  0.201200  1.0  0.7058
  C  C497  1  0.217400  0.080500  0.448700  1.0  -0.1112
  C  C498  1  0.199900  0.072400  0.407000  1.0  -0.0701
  C  C499  1  0.190200  0.098600  0.383900  1.0  0.1774
  C  C500  1  0.202200  0.135600  0.401900  1.0  -0.1231
  C  C501  1  0.218000  0.143400  0.447800  1.0  -0.1509
  C  C502  1  0.225100  0.116500  0.471100  1.0  0.0029
  C  C503  1  0.227100  0.052600  0.471600  1.0  0.7124
  C  C504  1  0.228000  0.182700  0.469100  1.0  0.7334
  C  C505  1  0.126600  0.016600  0.257200  1.0  -0.0545
  C  C506  1  0.108500  0.009100  0.214000  1.0  -0.185
  C  C507  1  0.106400  0.040900  0.190400  1.0  0.0158
  C  C508  1  0.120900  0.076300  0.210800  1.0  -0.1438
  C  C509  1  0.138600  0.085000  0.254600  1.0  -0.0767
  C  C510  1  0.143100  0.054800  0.277100  1.0  0.1219
  C  C511  1  0.090600  0.968300  0.194900  1.0  0.7351
  C  C512  1  0.116600  0.111200  0.187500  1.0  0.6716
  C  C513  1  0.086670  0.491530  0.789530  1.0  -0.1209
  C  C514  1  0.095470  0.483530  0.745630  1.0  -0.0938
  C  C515  1  0.070770  0.448030  0.724730  1.0  0.1077
  C  C516  1  0.036670  0.419130  0.746430  1.0  0.0149
  C  C517  1  0.027270  0.425930  0.791830  1.0  -0.1493
  C  C518  1  0.053570  0.463230  0.812930  1.0  0.0093
  C  C519  1  0.113470  0.531030  0.810530  1.0  0.6998
  C  C520  1  0.989570  0.396630  0.815030  1.0  0.7417
  C  C521  1  0.075670  0.404030  0.618730  1.0  0.181
  C  C522  1  0.110170  0.431930  0.596930  1.0  -0.0226
  C  C523  1  0.120470  0.423230  0.552230  1.0  -0.1297
  C  C524  1  0.095470  0.387230  0.532630  1.0  -0.0007
  C  C525  1  0.061070  0.357730  0.555530  1.0  -0.1626
  C  C526  1  0.051370  0.366930  0.597930  1.0  -0.1046
  C  C527  1  0.157570  0.453430  0.530030  1.0  0.7165
  C  C528  1  0.034470  0.317230  0.534530  1.0  0.7058
  C  C529  1  0.884070  0.413830  0.782030  1.0  -0.1112
  C  C530  1  0.866570  0.405730  0.740330  1.0  -0.0701
  C  C531  1  0.856870  0.431930  0.717230  1.0  0.1774
  C  C532  1  0.868870  0.468930  0.735230  1.0  -0.1231
  C  C533  1  0.884670  0.476730  0.781130  1.0  -0.1509
  C  C534  1  0.891770  0.449830  0.804430  1.0  0.0029
  C  C535  1  0.893770  0.385930  0.804930  1.0  0.7124
  C  C536  1  0.894670  0.516030  0.802430  1.0  0.7334
  C  C537  1  0.793270  0.349930  0.590530  1.0  -0.0545
  C  C538  1  0.775170  0.342430  0.547330  1.0  -0.185
  C  C539  1  0.773070  0.374230  0.523730  1.0  0.0158
  C  C540  1  0.787570  0.409630  0.544130  1.0  -0.1439
  C  C541  1  0.805270  0.418330  0.587930  1.0  -0.0767
  C  C542  1  0.809770  0.388130  0.610430  1.0  0.1219
  C  C543  1  0.757270  0.301630  0.528230  1.0  0.7351
  C  C544  1  0.783270  0.444530  0.520830  1.0  0.6716
  C  C545  1  0.753330  0.824870  0.122870  1.0  -0.121
  C  C546  1  0.762130  0.816870  0.078970  1.0  -0.0933
  C  C547  1  0.737430  0.781370  0.058070  1.0  0.1077
  C  C548  1  0.703330  0.752470  0.079770  1.0  0.0148
  C  C549  1  0.693930  0.759270  0.125170  1.0  -0.1493
  C  C550  1  0.720230  0.796570  0.146270  1.0  0.0093
  C  C551  1  0.780130  0.864370  0.143870  1.0  0.6999
  C  C552  1  0.656230  0.729970  0.148370  1.0  0.7417
  C  C553  1  0.742330  0.737370  0.952070  1.0  0.181
  C  C554  1  0.776830  0.765270  0.930270  1.0  -0.0227
  C  C555  1  0.787130  0.756570  0.885570  1.0  -0.1298
  C  C556  1  0.762130  0.720570  0.865970  1.0  -0.0007
  C  C557  1  0.727730  0.691070  0.888870  1.0  -0.1627
  C  C558  1  0.718030  0.700270  0.931270  1.0  -0.1046
  C  C559  1  0.824230  0.786770  0.863370  1.0  0.7164
  C  C560  1  0.701130  0.650570  0.867870  1.0  0.7058
  C  C561  1  0.550730  0.747170  0.115370  1.0  -0.1112
  C  C562  1  0.533230  0.739070  0.073670  1.0  -0.0701
  C  C563  1  0.523530  0.765270  0.050570  1.0  0.1774
  C  C564  1  0.535530  0.802270  0.068570  1.0  -0.1231
  C  C565  1  0.551330  0.810070  0.114470  1.0  -0.15
  C  C566  1  0.558430  0.783170  0.137770  1.0  0.0029
  C  C567  1  0.560430  0.719270  0.138270  1.0  0.7124
  C  C568  1  0.561330  0.849370  0.135770  1.0  0.7334
  C  C569  1  0.459930  0.683270  0.923870  1.0  -0.0545
  C  C570  1  0.441830  0.675770  0.880670  1.0  -0.185
  C  C571  1  0.439730  0.707570  0.857070  1.0  0.0158
  C  C572  1  0.454230  0.742970  0.877470  1.0  -0.1438
  C  C573  1  0.471930  0.751670  0.921270  1.0  -0.0767
  C  C574  1  0.476430  0.721470  0.943770  1.0  0.1219
  C  C575  1  0.423930  0.634970  0.861570  1.0  0.7351
  C  C576  1  0.449930  0.777870  0.854170  1.0  0.6715
  C  C577  1  0.158200  0.738200  0.543800  1.0  -0.1205
  C  C578  1  0.150200  0.721400  0.587700  1.0  -0.0903
  C  C579  1  0.114700  0.710600  0.608600  1.0  0.1075
  C  C580  1  0.085800  0.715800  0.586900  1.0  0.0157
  C  C581  1  0.092600  0.732000  0.541500  1.0  -0.1486
  C  C582  1  0.129900  0.743000  0.520400  1.0  0.0086
  C  C583  1  0.197700  0.750900  0.522800  1.0  0.698
  C  C584  1  0.063300  0.740400  0.518300  1.0  0.7401
  C  C585  1  0.070700  0.661700  0.714600  1.0  0.1819
  C  C586  1  0.098600  0.655100  0.736400  1.0  -0.0219
  C  C587  1  0.089900  0.636100  0.781100  1.0  -0.1296
  C  C588  1  0.053900  0.625100  0.800700  1.0  -0.0007
  C  C589  1  0.024400  0.630000  0.777800  1.0  -0.1637
  C  C590  1  0.033600  0.648900  0.735400  1.0  -0.1048
  C  C591  1  0.120100  0.629200  0.803300  1.0  0.7157
  C  C592  1  0.983900  0.616100  0.798800  1.0  0.7049
  C  C593  1  0.080500  0.863100  0.551300  1.0  -0.1118
  C  C594  1  0.072400  0.872500  0.593000  1.0  -0.0685
  C  C595  1  0.098600  0.908400  0.616100  1.0  0.1767
  C  C596  1  0.135600  0.933400  0.598100  1.0  -0.1219
  C  C597  1  0.143400  0.925400  0.552200  1.0  -0.1503
  C  C598  1  0.116500  0.891400  0.528900  1.0  0.0016
  C  C599  1  0.052600  0.825500  0.528400  1.0  0.7117
  C  C600  1  0.182700  0.954700  0.530900  1.0  0.7311
  C  C601  1  0.016600  0.890000  0.742800  1.0  -0.0557
  C  C602  1  0.009100  0.900600  0.786000  1.0  -0.1847
  C  C603  1  0.040900  0.934500  0.809600  1.0  0.0145
  C  C604  1  0.076300  0.955400  0.789200  1.0  -0.1444
  C  C605  1  0.085000  0.946400  0.745400  1.0  -0.0754
  C  C606  1  0.054800  0.911700  0.722900  1.0  0.1223
  C  C607  1  0.968300  0.877700  0.805100  1.0  0.734
  C  C608  1  0.111200  0.994600  0.812500  1.0  0.6725
  C  C609  1  0.824870  0.071530  0.877130  1.0  -0.1205
  C  C610  1  0.816870  0.054730  0.921030  1.0  -0.0898
  C  C611  1  0.781370  0.043930  0.941930  1.0  0.1073
  C  C612  1  0.752470  0.049130  0.920230  1.0  0.0157
  C  C613  1  0.759270  0.065330  0.874830  1.0  -0.1486
  C  C614  1  0.796570  0.076330  0.853730  1.0  0.0086
  C  C615  1  0.864370  0.084230  0.856130  1.0  0.6981
  C  C616  1  0.729970  0.073730  0.851630  1.0  0.7401
  C  C617  1  0.737370  0.995030  0.047930  1.0  0.181
  C  C618  1  0.765270  0.988430  0.069730  1.0  -0.0309
  C  C619  1  0.756570  0.969430  0.114430  1.0  -0.1232
  C  C620  1  0.720570  0.958430  0.134030  1.0  -0.0006
  C  C621  1  0.691070  0.963330  0.111130  1.0  -0.1636
  C  C622  1  0.700270  0.982230  0.068730  1.0  -0.105
  C  C623  1  0.786770  0.962530  0.136630  1.0  0.7158
  C  C624  1  0.650570  0.949430  0.132130  1.0  0.7048
  C  C625  1  0.747170  0.196430  0.884630  1.0  -0.1118
  C  C626  1  0.739070  0.205830  0.926330  1.0  -0.0685
  C  C627  1  0.765270  0.241730  0.949430  1.0  0.1767
  C  C628  1  0.802270  0.266730  0.931430  1.0  -0.122
  C  C629  1  0.810070  0.258730  0.885530  1.0  -0.1509
  C  C630  1  0.783170  0.224730  0.862230  1.0  0.0016
  C  C631  1  0.719270  0.158830  0.861730  1.0  0.7117
  C  C632  1  0.849370  0.288030  0.864230  1.0  0.7311
  C  C633  1  0.683270  0.223330  0.076130  1.0  -0.0557
  C  C634  1  0.675770  0.233930  0.119330  1.0  -0.1847
  C  C635  1  0.707570  0.267830  0.142930  1.0  0.0145
  C  C636  1  0.742970  0.288730  0.122530  1.0  -0.1442
  C  C637  1  0.751670  0.279730  0.078730  1.0  -0.0754
  C  C638  1  0.721470  0.245030  0.056230  1.0  0.1223
  C  C639  1  0.634970  0.211030  0.138430  1.0  0.7343
  C  C640  1  0.777870  0.327930  0.145830  1.0  0.6725
  C  C641  1  0.491530  0.404870  0.210470  1.0  -0.1206
  C  C642  1  0.483530  0.388070  0.254370  1.0  -0.0903
  C  C643  1  0.448030  0.377270  0.275270  1.0  0.1075
  C  C644  1  0.419130  0.382470  0.253570  1.0  0.0157
  C  C645  1  0.425930  0.398670  0.208170  1.0  -0.1486
  C  C646  1  0.463230  0.409670  0.187070  1.0  0.0086
  C  C647  1  0.531030  0.417570  0.189470  1.0  0.6982
  C  C648  1  0.396630  0.407070  0.184970  1.0  0.7401
  C  C649  1  0.404030  0.328370  0.381270  1.0  0.1819
  C  C650  1  0.431930  0.321770  0.403070  1.0  -0.0219
  C  C651  1  0.423230  0.302770  0.447770  1.0  -0.1296
  C  C652  1  0.387230  0.291770  0.467370  1.0  -0.0007
  C  C653  1  0.357730  0.296670  0.444470  1.0  -0.1637
  C  C654  1  0.366930  0.315570  0.402070  1.0  -0.1048
  C  C655  1  0.453430  0.295870  0.469970  1.0  0.7158
  C  C656  1  0.317230  0.282770  0.465470  1.0  0.7049
  C  C657  1  0.413830  0.529770  0.217970  1.0  -0.1118
  C  C658  1  0.405730  0.539170  0.259670  1.0  -0.0685
  C  C659  1  0.431930  0.575070  0.282770  1.0  0.1767
  C  C660  1  0.468930  0.600070  0.264770  1.0  -0.1219
  C  C661  1  0.476730  0.592070  0.218870  1.0  -0.1503
  C  C662  1  0.449830  0.558070  0.195570  1.0  0.0016
  C  C663  1  0.385930  0.492170  0.195070  1.0  0.7117
  C  C664  1  0.516030  0.621370  0.197570  1.0  0.7311
  C  C665  1  0.349930  0.556670  0.409470  1.0  -0.0557
  C  C666  1  0.342430  0.567270  0.452670  1.0  -0.1847
  C  C667  1  0.374230  0.601170  0.476270  1.0  0.0145
  C  C668  1  0.409630  0.622070  0.455870  1.0  -0.1442
  C  C669  1  0.418330  0.613070  0.412070  1.0  -0.0754
  C  C670  1  0.388130  0.578370  0.389570  1.0  0.1223
  C  C671  1  0.301630  0.544370  0.471770  1.0  0.734
  C  C672  1  0.444530  0.661270  0.479170  1.0  0.6725
  C  C673  1  0.261800  0.420000  0.543800  1.0  -0.1211
  C  C674  1  0.278600  0.428800  0.587700  1.0  -0.0928
  C  C675  1  0.289400  0.404100  0.608600  1.0  0.107
  C  C676  1  0.284200  0.370000  0.586900  1.0  0.0148
  C  C677  1  0.268000  0.360600  0.541500  1.0  -0.1496
  C  C678  1  0.257000  0.386900  0.520400  1.0  0.0108
  C  C679  1  0.249100  0.446800  0.522800  1.0  0.6995
  C  C680  1  0.259600  0.322900  0.518300  1.0  0.743
  C  C681  1  0.338300  0.409000  0.714600  1.0  0.181
  C  C682  1  0.344900  0.443500  0.736400  1.0  -0.0208
  C  C683  1  0.363900  0.453800  0.781100  1.0  -0.1305
  C  C684  1  0.374900  0.428800  0.800700  1.0  0.0002
  C  C685  1  0.370000  0.394400  0.777800  1.0  -0.1629
  C  C686  1  0.351100  0.384700  0.735400  1.0  -0.1044
  C  C687  1  0.370800  0.490900  0.803300  1.0  0.7166
  C  C688  1  0.383900  0.367800  0.798800  1.0  0.7045
  C  C689  1  0.136900  0.217400  0.551300  1.0  -0.113
  C  C690  1  0.127500  0.199900  0.593000  1.0  -0.0688
  C  C691  1  0.091600  0.190200  0.616100  1.0  0.1774
  C  C692  1  0.066600  0.202200  0.598100  1.0  -0.122
  C  C693  1  0.074600  0.218000  0.552200  1.0  -0.1501
  C  C694  1  0.108600  0.225100  0.528900  1.0  0.0016
  C  C695  1  0.174500  0.227100  0.528400  1.0  0.7133
  C  C696  1  0.045300  0.228000  0.530900  1.0  0.7317
  C  C697  1  0.110000  0.126600  0.742800  1.0  -0.0553
  C  C698  1  0.099400  0.108500  0.786000  1.0  -0.1849
  C  C699  1  0.065500  0.106400  0.809600  1.0  0.0154
  C  C700  1  0.044600  0.120900  0.789200  1.0  -0.1466
  C  C701  1  0.053600  0.138600  0.745400  1.0  -0.0762
  C  C702  1  0.088300  0.143100  0.722900  1.0  0.1225
  C  C703  1  0.122300  0.090600  0.805100  1.0  0.7327
  C  C704  1  0.005400  0.116600  0.812500  1.0  0.6705
  C  C705  1  0.928470  0.753330  0.877130  1.0  -0.1211
  C  C706  1  0.945270  0.762130  0.921030  1.0  -0.0932
  C  C707  1  0.956070  0.737430  0.941930  1.0  0.107
  C  C708  1  0.950870  0.703330  0.920230  1.0  0.0148
  C  C709  1  0.934670  0.693930  0.874830  1.0  -0.1496
  C  C710  1  0.923670  0.720230  0.853730  1.0  0.0108
  C  C711  1  0.915770  0.780130  0.856130  1.0  0.6996
  C  C712  1  0.926270  0.656230  0.851630  1.0  0.743
  C  C713  1  0.004970  0.742330  0.047930  1.0  0.1801
  C  C714  1  0.011570  0.776830  0.069730  1.0  -0.0319
  C  C715  1  0.030570  0.787130  0.114430  1.0  -0.1242
  C  C716  1  0.041570  0.762130  0.134030  1.0  0.0002
  C  C717  1  0.036670  0.727730  0.111130  1.0  -0.1628
  C  C718  1  0.017770  0.718030  0.068730  1.0  -0.1044
  C  C719  1  0.037470  0.824230  0.136630  1.0  0.7166
  C  C720  1  0.050570  0.701130  0.132130  1.0  0.7044
  C  C721  1  0.803570  0.550730  0.884630  1.0  -0.113
  C  C722  1  0.794170  0.533230  0.926330  1.0  -0.0688
  C  C723  1  0.758270  0.523530  0.949430  1.0  0.1774
  C  C724  1  0.733270  0.535530  0.931430  1.0  -0.122
  C  C725  1  0.741270  0.551330  0.885530  1.0  -0.1507
  C  C726  1  0.775270  0.558430  0.862230  1.0  0.0016
  C  C727  1  0.841170  0.560430  0.861730  1.0  0.7133
  C  C728  1  0.711970  0.561330  0.864230  1.0  0.7317
  C  C729  1  0.776670  0.459930  0.076130  1.0  -0.0553
  C  C730  1  0.766070  0.441830  0.119330  1.0  -0.185
  C  C731  1  0.732170  0.439730  0.142930  1.0  0.0154
  C  C732  1  0.711270  0.454230  0.122530  1.0  -0.1465
  C  C733  1  0.720270  0.471930  0.078730  1.0  -0.0766
  C  C734  1  0.754970  0.476430  0.056230  1.0  0.1225
  C  C735  1  0.788970  0.423930  0.138430  1.0  0.7322
  C  C736  1  0.672070  0.449930  0.145830  1.0  0.6704
  C  C737  1  0.595130  0.086670  0.210470  1.0  -0.1213
  C  C738  1  0.611930  0.095470  0.254370  1.0  -0.0928
  C  C739  1  0.622730  0.070770  0.275270  1.0  0.1068
  C  C740  1  0.617530  0.036670  0.253570  1.0  0.0148
  C  C741  1  0.601330  0.027270  0.208170  1.0  -0.1496
  C  C742  1  0.590330  0.053570  0.187070  1.0  0.0108
  C  C743  1  0.582430  0.113470  0.189470  1.0  0.6994
  C  C744  1  0.592930  0.989570  0.184970  1.0  0.7431
  C  C745  1  0.671630  0.075670  0.381270  1.0  0.181
  C  C746  1  0.678230  0.110170  0.403070  1.0  -0.0208
  C  C747  1  0.697230  0.120470  0.447770  1.0  -0.1305
  C  C748  1  0.708230  0.095470  0.467370  1.0  0.0002
  C  C749  1  0.703330  0.061070  0.444470  1.0  -0.1629
  C  C750  1  0.684430  0.051370  0.402070  1.0  -0.1044
  C  C751  1  0.704130  0.157570  0.469970  1.0  0.7166
  C  C752  1  0.717230  0.034470  0.465470  1.0  0.7045
  C  C753  1  0.470230  0.884070  0.217970  1.0  -0.113
  C  C754  1  0.460830  0.866570  0.259670  1.0  -0.0688
  C  C755  1  0.424930  0.856870  0.282770  1.0  0.1774
  C  C756  1  0.399930  0.868870  0.264770  1.0  -0.122
  C  C757  1  0.407930  0.884670  0.218870  1.0  -0.1501
  C  C758  1  0.441930  0.891770  0.195570  1.0  0.0016
  C  C759  1  0.507830  0.893770  0.195070  1.0  0.7133
  C  C760  1  0.378630  0.894670  0.197570  1.0  0.7317
  C  C761  1  0.443330  0.793270  0.409470  1.0  -0.0553
  C  C762  1  0.432730  0.775170  0.452670  1.0  -0.1849
  C  C763  1  0.398830  0.773070  0.476270  1.0  0.0154
  C  C764  1  0.377930  0.787570  0.455870  1.0  -0.1465
  C  C765  1  0.386930  0.805270  0.412070  1.0  -0.0762
  C  C766  1  0.421630  0.809770  0.389570  1.0  0.1225
  C  C767  1  0.455630  0.757270  0.471770  1.0  0.7327
  C  C768  1  0.338730  0.783270  0.479170  1.0  0.6705
  C  C769  1  0.580000  0.841800  0.543800  1.0  -0.1211
  C  C770  1  0.571200  0.849800  0.587700  1.0  -0.0931
  C  C771  1  0.595900  0.885300  0.608600  1.0  0.1071
  C  C772  1  0.630000  0.914200  0.586900  1.0  0.0139
  C  C773  1  0.639400  0.907400  0.541500  1.0  -0.1485
  C  C774  1  0.613100  0.870100  0.520400  1.0  0.0091
  C  C775  1  0.553200  0.802300  0.522800  1.0  0.7001
  C  C776  1  0.677100  0.936700  0.518300  1.0  0.7424
  C  C777  1  0.591000  0.929300  0.714600  1.0  0.182
  C  C778  1  0.556500  0.901400  0.736400  1.0  -0.0207
  C  C779  1  0.546200  0.910100  0.781100  1.0  -0.1292
  C  C780  1  0.571200  0.946100  0.800700  1.0  0.0002
  C  C781  1  0.605600  0.975600  0.777800  1.0  -0.1633
  C  C782  1  0.615300  0.966400  0.735400  1.0  -0.1048
  C  C783  1  0.509100  0.879900  0.803300  1.0  0.7163
  C  C784  1  0.632200  0.016100  0.798800  1.0  0.7058
  C  C785  1  0.782600  0.919500  0.551300  1.0  -0.1128
  C  C786  1  0.800100  0.927600  0.593000  1.0  -0.0699
  C  C787  1  0.809800  0.901400  0.616100  1.0  0.1768
  C  C788  1  0.797800  0.864400  0.598100  1.0  -0.1213
  C  C789  1  0.782000  0.856600  0.552200  1.0  -0.1518
  C  C790  1  0.774900  0.883500  0.528900  1.0  0.0015
  C  C791  1  0.772900  0.947400  0.528400  1.0  0.7141
  C  C792  1  0.772000  0.817300  0.530900  1.0  0.7329
  C  C793  1  0.873400  0.983400  0.742800  1.0  -0.0558
  C  C794  1  0.891500  0.990900  0.786000  1.0  -0.1843
  C  C795  1  0.893600  0.959100  0.809600  1.0  0.0164
  C  C796  1  0.879100  0.923700  0.789200  1.0  -0.1441
  C  C797  1  0.861400  0.915000  0.745400  1.0  -0.0766
  C  C798  1  0.856900  0.945200  0.722900  1.0  0.1235
  C  C799  1  0.909400  0.031700  0.805100  1.0  0.7356
  C  C800  1  0.883400  0.888800  0.812500  1.0  0.6724
  C  C801  1  0.246670  0.175130  0.877130  1.0  -0.1211
  C  C802  1  0.237870  0.183130  0.921030  1.0  -0.0927
  C  C803  1  0.262570  0.218630  0.941930  1.0  0.1071
  C  C804  1  0.296670  0.247530  0.920230  1.0  0.0139
  C  C805  1  0.306070  0.240730  0.874830  1.0  -0.1485
  C  C806  1  0.279770  0.203430  0.853730  1.0  0.0091
  C  C807  1  0.219870  0.135630  0.856130  1.0  0.7003
  C  C808  1  0.343770  0.270030  0.851630  1.0  0.7424
  C  C809  1  0.257670  0.262630  0.047930  1.0  0.182
  C  C810  1  0.223170  0.234730  0.069730  1.0  -0.0207
  C  C811  1  0.212870  0.243430  0.114430  1.0  -0.1293
  C  C812  1  0.237870  0.279430  0.134030  1.0  0.0002
  C  C813  1  0.272270  0.308930  0.111130  1.0  -0.1633
  C  C814  1  0.281970  0.299730  0.068730  1.0  -0.1048
  C  C815  1  0.175770  0.213230  0.136630  1.0  0.7162
  C  C816  1  0.298870  0.349430  0.132130  1.0  0.7058
  C  C817  1  0.449270  0.252830  0.884630  1.0  -0.1128
  C  C818  1  0.466770  0.260930  0.926330  1.0  -0.0699
  C  C819  1  0.476470  0.234730  0.949430  1.0  0.1768
  C  C820  1  0.464470  0.197730  0.931430  1.0  -0.1213
  C  C821  1  0.448670  0.189930  0.885530  1.0  -0.1509
  C  C822  1  0.441570  0.216830  0.862230  1.0  0.0015
  C  C823  1  0.439570  0.280730  0.861730  1.0  0.7141
  C  C824  1  0.438670  0.150630  0.864230  1.0  0.7329
  C  C825  1  0.540070  0.316730  0.076130  1.0  -0.0558
  C  C826  1  0.558170  0.324230  0.119330  1.0  -0.1842
  C  C827  1  0.560270  0.292430  0.142930  1.0  0.0164
  C  C828  1  0.545770  0.257030  0.122530  1.0  -0.1441
  C  C829  1  0.528070  0.248330  0.078730  1.0  -0.0766
  C  C830  1  0.523570  0.278530  0.056230  1.0  0.1235
  C  C831  1  0.576070  0.365030  0.138430  1.0  0.7356
  C  C832  1  0.550070  0.222130  0.145830  1.0  0.6723
  C  C833  1  0.913330  0.508470  0.210470  1.0  -0.121
  C  C834  1  0.904530  0.516470  0.254370  1.0  -0.0931
  C  C835  1  0.929230  0.551970  0.275270  1.0  0.1071
  C  C836  1  0.963330  0.580870  0.253570  1.0  0.014
  C  C837  1  0.972730  0.574070  0.208170  1.0  -0.1485
  C  C838  1  0.946430  0.536770  0.187070  1.0  0.0091
  C  C839  1  0.886530  0.468970  0.189470  1.0  0.7002
  C  C840  1  0.010430  0.603370  0.184970  1.0  0.7424
  C  C841  1  0.924330  0.595970  0.381270  1.0  0.182
  C  C842  1  0.889830  0.568070  0.403070  1.0  -0.0207
  C  C843  1  0.879530  0.576770  0.447770  1.0  -0.1292
  C  C844  1  0.904530  0.612770  0.467370  1.0  0.0002
  C  C845  1  0.938930  0.642270  0.444470  1.0  -0.1633
  C  C846  1  0.948630  0.633070  0.402070  1.0  -0.1048
  C  C847  1  0.842430  0.546570  0.469970  1.0  0.7163
  C  C848  1  0.965530  0.682770  0.465470  1.0  0.7058
  C  C849  1  0.115930  0.586170  0.217970  1.0  -0.1128
  C  C850  1  0.133430  0.594270  0.259670  1.0  -0.0699
  C  C851  1  0.143130  0.568070  0.282770  1.0  0.1768
  C  C852  1  0.131130  0.531070  0.264770  1.0  -0.1213
  C  C853  1  0.115330  0.523270  0.218870  1.0  -0.1518
  C  C854  1  0.108230  0.550170  0.195570  1.0  0.0015
  C  C855  1  0.106230  0.614070  0.195070  1.0  0.7141
  C  C856  1  0.105330  0.483970  0.197570  1.0  0.7329
  C  C857  1  0.206730  0.650070  0.409470  1.0  -0.0558
  C  C858  1  0.224830  0.657570  0.452670  1.0  -0.1843
  C  C859  1  0.226930  0.625770  0.476270  1.0  0.0164
  C  C860  1  0.212430  0.590370  0.455870  1.0  -0.1443
  C  C861  1  0.194730  0.581670  0.412070  1.0  -0.0766
  C  C862  1  0.190230  0.611870  0.389570  1.0  0.1235
  C  C863  1  0.242730  0.698370  0.471770  1.0  0.7356
  C  C864  1  0.216730  0.555470  0.479170  1.0  0.6724
  N  N865  1  0.890900  0.308100  0.345400  1.0  -0.2908
  N  N866  1  0.925000  0.320500  0.328900  1.0  -0.1601
  N  N867  1  0.907900  0.080300  0.339500  1.0  -0.207
  N  N868  1  0.941200  0.100900  0.320600  1.0  -0.1968
  N  N869  1  0.557570  0.641430  0.678730  1.0  -0.2908
  N  N870  1  0.591670  0.653830  0.662230  1.0  -0.16
  N  N871  1  0.574570  0.413630  0.672830  1.0  -0.207
  N  N872  1  0.607870  0.434230  0.653930  1.0  -0.1968
  N  N873  1  0.224230  0.974770  0.012070  1.0  -0.2908
  N  N874  1  0.258330  0.987170  0.995570  1.0  -0.16
  N  N875  1  0.241230  0.746970  0.006170  1.0  -0.207
  N  N876  1  0.274530  0.767570  0.987270  1.0  -0.1968
  N  N877  1  0.691900  0.582800  0.345400  1.0  -0.2923
  N  N878  1  0.679500  0.604500  0.328900  1.0  -0.1578
  N  N879  1  0.919700  0.827600  0.339500  1.0  -0.2062
  N  N880  1  0.899100  0.840300  0.320600  1.0  -0.1948
  N  N881  1  0.358570  0.916130  0.678730  1.0  -0.2923
  N  N882  1  0.346170  0.937830  0.662230  1.0  -0.1578
  N  N883  1  0.586370  0.160930  0.672830  1.0  -0.2062
  N  N884  1  0.565770  0.173630  0.653930  1.0  -0.1948
  N  N885  1  0.025230  0.249470  0.012070  1.0  -0.2923
  N  N886  1  0.012830  0.271170  0.995570  1.0  -0.1578
  N  N887  1  0.253030  0.494270  0.006170  1.0  -0.2062
  N  N888  1  0.232430  0.506970  0.987270  1.0  -0.1948
  N  N889  1  0.417200  0.109100  0.345400  1.0  -0.2919
  N  N890  1  0.395500  0.075000  0.328900  1.0  -0.1562
  N  N891  1  0.172400  0.092100  0.339500  1.0  -0.2049
  N  N892  1  0.159700  0.058800  0.320600  1.0  -0.1944
  N  N893  1  0.083870  0.442430  0.678730  1.0  -0.2919
  N  N894  1  0.062170  0.408330  0.662230  1.0  -0.1562
  N  N895  1  0.839070  0.425430  0.672830  1.0  -0.2049
  N  N896  1  0.826370  0.392130  0.653930  1.0  -0.1944
  N  N897  1  0.750530  0.775770  0.012070  1.0  -0.2919
  N  N898  1  0.728830  0.741670  0.995570  1.0  -0.1562
  N  N899  1  0.505730  0.758770  0.006170  1.0  -0.2049
  N  N900  1  0.493030  0.725470  0.987270  1.0  -0.1944
  N  N901  1  0.109100  0.691900  0.654600  1.0  -0.2929
  N  N902  1  0.075000  0.679500  0.671100  1.0  -0.1569
  N  N903  1  0.092100  0.919700  0.660500  1.0  -0.2054
  N  N904  1  0.058800  0.899100  0.679400  1.0  -0.1965
  N  N905  1  0.775770  0.025230  0.987930  1.0  -0.2929
  N  N906  1  0.741670  0.012830  0.004430  1.0  -0.1569
  N  N907  1  0.758770  0.253030  0.993830  1.0  -0.2054
  N  N908  1  0.725470  0.232430  0.012730  1.0  -0.1965
  N  N909  1  0.442430  0.358570  0.321270  1.0  -0.2929
  N  N910  1  0.408330  0.346170  0.337770  1.0  -0.1569
  N  N911  1  0.425430  0.586370  0.327170  1.0  -0.2054
  N  N912  1  0.392130  0.565770  0.346070  1.0  -0.1965
  N  N913  1  0.308100  0.417200  0.654600  1.0  -0.2928
  N  N914  1  0.320500  0.395500  0.671100  1.0  -0.1587
  N  N915  1  0.080300  0.172400  0.660500  1.0  -0.2059
  N  N916  1  0.100900  0.159700  0.679400  1.0  -0.1954
  N  N917  1  0.974770  0.750530  0.987930  1.0  -0.2928
  N  N918  1  0.987170  0.728830  0.004430  1.0  -0.1587
  N  N919  1  0.746970  0.505730  0.993830  1.0  -0.2059
  N  N920  1  0.767570  0.493030  0.012730  1.0  -0.1954
  N  N921  1  0.641430  0.083870  0.321270  1.0  -0.2928
  N  N922  1  0.653830  0.062170  0.337770  1.0  -0.1587
  N  N923  1  0.413630  0.839070  0.327170  1.0  -0.2059
  N  N924  1  0.434230  0.826370  0.346070  1.0  -0.1954
  N  N925  1  0.582800  0.890900  0.654600  1.0  -0.2931
  N  N926  1  0.604500  0.925000  0.671100  1.0  -0.1569
  N  N927  1  0.827600  0.907900  0.660500  1.0  -0.2037
  N  N928  1  0.840300  0.941200  0.679400  1.0  -0.1965
  N  N929  1  0.249470  0.224230  0.987930  1.0  -0.2931
  N  N930  1  0.271170  0.258330  0.004430  1.0  -0.1569
  N  N931  1  0.494270  0.241230  0.993830  1.0  -0.2037
  N  N932  1  0.506970  0.274530  0.012730  1.0  -0.1965
  N  N933  1  0.916130  0.557570  0.321270  1.0  -0.2931
  N  N934  1  0.937830  0.591670  0.337770  1.0  -0.1569
  N  N935  1  0.160930  0.574570  0.327170  1.0  -0.2037
  N  N936  1  0.173630  0.607870  0.346070  1.0  -0.1965
  O  O937  1  0.776240  0.250300  0.452200  1.0  -0.615
  O  O938  1  0.794180  0.233700  0.518600  1.0  -0.5977
  O  O939  1  0.965830  0.265800  0.456600  1.0  -0.6387
  O  O940  1  0.930620  0.247700  0.523130  1.0  -0.5843
  O  O941  1  0.851240  0.366280  0.221370  1.0  -0.6257
  O  O942  1  0.887210  0.384970  0.156400  1.0  -0.6158
  O  O943  1  0.021510  0.399800  0.160100  1.0  -0.5997
  O  O944  1  0.040450  0.383870  0.225700  1.0  -0.5967
  O  O945  1  0.976970  0.201690  0.447460  1.0  -0.63
  O  O946  1  0.938180  0.180770  0.512500  1.0  -0.5947
  O  O947  1  0.810000  0.053380  0.509700  1.0  -0.5845
  O  O948  1  0.795160  0.016700  0.445700  1.0  -0.5906
  O  O949  1  0.057760  0.147980  0.219300  1.0  -0.6108
  O  O950  1  0.037250  0.114510  0.152700  1.0  -0.603
  O  O951  1  0.896090  0.999800  0.147300  1.0  -0.5709
  O  O952  1  0.859820  0.985850  0.213100  1.0  -0.5848
  O  O953  1  0.442910  0.583630  0.785530  1.0  -0.615
  O  O954  1  0.460850  0.567030  0.851930  1.0  -0.5979
  O  O955  1  0.632500  0.599130  0.789930  1.0  -0.6387
  O  O956  1  0.597290  0.581030  0.856460  1.0  -0.5842
  O  O957  1  0.517910  0.699610  0.554700  1.0  -0.6256
  O  O958  1  0.553880  0.718300  0.489730  1.0  -0.6158
  O  O959  1  0.688180  0.733130  0.493430  1.0  -0.5997
  O  O960  1  0.707120  0.717200  0.559030  1.0  -0.5967
  O  O961  1  0.643640  0.535020  0.780790  1.0  -0.63
  O  O962  1  0.604850  0.514100  0.845830  1.0  -0.5947
  O  O963  1  0.476670  0.386710  0.843030  1.0  -0.5844
  O  O964  1  0.461830  0.350030  0.779030  1.0  -0.5906
  O  O965  1  0.724430  0.481310  0.552630  1.0  -0.6108
  O  O966  1  0.703920  0.447840  0.486030  1.0  -0.6029
  O  O967  1  0.562760  0.333130  0.480630  1.0  -0.5709
  O  O968  1  0.526490  0.319180  0.546430  1.0  -0.5848
  O  O969  1  0.109570  0.916970  0.118870  1.0  -0.616
  O  O970  1  0.127510  0.900370  0.185270  1.0  -0.5977
  O  O971  1  0.299160  0.932470  0.123270  1.0  -0.6387
  O  O972  1  0.263950  0.914370  0.189800  1.0  -0.5843
  O  O973  1  0.184570  0.032950  0.888040  1.0  -0.6256
  O  O974  1  0.220540  0.051640  0.823070  1.0  -0.6159
  O  O975  1  0.354840  0.066470  0.826770  1.0  -0.5998
  O  O976  1  0.373780  0.050540  0.892370  1.0  -0.5964
  O  O977  1  0.310300  0.868360  0.114130  1.0  -0.63
  O  O978  1  0.271510  0.847440  0.179170  1.0  -0.5947
  O  O979  1  0.143330  0.720050  0.176370  1.0  -0.5846
  O  O980  1  0.128490  0.683370  0.112370  1.0  -0.5905
  O  O981  1  0.391090  0.814650  0.885970  1.0  -0.6108
  O  O982  1  0.370580  0.781180  0.819370  1.0  -0.6026
  O  O983  1  0.229420  0.666470  0.813970  1.0  -0.5708
  O  O984  1  0.193150  0.652520  0.879770  1.0  -0.5848
  O  O985  1  0.749700  0.525940  0.452200  1.0  -0.6179
  O  O986  1  0.766300  0.560480  0.518600  1.0  -0.5994
  O  O987  1  0.734200  0.700030  0.456600  1.0  -0.6379
  O  O988  1  0.752300  0.682920  0.523130  1.0  -0.5822
  O  O989  1  0.633720  0.484960  0.221370  1.0  -0.6263
  O  O990  1  0.615030  0.502240  0.156400  1.0  -0.6155
  O  O991  1  0.600200  0.621710  0.160100  1.0  -0.5997
  O  O992  1  0.616130  0.656580  0.225700  1.0  -0.5972
  O  O993  1  0.798310  0.775280  0.447460  1.0  -0.6317
  O  O994  1  0.819230  0.757410  0.512500  1.0  -0.5946
  O  O995  1  0.946620  0.756620  0.509700  1.0  -0.5835
  O  O996  1  0.983300  0.778460  0.445700  1.0  -0.59
  O  O997  1  0.852020  0.909780  0.219300  1.0  -0.6094
  O  O998  1  0.885490  0.922740  0.152700  1.0  -0.6013
  O  O999  1  0.000200  0.896290  0.147300  1.0  -0.5718
  O  O1000  1  0.014150  0.873970  0.213100  1.0  -0.5846
  O  O1001  1  0.416370  0.859270  0.785530  1.0  -0.6179
  O  O1002  1  0.432970  0.893810  0.851930  1.0  -0.5995
  O  O1003  1  0.400870  0.033360  0.789930  1.0  -0.6377
  O  O1004  1  0.418970  0.016250  0.856460  1.0  -0.5825
  O  O1005  1  0.300390  0.818290  0.554700  1.0  -0.6263
  O  O1006  1  0.281700  0.835570  0.489730  1.0  -0.6155
  O  O1007  1  0.266870  0.955040  0.493430  1.0  -0.5997
  O  O1008  1  0.282800  0.989910  0.559030  1.0  -0.5972
  O  O1009  1  0.464980  0.108610  0.780790  1.0  -0.6317
  O  O1010  1  0.485900  0.090740  0.845830  1.0  -0.5946
  O  O1011  1  0.613290  0.089950  0.843030  1.0  -0.5842
  O  O1012  1  0.649970  0.111790  0.779030  1.0  -0.59
  O  O1013  1  0.518690  0.243110  0.552630  1.0  -0.6094
  O  O1014  1  0.552160  0.256070  0.486030  1.0  -0.6014
  O  O1015  1  0.666870  0.229620  0.480630  1.0  -0.572
  O  O1016  1  0.680820  0.207300  0.546430  1.0  -0.5846
  O  O1017  1  0.083030  0.192610  0.118870  1.0  -0.6179
  O  O1018  1  0.099630  0.227150  0.185270  1.0  -0.5996
  O  O1019  1  0.067530  0.366700  0.123270  1.0  -0.6379
  O  O1020  1  0.085630  0.349590  0.189800  1.0  -0.5822
  O  O1021  1  0.967050  0.151630  0.888040  1.0  -0.6263
  O  O1022  1  0.948360  0.168910  0.823070  1.0  -0.6156
  O  O1023  1  0.933530  0.288380  0.826770  1.0  -0.5995
  O  O1024  1  0.949460  0.323250  0.892370  1.0  -0.5967
  O  O1025  1  0.131640  0.441950  0.114130  1.0  -0.6317
  O  O1026  1  0.152560  0.424080  0.179170  1.0  -0.5946
  O  O1027  1  0.279950  0.423290  0.176370  1.0  -0.5835
  O  O1028  1  0.316630  0.445130  0.112370  1.0  -0.5899
  O  O1029  1  0.185350  0.576450  0.885970  1.0  -0.6093
  O  O1030  1  0.218820  0.589410  0.819370  1.0  -0.6016
  O  O1031  1  0.333530  0.562960  0.813970  1.0  -0.5717
  O  O1032  1  0.347480  0.540640  0.879770  1.0  -0.5846
  O  O1033  1  0.474060  0.223760  0.452200  1.0  -0.6177
  O  O1034  1  0.439520  0.205820  0.518600  1.0  -0.5994
  O  O1035  1  0.299970  0.034170  0.456600  1.0  -0.6394
  O  O1036  1  0.317080  0.069380  0.523130  1.0  -0.5834
  O  O1037  1  0.515040  0.148760  0.221370  1.0  -0.6273
  O  O1038  1  0.497760  0.112790  0.156400  1.0  -0.6165
  O  O1039  1  0.378290  0.978490  0.160100  1.0  -0.5991
  O  O1040  1  0.343420  0.959550  0.225700  1.0  -0.5976
  O  O1041  1  0.224720  0.023030  0.447460  1.0  -0.6315
  O  O1042  1  0.242590  0.061820  0.512500  1.0  -0.5967
  O  O1043  1  0.243380  0.190000  0.509700  1.0  -0.5812
  O  O1044  1  0.221540  0.204840  0.445700  1.0  -0.5902
  O  O1045  1  0.090220  0.942240  0.219300  1.0  -0.6107
  O  O1046  1  0.077260  0.962750  0.152700  1.0  -0.6021
  O  O1047  1  0.103710  0.103910  0.147300  1.0  -0.5719
  O  O1048  1  0.126030  0.140180  0.213100  1.0  -0.5861
  O  O1049  1  0.140730  0.557090  0.785530  1.0  -0.6177
  O  O1050  1  0.106190  0.539150  0.851930  1.0  -0.5994
  O  O1051  1  0.966640  0.367500  0.789930  1.0  -0.6393
  O  O1052  1  0.983750  0.402710  0.856460  1.0  -0.5834
  O  O1053  1  0.181710  0.482090  0.554700  1.0  -0.6273
  O  O1054  1  0.164430  0.446120  0.489730  1.0  -0.6165
  O  O1055  1  0.044960  0.311820  0.493430  1.0  -0.5991
  O  O1056  1  0.010090  0.292880  0.559030  1.0  -0.5976
  O  O1057  1  0.891390  0.356360  0.780790  1.0  -0.6315
  O  O1058  1  0.909260  0.395150  0.845830  1.0  -0.5967
  O  O1059  1  0.910050  0.523330  0.843030  1.0  -0.5812
  O  O1060  1  0.888210  0.538170  0.779030  1.0  -0.5902
  O  O1061  1  0.756890  0.275570  0.552630  1.0  -0.6107
  O  O1062  1  0.743930  0.296080  0.486030  1.0  -0.6021
  O  O1063  1  0.770380  0.437240  0.480630  1.0  -0.5719
  O  O1064  1  0.792700  0.473510  0.546430  1.0  -0.5861
  O  O1065  1  0.807390  0.890430  0.118870  1.0  -0.6164
  O  O1066  1  0.772850  0.872490  0.185270  1.0  -0.5993
  O  O1067  1  0.633300  0.700840  0.123270  1.0  -0.6394
  O  O1068  1  0.650410  0.736050  0.189800  1.0  -0.5834
  O  O1069  1  0.848370  0.815430  0.888040  1.0  -0.6273
  O  O1070  1  0.831090  0.779460  0.823070  1.0  -0.6152
  O  O1071  1  0.711620  0.645160  0.826770  1.0  -0.5989
  O  O1072  1  0.676750  0.626220  0.892370  1.0  -0.598
  O  O1073  1  0.558050  0.689700  0.114130  1.0  -0.6315
  O  O1074  1  0.575920  0.728490  0.179170  1.0  -0.5967
  O  O1075  1  0.576710  0.856670  0.176370  1.0  -0.5812
  O  O1076  1  0.554870  0.871510  0.112370  1.0  -0.5903
  O  O1077  1  0.423550  0.608910  0.885970  1.0  -0.6107
  O  O1078  1  0.410590  0.629420  0.819370  1.0  -0.6019
  O  O1079  1  0.437040  0.770580  0.813970  1.0  -0.5721
  O  O1080  1  0.459360  0.806850  0.879770  1.0  -0.586
  O  O1081  1  0.223760  0.749700  0.547800  1.0  -0.615
  O  O1082  1  0.205820  0.766300  0.481400  1.0  -0.5993
  O  O1083  1  0.034170  0.734200  0.543400  1.0  -0.6385
  O  O1084  1  0.069380  0.752300  0.476870  1.0  -0.5814
  O  O1085  1  0.148760  0.633720  0.778630  1.0  -0.6261
  O  O1086  1  0.112790  0.615030  0.843600  1.0  -0.6174
  O  O1087  1  0.978490  0.600200  0.839900  1.0  -0.5983
  O  O1088  1  0.959550  0.616130  0.774300  1.0  -0.5961
  O  O1089  1  0.023030  0.798310  0.552540  1.0  -0.6303
  O  O1090  1  0.061820  0.819230  0.487500  1.0  -0.5958
  O  O1091  1  0.190000  0.946620  0.490300  1.0  -0.5818
  O  O1092  1  0.204840  0.983300  0.554300  1.0  -0.5916
  O  O1093  1  0.942240  0.852020  0.780700  1.0  -0.6092
  O  O1094  1  0.962750  0.885490  0.847300  1.0  -0.6022
  O  O1095  1  0.103910  0.000200  0.852700  1.0  -0.5719
  O  O1096  1  0.140180  0.014150  0.786900  1.0  -0.5846
  O  O1097  1  0.890430  0.083030  0.881130  1.0  -0.6159
  O  O1098  1  0.872490  0.099630  0.814730  1.0  -0.5993
  O  O1099  1  0.700840  0.067530  0.876730  1.0  -0.6385
  O  O1100  1  0.736050  0.085630  0.810200  1.0  -0.5814
  O  O1101  1  0.815430  0.967050  0.111960  1.0  -0.626
  O  O1102  1  0.779460  0.948360  0.176930  1.0  -0.6173
  O  O1103  1  0.645160  0.933530  0.173230  1.0  -0.5984
  O  O1104  1  0.626220  0.949460  0.107630  1.0  -0.5956
  O  O1105  1  0.689700  0.131640  0.885870  1.0  -0.6303
  O  O1106  1  0.728490  0.152560  0.820830  1.0  -0.5958
  O  O1107  1  0.856670  0.279950  0.823630  1.0  -0.5819
  O  O1108  1  0.871510  0.316630  0.887630  1.0  -0.5916
  O  O1109  1  0.608910  0.185350  0.114030  1.0  -0.6092
  O  O1110  1  0.629420  0.218820  0.180630  1.0  -0.602
  O  O1111  1  0.770580  0.333530  0.186030  1.0  -0.5718
  O  O1112  1  0.806850  0.347480  0.120230  1.0  -0.5846
  O  O1113  1  0.557090  0.416370  0.214470  1.0  -0.615
  O  O1114  1  0.539150  0.432970  0.148070  1.0  -0.5995
  O  O1115  1  0.367500  0.400870  0.210070  1.0  -0.6385
  O  O1116  1  0.402710  0.418970  0.143540  1.0  -0.5813
  O  O1117  1  0.482090  0.300390  0.445300  1.0  -0.626
  O  O1118  1  0.446120  0.281700  0.510270  1.0  -0.6174
  O  O1119  1  0.311820  0.266870  0.506570  1.0  -0.5983
  O  O1120  1  0.292880  0.282800  0.440970  1.0  -0.5961
  O  O1121  1  0.356360  0.464980  0.219210  1.0  -0.6303
  O  O1122  1  0.395150  0.485900  0.154170  1.0  -0.5958
  O  O1123  1  0.523330  0.613290  0.156970  1.0  -0.5817
  O  O1124  1  0.538170  0.649970  0.220970  1.0  -0.5916
  O  O1125  1  0.275570  0.518690  0.447370  1.0  -0.6092
  O  O1126  1  0.296080  0.552160  0.513970  1.0  -0.6021
  O  O1127  1  0.437240  0.666870  0.519370  1.0  -0.5719
  O  O1128  1  0.473510  0.680820  0.453570  1.0  -0.5846
  O  O1129  1  0.250300  0.474060  0.547800  1.0  -0.6186
  O  O1130  1  0.233700  0.439520  0.481400  1.0  -0.598
  O  O1131  1  0.265800  0.299970  0.543400  1.0  -0.638
  O  O1132  1  0.247700  0.317080  0.476870  1.0  -0.5815
  O  O1133  1  0.366280  0.515040  0.778630  1.0  -0.6263
  O  O1134  1  0.384970  0.497760  0.843600  1.0  -0.6156
  O  O1135  1  0.399800  0.378290  0.839900  1.0  -0.6005
  O  O1136  1  0.383870  0.343420  0.774300  1.0  -0.5962
  O  O1137  1  0.201690  0.224720  0.552540  1.0  -0.6286
  O  O1138  1  0.180770  0.242590  0.487500  1.0  -0.595
  O  O1139  1  0.053380  0.243380  0.490300  1.0  -0.5805
  O  O1140  1  0.016700  0.221540  0.554300  1.0  -0.5901
  O  O1141  1  0.147980  0.090220  0.780700  1.0  -0.6101
  O  O1142  1  0.114510  0.077260  0.847300  1.0  -0.6026
  O  O1143  1  0.999800  0.103710  0.852700  1.0  -0.5709
  O  O1144  1  0.985850  0.126030  0.786900  1.0  -0.583
  O  O1145  1  0.916970  0.807390  0.881130  1.0  -0.6186
  O  O1146  1  0.900370  0.772850  0.814730  1.0  -0.5983
  O  O1147  1  0.932470  0.633300  0.876730  1.0  -0.638
  O  O1148  1  0.914370  0.650410  0.810200  1.0  -0.5815
  O  O1149  1  0.032950  0.848370  0.111960  1.0  -0.6263
  O  O1150  1  0.051640  0.831090  0.176930  1.0  -0.6158
  O  O1151  1  0.066470  0.711620  0.173230  1.0  -0.6003
  O  O1152  1  0.050540  0.676750  0.107630  1.0  -0.5959
  O  O1153  1  0.868360  0.558050  0.885870  1.0  -0.6286
  O  O1154  1  0.847440  0.575920  0.820830  1.0  -0.595
  O  O1155  1  0.720050  0.576710  0.823630  1.0  -0.5805
  O  O1156  1  0.683370  0.554870  0.887630  1.0  -0.59
  O  O1157  1  0.814650  0.423550  0.114030  1.0  -0.61
  O  O1158  1  0.781180  0.410590  0.180630  1.0  -0.6029
  O  O1159  1  0.666470  0.437040  0.186030  1.0  -0.5707
  O  O1160  1  0.652520  0.459360  0.120230  1.0  -0.583
  O  O1161  1  0.583630  0.140730  0.214470  1.0  -0.6186
  O  O1162  1  0.567030  0.106190  0.148070  1.0  -0.5982
  O  O1163  1  0.599130  0.966640  0.210070  1.0  -0.6378
  O  O1164  1  0.581030  0.983750  0.143540  1.0  -0.5818
  O  O1165  1  0.699610  0.181710  0.445300  1.0  -0.6263
  O  O1166  1  0.718300  0.164430  0.510270  1.0  -0.6156
  O  O1167  1  0.733130  0.044960  0.506570  1.0  -0.6005
  O  O1168  1  0.717200  0.010090  0.440970  1.0  -0.5962
  O  O1169  1  0.535020  0.891390  0.219210  1.0  -0.6286
  O  O1170  1  0.514100  0.909260  0.154170  1.0  -0.595
  O  O1171  1  0.386710  0.910050  0.156970  1.0  -0.5809
  O  O1172  1  0.350030  0.888210  0.220970  1.0  -0.5901
  O  O1173  1  0.481310  0.756890  0.447370  1.0  -0.6101
  O  O1174  1  0.447840  0.743930  0.513970  1.0  -0.6026
  O  O1175  1  0.333130  0.770380  0.519370  1.0  -0.5711
  O  O1176  1  0.319180  0.792700  0.453570  1.0  -0.583
  O  O1177  1  0.525940  0.776240  0.547800  1.0  -0.6172
  O  O1178  1  0.560480  0.794180  0.481400  1.0  -0.5984
  O  O1179  1  0.700030  0.965830  0.543400  1.0  -0.6408
  O  O1180  1  0.682920  0.930620  0.476870  1.0  -0.5827
  O  O1181  1  0.484960  0.851240  0.778630  1.0  -0.6277
  O  O1182  1  0.502240  0.887210  0.843600  1.0  -0.6178
  O  O1183  1  0.621710  0.021510  0.839900  1.0  -0.5984
  O  O1184  1  0.656580  0.040450  0.774300  1.0  -0.5973
  O  O1185  1  0.775280  0.976970  0.552540  1.0  -0.6304
  O  O1186  1  0.757410  0.938180  0.487500  1.0  -0.5972
  O  O1187  1  0.756620  0.810000  0.490300  1.0  -0.5807
  O  O1188  1  0.778460  0.795160  0.554300  1.0  -0.5901
  O  O1189  1  0.909780  0.057760  0.780700  1.0  -0.6107
  O  O1190  1  0.922740  0.037250  0.847300  1.0  -0.6013
  O  O1191  1  0.896290  0.896090  0.852700  1.0  -0.574
  O  O1192  1  0.873970  0.859820  0.786900  1.0  -0.5861
  O  O1193  1  0.192610  0.109570  0.881130  1.0  -0.6164
  O  O1194  1  0.227150  0.127510  0.814730  1.0  -0.5982
  O  O1195  1  0.366700  0.299160  0.876730  1.0  -0.6408
  O  O1196  1  0.349590  0.263950  0.810200  1.0  -0.5827
  O  O1197  1  0.151630  0.184570  0.111960  1.0  -0.6277
  O  O1198  1  0.168910  0.220540  0.176930  1.0  -0.6163
  O  O1199  1  0.288380  0.354840  0.173230  1.0  -0.5983
  O  O1200  1  0.323250  0.373780  0.107630  1.0  -0.5977
  O  O1201  1  0.441950  0.310300  0.885870  1.0  -0.6304
  O  O1202  1  0.424080  0.271510  0.820830  1.0  -0.5972
  O  O1203  1  0.423290  0.143330  0.823630  1.0  -0.5807
  O  O1204  1  0.445130  0.128490  0.887630  1.0  -0.5903
  O  O1205  1  0.576450  0.391090  0.114030  1.0  -0.6107
  O  O1206  1  0.589410  0.370580  0.180630  1.0  -0.6012
  O  O1207  1  0.562960  0.229420  0.186030  1.0  -0.5743
  O  O1208  1  0.540640  0.193150  0.120230  1.0  -0.5861
  O  O1209  1  0.859270  0.442910  0.214470  1.0  -0.6172
  O  O1210  1  0.893810  0.460850  0.148070  1.0  -0.5983
  O  O1211  1  0.033360  0.632500  0.210070  1.0  -0.6406
  O  O1212  1  0.016250  0.597290  0.143540  1.0  -0.5827
  O  O1213  1  0.818290  0.517910  0.445300  1.0  -0.6277
  O  O1214  1  0.835570  0.553880  0.510270  1.0  -0.6178
  O  O1215  1  0.955040  0.688180  0.506570  1.0  -0.5984
  O  O1216  1  0.989910  0.707120  0.440970  1.0  -0.5973
  O  O1217  1  0.108610  0.643640  0.219210  1.0  -0.6304
  O  O1218  1  0.090740  0.604850  0.154170  1.0  -0.5972
  O  O1219  1  0.089950  0.476670  0.156970  1.0  -0.5807
  O  O1220  1  0.111790  0.461830  0.220970  1.0  -0.5901
  O  O1221  1  0.243110  0.724430  0.447370  1.0  -0.6107
  O  O1222  1  0.256070  0.703920  0.513970  1.0  -0.6013
  O  O1223  1  0.229620  0.562760  0.519370  1.0  -0.5741
  O  O1224  1  0.207300  0.526490  0.453570  1.0  -0.5861
