# generated using pymatgen
data_Si7Ag5H112(C7N)14
_symmetry_space_group_name_H-M   'P 1'
_cell_length_a   12.83870000
_cell_length_b   12.83870000
_cell_length_c   64.38240000
_cell_angle_alpha   90.00000000
_cell_angle_beta   90.00000000
_cell_angle_gamma   120.00000000
_symmetry_Int_Tables_number   1
_chemical_formula_structural   Si7Ag5H112(C7N)14
_chemical_formula_sum   'Si21 Ag15 H336 C294 N42'
_cell_volume   9190.51599915
_cell_formula_units_Z   3
loop_
 _symmetry_equiv_pos_site_id
 _symmetry_equiv_pos_as_xyz
  1  'x, y, z'
loop_
 _atom_site_type_symbol
 _atom_site_label
 _atom_site_symmetry_multiplicity
 _atom_site_fract_x
 _atom_site_fract_y
 _atom_site_fract_z
 _atom_site_occupancy
 _atom_site_charge
  Si  Si1  1  0.978700  0.119400  0.096750  1.0  0.929
  Si  Si2  1  0.426500  0.653500  0.075940  1.0  0.9339
  Si  Si3  1  0.519500  0.192300  0.072180  1.0  0.9533
  Si  Si4  1  0.880600  0.859300  0.763420  1.0  0.9299
  Si  Si5  1  0.346500  0.773000  0.742610  1.0  0.9323
  Si  Si6  1  0.807700  0.327200  0.738850  1.0  0.9527
  Si  Si7  1  0.140700  0.021300  0.430080  1.0  0.9279
  Si  Si8  1  0.227000  0.573500  0.409270  1.0  0.9354
  Si  Si9  1  0.672800  0.480500  0.405510  1.0  0.949
  Si  Si10  1  0.119400  0.978700  0.903250  1.0  0.9286
  Si  Si11  1  0.653500  0.426500  0.924060  1.0  0.9352
  Si  Si12  1  0.192300  0.519500  0.927820  1.0  0.9515
  Si  Si13  1  0.859300  0.880600  0.236580  1.0  0.9284
  Si  Si14  1  0.773000  0.346500  0.257390  1.0  0.9333
  Si  Si15  1  0.327200  0.807700  0.261150  1.0  0.9535
  Si  Si16  1  0.021300  0.140700  0.569920  1.0  0.9287
  Si  Si17  1  0.573500  0.227000  0.590730  1.0  0.9338
  Si  Si18  1  0.480500  0.672800  0.594490  1.0  0.9515
  Si  Si19  1  0.534400  0.000000  0.166670  1.0  0.9854
  Si  Si20  1  0.000000  0.534400  0.833330  1.0  0.9827
  Si  Si21  1  0.465600  0.465600  0.500000  1.0  0.975
  Ag  Ag22  1  0.969840  0.652180  0.078180  1.0  0.2366
  Ag  Ag23  1  0.624730  0.508630  0.164280  1.0  0.2439
  Ag  Ag24  1  0.347820  0.317660  0.744850  1.0  0.2363
  Ag  Ag25  1  0.491370  0.116100  0.830950  1.0  0.2438
  Ag  Ag26  1  0.682340  0.030160  0.411510  1.0  0.2364
  Ag  Ag27  1  0.883900  0.375270  0.497610  1.0  0.2434
  Ag  Ag28  1  0.652180  0.969840  0.921820  1.0  0.2365
  Ag  Ag29  1  0.508630  0.624730  0.835720  1.0  0.2437
  Ag  Ag30  1  0.317660  0.347820  0.255150  1.0  0.2367
  Ag  Ag31  1  0.116100  0.491370  0.169050  1.0  0.2438
  Ag  Ag32  1  0.030160  0.682340  0.588490  1.0  0.2367
  Ag  Ag33  1  0.375270  0.883900  0.502390  1.0  0.2436
  Ag  Ag34  1  0.875590  0.875590  0.000000  1.0  0.1691
  Ag  Ag35  1  0.124410  0.000000  0.666667  1.0  0.17
  Ag  Ag36  1  0.000000  0.124410  0.333333  1.0  0.1694
  H  H37  1  0.991000  0.442700  0.055100  1.0  0.0591
  H  H38  1  0.983800  0.264200  0.060300  1.0  0.0469
  H  H39  1  0.977900  0.311400  0.121500  1.0  0.0736
  H  H40  1  0.980500  0.487400  0.114700  1.0  0.0332
  H  H41  1  0.149900  0.095800  0.103300  1.0  0.1029
  H  H42  1  0.180300  0.226600  0.110100  1.0  0.1187
  H  H43  1  0.117700  0.060500  0.137300  1.0  0.0367
  H  H44  1  0.089800  0.164800  0.140500  1.0  0.0446
  H  H45  1  0.924000  0.015500  0.147500  1.0  0.0404
  H  H46  1  0.938900  0.932600  0.131400  1.0  0.0356
  H  H47  1  0.838600  0.076700  0.124700  1.0  0.0969
  H  H48  1  0.807300  0.955300  0.113400  1.0  0.1222
  H  H49  1  0.767800  0.983700  0.069000  1.0  0.0575
  H  H50  1  0.731800  0.890200  0.038400  1.0  0.0441
  H  H51  1  0.061100  0.958400  0.034100  1.0  0.047
  H  H52  1  0.105400  0.057100  0.066100  1.0  0.0418
  H  H53  1  0.796800  0.711600  0.107900  1.0  0.0393
  H  H54  1  0.614500  0.699700  0.107900  1.0  0.0634
  H  H55  1  0.573000  0.593300  0.049200  1.0  0.0637
  H  H56  1  0.750800  0.597200  0.050800  1.0  0.0425
  H  H57  1  0.414200  0.834100  0.073600  1.0  0.0759
  H  H58  1  0.542900  0.861800  0.066100  1.0  0.1234
  H  H59  1  0.393900  0.833600  0.037800  1.0  0.0427
  H  H60  1  0.471000  0.770800  0.034300  1.0  0.0462
  H  H61  1  0.272200  0.627100  0.029400  1.0  0.0514
  H  H62  1  0.236100  0.658700  0.050800  1.0  0.0431
  H  H63  1  0.363800  0.534000  0.044900  1.0  0.0919
  H  H64  1  0.251000  0.495100  0.059400  1.0  0.1195
  H  H65  1  0.312100  0.747900  0.104600  1.0  0.0551
  H  H66  1  0.214300  0.692700  0.135800  1.0  0.0425
  H  H67  1  0.263100  0.417200  0.138800  1.0  0.0596
  H  H68  1  0.363900  0.468100  0.108200  1.0  0.0588
  H  H69  1  0.173900  0.858700  0.106700  1.0  0.0325
  H  H70  1  0.351700  0.037500  0.105600  1.0  0.0639
  H  H71  1  0.334900  0.017700  0.043500  1.0  0.0841
  H  H72  1  0.161300  0.836900  0.046700  1.0  0.0374
  H  H73  1  0.712200  0.208700  0.077100  1.0  0.0713
  H  H74  1  0.614600  0.072500  0.073400  1.0  0.1092
  H  H75  1  0.606600  0.098600  0.040100  1.0  0.0358
  H  H76  1  0.744700  0.175900  0.044900  1.0  0.0291
  H  H77  1  0.480000  0.221300  0.037300  1.0  0.0924
  H  H78  1  0.552800  0.347500  0.048400  1.0  0.0952
  H  H79  1  0.672600  0.281800  0.024300  1.0  0.0662
  H  H80  1  0.735800  0.351200  0.044900  1.0  0.0539
  H  H81  1  0.724900  0.375000  0.094400  1.0  0.0521
  H  H82  1  0.758700  0.485800  0.124100  1.0  0.0377
  H  H83  1  0.418800  0.333200  0.135300  1.0  0.0288
  H  H84  1  0.374700  0.231400  0.104800  1.0  0.0569
  H  H85  1  0.731100  0.771300  0.150200  1.0  0.0325
  H  H86  1  0.705500  0.935600  0.148600  1.0  0.0699
  H  H87  1  0.406100  0.748700  0.181500  1.0  0.0538
  H  H88  1  0.433400  0.586300  0.179600  1.0  0.0387
  H  H89  1  0.491000  0.071100  0.135200  1.0  0.1209
  H  H90  1  0.400800  0.931500  0.137400  1.0  0.0932
  H  H91  1  0.281300  0.005200  0.147700  1.0  0.0412
  H  H92  1  0.388700  0.118800  0.158200  1.0  0.0579
  H  H93  1  0.557300  0.548300  0.721770  1.0  0.0594
  H  H94  1  0.735800  0.719600  0.726970  1.0  0.0464
  H  H95  1  0.688600  0.666500  0.788170  1.0  0.0739
  H  H96  1  0.512600  0.493100  0.781370  1.0  0.0334
  H  H97  1  0.904200  0.054100  0.769970  1.0  0.1032
  H  H98  1  0.773400  0.953700  0.776770  1.0  0.1216
  H  H99  1  0.939500  0.057200  0.803970  1.0  0.0444
  H  H100  1  0.835200  0.925000  0.807170  1.0  0.046
  H  H101  1  0.984500  0.908500  0.814170  1.0  0.0422
  H  H102  1  0.067400  0.006300  0.798070  1.0  0.0361
  H  H103  1  0.923300  0.761900  0.791370  1.0  0.0954
  H  H104  1  0.044700  0.852000  0.780070  1.0  0.1257
  H  H105  1  0.016300  0.784100  0.735670  1.0  0.0578
  H  H106  1  0.109800  0.841600  0.705070  1.0  0.0434
  H  H107  1  0.041600  0.102700  0.700770  1.0  0.0469
  H  H108  1  0.942900  0.048300  0.732770  1.0  0.0416
  H  H109  1  0.288400  0.085200  0.774570  1.0  0.0397
  H  H110  1  0.300300  0.914800  0.774570  1.0  0.0635
  H  H111  1  0.406700  0.979700  0.715870  1.0  0.0628
  H  H112  1  0.402800  0.153600  0.717470  1.0  0.0424
  H  H113  1  0.165900  0.580100  0.740270  1.0  0.0782
  H  H114  1  0.138200  0.681100  0.732770  1.0  0.1255
  H  H115  1  0.166400  0.560300  0.704470  1.0  0.0429
  H  H116  1  0.229200  0.700200  0.700970  1.0  0.0498
  H  H117  1  0.372900  0.645100  0.696070  1.0  0.0529
  H  H118  1  0.341300  0.577400  0.717470  1.0  0.0475
  H  H119  1  0.466000  0.829800  0.711570  1.0  0.0908
  H  H120  1  0.504900  0.755900  0.726070  1.0  0.124
  H  H121  1  0.252100  0.564200  0.771270  1.0  0.055
  H  H122  1  0.307300  0.521600  0.802470  1.0  0.0423
  H  H123  1  0.582800  0.845900  0.805470  1.0  0.0592
  H  H124  1  0.531900  0.895800  0.774870  1.0  0.059
  H  H125  1  0.141300  0.315200  0.773370  1.0  0.0323
  H  H126  1  0.962500  0.314200  0.772270  1.0  0.0647
  H  H127  1  0.982300  0.317200  0.710170  1.0  0.0854
  H  H128  1  0.163100  0.324400  0.713370  1.0  0.0367
  H  H129  1  0.791300  0.503500  0.743770  1.0  0.071
  H  H130  1  0.927500  0.542100  0.740070  1.0  0.1102
  H  H131  1  0.901400  0.508000  0.706770  1.0  0.0338
  H  H132  1  0.824100  0.568800  0.711570  1.0  0.0274
  H  H133  1  0.778700  0.258700  0.703970  1.0  0.0921
  H  H134  1  0.652500  0.205300  0.715070  1.0  0.0957
  H  H135  1  0.718200  0.390800  0.690970  1.0  0.0668
  H  H136  1  0.648800  0.384600  0.711570  1.0  0.05
  H  H137  1  0.625000  0.349900  0.761070  1.0  0.0519
  H  H138  1  0.514200  0.272900  0.790770  1.0  0.0397
  H  H139  1  0.666800  0.085600  0.801970  1.0  0.0285
  H  H140  1  0.768600  0.143300  0.771470  1.0  0.0577
  H  H141  1  0.228700  0.959800  0.816870  1.0  0.0319
  H  H142  1  0.064400  0.769900  0.815270  1.0  0.07
  H  H143  1  0.251300  0.657400  0.848170  1.0  0.0539
  H  H144  1  0.413700  0.847100  0.846270  1.0  0.0387
  H  H145  1  0.928900  0.419900  0.801870  1.0  0.1227
  H  H146  1  0.068500  0.469300  0.804070  1.0  0.0935
  H  H147  1  0.994800  0.276100  0.814370  1.0  0.042
  H  H148  1  0.881200  0.269900  0.824870  1.0  0.0546
  H  H149  1  0.451700  0.009000  0.388430  1.0  0.0596
  H  H150  1  0.280400  0.016200  0.393630  1.0  0.0461
  H  H151  1  0.333500  0.022100  0.454830  1.0  0.0744
  H  H152  1  0.506900  0.019500  0.448030  1.0  0.0334
  H  H153  1  0.945900  0.850100  0.436630  1.0  0.1023
  H  H154  1  0.046300  0.819700  0.443430  1.0  0.1184
  H  H155  1  0.942800  0.882300  0.470630  1.0  0.0447
  H  H156  1  0.075000  0.910200  0.473830  1.0  0.0462
  H  H157  1  0.091500  0.076000  0.480830  1.0  0.0411
  H  H158  1  0.993700  0.061100  0.464730  1.0  0.0345
  H  H159  1  0.238100  0.161400  0.458030  1.0  0.0989
  H  H160  1  0.148000  0.192700  0.446730  1.0  0.1221
  H  H161  1  0.215900  0.232200  0.402330  1.0  0.0574
  H  H162  1  0.158400  0.268200  0.371730  1.0  0.0444
  H  H163  1  0.897300  0.938900  0.367430  1.0  0.0473
  H  H164  1  0.951700  0.894600  0.399430  1.0  0.0428
  H  H165  1  0.914800  0.203200  0.441230  1.0  0.0397
  H  H166  1  0.085200  0.385500  0.441230  1.0  0.0635
  H  H167  1  0.020300  0.427000  0.382530  1.0  0.0622
  H  H168  1  0.846400  0.249200  0.384130  1.0  0.0424
  H  H169  1  0.419900  0.585800  0.406930  1.0  0.076
  H  H170  1  0.318900  0.457100  0.399430  1.0  0.1238
  H  H171  1  0.439700  0.606100  0.371130  1.0  0.0341
  H  H172  1  0.299800  0.529000  0.367630  1.0  0.0499
  H  H173  1  0.354900  0.727800  0.362730  1.0  0.052
  H  H174  1  0.422600  0.763900  0.384130  1.0  0.0466
  H  H175  1  0.170200  0.636200  0.378230  1.0  0.0916
  H  H176  1  0.244100  0.749000  0.392730  1.0  0.1212
  H  H177  1  0.435800  0.687900  0.437930  1.0  0.0541
  H  H178  1  0.478400  0.785700  0.469130  1.0  0.0418
  H  H179  1  0.154100  0.736900  0.472130  1.0  0.0591
  H  H180  1  0.104200  0.636100  0.441530  1.0  0.0592
  H  H181  1  0.684800  0.826100  0.440030  1.0  0.0333
  H  H182  1  0.685800  0.648300  0.438930  1.0  0.064
  H  H183  1  0.682800  0.665100  0.376830  1.0  0.0851
  H  H184  1  0.675600  0.838700  0.380030  1.0  0.0373
  H  H185  1  0.496500  0.287800  0.410430  1.0  0.0715
  H  H186  1  0.457900  0.385400  0.406730  1.0  0.1133
  H  H187  1  0.492000  0.393400  0.373430  1.0  0.0366
  H  H188  1  0.431200  0.255300  0.378230  1.0  0.0269
  H  H189  1  0.741300  0.520000  0.370630  1.0  0.0928
  H  H190  1  0.794700  0.447200  0.381730  1.0  0.0973
  H  H191  1  0.609200  0.327400  0.357630  1.0  0.0667
  H  H192  1  0.615400  0.264200  0.378230  1.0  0.0543
  H  H193  1  0.650100  0.275100  0.427730  1.0  0.0518
  H  H194  1  0.727100  0.241300  0.457430  1.0  0.0398
  H  H195  1  0.914400  0.581200  0.468630  1.0  0.0284
  H  H196  1  0.856700  0.625300  0.438130  1.0  0.0581
  H  H197  1  0.040200  0.268900  0.483530  1.0  0.0314
  H  H198  1  0.230100  0.294500  0.481930  1.0  0.0699
  H  H199  1  0.342600  0.593900  0.514830  1.0  0.0538
  H  H200  1  0.152900  0.566600  0.512930  1.0  0.0378
  H  H201  1  0.580100  0.509000  0.468530  1.0  0.1225
  H  H202  1  0.530700  0.599200  0.470730  1.0  0.0959
  H  H203  1  0.723900  0.718700  0.481030  1.0  0.0421
  H  H204  1  0.730100  0.611300  0.491530  1.0  0.0502
  H  H205  1  0.442700  0.991000  0.944900  1.0  0.059
  H  H206  1  0.264200  0.983800  0.939700  1.0  0.0464
  H  H207  1  0.311400  0.977900  0.878500  1.0  0.0741
  H  H208  1  0.487400  0.980500  0.885300  1.0  0.0335
  H  H209  1  0.095800  0.149900  0.896700  1.0  0.1029
  H  H210  1  0.226600  0.180300  0.889900  1.0  0.1174
  H  H211  1  0.060500  0.117700  0.862700  1.0  0.0454
  H  H212  1  0.164800  0.089800  0.859500  1.0  0.0463
  H  H213  1  0.015500  0.924000  0.852500  1.0  0.0418
  H  H214  1  0.932600  0.938900  0.868600  1.0  0.0342
  H  H215  1  0.076700  0.838600  0.875300  1.0  0.0994
  H  H216  1  0.955300  0.807300  0.886600  1.0  0.122
  H  H217  1  0.983700  0.767800  0.931000  1.0  0.058
  H  H218  1  0.890200  0.731800  0.961600  1.0  0.0443
  H  H219  1  0.958400  0.061100  0.965900  1.0  0.0472
  H  H220  1  0.057100  0.105400  0.933900  1.0  0.0424
  H  H221  1  0.711600  0.796800  0.892100  1.0  0.0395
  H  H222  1  0.699700  0.614500  0.892100  1.0  0.064
  H  H223  1  0.593300  0.573000  0.950800  1.0  0.0617
  H  H224  1  0.597200  0.750800  0.949200  1.0  0.043
  H  H225  1  0.834100  0.414200  0.926400  1.0  0.0765
  H  H226  1  0.861800  0.542900  0.933900  1.0  0.1232
  H  H227  1  0.833600  0.393900  0.962200  1.0  0.034
  H  H228  1  0.770800  0.471000  0.965700  1.0  0.0497
  H  H229  1  0.627100  0.272200  0.970600  1.0  0.0531
  H  H230  1  0.658700  0.236100  0.949200  1.0  0.0482
  H  H231  1  0.534000  0.363800  0.955100  1.0  0.0928
  H  H232  1  0.495100  0.251000  0.940600  1.0  0.1216
  H  H233  1  0.747900  0.312100  0.895400  1.0  0.0538
  H  H234  1  0.692700  0.214300  0.864200  1.0  0.0417
  H  H235  1  0.417200  0.263100  0.861200  1.0  0.0593
  H  H236  1  0.468100  0.363900  0.891800  1.0  0.0592
  H  H237  1  0.858700  0.173900  0.893300  1.0  0.0337
  H  H238  1  0.037500  0.351700  0.894400  1.0  0.0643
  H  H239  1  0.017700  0.334900  0.956500  1.0  0.0832
  H  H240  1  0.836900  0.161300  0.953300  1.0  0.0372
  H  H241  1  0.208700  0.712200  0.922900  1.0  0.0714
  H  H242  1  0.072500  0.614600  0.926600  1.0  0.1134
  H  H243  1  0.098600  0.606600  0.959900  1.0  0.0362
  H  H244  1  0.175900  0.744700  0.955100  1.0  0.0287
  H  H245  1  0.221300  0.480000  0.962700  1.0  0.0934
  H  H246  1  0.347500  0.552800  0.951600  1.0  0.0948
  H  H247  1  0.281800  0.672600  0.975700  1.0  0.0669
  H  H248  1  0.351200  0.735800  0.955100  1.0  0.0531
  H  H249  1  0.375000  0.724900  0.905600  1.0  0.0525
  H  H250  1  0.485800  0.758700  0.875900  1.0  0.0391
  H  H251  1  0.333200  0.418800  0.864700  1.0  0.0291
  H  H252  1  0.231400  0.374700  0.895200  1.0  0.0577
  H  H253  1  0.771300  0.731100  0.849800  1.0  0.0314
  H  H254  1  0.935600  0.705500  0.851400  1.0  0.0699
  H  H255  1  0.748700  0.406100  0.818500  1.0  0.0537
  H  H256  1  0.586300  0.433400  0.820400  1.0  0.0374
  H  H257  1  0.071100  0.491000  0.864800  1.0  0.1217
  H  H258  1  0.931500  0.400800  0.862600  1.0  0.0956
  H  H259  1  0.005200  0.281300  0.852300  1.0  0.0439
  H  H260  1  0.118800  0.388700  0.841800  1.0  0.0496
  H  H261  1  0.548300  0.557300  0.278230  1.0  0.0587
  H  H262  1  0.719600  0.735800  0.273030  1.0  0.0465
  H  H263  1  0.666500  0.688600  0.211830  1.0  0.0735
  H  H264  1  0.493100  0.512600  0.218630  1.0  0.0333
  H  H265  1  0.054100  0.904200  0.230030  1.0  0.1036
  H  H266  1  0.953700  0.773400  0.223230  1.0  0.1177
  H  H267  1  0.057200  0.939500  0.196030  1.0  0.0368
  H  H268  1  0.925000  0.835200  0.192830  1.0  0.0436
  H  H269  1  0.908500  0.984500  0.185830  1.0  0.0419
  H  H270  1  0.006300  0.067400  0.201930  1.0  0.0368
  H  H271  1  0.761900  0.923300  0.208630  1.0  0.097
  H  H272  1  0.852000  0.044700  0.219930  1.0  0.1214
  H  H273  1  0.784100  0.016300  0.264330  1.0  0.0578
  H  H274  1  0.841600  0.109800  0.294930  1.0  0.0431
  H  H275  1  0.102700  0.041600  0.299230  1.0  0.0465
  H  H276  1  0.048300  0.942900  0.267230  1.0  0.0418
  H  H277  1  0.085200  0.288400  0.225430  1.0  0.0396
  H  H278  1  0.914800  0.300300  0.225430  1.0  0.0639
  H  H279  1  0.979700  0.406700  0.284130  1.0  0.0627
  H  H280  1  0.153600  0.402800  0.282530  1.0  0.0426
  H  H281  1  0.580100  0.165900  0.259730  1.0  0.0765
  H  H282  1  0.681100  0.138200  0.267230  1.0  0.1233
  H  H283  1  0.560300  0.166400  0.295530  1.0  0.044
  H  H284  1  0.700200  0.229200  0.299030  1.0  0.0456
  H  H285  1  0.645100  0.372900  0.303930  1.0  0.0521
  H  H286  1  0.577400  0.341300  0.282530  1.0  0.0471
  H  H287  1  0.829800  0.466000  0.288430  1.0  0.0928
  H  H288  1  0.755900  0.504900  0.273930  1.0  0.119
  H  H289  1  0.564200  0.252100  0.228730  1.0  0.0544
  H  H290  1  0.521600  0.307300  0.197530  1.0  0.0425
  H  H291  1  0.845900  0.582800  0.194530  1.0  0.0595
  H  H292  1  0.895800  0.531900  0.225130  1.0  0.0589
  H  H293  1  0.315200  0.141300  0.226630  1.0  0.0336
  H  H294  1  0.314200  0.962500  0.227730  1.0  0.0642
  H  H295  1  0.317200  0.982300  0.289830  1.0  0.0839
  H  H296  1  0.324400  0.163100  0.286630  1.0  0.0375
  H  H297  1  0.503500  0.791300  0.256230  1.0  0.0715
  H  H298  1  0.542100  0.927500  0.259930  1.0  0.1105
  H  H299  1  0.508000  0.901400  0.293230  1.0  0.0354
  H  H300  1  0.568800  0.824100  0.288430  1.0  0.0275
  H  H301  1  0.258700  0.778700  0.296030  1.0  0.0928
  H  H302  1  0.205300  0.652500  0.284930  1.0  0.095
  H  H303  1  0.390800  0.718200  0.309030  1.0  0.0677
  H  H304  1  0.384600  0.648800  0.288430  1.0  0.0543
  H  H305  1  0.349900  0.625000  0.238930  1.0  0.0528
  H  H306  1  0.272900  0.514200  0.209230  1.0  0.0379
  H  H307  1  0.085600  0.666800  0.198030  1.0  0.0291
  H  H308  1  0.143300  0.768600  0.228530  1.0  0.057
  H  H309  1  0.959800  0.228700  0.183130  1.0  0.0327
  H  H310  1  0.769900  0.064400  0.184730  1.0  0.0704
  H  H311  1  0.657400  0.251300  0.151830  1.0  0.0538
  H  H312  1  0.847100  0.413700  0.153730  1.0  0.0386
  H  H313  1  0.419900  0.928900  0.198130  1.0  0.122
  H  H314  1  0.469300  0.068500  0.195930  1.0  0.093
  H  H315  1  0.276100  0.994800  0.185630  1.0  0.0411
  H  H316  1  0.269900  0.881200  0.175130  1.0  0.0577
  H  H317  1  0.009000  0.451700  0.611570  1.0  0.0596
  H  H318  1  0.016200  0.280400  0.606370  1.0  0.0466
  H  H319  1  0.022100  0.333500  0.545170  1.0  0.074
  H  H320  1  0.019500  0.506900  0.551970  1.0  0.0335
  H  H321  1  0.850100  0.945900  0.563370  1.0  0.105
  H  H322  1  0.819700  0.046300  0.556570  1.0  0.1215
  H  H323  1  0.882300  0.942800  0.529370  1.0  0.0412
  H  H324  1  0.910200  0.075000  0.526170  1.0  0.0456
  H  H325  1  0.076000  0.091500  0.519170  1.0  0.0429
  H  H326  1  0.061100  0.993700  0.535270  1.0  0.0353
  H  H327  1  0.161400  0.238100  0.541970  1.0  0.0962
  H  H328  1  0.192700  0.148000  0.553270  1.0  0.1248
  H  H329  1  0.232200  0.215900  0.597670  1.0  0.0578
  H  H330  1  0.268200  0.158400  0.628270  1.0  0.0435
  H  H331  1  0.938900  0.897300  0.632570  1.0  0.0471
  H  H332  1  0.894600  0.951700  0.600570  1.0  0.0411
  H  H333  1  0.203200  0.914800  0.558770  1.0  0.0394
  H  H334  1  0.385500  0.085200  0.558770  1.0  0.0641
  H  H335  1  0.427000  0.020300  0.617470  1.0  0.0617
  H  H336  1  0.249200  0.846400  0.615870  1.0  0.0432
  H  H337  1  0.585800  0.419900  0.593070  1.0  0.0778
  H  H338  1  0.457100  0.318900  0.600570  1.0  0.1259
  H  H339  1  0.606100  0.439700  0.628870  1.0  0.0426
  H  H340  1  0.529000  0.299800  0.632370  1.0  0.0506
  H  H341  1  0.727800  0.354900  0.637270  1.0  0.0521
  H  H342  1  0.763900  0.422600  0.615870  1.0  0.0489
  H  H343  1  0.636200  0.170200  0.621770  1.0  0.092
  H  H344  1  0.749000  0.244100  0.607270  1.0  0.1219
  H  H345  1  0.687900  0.435800  0.562070  1.0  0.0551
  H  H346  1  0.785700  0.478400  0.530870  1.0  0.0421
  H  H347  1  0.736900  0.154100  0.527870  1.0  0.0595
  H  H348  1  0.636100  0.104200  0.558470  1.0  0.0594
  H  H349  1  0.826100  0.684800  0.559970  1.0  0.0331
  H  H350  1  0.648300  0.685800  0.561070  1.0  0.0652
  H  H351  1  0.665100  0.682800  0.623170  1.0  0.0843
  H  H352  1  0.838700  0.675600  0.619970  1.0  0.0367
  H  H353  1  0.287800  0.496500  0.589570  1.0  0.0709
  H  H354  1  0.385400  0.457900  0.593270  1.0  0.1106
  H  H355  1  0.393400  0.492000  0.626570  1.0  0.033
  H  H356  1  0.255300  0.431200  0.621770  1.0  0.029
  H  H357  1  0.520000  0.741300  0.629370  1.0  0.0925
  H  H358  1  0.447200  0.794700  0.618270  1.0  0.0954
  H  H359  1  0.327400  0.609200  0.642370  1.0  0.0671
  H  H360  1  0.264200  0.615400  0.621770  1.0  0.053
  H  H361  1  0.275100  0.650100  0.572270  1.0  0.0522
  H  H362  1  0.241300  0.727100  0.542570  1.0  0.0398
  H  H363  1  0.581200  0.914400  0.531370  1.0  0.0285
  H  H364  1  0.625300  0.856700  0.561870  1.0  0.0578
  H  H365  1  0.268900  0.040200  0.516470  1.0  0.0326
  H  H366  1  0.294500  0.230100  0.518070  1.0  0.0705
  H  H367  1  0.593900  0.342600  0.485170  1.0  0.0535
  H  H368  1  0.566600  0.152900  0.487070  1.0  0.0384
  H  H369  1  0.509000  0.580100  0.531470  1.0  0.1229
  H  H370  1  0.599200  0.530700  0.529270  1.0  0.0938
  H  H371  1  0.718700  0.723900  0.518970  1.0  0.0423
  H  H372  1  0.611300  0.730100  0.508470  1.0  0.0537
  C  C373  1  0.986500  0.415300  0.068680  1.0  0.1237
  C  C374  1  0.983500  0.308000  0.071820  1.0  -0.1338
  C  C375  1  0.980200  0.264100  0.090960  1.0  -0.1941
  C  C376  1  0.979400  0.335800  0.107850  1.0  -0.1815
  C  C377  1  0.981000  0.441500  0.103570  1.0  0.1345
  C  C378  1  0.118500  0.142300  0.109950  1.0  -0.2518
  C  C379  1  0.072600  0.096400  0.131800  1.0  -0.1915
  C  C380  1  0.950300  0.012500  0.133500  1.0  -0.1786
  C  C381  1  0.872300  0.031500  0.118380  1.0  -0.2733
  C  C382  1  0.943200  0.031600  0.071620  1.0  -0.12
  C  C383  1  0.830000  0.980100  0.062230  1.0  -0.1536
  C  C384  1  0.809400  0.925700  0.043700  1.0  0.1445
  C  C385  1  0.001200  0.964900  0.041060  1.0  0.0961
  C  C386  1  0.027900  0.023800  0.060750  1.0  -0.1139
  C  C387  1  0.750300  0.685400  0.095880  1.0  0.1363
  C  C388  1  0.641400  0.680700  0.095850  1.0  -0.1414
  C  C389  1  0.571700  0.648400  0.078350  1.0  -0.2035
  C  C390  1  0.616900  0.616900  0.061460  1.0  -0.1452
  C  C391  1  0.724400  0.619900  0.062470  1.0  0.1248
  C  C392  1  0.457600  0.803400  0.065720  1.0  -0.2459
  C  C393  1  0.411000  0.773100  0.043200  1.0  -0.1719
  C  C394  1  0.299200  0.653200  0.043500  1.0  -0.1653
  C  C395  1  0.324400  0.563000  0.054200  1.0  -0.2586
  C  C396  1  0.351500  0.616100  0.101940  1.0  -0.2387
  C  C397  1  0.303900  0.679900  0.111200  1.0  -0.0941
  C  C398  1  0.243900  0.646000  0.130170  1.0  0.1461
  C  C399  1  0.273300  0.485100  0.131810  1.0  0.131
  C  C400  1  0.333700  0.515400  0.113370  1.0  -0.1158
  C  C401  1  0.207400  0.890700  0.093810  1.0  0.1458
  C  C402  1  0.314900  0.998800  0.093290  1.0  -0.2155
  C  C403  1  0.367300  0.049200  0.074440  1.0  -0.2744
  C  C404  1  0.305200  0.986700  0.056590  1.0  -0.1727
  C  C405  1  0.199800  0.878700  0.058660  1.0  0.1206
  C  C406  1  0.641700  0.154500  0.069100  1.0  -0.2751
  C  C407  1  0.667000  0.169000  0.047400  1.0  -0.1333
  C  C408  1  0.544900  0.268700  0.046880  1.0  -0.2459
  C  C409  1  0.667700  0.279000  0.039400  1.0  -0.1954
  C  C410  1  0.545400  0.286600  0.095860  1.0  -0.1662
  C  C411  1  0.659800  0.365200  0.102290  1.0  -0.169
  C  C412  1  0.679700  0.430600  0.120520  1.0  0.1239
  C  C413  1  0.482300  0.344000  0.126920  1.0  0.1395
  C  C414  1  0.454700  0.279700  0.108610  1.0  -0.1862
  C  C415  1  0.662200  0.765100  0.156160  1.0  0.1538
  C  C416  1  0.649500  0.867000  0.155620  1.0  -0.1935
  C  C417  1  0.552800  0.865400  0.165680  1.0  -0.2006
  C  C418  1  0.473200  0.756600  0.174610  1.0  -0.165
  C  C419  1  0.490800  0.658200  0.173530  1.0  0.1392
  C  C420  1  0.441900  0.007200  0.144900  1.0  -0.2708
  C  C421  1  0.353300  0.032900  0.156060  1.0  -0.1832
  C  C422  1  0.584700  0.571200  0.735350  1.0  0.1227
  C  C423  1  0.692000  0.675500  0.738490  1.0  -0.1324
  C  C424  1  0.735900  0.716100  0.757630  1.0  -0.1943
  C  C425  1  0.664200  0.643600  0.774520  1.0  -0.1815
  C  C426  1  0.558500  0.539500  0.770240  1.0  0.1357
  C  C427  1  0.857700  0.976200  0.776620  1.0  -0.2506
  C  C428  1  0.903600  0.976200  0.798470  1.0  -0.1916
  C  C429  1  0.987500  0.937800  0.800170  1.0  -0.1761
  C  C430  1  0.968500  0.840800  0.785050  1.0  -0.2726
  C  C431  1  0.968400  0.911600  0.738290  1.0  -0.1204
  C  C432  1  0.019900  0.849900  0.728900  1.0  -0.1527
  C  C433  1  0.074300  0.883700  0.710370  1.0  0.1437
  C  C434  1  0.035100  0.036300  0.707730  1.0  0.0974
  C  C435  1  0.976200  0.004100  0.727420  1.0  -0.113
  C  C436  1  0.314600  0.064900  0.762550  1.0  0.1353
  C  C437  1  0.319300  0.960700  0.762520  1.0  -0.139
  C  C438  1  0.351600  0.923300  0.745020  1.0  -0.2038
  C  C439  1  0.383100  0.000000  0.728130  1.0  -0.1448
  C  C440  1  0.380100  0.104500  0.729140  1.0  0.125
  C  C441  1  0.196600  0.654200  0.732390  1.0  -0.2469
  C  C442  1  0.226900  0.637900  0.709870  1.0  -0.1681
  C  C443  1  0.346800  0.646000  0.710170  1.0  -0.1639
  C  C444  1  0.437000  0.761400  0.720870  1.0  -0.258
  C  C445  1  0.383900  0.735400  0.768610  1.0  -0.238
  C  C446  1  0.320100  0.624000  0.777870  1.0  -0.0931
  C  C447  1  0.354000  0.597900  0.796840  1.0  0.1462
  C  C448  1  0.514900  0.788200  0.798480  1.0  0.1303
  C  C449  1  0.484600  0.818300  0.780040  1.0  -0.1149
  C  C450  1  0.109300  0.316700  0.760480  1.0  0.1466
  C  C451  1  0.001200  0.316100  0.759960  1.0  -0.2157
  C  C452  1  0.950800  0.318100  0.741110  1.0  -0.2747
  C  C453  1  0.013300  0.318500  0.723260  1.0  -0.1739
  C  C454  1  0.121300  0.321100  0.725330  1.0  0.1219
  C  C455  1  0.845500  0.487200  0.735770  1.0  -0.2725
  C  C456  1  0.831000  0.498000  0.714070  1.0  -0.1346
  C  C457  1  0.731300  0.276200  0.713550  1.0  -0.2526
  C  C458  1  0.721000  0.388700  0.706070  1.0  -0.1922
  C  C459  1  0.713400  0.258800  0.762530  1.0  -0.1663
  C  C460  1  0.634800  0.294600  0.768960  1.0  -0.1702
  C  C461  1  0.569400  0.249100  0.787190  1.0  0.1238
  C  C462  1  0.656000  0.138300  0.793590  1.0  0.1396
  C  C463  1  0.720300  0.175000  0.775280  1.0  -0.1856
  C  C464  1  0.234900  0.897100  0.822830  1.0  0.1532
  C  C465  1  0.133000  0.782500  0.822290  1.0  -0.1942
  C  C466  1  0.134600  0.687400  0.832350  1.0  -0.2016
  C  C467  1  0.243400  0.716600  0.841280  1.0  -0.1632
  C  C468  1  0.341800  0.832600  0.840200  1.0  0.1414
  C  C469  1  0.992800  0.434700  0.811570  1.0  -0.2713
  C  C470  1  0.967100  0.320400  0.822730  1.0  -0.186
  C  C471  1  0.428800  0.013500  0.402010  1.0  0.1246
  C  C472  1  0.324500  0.016500  0.405150  1.0  -0.132
  C  C473  1  0.283900  0.019800  0.424290  1.0  -0.1931
  C  C474  1  0.356400  0.020600  0.441180  1.0  -0.1842
  C  C475  1  0.460500  0.019000  0.436900  1.0  0.1366
  C  C476  1  0.023800  0.881500  0.443280  1.0  -0.2508
  C  C477  1  0.023800  0.927400  0.465130  1.0  -0.1923
  C  C478  1  0.062200  0.049700  0.466830  1.0  -0.1781
  C  C479  1  0.159200  0.127700  0.451710  1.0  -0.2711
  C  C480  1  0.088400  0.056800  0.404950  1.0  -0.1179
  C  C481  1  0.150100  0.170000  0.395560  1.0  -0.153
  C  C482  1  0.116300  0.190600  0.377030  1.0  0.1438
  C  C483  1  0.963700  0.998800  0.374390  1.0  0.0962
  C  C484  1  0.995900  0.972100  0.394080  1.0  -0.114
  C  C485  1  0.935100  0.249700  0.429210  1.0  0.1355
  C  C486  1  0.039300  0.358600  0.429180  1.0  -0.1416
  C  C487  1  0.076700  0.428300  0.411680  1.0  -0.2035
  C  C488  1  0.000000  0.383100  0.394790  1.0  -0.1419
  C  C489  1  0.895500  0.275600  0.395800  1.0  0.1239
  C  C490  1  0.345800  0.542400  0.399050  1.0  -0.2497
  C  C491  1  0.362100  0.589000  0.376530  1.0  -0.1692
  C  C492  1  0.354000  0.700800  0.376830  1.0  -0.1658
  C  C493  1  0.238600  0.675600  0.387530  1.0  -0.2524
  C  C494  1  0.264600  0.648500  0.435270  1.0  -0.2387
  C  C495  1  0.376000  0.696100  0.444530  1.0  -0.0948
  C  C496  1  0.402100  0.756100  0.463500  1.0  0.1464
  C  C497  1  0.211800  0.726700  0.465140  1.0  0.131
  C  C498  1  0.181700  0.666300  0.446700  1.0  -0.1155
  C  C499  1  0.683300  0.792600  0.427140  1.0  0.1444
  C  C500  1  0.683900  0.685100  0.426620  1.0  -0.2141
  C  C501  1  0.681900  0.632700  0.407770  1.0  -0.2752
  C  C502  1  0.681500  0.694800  0.389920  1.0  -0.1761
  C  C503  1  0.678900  0.800200  0.391990  1.0  0.1192
  C  C504  1  0.512800  0.358300  0.402430  1.0  -0.2726
  C  C505  1  0.502000  0.333000  0.380730  1.0  -0.1299
  C  C506  1  0.723800  0.455100  0.380210  1.0  -0.2525
  C  C507  1  0.611300  0.332300  0.372730  1.0  -0.1963
  C  C508  1  0.741200  0.454600  0.429190  1.0  -0.167
  C  C509  1  0.705400  0.340200  0.435620  1.0  -0.169
  C  C510  1  0.750900  0.320300  0.453850  1.0  0.1232
  C  C511  1  0.861700  0.517700  0.460250  1.0  0.1387
  C  C512  1  0.825000  0.545300  0.441940  1.0  -0.1879
  C  C513  1  0.102900  0.337800  0.489490  1.0  0.1546
  C  C514  1  0.217500  0.350500  0.488950  1.0  -0.1957
  C  C515  1  0.312600  0.447200  0.499010  1.0  -0.2049
  C  C516  1  0.283400  0.526800  0.507940  1.0  -0.164
  C  C517  1  0.167400  0.509200  0.506860  1.0  0.1405
  C  C518  1  0.565300  0.558100  0.478230  1.0  -0.2725
  C  C519  1  0.679600  0.646700  0.489390  1.0  -0.183
  C  C520  1  0.415300  0.986500  0.931320  1.0  0.124
  C  C521  1  0.308000  0.983500  0.928180  1.0  -0.1346
  C  C522  1  0.264100  0.980200  0.909040  1.0  -0.1931
  C  C523  1  0.335800  0.979400  0.892150  1.0  -0.1832
  C  C524  1  0.441500  0.981000  0.896430  1.0  0.1365
  C  C525  1  0.142300  0.118500  0.890050  1.0  -0.2491
  C  C526  1  0.096400  0.072600  0.868200  1.0  -0.193
  C  C527  1  0.012500  0.950300  0.866500  1.0  -0.1777
  C  C528  1  0.031500  0.872300  0.881620  1.0  -0.2731
  C  C529  1  0.031600  0.943200  0.928380  1.0  -0.1182
  C  C530  1  0.980100  0.830000  0.937770  1.0  -0.1549
  C  C531  1  0.925700  0.809400  0.956300  1.0  0.1399
  C  C532  1  0.964900  0.001200  0.958940  1.0  0.0951
  C  C533  1  0.023800  0.027900  0.939250  1.0  -0.1164
  C  C534  1  0.685400  0.750300  0.904120  1.0  0.1352
  C  C535  1  0.680700  0.641400  0.904150  1.0  -0.1414
  C  C536  1  0.648400  0.571700  0.921650  1.0  -0.2039
  C  C537  1  0.616900  0.616900  0.938540  1.0  -0.142
  C  C538  1  0.619900  0.724400  0.937530  1.0  0.1231
  C  C539  1  0.803400  0.457600  0.934280  1.0  -0.2517
  C  C540  1  0.773100  0.411000  0.956800  1.0  -0.1712
  C  C541  1  0.653200  0.299200  0.956500  1.0  -0.1661
  C  C542  1  0.563000  0.324400  0.945800  1.0  -0.2559
  C  C543  1  0.616100  0.351500  0.898060  1.0  -0.2396
  C  C544  1  0.679900  0.303900  0.888800  1.0  -0.0945
  C  C545  1  0.646000  0.243900  0.869830  1.0  0.1453
  C  C546  1  0.485100  0.273300  0.868190  1.0  0.1317
  C  C547  1  0.515400  0.333700  0.886630  1.0  -0.1155
  C  C548  1  0.890700  0.207400  0.906190  1.0  0.1459
  C  C549  1  0.998800  0.314900  0.906710  1.0  -0.2134
  C  C550  1  0.049200  0.367300  0.925560  1.0  -0.2748
  C  C551  1  0.986700  0.305200  0.943410  1.0  -0.1752
  C  C552  1  0.878700  0.199800  0.941340  1.0  0.1187
  C  C553  1  0.154500  0.641700  0.930900  1.0  -0.2714
  C  C554  1  0.169000  0.667000  0.952600  1.0  -0.132
  C  C555  1  0.268700  0.544900  0.953120  1.0  -0.254
  C  C556  1  0.279000  0.667700  0.960600  1.0  -0.1993
  C  C557  1  0.286600  0.545400  0.904140  1.0  -0.1672
  C  C558  1  0.365200  0.659800  0.897710  1.0  -0.1689
  C  C559  1  0.430600  0.679700  0.879480  1.0  0.1222
  C  C560  1  0.344000  0.482300  0.873080  1.0  0.139
  C  C561  1  0.279700  0.454700  0.891390  1.0  -0.1875
  C  C562  1  0.765100  0.662200  0.843840  1.0  0.1549
  C  C563  1  0.867000  0.649500  0.844380  1.0  -0.1947
  C  C564  1  0.865400  0.552800  0.834320  1.0  -0.2043
  C  C565  1  0.756600  0.473200  0.825390  1.0  -0.1643
  C  C566  1  0.658200  0.490800  0.826470  1.0  0.1407
  C  C567  1  0.007200  0.441900  0.855100  1.0  -0.2719
  C  C568  1  0.032900  0.353300  0.843940  1.0  -0.1849
  C  C569  1  0.571200  0.584700  0.264650  1.0  0.1239
  C  C570  1  0.675500  0.692000  0.261510  1.0  -0.1348
  C  C571  1  0.716100  0.735900  0.242370  1.0  -0.1942
  C  C572  1  0.643600  0.664200  0.225480  1.0  -0.1802
  C  C573  1  0.539500  0.558500  0.229760  1.0  0.1355
  C  C574  1  0.976200  0.857700  0.223380  1.0  -0.2502
  C  C575  1  0.976200  0.903600  0.201530  1.0  -0.1937
  C  C576  1  0.937800  0.987500  0.199830  1.0  -0.1769
  C  C577  1  0.840800  0.968500  0.214950  1.0  -0.2746
  C  C578  1  0.911600  0.968400  0.261710  1.0  -0.1195
  C  C579  1  0.849900  0.019900  0.271100  1.0  -0.1556
  C  C580  1  0.883700  0.074300  0.289630  1.0  0.1409
  C  C581  1  0.036300  0.035100  0.292270  1.0  0.0963
  C  C582  1  0.004100  0.976200  0.272580  1.0  -0.1149
  C  C583  1  0.064900  0.314600  0.237450  1.0  0.1366
  C  C584  1  0.960700  0.319300  0.237480  1.0  -0.1412
  C  C585  1  0.923300  0.351600  0.254980  1.0  -0.2033
  C  C586  1  0.000000  0.383100  0.271870  1.0  -0.145
  C  C587  1  0.104500  0.380100  0.270860  1.0  0.1251
  C  C588  1  0.654200  0.196600  0.267610  1.0  -0.2472
  C  C589  1  0.637900  0.226900  0.290130  1.0  -0.1724
  C  C590  1  0.646000  0.346800  0.289830  1.0  -0.169
  C  C591  1  0.761400  0.437000  0.279130  1.0  -0.2629
  C  C592  1  0.735400  0.383900  0.231390  1.0  -0.2404
  C  C593  1  0.624000  0.320100  0.222130  1.0  -0.0955
  C  C594  1  0.597900  0.354000  0.203160  1.0  0.1459
  C  C595  1  0.788200  0.514900  0.201520  1.0  0.1314
  C  C596  1  0.818300  0.484600  0.219960  1.0  -0.1153
  C  C597  1  0.316700  0.109300  0.239520  1.0  0.1467
  C  C598  1  0.316100  0.001200  0.240040  1.0  -0.215
  C  C599  1  0.318100  0.950800  0.258890  1.0  -0.2746
  C  C600  1  0.318500  0.013300  0.276740  1.0  -0.1747
  C  C601  1  0.321100  0.121300  0.274670  1.0  0.1193
  C  C602  1  0.487200  0.845500  0.264230  1.0  -0.2752
  C  C603  1  0.498000  0.831000  0.285930  1.0  -0.1336
  C  C604  1  0.276200  0.731300  0.286450  1.0  -0.248
  C  C605  1  0.388700  0.721000  0.293930  1.0  -0.1958
  C  C606  1  0.258800  0.713400  0.237470  1.0  -0.1673
  C  C607  1  0.294600  0.634800  0.231040  1.0  -0.1683
  C  C608  1  0.249100  0.569400  0.212810  1.0  0.1229
  C  C609  1  0.138300  0.656000  0.206410  1.0  0.14
  C  C610  1  0.175000  0.720300  0.224720  1.0  -0.1859
  C  C611  1  0.897100  0.234900  0.177170  1.0  0.1542
  C  C612  1  0.782500  0.133000  0.177710  1.0  -0.1932
  C  C613  1  0.687400  0.134600  0.167650  1.0  -0.2007
  C  C614  1  0.716600  0.243400  0.158720  1.0  -0.1661
  C  C615  1  0.832600  0.341800  0.159800  1.0  0.1393
  C  C616  1  0.434700  0.992800  0.188430  1.0  -0.2712
  C  C617  1  0.320400  0.967100  0.177270  1.0  -0.1863
  C  C618  1  0.013500  0.428800  0.597990  1.0  0.1213
  C  C619  1  0.016500  0.324500  0.594850  1.0  -0.1345
  C  C620  1  0.019800  0.283900  0.575710  1.0  -0.1946
  C  C621  1  0.020600  0.356400  0.558820  1.0  -0.1815
  C  C622  1  0.019000  0.460500  0.563100  1.0  0.1352
  C  C623  1  0.881500  0.023800  0.556720  1.0  -0.2499
  C  C624  1  0.927400  0.023800  0.534870  1.0  -0.1924
  C  C625  1  0.049700  0.062200  0.533170  1.0  -0.1764
  C  C626  1  0.127700  0.159200  0.548290  1.0  -0.2721
  C  C627  1  0.056800  0.088400  0.595050  1.0  -0.1196
  C  C628  1  0.170000  0.150100  0.604440  1.0  -0.1537
  C  C629  1  0.190600  0.116300  0.622970  1.0  0.1412
  C  C630  1  0.998800  0.963700  0.625610  1.0  0.0958
  C  C631  1  0.972100  0.995900  0.605920  1.0  -0.1152
  C  C632  1  0.249700  0.935100  0.570790  1.0  0.1362
  C  C633  1  0.358600  0.039300  0.570820  1.0  -0.1393
  C  C634  1  0.428300  0.076700  0.588320  1.0  -0.2041
  C  C635  1  0.383100  0.000000  0.605210  1.0  -0.1441
  C  C636  1  0.275600  0.895500  0.604200  1.0  0.1254
  C  C637  1  0.542400  0.345800  0.600950  1.0  -0.2456
  C  C638  1  0.589000  0.362100  0.623470  1.0  -0.1703
  C  C639  1  0.700800  0.354000  0.623170  1.0  -0.1637
  C  C640  1  0.675600  0.238600  0.612470  1.0  -0.2604
  C  C641  1  0.648500  0.264600  0.564730  1.0  -0.2403
  C  C642  1  0.696100  0.376000  0.555470  1.0  -0.0942
  C  C643  1  0.756100  0.402100  0.536500  1.0  0.1461
  C  C644  1  0.726700  0.211800  0.534860  1.0  0.1308
  C  C645  1  0.666300  0.181700  0.553300  1.0  -0.1154
  C  C646  1  0.792600  0.683300  0.572860  1.0  0.1477
  C  C647  1  0.685100  0.683900  0.573380  1.0  -0.2152
  C  C648  1  0.632700  0.681900  0.592230  1.0  -0.2744
  C  C649  1  0.694800  0.681500  0.610080  1.0  -0.1744
  C  C650  1  0.800200  0.678900  0.608010  1.0  0.1205
  C  C651  1  0.358300  0.512800  0.597570  1.0  -0.2722
  C  C652  1  0.333000  0.502000  0.619270  1.0  -0.1356
  C  C653  1  0.455100  0.723800  0.619790  1.0  -0.2553
  C  C654  1  0.332300  0.611300  0.627270  1.0  -0.1965
  C  C655  1  0.454600  0.741200  0.570810  1.0  -0.1663
  C  C656  1  0.340200  0.705400  0.564380  1.0  -0.1694
  C  C657  1  0.320300  0.750900  0.546150  1.0  0.1235
  C  C658  1  0.517700  0.861700  0.539750  1.0  0.1395
  C  C659  1  0.545300  0.825000  0.558060  1.0  -0.1856
  C  C660  1  0.337800  0.102900  0.510510  1.0  0.1533
  C  C661  1  0.350500  0.217500  0.511050  1.0  -0.1934
  C  C662  1  0.447200  0.312600  0.500990  1.0  -0.2018
  C  C663  1  0.526800  0.283400  0.492060  1.0  -0.1633
  C  C664  1  0.509200  0.167400  0.493140  1.0  0.1412
  C  C665  1  0.558100  0.565300  0.521770  1.0  -0.272
  C  C666  1  0.646700  0.679600  0.510610  1.0  -0.1853
  N  N667  1  0.983100  0.482300  0.084500  1.0  -0.3835
  N  N668  1  0.893300  0.919300  0.032450  1.0  -0.3274
  N  N669  1  0.793800  0.654000  0.079450  1.0  -0.3764
  N  N670  1  0.227600  0.550300  0.140340  1.0  -0.3726
  N  N671  1  0.149800  0.830700  0.076970  1.0  -0.3712
  N  N672  1  0.592200  0.419400  0.133310  1.0  -0.3902
  N  N673  1  0.584600  0.661300  0.164390  1.0  -0.3777
  N  N674  1  0.517700  0.500800  0.751170  1.0  -0.3867
  N  N675  1  0.080700  0.974000  0.699120  1.0  -0.3232
  N  N676  1  0.346000  0.139800  0.746120  1.0  -0.3742
  N  N677  1  0.449700  0.677300  0.807010  1.0  -0.3684
  N  N678  1  0.169300  0.319100  0.743640  1.0  -0.3676
  N  N679  1  0.580600  0.172800  0.799980  1.0  -0.3883
  N  N680  1  0.338700  0.923300  0.831060  1.0  -0.3788
  N  N681  1  0.499200  0.016900  0.417830  1.0  -0.3908
  N  N682  1  0.026000  0.106700  0.365780  1.0  -0.3228
  N  N683  1  0.860200  0.206200  0.412780  1.0  -0.3775
  N  N684  1  0.322700  0.772400  0.473670  1.0  -0.3735
  N  N685  1  0.680900  0.850200  0.410300  1.0  -0.3658
  N  N686  1  0.827200  0.407800  0.466640  1.0  -0.3869
  N  N687  1  0.076700  0.415400  0.497720  1.0  -0.3781
  N  N688  1  0.482300  0.983100  0.915500  1.0  -0.3906
  N  N689  1  0.919300  0.893300  0.967550  1.0  -0.325
  N  N690  1  0.654000  0.793800  0.920550  1.0  -0.3736
  N  N691  1  0.550300  0.227600  0.859660  1.0  -0.3731
  N  N692  1  0.830700  0.149800  0.923030  1.0  -0.3694
  N  N693  1  0.419400  0.592200  0.866690  1.0  -0.3878
  N  N694  1  0.661300  0.584600  0.835610  1.0  -0.3783
  N  N695  1  0.500800  0.517700  0.248830  1.0  -0.3864
  N  N696  1  0.974000  0.080700  0.300880  1.0  -0.3263
  N  N697  1  0.139800  0.346000  0.253880  1.0  -0.3763
  N  N698  1  0.677300  0.449700  0.192990  1.0  -0.3732
  N  N699  1  0.319100  0.169300  0.256360  1.0  -0.3681
  N  N700  1  0.172800  0.580600  0.200020  1.0  -0.3903
  N  N701  1  0.923300  0.338700  0.168940  1.0  -0.3776
  N  N702  1  0.016900  0.499200  0.582170  1.0  -0.3836
  N  N703  1  0.106700  0.026000  0.634220  1.0  -0.3239
  N  N704  1  0.206200  0.860200  0.587220  1.0  -0.3765
  N  N705  1  0.772400  0.322700  0.526330  1.0  -0.3708
  N  N706  1  0.850200  0.680900  0.589700  1.0  -0.3686
  N  N707  1  0.407800  0.827200  0.533360  1.0  -0.3883
  N  N708  1  0.415400  0.076700  0.502280  1.0  -0.3786
