# generated using pymatgen
data_Sr3H31C45NO19
_symmetry_space_group_name_H-M   'P 1'
_cell_length_a   27.30620000
_cell_length_b   19.43470000
_cell_length_c   31.17700000
_cell_angle_alpha   90.00000000
_cell_angle_beta   90.00000000
_cell_angle_gamma   90.00000000
_symmetry_Int_Tables_number   1
_chemical_formula_structural   Sr3H31C45NO19
_chemical_formula_sum   'Sr24 H248 C360 N8 O152'
_cell_volume   16545.25370085
_cell_formula_units_Z   8
loop_
 _symmetry_equiv_pos_site_id
 _symmetry_equiv_pos_as_xyz
  1  'x, y, z'
loop_
 _atom_site_type_symbol
 _atom_site_label
 _atom_site_symmetry_multiplicity
 _atom_site_fract_x
 _atom_site_fract_y
 _atom_site_fract_z
 _atom_site_occupancy
 _atom_site_charge
  Sr  Sr1  1  0.211530  0.420020  0.173920  1.0  1.6169
  Sr  Sr2  1  0.290880  0.265720  0.198690  1.0  1.6261
  Sr  Sr3  1  0.228050  0.099550  0.149480  1.0  1.6177
  Sr  Sr4  1  0.288470  0.079980  0.673920  1.0  1.6204
  Sr  Sr5  1  0.209120  0.234280  0.698690  1.0  1.6265
  Sr  Sr6  1  0.271950  0.400450  0.649480  1.0  1.6166
  Sr  Sr7  1  0.788470  0.420020  0.326080  1.0  1.6203
  Sr  Sr8  1  0.709120  0.265720  0.301310  1.0  1.6258
  Sr  Sr9  1  0.771950  0.099550  0.350520  1.0  1.6167
  Sr  Sr10  1  0.711530  0.079980  0.826080  1.0  1.6168
  Sr  Sr11  1  0.790880  0.234280  0.801310  1.0  1.6261
  Sr  Sr12  1  0.728050  0.400450  0.850520  1.0  1.6182
  Sr  Sr13  1  0.788470  0.579980  0.826080  1.0  1.6202
  Sr  Sr14  1  0.709120  0.734280  0.801310  1.0  1.6263
  Sr  Sr15  1  0.771950  0.900450  0.850520  1.0  1.6166
  Sr  Sr16  1  0.711530  0.920020  0.326080  1.0  1.6169
  Sr  Sr17  1  0.790880  0.765720  0.301310  1.0  1.6258
  Sr  Sr18  1  0.728050  0.599550  0.350520  1.0  1.6178
  Sr  Sr19  1  0.211530  0.579980  0.673920  1.0  1.6168
  Sr  Sr20  1  0.290880  0.734280  0.698690  1.0  1.6263
  Sr  Sr21  1  0.228050  0.900450  0.649480  1.0  1.6183
  Sr  Sr22  1  0.288470  0.920020  0.173920  1.0  1.6205
  Sr  Sr23  1  0.209120  0.765720  0.198690  1.0  1.6261
  Sr  Sr24  1  0.271950  0.599550  0.149480  1.0  1.616
  H  H25  1  0.413000  0.261100  0.366100  1.0  0.1123
  H  H26  1  0.269200  0.245600  0.341400  1.0  0.1072
  H  H27  1  0.253700  0.237900  0.414000  1.0  0.1038
  H  H28  1  0.414700  0.218600  0.459400  1.0  0.3687
  H  H29  1  0.323500  0.307700  0.575500  1.0  0.1036
  H  H30  1  0.244100  0.139600  0.544000  1.0  0.0948
  H  H31  1  0.267900  0.151700  0.473400  1.0  0.1015
  H  H32  1  0.368800  0.354600  0.522900  1.0  0.4053
  H  H33  1  0.373400  0.376400  0.254100  1.0  0.1081
  H  H34  1  0.336200  0.577800  0.253200  1.0  0.1007
  H  H35  1  0.403600  0.603100  0.295100  1.0  0.0967
  H  H36  1  0.436900  0.347400  0.296500  1.0  0.3991
  H  H37  1  0.508300  0.612400  0.411500  1.0  0.1157
  H  H38  1  0.594100  0.512600  0.326700  1.0  0.0993
  H  H39  1  0.524500  0.475100  0.290200  1.0  0.0942
  H  H40  1  0.402300  0.567700  0.362000  1.0  0.3964
  H  H41  1  0.377400  0.164500  0.235900  1.0  0.1079
  H  H42  1  0.405600  0.992000  0.166800  1.0  0.117
  H  H43  1  0.481700  0.982400  0.201900  1.0  0.0913
  H  H44  1  0.440500  0.200000  0.281000  1.0  0.3967
  H  H45  1  0.126400  0.344100  0.248800  1.0  0.1089
  H  H46  1  0.110100  0.151800  0.201400  1.0  0.0934
  H  H47  1  0.026400  0.157200  0.216800  1.0  0.098
  H  H48  1  0.024700  0.388800  0.258300  1.0  0.2555
  H  H49  1  0.172800  0.919900  0.128300  1.0  0.064
  H  H50  1  0.158800  0.017300  0.021300  1.0  0.0953
  H  H51  1  0.198400  0.958700  0.011600  1.0  0.0916
  H  H52  1  0.210800  0.018900  0.044800  1.0  0.1044
  H  H53  1  0.111500  0.880400  0.086100  1.0  0.1184
  H  H54  1  0.120600  0.882400  0.035400  1.0  0.1106
  H  H55  1  0.091400  0.943600  0.058300  1.0  0.1243
  H  H56  1  0.087000  0.238900  0.866100  1.0  0.1129
  H  H57  1  0.230800  0.254400  0.841400  1.0  0.1072
  H  H58  1  0.246300  0.262100  0.914000  1.0  0.1039
  H  H59  1  0.085300  0.281400  0.959400  1.0  0.3729
  H  H60  1  0.176500  0.192300  0.075500  1.0  0.1037
  H  H61  1  0.255900  0.360400  0.044000  1.0  0.0941
  H  H62  1  0.232100  0.348300  0.973400  1.0  0.1017
  H  H63  1  0.131200  0.145400  0.022900  1.0  0.4053
  H  H64  1  0.126600  0.123600  0.754100  1.0  0.1086
  H  H65  1  0.163800  0.922200  0.753200  1.0  0.1014
  H  H66  1  0.096400  0.896900  0.795100  1.0  0.0967
  H  H67  1  0.063100  0.152600  0.796500  1.0  0.3979
  H  H68  1  0.991700  0.887600  0.911500  1.0  0.1146
  H  H69  1  0.905900  0.987400  0.826700  1.0  0.0998
  H  H70  1  0.975500  0.024900  0.790200  1.0  0.0944
  H  H71  1  0.097700  0.932300  0.862000  1.0  0.395
  H  H72  1  0.122600  0.335500  0.735900  1.0  0.1077
  H  H73  1  0.094400  0.508000  0.666800  1.0  0.1174
  H  H74  1  0.018300  0.517600  0.701900  1.0  0.0918
  H  H75  1  0.059500  0.300000  0.781000  1.0  0.3985
  H  H76  1  0.373600  0.155900  0.748800  1.0  0.1092
  H  H77  1  0.389900  0.348200  0.701400  1.0  0.0929
  H  H78  1  0.473600  0.342800  0.716800  1.0  0.0976
  H  H79  1  0.475300  0.111200  0.758300  1.0  0.2542
  H  H80  1  0.327200  0.580100  0.628300  1.0  0.0634
  H  H81  1  0.341200  0.482700  0.521300  1.0  0.0939
  H  H82  1  0.301600  0.541300  0.511600  1.0  0.0912
  H  H83  1  0.289200  0.481100  0.544800  1.0  0.102
  H  H84  1  0.388500  0.619600  0.586100  1.0  0.1179
  H  H85  1  0.379400  0.617600  0.535400  1.0  0.1108
  H  H86  1  0.408600  0.556400  0.558300  1.0  0.1271
  H  H87  1  0.587000  0.261100  0.133900  1.0  0.1122
  H  H88  1  0.730800  0.245600  0.158600  1.0  0.1062
  H  H89  1  0.746300  0.237900  0.086000  1.0  0.1041
  H  H90  1  0.585300  0.218600  0.040600  1.0  0.3706
  H  H91  1  0.676500  0.307700  0.924500  1.0  0.1037
  H  H92  1  0.755900  0.139600  0.956000  1.0  0.0949
  H  H93  1  0.732100  0.151700  0.026600  1.0  0.1023
  H  H94  1  0.631200  0.354600  0.977100  1.0  0.4051
  H  H95  1  0.626600  0.376400  0.245900  1.0  0.1082
  H  H96  1  0.663800  0.577800  0.246800  1.0  0.1009
  H  H97  1  0.596400  0.603100  0.204900  1.0  0.0965
  H  H98  1  0.563100  0.347400  0.203500  1.0  0.399
  H  H99  1  0.491700  0.612400  0.088500  1.0  0.1151
  H  H100  1  0.405900  0.512600  0.173300  1.0  0.0991
  H  H101  1  0.475500  0.475100  0.209800  1.0  0.0942
  H  H102  1  0.597700  0.567700  0.138000  1.0  0.3977
  H  H103  1  0.622600  0.164500  0.264100  1.0  0.1073
  H  H104  1  0.594400  0.992000  0.333200  1.0  0.118
  H  H105  1  0.518300  0.982400  0.298100  1.0  0.0914
  H  H106  1  0.559500  0.200000  0.219000  1.0  0.3956
  H  H107  1  0.873600  0.344100  0.251200  1.0  0.1096
  H  H108  1  0.889900  0.151800  0.298600  1.0  0.093
  H  H109  1  0.973600  0.157200  0.283200  1.0  0.0977
  H  H110  1  0.975300  0.388800  0.241700  1.0  0.2538
  H  H111  1  0.827200  0.919900  0.371700  1.0  0.0636
  H  H112  1  0.841200  0.017300  0.478700  1.0  0.0943
  H  H113  1  0.801600  0.958700  0.488400  1.0  0.0922
  H  H114  1  0.789200  0.018900  0.455200  1.0  0.1048
  H  H115  1  0.888500  0.880400  0.413900  1.0  0.1199
  H  H116  1  0.879400  0.882400  0.464600  1.0  0.1109
  H  H117  1  0.908600  0.943600  0.441700  1.0  0.1262
  H  H118  1  0.913000  0.238900  0.633900  1.0  0.112
  H  H119  1  0.769200  0.254400  0.658600  1.0  0.1063
  H  H120  1  0.753700  0.262100  0.586000  1.0  0.1039
  H  H121  1  0.914700  0.281400  0.540600  1.0  0.3688
  H  H122  1  0.823500  0.192300  0.424500  1.0  0.1043
  H  H123  1  0.744100  0.360400  0.456000  1.0  0.0949
  H  H124  1  0.767900  0.348300  0.526600  1.0  0.1023
  H  H125  1  0.868800  0.145400  0.477100  1.0  0.4061
  H  H126  1  0.873400  0.123600  0.745900  1.0  0.108
  H  H127  1  0.836200  0.922200  0.746800  1.0  0.0998
  H  H128  1  0.903600  0.896900  0.704900  1.0  0.0962
  H  H129  1  0.936900  0.152600  0.703500  1.0  0.3985
  H  H130  1  0.008300  0.887600  0.588500  1.0  0.1149
  H  H131  1  0.094100  0.987400  0.673300  1.0  0.0992
  H  H132  1  0.024500  0.024900  0.709800  1.0  0.0936
  H  H133  1  0.902300  0.932300  0.638000  1.0  0.397
  H  H134  1  0.877400  0.335500  0.764100  1.0  0.1074
  H  H135  1  0.905600  0.508000  0.833200  1.0  0.1181
  H  H136  1  0.981700  0.517600  0.798100  1.0  0.092
  H  H137  1  0.940500  0.300000  0.719000  1.0  0.3975
  H  H138  1  0.626400  0.155900  0.751200  1.0  0.1096
  H  H139  1  0.610100  0.348200  0.798600  1.0  0.0928
  H  H140  1  0.526400  0.342800  0.783200  1.0  0.0976
  H  H141  1  0.524700  0.111200  0.741700  1.0  0.2532
  H  H142  1  0.672800  0.580100  0.871700  1.0  0.0638
  H  H143  1  0.658800  0.482700  0.978700  1.0  0.0948
  H  H144  1  0.698400  0.541300  0.988400  1.0  0.0934
  H  H145  1  0.710800  0.481100  0.955200  1.0  0.1022
  H  H146  1  0.611500  0.619600  0.913900  1.0  0.1201
  H  H147  1  0.620600  0.617600  0.964600  1.0  0.1094
  H  H148  1  0.591400  0.556400  0.941700  1.0  0.1258
  H  H149  1  0.587000  0.738900  0.633900  1.0  0.1123
  H  H150  1  0.730800  0.754400  0.658600  1.0  0.1062
  H  H151  1  0.746300  0.762100  0.586000  1.0  0.1041
  H  H152  1  0.585300  0.781400  0.540600  1.0  0.3673
  H  H153  1  0.676500  0.692300  0.424500  1.0  0.1037
  H  H154  1  0.755900  0.860400  0.456000  1.0  0.0944
  H  H155  1  0.732100  0.848300  0.526600  1.0  0.1022
  H  H156  1  0.631200  0.645400  0.477100  1.0  0.4076
  H  H157  1  0.626600  0.623600  0.745900  1.0  0.1079
  H  H158  1  0.663800  0.422200  0.746800  1.0  0.1008
  H  H159  1  0.596400  0.396900  0.704900  1.0  0.0966
  H  H160  1  0.563100  0.652600  0.703500  1.0  0.3978
  H  H161  1  0.491700  0.387600  0.588500  1.0  0.115
  H  H162  1  0.405900  0.487400  0.673300  1.0  0.0994
  H  H163  1  0.475500  0.524900  0.709800  1.0  0.0937
  H  H164  1  0.597700  0.432300  0.638000  1.0  0.3972
  H  H165  1  0.622600  0.835500  0.764100  1.0  0.1076
  H  H166  1  0.594400  0.008000  0.833200  1.0  0.1182
  H  H167  1  0.518300  0.017600  0.798100  1.0  0.0919
  H  H168  1  0.559500  0.800000  0.719000  1.0  0.3976
  H  H169  1  0.873600  0.655900  0.751200  1.0  0.109
  H  H170  1  0.889900  0.848200  0.798600  1.0  0.0931
  H  H171  1  0.973600  0.842800  0.783200  1.0  0.0978
  H  H172  1  0.975300  0.611200  0.741700  1.0  0.2533
  H  H173  1  0.827200  0.080100  0.871700  1.0  0.0636
  H  H174  1  0.841200  0.982700  0.978700  1.0  0.0946
  H  H175  1  0.801600  0.041300  0.988400  1.0  0.0925
  H  H176  1  0.789200  0.981100  0.955200  1.0  0.1039
  H  H177  1  0.888500  0.119600  0.913900  1.0  0.1202
  H  H178  1  0.879400  0.117600  0.964600  1.0  0.1099
  H  H179  1  0.908600  0.056400  0.941700  1.0  0.1259
  H  H180  1  0.913000  0.761100  0.133900  1.0  0.1116
  H  H181  1  0.769200  0.745600  0.158600  1.0  0.1063
  H  H182  1  0.753700  0.737900  0.086000  1.0  0.104
  H  H183  1  0.914700  0.718600  0.040600  1.0  0.3714
  H  H184  1  0.823500  0.807700  0.924500  1.0  0.1034
  H  H185  1  0.744100  0.639600  0.956000  1.0  0.0951
  H  H186  1  0.767900  0.651700  0.026600  1.0  0.1023
  H  H187  1  0.868800  0.854600  0.977100  1.0  0.4064
  H  H188  1  0.873400  0.876400  0.245900  1.0  0.1082
  H  H189  1  0.836200  0.077800  0.246800  1.0  0.1002
  H  H190  1  0.903600  0.103100  0.204900  1.0  0.0965
  H  H191  1  0.936900  0.847400  0.203500  1.0  0.3991
  H  H192  1  0.008300  0.112400  0.088500  1.0  0.115
  H  H193  1  0.094100  0.012600  0.173300  1.0  0.0991
  H  H194  1  0.024500  0.975100  0.209800  1.0  0.0939
  H  H195  1  0.902300  0.067700  0.138000  1.0  0.3973
  H  H196  1  0.877400  0.664500  0.264100  1.0  0.1077
  H  H197  1  0.905600  0.492000  0.333200  1.0  0.118
  H  H198  1  0.981700  0.482400  0.298100  1.0  0.0917
  H  H199  1  0.940500  0.700000  0.219000  1.0  0.3965
  H  H200  1  0.626400  0.844100  0.251200  1.0  0.1095
  H  H201  1  0.610100  0.651800  0.298600  1.0  0.093
  H  H202  1  0.526400  0.657200  0.283200  1.0  0.098
  H  H203  1  0.524700  0.888800  0.241700  1.0  0.2544
  H  H204  1  0.672800  0.419900  0.371700  1.0  0.0637
  H  H205  1  0.658800  0.517300  0.478700  1.0  0.0947
  H  H206  1  0.698400  0.458700  0.488400  1.0  0.093
  H  H207  1  0.710800  0.518900  0.455200  1.0  0.1035
  H  H208  1  0.611500  0.380400  0.413900  1.0  0.12
  H  H209  1  0.620600  0.382400  0.464600  1.0  0.1113
  H  H210  1  0.591400  0.443600  0.441700  1.0  0.1262
  H  H211  1  0.413000  0.738900  0.866100  1.0  0.1124
  H  H212  1  0.269200  0.754400  0.841400  1.0  0.1072
  H  H213  1  0.253700  0.762100  0.914000  1.0  0.1037
  H  H214  1  0.414700  0.781400  0.959400  1.0  0.3688
  H  H215  1  0.323500  0.692300  0.075500  1.0  0.1035
  H  H216  1  0.244100  0.860400  0.044000  1.0  0.0945
  H  H217  1  0.267900  0.848300  0.973400  1.0  0.1019
  H  H218  1  0.368800  0.645400  0.022900  1.0  0.4078
  H  H219  1  0.373400  0.623600  0.754100  1.0  0.1085
  H  H220  1  0.336200  0.422200  0.753200  1.0  0.101
  H  H221  1  0.403600  0.396900  0.795100  1.0  0.0973
  H  H222  1  0.436900  0.652600  0.796500  1.0  0.3985
  H  H223  1  0.508300  0.387600  0.911500  1.0  0.1159
  H  H224  1  0.594100  0.487400  0.826700  1.0  0.0996
  H  H225  1  0.524500  0.524900  0.790200  1.0  0.0941
  H  H226  1  0.402300  0.432300  0.862000  1.0  0.3961
  H  H227  1  0.377400  0.835500  0.735900  1.0  0.1075
  H  H228  1  0.405600  0.008000  0.666800  1.0  0.1175
  H  H229  1  0.481700  0.017600  0.701900  1.0  0.0918
  H  H230  1  0.440500  0.800000  0.781000  1.0  0.3982
  H  H231  1  0.126400  0.655900  0.748800  1.0  0.1093
  H  H232  1  0.110100  0.848200  0.701400  1.0  0.0927
  H  H233  1  0.026400  0.842800  0.716800  1.0  0.0975
  H  H234  1  0.024700  0.611200  0.758300  1.0  0.2545
  H  H235  1  0.172800  0.080100  0.628300  1.0  0.0632
  H  H236  1  0.158800  0.982700  0.521300  1.0  0.0944
  H  H237  1  0.198400  0.041300  0.511600  1.0  0.0921
  H  H238  1  0.210800  0.981100  0.544800  1.0  0.1026
  H  H239  1  0.111500  0.119600  0.586100  1.0  0.1179
  H  H240  1  0.120600  0.117600  0.535400  1.0  0.1095
  H  H241  1  0.091400  0.056400  0.558300  1.0  0.1245
  H  H242  1  0.087000  0.761100  0.366100  1.0  0.1129
  H  H243  1  0.230800  0.745600  0.341400  1.0  0.1072
  H  H244  1  0.246300  0.737900  0.414000  1.0  0.1039
  H  H245  1  0.085300  0.718600  0.459400  1.0  0.3708
  H  H246  1  0.176500  0.807700  0.575500  1.0  0.1031
  H  H247  1  0.255900  0.639600  0.544000  1.0  0.0948
  H  H248  1  0.232100  0.651700  0.473400  1.0  0.1015
  H  H249  1  0.131200  0.854600  0.522900  1.0  0.4055
  H  H250  1  0.126600  0.876400  0.254100  1.0  0.1083
  H  H251  1  0.163800  0.077800  0.253200  1.0  0.1006
  H  H252  1  0.096400  0.103100  0.295100  1.0  0.0961
  H  H253  1  0.063100  0.847400  0.296500  1.0  0.3992
  H  H254  1  0.991700  0.112400  0.411500  1.0  0.1148
  H  H255  1  0.905900  0.012600  0.326700  1.0  0.0994
  H  H256  1  0.975500  0.975100  0.290200  1.0  0.0946
  H  H257  1  0.097700  0.067700  0.362000  1.0  0.3947
  H  H258  1  0.122600  0.664500  0.235900  1.0  0.1075
  H  H259  1  0.094400  0.492000  0.166800  1.0  0.1168
  H  H260  1  0.018300  0.482400  0.201900  1.0  0.0909
  H  H261  1  0.059500  0.700000  0.281000  1.0  0.3962
  H  H262  1  0.373600  0.844100  0.248800  1.0  0.1093
  H  H263  1  0.389900  0.651800  0.201400  1.0  0.0933
  H  H264  1  0.473600  0.657200  0.216800  1.0  0.0981
  H  H265  1  0.475300  0.888800  0.258300  1.0  0.2549
  H  H266  1  0.327200  0.419900  0.128300  1.0  0.064
  H  H267  1  0.341200  0.517300  0.021300  1.0  0.0945
  H  H268  1  0.301600  0.458700  0.011600  1.0  0.0911
  H  H269  1  0.289200  0.518900  0.044800  1.0  0.1027
  H  H270  1  0.388500  0.380400  0.086100  1.0  0.118
  H  H271  1  0.379400  0.382400  0.035400  1.0  0.111
  H  H272  1  0.408600  0.443600  0.058300  1.0  0.1272
  C  C273  1  0.324700  0.242400  0.434810  1.0  0.0392
  C  C274  1  0.371600  0.250800  0.419100  1.0  0.2642
  C  C275  1  0.380300  0.255500  0.375880  1.0  -0.1252
  C  C276  1  0.343100  0.252400  0.346160  1.0  -0.1813
  C  C277  1  0.295700  0.246500  0.361100  1.0  -0.0554
  C  C278  1  0.286600  0.241700  0.404300  1.0  -0.156
  C  C279  1  0.353600  0.257800  0.298770  1.0  0.6769
  C  C280  1  0.312500  0.235200  0.481830  1.0  0.0051
  C  C281  1  0.329100  0.280000  0.513230  1.0  0.2712
  C  C282  1  0.312700  0.275300  0.554770  1.0  -0.1744
  C  C283  1  0.280300  0.223200  0.566690  1.0  -0.1458
  C  C284  1  0.265000  0.176400  0.536000  1.0  -0.0611
  C  C285  1  0.279900  0.183000  0.494300  1.0  -0.1663
  C  C286  1  0.260300  0.222500  0.611110  1.0  0.7411
  C  C287  1  0.429910  0.504900  0.301330  1.0  0.0013
  C  C288  1  0.418600  0.437000  0.289040  1.0  0.247
  C  C289  1  0.379240  0.422500  0.262780  1.0  -0.179
  C  C290  1  0.347860  0.474600  0.248840  1.0  -0.123
  C  C291  1  0.357600  0.541800  0.261820  1.0  -0.0365
  C  C292  1  0.397600  0.556700  0.287060  1.0  -0.1367
  C  C293  1  0.304900  0.458000  0.221140  1.0  0.7207
  C  C294  1  0.474030  0.522800  0.327330  1.0  -0.0331
  C  C295  1  0.469470  0.564000  0.364130  1.0  0.195
  C  C296  1  0.511790  0.584700  0.386530  1.0  -0.1057
  C  C297  1  0.558130  0.565900  0.373210  1.0  -0.1493
  C  C298  1  0.562610  0.525500  0.336690  1.0  -0.0906
  C  C299  1  0.520800  0.503800  0.314670  1.0  -0.1144
  C  C300  1  0.602680  0.590900  0.397780  1.0  0.686
  C  C301  1  0.475300  0.067200  0.240000  1.0  0.013
  C  C302  1  0.443800  0.120600  0.249900  1.0  0.2479
  C  C303  1  0.398400  0.127100  0.229100  1.0  -0.1561
  C  C304  1  0.384120  0.079300  0.198800  1.0  -0.1304
  C  C305  1  0.415000  0.024700  0.187900  1.0  -0.0688
  C  C306  1  0.460500  0.019400  0.209000  1.0  -0.1034
  C  C307  1  0.334360  0.086900  0.178570  1.0  0.7031
  C  C308  1  0.027000  0.251700  0.244300  1.0  -0.0236
  C  C309  1  0.057800  0.306700  0.254400  1.0  0.2896
  C  C310  1  0.106600  0.304800  0.243400  1.0  -0.1225
  C  C311  1  0.127900  0.246900  0.224490  1.0  -0.1252
  C  C312  1  0.096970  0.191800  0.214700  1.0  -0.0453
  C  C313  1  0.047000  0.194800  0.224230  1.0  -0.1403
  C  C314  1  0.181800  0.244500  0.215030  1.0  0.7169
  C  C315  1  0.187300  0.946800  0.106270  1.0  0.1707
  C  C316  1  0.184900  0.989000  0.033700  1.0  -0.1409
  C  C317  1  0.118100  0.910400  0.061400  1.0  -0.1404
  C  C318  1  0.175300  0.257600  0.934810  1.0  0.0385
  C  C319  1  0.128400  0.249200  0.919100  1.0  0.2644
  C  C320  1  0.119700  0.244500  0.875880  1.0  -0.1258
  C  C321  1  0.156900  0.247600  0.846160  1.0  -0.1806
  C  C322  1  0.204300  0.253500  0.861100  1.0  -0.0573
  C  C323  1  0.213400  0.258300  0.904300  1.0  -0.154
  C  C324  1  0.146400  0.242200  0.798770  1.0  0.6765
  C  C325  1  0.187500  0.264800  0.981830  1.0  0.0049
  C  C326  1  0.170900  0.220000  0.013230  1.0  0.272
  C  C327  1  0.187300  0.224700  0.054770  1.0  -0.1757
  C  C328  1  0.219700  0.276800  0.066690  1.0  -0.1461
  C  C329  1  0.235000  0.323600  0.036000  1.0  -0.062
  C  C330  1  0.220100  0.317000  0.994300  1.0  -0.1667
  C  C331  1  0.239700  0.277500  0.111110  1.0  0.7426
  C  C332  1  0.070090  0.995100  0.801330  1.0  0.0036
  C  C333  1  0.081400  0.063000  0.789040  1.0  0.247
  C  C334  1  0.120760  0.077500  0.762780  1.0  -0.1797
  C  C335  1  0.152140  0.025400  0.748840  1.0  -0.1201
  C  C336  1  0.142400  0.958200  0.761820  1.0  -0.037
  C  C337  1  0.102400  0.943300  0.787060  1.0  -0.1341
  C  C338  1  0.195100  0.042000  0.721140  1.0  0.7191
  C  C339  1  0.025970  0.977200  0.827330  1.0  -0.0318
  C  C340  1  0.030530  0.936000  0.864130  1.0  0.1934
  C  C341  1  0.988210  0.915300  0.886530  1.0  -0.1058
  C  C342  1  0.941870  0.934100  0.873210  1.0  -0.1494
  C  C343  1  0.937390  0.974500  0.836690  1.0  -0.0895
  C  C344  1  0.979200  0.996200  0.814670  1.0  -0.1147
  C  C345  1  0.897320  0.909100  0.897780  1.0  0.6848
  C  C346  1  0.024700  0.432800  0.740000  1.0  0.0125
  C  C347  1  0.056200  0.379400  0.749900  1.0  0.2475
  C  C348  1  0.101600  0.372900  0.729100  1.0  -0.1535
  C  C349  1  0.115880  0.420700  0.698800  1.0  -0.1302
  C  C350  1  0.085000  0.475300  0.687900  1.0  -0.0685
  C  C351  1  0.039500  0.480600  0.709000  1.0  -0.1033
  C  C352  1  0.165640  0.413100  0.678570  1.0  0.7018
  C  C353  1  0.473000  0.248300  0.744300  1.0  -0.0239
  C  C354  1  0.442200  0.193300  0.754400  1.0  0.2898
  C  C355  1  0.393400  0.195200  0.743400  1.0  -0.1229
  C  C356  1  0.372100  0.253100  0.724490  1.0  -0.1255
  C  C357  1  0.403030  0.308200  0.714700  1.0  -0.0451
  C  C358  1  0.453000  0.305200  0.724230  1.0  -0.1417
  C  C359  1  0.318200  0.255500  0.715030  1.0  0.717
  C  C360  1  0.312700  0.553200  0.606270  1.0  0.1678
  C  C361  1  0.315100  0.511000  0.533700  1.0  -0.14
  C  C362  1  0.381900  0.589600  0.561400  1.0  -0.1426
  C  C363  1  0.675300  0.242400  0.065190  1.0  0.0388
  C  C364  1  0.628400  0.250800  0.080900  1.0  0.2646
  C  C365  1  0.619700  0.255500  0.124120  1.0  -0.1263
  C  C366  1  0.656900  0.252400  0.153840  1.0  -0.1812
  C  C367  1  0.704300  0.246500  0.138900  1.0  -0.0563
  C  C368  1  0.713400  0.241700  0.095700  1.0  -0.1543
  C  C369  1  0.646400  0.257800  0.201230  1.0  0.6759
  C  C370  1  0.687500  0.235200  0.018170  1.0  0.0046
  C  C371  1  0.670900  0.280000  0.986770  1.0  0.2714
  C  C372  1  0.687300  0.275300  0.945230  1.0  -0.1755
  C  C373  1  0.719700  0.223200  0.933310  1.0  -0.1464
  C  C374  1  0.735000  0.176400  0.964000  1.0  -0.0618
  C  C375  1  0.720100  0.183000  0.005700  1.0  -0.1661
  C  C376  1  0.739700  0.222500  0.888890  1.0  0.7415
  C  C377  1  0.570090  0.504900  0.198670  1.0  0.0031
  C  C378  1  0.581400  0.437000  0.210960  1.0  0.247
  C  C379  1  0.620760  0.422500  0.237220  1.0  -0.1788
  C  C380  1  0.652140  0.474600  0.251160  1.0  -0.1205
  C  C381  1  0.642400  0.541800  0.238180  1.0  -0.0363
  C  C382  1  0.602400  0.556700  0.212940  1.0  -0.1362
  C  C383  1  0.695100  0.458000  0.278860  1.0  0.7193
  C  C384  1  0.525970  0.522800  0.172670  1.0  -0.0313
  C  C385  1  0.530530  0.564000  0.135870  1.0  0.1891
  C  C386  1  0.488210  0.584700  0.113470  1.0  -0.1057
  C  C387  1  0.441870  0.565900  0.126790  1.0  -0.15
  C  C388  1  0.437390  0.525500  0.163310  1.0  -0.0889
  C  C389  1  0.479200  0.503800  0.185330  1.0  -0.114
  C  C390  1  0.397320  0.590900  0.102220  1.0  0.6839
  C  C391  1  0.524700  0.067200  0.260000  1.0  0.0125
  C  C392  1  0.556200  0.120600  0.250100  1.0  0.248
  C  C393  1  0.601600  0.127100  0.270900  1.0  -0.1548
  C  C394  1  0.615880  0.079300  0.301200  1.0  -0.1291
  C  C395  1  0.585000  0.024700  0.312100  1.0  -0.0686
  C  C396  1  0.539500  0.019400  0.291000  1.0  -0.1013
  C  C397  1  0.665640  0.086900  0.321430  1.0  0.7032
  C  C398  1  0.973000  0.251700  0.255700  1.0  -0.0233
  C  C399  1  0.942200  0.306700  0.245600  1.0  0.2889
  C  C400  1  0.893400  0.304800  0.256600  1.0  -0.1234
  C  C401  1  0.872100  0.246900  0.275510  1.0  -0.1248
  C  C402  1  0.903030  0.191800  0.285300  1.0  -0.0464
  C  C403  1  0.953000  0.194800  0.275770  1.0  -0.1402
  C  C404  1  0.818200  0.244500  0.284970  1.0  0.7181
  C  C405  1  0.812700  0.946800  0.393730  1.0  0.1663
  C  C406  1  0.815100  0.989000  0.466300  1.0  -0.1397
  C  C407  1  0.881900  0.910400  0.438600  1.0  -0.1421
  C  C408  1  0.824700  0.257600  0.565190  1.0  0.0394
  C  C409  1  0.871600  0.249200  0.580900  1.0  0.2641
  C  C410  1  0.880300  0.244500  0.624120  1.0  -0.125
  C  C411  1  0.843100  0.247600  0.653840  1.0  -0.181
  C  C412  1  0.795700  0.253500  0.638900  1.0  -0.0559
  C  C413  1  0.786600  0.258300  0.595700  1.0  -0.1547
  C  C414  1  0.853600  0.242200  0.701230  1.0  0.6751
  C  C415  1  0.812500  0.264800  0.518170  1.0  0.0044
  C  C416  1  0.829100  0.220000  0.486770  1.0  0.2703
  C  C417  1  0.812700  0.224700  0.445230  1.0  -0.1747
  C  C418  1  0.780300  0.276800  0.433310  1.0  -0.1462
  C  C419  1  0.765000  0.323600  0.464000  1.0  -0.0617
  C  C420  1  0.779900  0.317000  0.505700  1.0  -0.1671
  C  C421  1  0.760300  0.277500  0.388890  1.0  0.7418
  C  C422  1  0.929910  0.995100  0.698670  1.0  0.0024
  C  C423  1  0.918600  0.063000  0.710960  1.0  0.247
  C  C424  1  0.879240  0.077500  0.737220  1.0  -0.1794
  C  C425  1  0.847860  0.025400  0.751160  1.0  -0.1226
  C  C426  1  0.857600  0.958200  0.738180  1.0  -0.0352
  C  C427  1  0.897600  0.943300  0.712940  1.0  -0.1356
  C  C428  1  0.804900  0.042000  0.778860  1.0  0.7199
  C  C429  1  0.974030  0.977200  0.672670  1.0  -0.0317
  C  C430  1  0.969470  0.936000  0.635870  1.0  0.1906
  C  C431  1  0.011790  0.915300  0.613470  1.0  -0.1052
  C  C432  1  0.058130  0.934100  0.626790  1.0  -0.1491
  C  C433  1  0.062610  0.974500  0.663310  1.0  -0.0914
  C  C434  1  0.020800  0.996200  0.685330  1.0  -0.1145
  C  C435  1  0.102680  0.909100  0.602220  1.0  0.6847
  C  C436  1  0.975300  0.432800  0.760000  1.0  0.0132
  C  C437  1  0.943800  0.379400  0.750100  1.0  0.2483
  C  C438  1  0.898400  0.372900  0.770900  1.0  -0.154
  C  C439  1  0.884120  0.420700  0.801200  1.0  -0.1289
  C  C440  1  0.915000  0.475300  0.812100  1.0  -0.069
  C  C441  1  0.960500  0.480600  0.791000  1.0  -0.1018
  C  C442  1  0.834360  0.413100  0.821430  1.0  0.7034
  C  C443  1  0.527000  0.248300  0.755700  1.0  -0.0238
  C  C444  1  0.557800  0.193300  0.745600  1.0  0.2899
  C  C445  1  0.606600  0.195200  0.756600  1.0  -0.1222
  C  C446  1  0.627900  0.253100  0.775510  1.0  -0.1246
  C  C447  1  0.596970  0.308200  0.785300  1.0  -0.0466
  C  C448  1  0.547000  0.305200  0.775770  1.0  -0.141
  C  C449  1  0.681800  0.255500  0.784970  1.0  0.7172
  C  C450  1  0.687300  0.553200  0.893730  1.0  0.1674
  C  C451  1  0.684900  0.511000  0.966300  1.0  -0.1409
  C  C452  1  0.618100  0.589600  0.938600  1.0  -0.1436
  C  C453  1  0.675300  0.757600  0.565190  1.0  0.0388
  C  C454  1  0.628400  0.749200  0.580900  1.0  0.2644
  C  C455  1  0.619700  0.744500  0.624120  1.0  -0.1259
  C  C456  1  0.656900  0.747600  0.653840  1.0  -0.1813
  C  C457  1  0.704300  0.753500  0.638900  1.0  -0.0563
  C  C458  1  0.713400  0.758300  0.595700  1.0  -0.1543
  C  C459  1  0.646400  0.742200  0.701230  1.0  0.6757
  C  C460  1  0.687500  0.764800  0.518170  1.0  0.0044
  C  C461  1  0.670900  0.720000  0.486770  1.0  0.2712
  C  C462  1  0.687300  0.724700  0.445230  1.0  -0.1756
  C  C463  1  0.719700  0.776800  0.433310  1.0  -0.1463
  C  C464  1  0.735000  0.823600  0.464000  1.0  -0.062
  C  C465  1  0.720100  0.817000  0.505700  1.0  -0.1668
  C  C466  1  0.739700  0.777500  0.388890  1.0  0.7415
  C  C467  1  0.570090  0.495100  0.698670  1.0  0.0038
  C  C468  1  0.581400  0.563000  0.710960  1.0  0.2476
  C  C469  1  0.620760  0.577500  0.737220  1.0  -0.1799
  C  C470  1  0.652140  0.525400  0.751160  1.0  -0.1205
  C  C471  1  0.642400  0.458200  0.738180  1.0  -0.0353
  C  C472  1  0.602400  0.443300  0.712940  1.0  -0.1348
  C  C473  1  0.695100  0.542000  0.778860  1.0  0.7194
  C  C474  1  0.525970  0.477200  0.672670  1.0  -0.0312
  C  C475  1  0.530530  0.436000  0.635870  1.0  0.189
  C  C476  1  0.488210  0.415300  0.613470  1.0  -0.1057
  C  C477  1  0.441870  0.434100  0.626790  1.0  -0.1507
  C  C478  1  0.437390  0.474500  0.663310  1.0  -0.0899
  C  C479  1  0.479200  0.496200  0.685330  1.0  -0.1142
  C  C480  1  0.397320  0.409100  0.602220  1.0  0.6832
  C  C481  1  0.524700  0.932800  0.760000  1.0  0.0126
  C  C482  1  0.556200  0.879400  0.750100  1.0  0.2478
  C  C483  1  0.601600  0.872900  0.770900  1.0  -0.1533
  C  C484  1  0.615880  0.920700  0.801200  1.0  -0.1291
  C  C485  1  0.585000  0.975300  0.812100  1.0  -0.0682
  C  C486  1  0.539500  0.980600  0.791000  1.0  -0.1024
  C  C487  1  0.665640  0.913100  0.821430  1.0  0.7033
  C  C488  1  0.973000  0.748300  0.755700  1.0  -0.0236
  C  C489  1  0.942200  0.693300  0.745600  1.0  0.29
  C  C490  1  0.893400  0.695200  0.756600  1.0  -0.1226
  C  C491  1  0.872100  0.753100  0.775510  1.0  -0.1252
  C  C492  1  0.903030  0.808200  0.785300  1.0  -0.0459
  C  C493  1  0.953000  0.805200  0.775770  1.0  -0.1419
  C  C494  1  0.818200  0.755500  0.784970  1.0  0.7179
  C  C495  1  0.812700  0.053200  0.893730  1.0  0.1672
  C  C496  1  0.815100  0.011000  0.966300  1.0  -0.1404
  C  C497  1  0.881900  0.089600  0.938600  1.0  -0.1439
  C  C498  1  0.824700  0.742400  0.065190  1.0  0.0395
  C  C499  1  0.871600  0.750800  0.080900  1.0  0.2641
  C  C500  1  0.880300  0.755500  0.124120  1.0  -0.1254
  C  C501  1  0.843100  0.752400  0.153840  1.0  -0.1808
  C  C502  1  0.795700  0.746500  0.138900  1.0  -0.056
  C  C503  1  0.786600  0.741700  0.095700  1.0  -0.155
  C  C504  1  0.853600  0.757800  0.201230  1.0  0.6751
  C  C505  1  0.812500  0.735200  0.018170  1.0  0.0046
  C  C506  1  0.829100  0.780000  0.986770  1.0  0.2704
  C  C507  1  0.812700  0.775300  0.945230  1.0  -0.1748
  C  C508  1  0.780300  0.723200  0.933310  1.0  -0.1464
  C  C509  1  0.765000  0.676400  0.964000  1.0  -0.0616
  C  C510  1  0.779900  0.683000  0.005700  1.0  -0.1659
  C  C511  1  0.760300  0.722500  0.888890  1.0  0.7417
  C  C512  1  0.929910  0.004900  0.198670  1.0  0.0018
  C  C513  1  0.918600  0.937000  0.210960  1.0  0.2469
  C  C514  1  0.879240  0.922500  0.237220  1.0  -0.1791
  C  C515  1  0.847860  0.974600  0.251160  1.0  -0.1225
  C  C516  1  0.857600  0.041800  0.238180  1.0  -0.0369
  C  C517  1  0.897600  0.056700  0.212940  1.0  -0.1374
  C  C518  1  0.804900  0.958000  0.278860  1.0  0.7199
  C  C519  1  0.974030  0.022800  0.172670  1.0  -0.032
  C  C520  1  0.969470  0.064000  0.135870  1.0  0.1908
  C  C521  1  0.011790  0.084700  0.113470  1.0  -0.105
  C  C522  1  0.058130  0.065900  0.126790  1.0  -0.1487
  C  C523  1  0.062610  0.025500  0.163310  1.0  -0.0908
  C  C524  1  0.020800  0.003800  0.185330  1.0  -0.1141
  C  C525  1  0.102680  0.090900  0.102220  1.0  0.6851
  C  C526  1  0.975300  0.567200  0.260000  1.0  0.013
  C  C527  1  0.943800  0.620600  0.250100  1.0  0.2482
  C  C528  1  0.898400  0.627100  0.270900  1.0  -0.1555
  C  C529  1  0.884120  0.579300  0.301200  1.0  -0.129
  C  C530  1  0.915000  0.524700  0.312100  1.0  -0.0694
  C  C531  1  0.960500  0.519400  0.291000  1.0  -0.1016
  C  C532  1  0.834360  0.586900  0.321430  1.0  0.7034
  C  C533  1  0.527000  0.751700  0.255700  1.0  -0.0233
  C  C534  1  0.557800  0.806700  0.245600  1.0  0.2899
  C  C535  1  0.606600  0.804800  0.256600  1.0  -0.1233
  C  C536  1  0.627900  0.746900  0.275510  1.0  -0.1252
  C  C537  1  0.596970  0.691800  0.285300  1.0  -0.0471
  C  C538  1  0.547000  0.694800  0.275770  1.0  -0.1407
  C  C539  1  0.681800  0.744500  0.284970  1.0  0.7177
  C  C540  1  0.687300  0.446800  0.393730  1.0  0.1699
  C  C541  1  0.684900  0.489000  0.466300  1.0  -0.1402
  C  C542  1  0.618100  0.410400  0.438600  1.0  -0.1415
  C  C543  1  0.324700  0.757600  0.934810  1.0  0.0392
  C  C544  1  0.371600  0.749200  0.919100  1.0  0.264
  C  C545  1  0.380300  0.744500  0.875880  1.0  -0.125
  C  C546  1  0.343100  0.747600  0.846160  1.0  -0.1811
  C  C547  1  0.295700  0.753500  0.861100  1.0  -0.0553
  C  C548  1  0.286600  0.758300  0.904300  1.0  -0.156
  C  C549  1  0.353600  0.742200  0.798770  1.0  0.6768
  C  C550  1  0.312500  0.764800  0.981830  1.0  0.0049
  C  C551  1  0.329100  0.720000  0.013230  1.0  0.2712
  C  C552  1  0.312700  0.724700  0.054770  1.0  -0.1741
  C  C553  1  0.280300  0.776800  0.066690  1.0  -0.1459
  C  C554  1  0.265000  0.823600  0.036000  1.0  -0.0617
  C  C555  1  0.279900  0.817000  0.994300  1.0  -0.1666
  C  C556  1  0.260300  0.777500  0.111110  1.0  0.7412
  C  C557  1  0.429910  0.495100  0.801330  1.0  0.0015
  C  C558  1  0.418600  0.563000  0.789040  1.0  0.2469
  C  C559  1  0.379240  0.577500  0.762780  1.0  -0.1793
  C  C560  1  0.347860  0.525400  0.748840  1.0  -0.1232
  C  C561  1  0.357600  0.458200  0.761820  1.0  -0.035
  C  C562  1  0.397600  0.443300  0.787060  1.0  -0.1344
  C  C563  1  0.304900  0.542000  0.721140  1.0  0.7206
  C  C564  1  0.474030  0.477200  0.827330  1.0  -0.0333
  C  C565  1  0.469470  0.436000  0.864130  1.0  0.1948
  C  C566  1  0.511790  0.415300  0.886530  1.0  -0.1058
  C  C567  1  0.558130  0.434100  0.873210  1.0  -0.1489
  C  C568  1  0.562610  0.474500  0.836690  1.0  -0.0911
  C  C569  1  0.520800  0.496200  0.814670  1.0  -0.1147
  C  C570  1  0.602680  0.409100  0.897780  1.0  0.6855
  C  C571  1  0.475300  0.932800  0.740000  1.0  0.0131
  C  C572  1  0.443800  0.879400  0.749900  1.0  0.2476
  C  C573  1  0.398400  0.872900  0.729100  1.0  -0.1541
  C  C574  1  0.384120  0.920700  0.698800  1.0  -0.1302
  C  C575  1  0.415000  0.975300  0.687900  1.0  -0.0683
  C  C576  1  0.460500  0.980600  0.709000  1.0  -0.1037
  C  C577  1  0.334360  0.913100  0.678570  1.0  0.7031
  C  C578  1  0.027000  0.748300  0.744300  1.0  -0.0241
  C  C579  1  0.057800  0.693300  0.754400  1.0  0.2894
  C  C580  1  0.106600  0.695200  0.743400  1.0  -0.122
  C  C581  1  0.127900  0.753100  0.724490  1.0  -0.1246
  C  C582  1  0.096970  0.808200  0.714700  1.0  -0.0454
  C  C583  1  0.047000  0.805200  0.724230  1.0  -0.1409
  C  C584  1  0.181800  0.755500  0.715030  1.0  0.7165
  C  C585  1  0.187300  0.053200  0.606270  1.0  0.1707
  C  C586  1  0.184900  0.011000  0.533700  1.0  -0.1415
  C  C587  1  0.118100  0.089600  0.561400  1.0  -0.1411
  C  C588  1  0.175300  0.742400  0.434810  1.0  0.0385
  C  C589  1  0.128400  0.750800  0.419100  1.0  0.2648
  C  C590  1  0.119700  0.755500  0.375880  1.0  -0.126
  C  C591  1  0.156900  0.752400  0.346160  1.0  -0.1809
  C  C592  1  0.204300  0.746500  0.361100  1.0  -0.0575
  C  C593  1  0.213400  0.741700  0.404300  1.0  -0.1538
  C  C594  1  0.146400  0.757800  0.298770  1.0  0.6767
  C  C595  1  0.187500  0.735200  0.481830  1.0  0.005
  C  C596  1  0.170900  0.780000  0.513230  1.0  0.272
  C  C597  1  0.187300  0.775300  0.554770  1.0  -0.1759
  C  C598  1  0.219700  0.723200  0.566690  1.0  -0.146
  C  C599  1  0.235000  0.676400  0.536000  1.0  -0.0613
  C  C600  1  0.220100  0.683000  0.494300  1.0  -0.1667
  C  C601  1  0.239700  0.722500  0.611110  1.0  0.7426
  C  C602  1  0.070090  0.004900  0.301330  1.0  0.0033
  C  C603  1  0.081400  0.937000  0.289040  1.0  0.2467
  C  C604  1  0.120760  0.922500  0.262780  1.0  -0.1787
  C  C605  1  0.152140  0.974600  0.248840  1.0  -0.1199
  C  C606  1  0.142400  0.041800  0.261820  1.0  -0.0374
  C  C607  1  0.102400  0.056700  0.287060  1.0  -0.1361
  C  C608  1  0.195100  0.958000  0.221140  1.0  0.7189
  C  C609  1  0.025970  0.022800  0.327330  1.0  -0.0316
  C  C610  1  0.030530  0.064000  0.364130  1.0  0.1933
  C  C611  1  0.988210  0.084700  0.386530  1.0  -0.1059
  C  C612  1  0.941870  0.065900  0.373210  1.0  -0.1494
  C  C613  1  0.937390  0.025500  0.336690  1.0  -0.0886
  C  C614  1  0.979200  0.003800  0.314670  1.0  -0.1146
  C  C615  1  0.897320  0.090900  0.397780  1.0  0.6844
  C  C616  1  0.024700  0.567200  0.240000  1.0  0.0124
  C  C617  1  0.056200  0.620600  0.249900  1.0  0.248
  C  C618  1  0.101600  0.627100  0.229100  1.0  -0.1554
  C  C619  1  0.115880  0.579300  0.198800  1.0  -0.1302
  C  C620  1  0.085000  0.524700  0.187900  1.0  -0.0695
  C  C621  1  0.039500  0.519400  0.209000  1.0  -0.102
  C  C622  1  0.165640  0.586900  0.178570  1.0  0.7017
  C  C623  1  0.473000  0.751700  0.244300  1.0  -0.0237
  C  C624  1  0.442200  0.806700  0.254400  1.0  0.2894
  C  C625  1  0.393400  0.804800  0.243400  1.0  -0.1232
  C  C626  1  0.372100  0.746900  0.224490  1.0  -0.1251
  C  C627  1  0.403030  0.691800  0.214700  1.0  -0.045
  C  C628  1  0.453000  0.694800  0.224230  1.0  -0.1399
  C  C629  1  0.318200  0.744500  0.215030  1.0  0.717
  C  C630  1  0.312700  0.446800  0.106270  1.0  0.1699
  C  C631  1  0.315100  0.489000  0.033700  1.0  -0.1392
  C  C632  1  0.381900  0.410400  0.061400  1.0  -0.1424
  N  N633  1  0.165020  0.947800  0.068430  1.0  -0.0782
  N  N634  1  0.334980  0.552200  0.568430  1.0  -0.0778
  N  N635  1  0.834980  0.947800  0.431570  1.0  -0.0782
  N  N636  1  0.665020  0.552200  0.931570  1.0  -0.0788
  N  N637  1  0.834980  0.052200  0.931570  1.0  -0.0784
  N  N638  1  0.665020  0.447800  0.431570  1.0  -0.0785
  N  N639  1  0.165020  0.052200  0.568430  1.0  -0.0784
  N  N640  1  0.334980  0.447800  0.068430  1.0  -0.0776
  O  O641  1  0.411260  0.255700  0.445870  1.0  -0.4857
  O  O642  1  0.397000  0.267580  0.287390  1.0  -0.5703
  O  O643  1  0.318340  0.251700  0.273500  1.0  -0.7211
  O  O644  1  0.362010  0.330100  0.501470  1.0  -0.5095
  O  O645  1  0.258830  0.277640  0.631490  1.0  -0.7646
  O  O646  1  0.244990  0.166790  0.627140  1.0  -0.7914
  O  O647  1  0.448620  0.385700  0.303450  1.0  -0.5247
  O  O648  1  0.295040  0.395420  0.213090  1.0  -0.7755
  O  O649  1  0.279610  0.507010  0.206330  1.0  -0.7624
  O  O650  1  0.423900  0.583600  0.378450  1.0  -0.5297
  O  O651  1  0.643230  0.593640  0.378680  1.0  -0.6534
  O  O652  1  0.595150  0.608800  0.435980  1.0  -0.6057
  O  O653  1  0.458150  0.164600  0.281500  1.0  -0.5095
  O  O654  1  0.310380  0.141670  0.185980  1.0  -0.7064
  O  O655  1  0.317080  0.038660  0.156830  1.0  -0.7585
  O  O656  1  0.040000  0.363800  0.275600  1.0  -0.5454
  O  O657  1  0.202820  0.302670  0.212040  1.0  -0.7542
  O  O658  1  0.202870  0.188690  0.211610  1.0  -0.6705
  O  O659  1  0.225210  0.978090  0.114960  1.0  -0.6829
  O  O660  1  0.088740  0.244300  0.945870  1.0  -0.489
  O  O661  1  0.103000  0.232420  0.787390  1.0  -0.5676
  O  O662  1  0.181660  0.248300  0.773500  1.0  -0.7211
  O  O663  1  0.137990  0.169900  0.001470  1.0  -0.5092
  O  O664  1  0.241170  0.222360  0.131490  1.0  -0.766
  O  O665  1  0.255010  0.333210  0.127140  1.0  -0.7928
  O  O666  1  0.051380  0.114300  0.803450  1.0  -0.5264
  O  O667  1  0.204960  0.104580  0.713090  1.0  -0.7754
  O  O668  1  0.220390  0.992990  0.706330  1.0  -0.7616
  O  O669  1  0.076100  0.916400  0.878450  1.0  -0.5318
  O  O670  1  0.856770  0.906360  0.878680  1.0  -0.6544
  O  O671  1  0.904850  0.891200  0.935980  1.0  -0.6071
  O  O672  1  0.041850  0.335400  0.781500  1.0  -0.5097
  O  O673  1  0.189620  0.358330  0.685980  1.0  -0.7042
  O  O674  1  0.182920  0.461340  0.656830  1.0  -0.7594
  O  O675  1  0.460000  0.136200  0.775600  1.0  -0.544
  O  O676  1  0.297180  0.197330  0.712040  1.0  -0.7536
  O  O677  1  0.297130  0.311310  0.711610  1.0  -0.6704
  O  O678  1  0.274790  0.521910  0.614960  1.0  -0.683
  O  O679  1  0.588740  0.255700  0.054130  1.0  -0.4906
  O  O680  1  0.603000  0.267580  0.212610  1.0  -0.5665
  O  O681  1  0.681660  0.251700  0.226500  1.0  -0.7209
  O  O682  1  0.637990  0.330100  0.998530  1.0  -0.5113
  O  O683  1  0.741170  0.277640  0.868510  1.0  -0.7636
  O  O684  1  0.755010  0.166790  0.872860  1.0  -0.7915
  O  O685  1  0.551380  0.385700  0.196550  1.0  -0.5242
  O  O686  1  0.704960  0.395420  0.286910  1.0  -0.775
  O  O687  1  0.720390  0.507010  0.293670  1.0  -0.7612
  O  O688  1  0.576100  0.583600  0.121550  1.0  -0.5287
  O  O689  1  0.356770  0.593640  0.121320  1.0  -0.6522
  O  O690  1  0.404850  0.608800  0.064020  1.0  -0.6054
  O  O691  1  0.541850  0.164600  0.218500  1.0  -0.5098
  O  O692  1  0.689620  0.141670  0.314020  1.0  -0.7046
  O  O693  1  0.682920  0.038660  0.343170  1.0  -0.7559
  O  O694  1  0.960000  0.363800  0.224400  1.0  -0.5477
  O  O695  1  0.797180  0.302670  0.287960  1.0  -0.7566
  O  O696  1  0.797130  0.188690  0.288390  1.0  -0.6698
  O  O697  1  0.774790  0.978090  0.385040  1.0  -0.6834
  O  O698  1  0.911260  0.244300  0.554130  1.0  -0.4887
  O  O699  1  0.897000  0.232420  0.712610  1.0  -0.5693
  O  O700  1  0.818340  0.248300  0.726500  1.0  -0.7201
  O  O701  1  0.862010  0.169900  0.498530  1.0  -0.5116
  O  O702  1  0.758830  0.222360  0.368510  1.0  -0.7658
  O  O703  1  0.744990  0.333210  0.372860  1.0  -0.7909
  O  O704  1  0.948620  0.114300  0.696550  1.0  -0.527
  O  O705  1  0.795040  0.104580  0.786910  1.0  -0.7762
  O  O706  1  0.779610  0.992990  0.793670  1.0  -0.7614
  O  O707  1  0.923900  0.916400  0.621550  1.0  -0.5307
  O  O708  1  0.143230  0.906360  0.621320  1.0  -0.6544
  O  O709  1  0.095150  0.891200  0.564020  1.0  -0.6054
  O  O710  1  0.958150  0.335400  0.718500  1.0  -0.5119
  O  O711  1  0.810380  0.358330  0.814020  1.0  -0.7039
  O  O712  1  0.817080  0.461340  0.843170  1.0  -0.7551
  O  O713  1  0.540000  0.136200  0.724400  1.0  -0.5476
  O  O714  1  0.702820  0.197330  0.787960  1.0  -0.7538
  O  O715  1  0.702870  0.311310  0.788390  1.0  -0.6721
  O  O716  1  0.725210  0.521910  0.885040  1.0  -0.6831
  O  O717  1  0.588740  0.744300  0.554130  1.0  -0.49
  O  O718  1  0.603000  0.732420  0.712610  1.0  -0.5666
  O  O719  1  0.681660  0.748300  0.726500  1.0  -0.7211
  O  O720  1  0.637990  0.669900  0.498530  1.0  -0.511
  O  O721  1  0.741170  0.722360  0.368510  1.0  -0.7633
  O  O722  1  0.755010  0.833210  0.372860  1.0  -0.7915
  O  O723  1  0.551380  0.614300  0.696550  1.0  -0.5258
  O  O724  1  0.704960  0.604580  0.786910  1.0  -0.7756
  O  O725  1  0.720390  0.492990  0.793670  1.0  -0.7613
  O  O726  1  0.576100  0.416400  0.621550  1.0  -0.53
  O  O727  1  0.356770  0.406360  0.621320  1.0  -0.6536
  O  O728  1  0.404850  0.391200  0.564020  1.0  -0.606
  O  O729  1  0.541850  0.835400  0.718500  1.0  -0.5108
  O  O730  1  0.689620  0.858330  0.814020  1.0  -0.7034
  O  O731  1  0.682920  0.961340  0.843170  1.0  -0.7562
  O  O732  1  0.960000  0.636200  0.724400  1.0  -0.5469
  O  O733  1  0.797180  0.697330  0.787960  1.0  -0.7549
  O  O734  1  0.797130  0.811310  0.788390  1.0  -0.6706
  O  O735  1  0.774790  0.021910  0.885040  1.0  -0.6836
  O  O736  1  0.911260  0.755700  0.054130  1.0  -0.4855
  O  O737  1  0.897000  0.767580  0.212610  1.0  -0.5694
  O  O738  1  0.818340  0.751700  0.226500  1.0  -0.7198
  O  O739  1  0.862010  0.830100  0.998530  1.0  -0.5119
  O  O740  1  0.758830  0.777640  0.868510  1.0  -0.7661
  O  O741  1  0.744990  0.666790  0.872860  1.0  -0.7907
  O  O742  1  0.948620  0.885700  0.196550  1.0  -0.5251
  O  O743  1  0.795040  0.895420  0.286910  1.0  -0.7756
  O  O744  1  0.779610  0.007010  0.293670  1.0  -0.7615
  O  O745  1  0.923900  0.083600  0.121550  1.0  -0.5304
  O  O746  1  0.143230  0.093640  0.121320  1.0  -0.6541
  O  O747  1  0.095150  0.108800  0.064020  1.0  -0.6051
  O  O748  1  0.958150  0.664600  0.218500  1.0  -0.5115
  O  O749  1  0.810380  0.641670  0.314020  1.0  -0.7057
  O  O750  1  0.817080  0.538660  0.343170  1.0  -0.7549
  O  O751  1  0.540000  0.863800  0.224400  1.0  -0.5473
  O  O752  1  0.702820  0.802670  0.287960  1.0  -0.7556
  O  O753  1  0.702870  0.688690  0.288390  1.0  -0.6708
  O  O754  1  0.725210  0.478090  0.385040  1.0  -0.6828
  O  O755  1  0.411260  0.744300  0.945870  1.0  -0.4884
  O  O756  1  0.397000  0.732420  0.787390  1.0  -0.5702
  O  O757  1  0.318340  0.748300  0.773500  1.0  -0.7205
  O  O758  1  0.362010  0.669900  0.001470  1.0  -0.5094
  O  O759  1  0.258830  0.722360  0.131490  1.0  -0.7635
  O  O760  1  0.244990  0.833210  0.127140  1.0  -0.7919
  O  O761  1  0.448620  0.614300  0.803450  1.0  -0.5267
  O  O762  1  0.295040  0.604580  0.713090  1.0  -0.7771
  O  O763  1  0.279610  0.492990  0.706330  1.0  -0.7621
  O  O764  1  0.423900  0.416400  0.878450  1.0  -0.5299
  O  O765  1  0.643230  0.406360  0.878680  1.0  -0.6554
  O  O766  1  0.595150  0.391200  0.935980  1.0  -0.6059
  O  O767  1  0.458150  0.835400  0.781500  1.0  -0.5099
  O  O768  1  0.310380  0.858330  0.685980  1.0  -0.7047
  O  O769  1  0.317080  0.961340  0.656830  1.0  -0.7586
  O  O770  1  0.040000  0.636200  0.775600  1.0  -0.5467
  O  O771  1  0.202820  0.697330  0.712040  1.0  -0.7529
  O  O772  1  0.202870  0.811310  0.711610  1.0  -0.6717
  O  O773  1  0.225210  0.021910  0.614960  1.0  -0.6829
  O  O774  1  0.088740  0.755700  0.445870  1.0  -0.4896
  O  O775  1  0.103000  0.767580  0.287390  1.0  -0.5673
  O  O776  1  0.181660  0.751700  0.273500  1.0  -0.7214
  O  O777  1  0.137990  0.830100  0.501470  1.0  -0.5089
  O  O778  1  0.241170  0.777640  0.631490  1.0  -0.767
  O  O779  1  0.255010  0.666790  0.627140  1.0  -0.7924
  O  O780  1  0.051380  0.885700  0.303450  1.0  -0.5248
  O  O781  1  0.204960  0.895420  0.213090  1.0  -0.7758
  O  O782  1  0.220390  0.007010  0.206330  1.0  -0.7618
  O  O783  1  0.076100  0.083600  0.378450  1.0  -0.5297
  O  O784  1  0.856770  0.093640  0.378680  1.0  -0.6533
  O  O785  1  0.904850  0.108800  0.435980  1.0  -0.6066
  O  O786  1  0.041850  0.664600  0.281500  1.0  -0.509
  O  O787  1  0.189620  0.641670  0.185980  1.0  -0.7053
  O  O788  1  0.182920  0.538660  0.156830  1.0  -0.759
  O  O789  1  0.460000  0.863800  0.275600  1.0  -0.546
  O  O790  1  0.297180  0.802670  0.212040  1.0  -0.755
  O  O791  1  0.297130  0.688690  0.211610  1.0  -0.6697
  O  O792  1  0.274790  0.478090  0.114960  1.0  -0.6829
