# generated using pymatgen
data_Na4Sm2Zn2H48C97(N3O7)3
_symmetry_space_group_name_H-M   'P 1'
_cell_length_a   32.80290000
_cell_length_b   35.01280000
_cell_length_c   11.47910000
_cell_angle_alpha   90.00000000
_cell_angle_beta   110.19800000
_cell_angle_gamma   90.00000000
_symmetry_Int_Tables_number   1
_chemical_formula_structural   Na4Sm2Zn2H48C97(N3O7)3
_chemical_formula_sum   'Na16 Sm8 Zn8 H192 C388 N36 O84'
_cell_volume   12373.24316170
_cell_formula_units_Z   4
loop_
 _symmetry_equiv_pos_site_id
 _symmetry_equiv_pos_as_xyz
  1  'x, y, z'
loop_
 _atom_site_type_symbol
 _atom_site_label
 _atom_site_symmetry_multiplicity
 _atom_site_fract_x
 _atom_site_fract_y
 _atom_site_fract_z
 _atom_site_occupancy
 _atom_site_charge
  Na  Na1  1  0.749230  0.922660  0.989460  1.0  0.9355
  Na  Na2  1  0.249230  0.422660  0.989460  1.0  0.9354
  Na  Na3  1  0.250770  0.922660  0.010540  1.0  0.9359
  Na  Na4  1  0.750770  0.422660  0.010540  1.0  0.9359
  Na  Na5  1  0.250770  0.077340  0.010540  1.0  0.9383
  Na  Na6  1  0.750770  0.577340  0.010540  1.0  0.9383
  Na  Na7  1  0.749230  0.077340  0.989460  1.0  0.9378
  Na  Na8  1  0.249230  0.577340  0.989460  1.0  0.9378
  Na  Na9  1  0.768100  0.000000  0.494520  1.0  1.0491
  Na  Na10  1  0.268100  0.500000  0.494520  1.0  1.0491
  Na  Na11  1  0.231900  0.000000  0.505480  1.0  1.0497
  Na  Na12  1  0.731900  0.500000  0.505480  1.0  1.0497
  Na  Na13  1  0.824280  0.500000  0.003710  1.0  0.9674
  Na  Na14  1  0.324280  0.000000  0.003710  1.0  0.9674
  Na  Na15  1  0.175720  0.500000  0.996290  1.0  0.9838
  Na  Na16  1  0.675720  0.000000  0.996290  1.0  0.984
  Sm  Sm17  1  0.205380  0.000000  0.788870  1.0  2.2303
  Sm  Sm18  1  0.262710  0.000000  0.233850  1.0  2.2295
  Sm  Sm19  1  0.705380  0.500000  0.788870  1.0  2.2303
  Sm  Sm20  1  0.762710  0.500000  0.233850  1.0  2.2295
  Sm  Sm21  1  0.794620  0.000000  0.211130  1.0  2.2305
  Sm  Sm22  1  0.737290  0.000000  0.766150  1.0  2.2288
  Sm  Sm23  1  0.294620  0.500000  0.211130  1.0  2.2305
  Sm  Sm24  1  0.237290  0.500000  0.766150  1.0  2.2288
  Zn  Zn25  1  0.963310  0.737570  0.706670  1.0  0.8904
  Zn  Zn26  1  0.463310  0.237570  0.706670  1.0  0.8904
  Zn  Zn27  1  0.036690  0.737570  0.293330  1.0  0.8917
  Zn  Zn28  1  0.536690  0.237570  0.293330  1.0  0.8917
  Zn  Zn29  1  0.036690  0.262430  0.293330  1.0  0.8913
  Zn  Zn30  1  0.536690  0.762430  0.293330  1.0  0.8913
  Zn  Zn31  1  0.963310  0.262430  0.706670  1.0  0.8902
  Zn  Zn32  1  0.463310  0.762430  0.706670  1.0  0.8902
  H  H33  1  0.802600  0.868100  0.854400  1.0  0.1088
  H  H34  1  0.926500  0.595500  0.729000  1.0  0.1125
  H  H35  1  0.927400  0.879600  0.710700  1.0  0.1232
  H  H36  1  0.105800  0.700700  0.636400  1.0  0.1205
  H  H37  1  0.004400  0.878600  0.726000  1.0  0.1221
  H  H38  1  0.107100  0.770700  0.639600  1.0  0.1269
  H  H39  1  0.775200  0.583100  0.548500  1.0  0.1017
  H  H40  1  0.846800  0.818400  0.833800  1.0  0.1177
  H  H41  1  0.001100  0.594300  0.725700  1.0  0.1159
  H  H42  1  0.086200  0.912000  0.556000  1.0  0.1087
  H  H43  1  0.802400  0.773100  0.624600  1.0  0.1189
  H  H44  1  0.037500  0.862500  0.532200  1.0  0.0981
  H  H45  1  0.806700  0.916100  0.537000  1.0  0.1093
  H  H46  1  0.830700  0.595100  0.918600  1.0  0.1033
  H  H47  1  0.803300  0.702600  0.635800  1.0  0.1217
  H  H48  1  0.114100  0.817700  0.858200  1.0  0.1217
  H  H49  1  0.875800  0.641500  0.888900  1.0  0.0999
  H  H50  1  0.822500  0.628200  0.520700  1.0  0.0996
  H  H51  1  0.162400  0.867900  0.881300  1.0  0.1076
  H  H52  1  0.850400  0.865800  0.515600  1.0  0.1
  H  H53  1  0.118700  0.592100  0.541500  1.0  0.1095
  H  H54  1  0.065800  0.638200  0.521000  1.0  0.0892
  H  H55  1  0.078800  0.624300  0.879300  1.0  0.1038
  H  H56  1  0.132600  0.579000  0.900700  1.0  0.1045
  H  H57  1  0.302600  0.368100  0.854400  1.0  0.1088
  H  H58  1  0.426500  0.095500  0.729000  1.0  0.1125
  H  H59  1  0.427400  0.379600  0.710700  1.0  0.1232
  H  H60  1  0.605800  0.200700  0.636400  1.0  0.1205
  H  H61  1  0.504400  0.378600  0.726000  1.0  0.1221
  H  H62  1  0.607100  0.270700  0.639600  1.0  0.1269
  H  H63  1  0.275200  0.083100  0.548500  1.0  0.1017
  H  H64  1  0.346800  0.318400  0.833800  1.0  0.1177
  H  H65  1  0.501100  0.094300  0.725700  1.0  0.1159
  H  H66  1  0.586200  0.412000  0.556000  1.0  0.1087
  H  H67  1  0.302400  0.273100  0.624600  1.0  0.1189
  H  H68  1  0.537500  0.362500  0.532200  1.0  0.0981
  H  H69  1  0.306700  0.416100  0.537000  1.0  0.1093
  H  H70  1  0.330700  0.095100  0.918600  1.0  0.1033
  H  H71  1  0.303300  0.202600  0.635800  1.0  0.1217
  H  H72  1  0.614100  0.317700  0.858200  1.0  0.1217
  H  H73  1  0.375800  0.141500  0.888900  1.0  0.0999
  H  H74  1  0.322500  0.128200  0.520700  1.0  0.0996
  H  H75  1  0.662400  0.367900  0.881300  1.0  0.1076
  H  H76  1  0.350400  0.365800  0.515600  1.0  0.1
  H  H77  1  0.618700  0.092100  0.541500  1.0  0.1095
  H  H78  1  0.565800  0.138200  0.521000  1.0  0.0892
  H  H79  1  0.578800  0.124300  0.879300  1.0  0.1038
  H  H80  1  0.632600  0.079000  0.900700  1.0  0.1046
  H  H81  1  0.197400  0.868100  0.145600  1.0  0.1091
  H  H82  1  0.073500  0.595500  0.271000  1.0  0.1127
  H  H83  1  0.072600  0.879600  0.289300  1.0  0.1232
  H  H84  1  0.894200  0.700700  0.363600  1.0  0.1196
  H  H85  1  0.995600  0.878600  0.274000  1.0  0.1225
  H  H86  1  0.892900  0.770700  0.360400  1.0  0.1268
  H  H87  1  0.224800  0.583100  0.451500  1.0  0.1025
  H  H88  1  0.153200  0.818400  0.166200  1.0  0.1177
  H  H89  1  0.998900  0.594300  0.274300  1.0  0.1159
  H  H90  1  0.913800  0.912000  0.444000  1.0  0.108
  H  H91  1  0.197600  0.773100  0.375400  1.0  0.119
  H  H92  1  0.962500  0.862500  0.467800  1.0  0.0982
  H  H93  1  0.193300  0.916100  0.463000  1.0  0.1087
  H  H94  1  0.169300  0.595100  0.081400  1.0  0.1043
  H  H95  1  0.196700  0.702600  0.364200  1.0  0.1212
  H  H96  1  0.885900  0.817700  0.141800  1.0  0.1217
  H  H97  1  0.124200  0.641500  0.111100  1.0  0.0995
  H  H98  1  0.177500  0.628200  0.479300  1.0  0.0985
  H  H99  1  0.837600  0.867900  0.118700  1.0  0.107
  H  H100  1  0.149600  0.865800  0.484400  1.0  0.0995
  H  H101  1  0.881300  0.592100  0.458500  1.0  0.109
  H  H102  1  0.934200  0.638200  0.479000  1.0  0.0896
  H  H103  1  0.921200  0.624300  0.120700  1.0  0.1037
  H  H104  1  0.867400  0.579000  0.099300  1.0  0.1032
  H  H105  1  0.697400  0.368100  0.145600  1.0  0.1091
  H  H106  1  0.573500  0.095500  0.271000  1.0  0.1127
  H  H107  1  0.572600  0.379600  0.289300  1.0  0.1232
  H  H108  1  0.394200  0.200700  0.363600  1.0  0.1196
  H  H109  1  0.495600  0.378600  0.274000  1.0  0.1225
  H  H110  1  0.392900  0.270700  0.360400  1.0  0.1268
  H  H111  1  0.724800  0.083100  0.451500  1.0  0.1025
  H  H112  1  0.653200  0.318400  0.166200  1.0  0.1177
  H  H113  1  0.498900  0.094300  0.274300  1.0  0.1159
  H  H114  1  0.413800  0.412000  0.444000  1.0  0.108
  H  H115  1  0.697600  0.273100  0.375400  1.0  0.119
  H  H116  1  0.462500  0.362500  0.467800  1.0  0.0982
  H  H117  1  0.693300  0.416100  0.463000  1.0  0.1087
  H  H118  1  0.669300  0.095100  0.081400  1.0  0.1043
  H  H119  1  0.696700  0.202600  0.364200  1.0  0.1212
  H  H120  1  0.385900  0.317700  0.141800  1.0  0.1217
  H  H121  1  0.624200  0.141500  0.111100  1.0  0.0995
  H  H122  1  0.677500  0.128200  0.479300  1.0  0.0985
  H  H123  1  0.337600  0.367900  0.118700  1.0  0.107
  H  H124  1  0.649600  0.365800  0.484400  1.0  0.0995
  H  H125  1  0.381300  0.092100  0.458500  1.0  0.109
  H  H126  1  0.434200  0.138200  0.479000  1.0  0.0896
  H  H127  1  0.421200  0.124300  0.120700  1.0  0.1037
  H  H128  1  0.367400  0.079000  0.099300  1.0  0.1032
  H  H129  1  0.197400  0.131900  0.145600  1.0  0.109
  H  H130  1  0.073500  0.404500  0.271000  1.0  0.114
  H  H131  1  0.072600  0.120400  0.289300  1.0  0.1238
  H  H132  1  0.894200  0.299300  0.363600  1.0  0.1195
  H  H133  1  0.995600  0.121400  0.274000  1.0  0.1208
  H  H134  1  0.892900  0.229300  0.360400  1.0  0.1272
  H  H135  1  0.224800  0.416900  0.451500  1.0  0.1018
  H  H136  1  0.153200  0.181600  0.166200  1.0  0.1179
  H  H137  1  0.998900  0.405700  0.274300  1.0  0.1168
  H  H138  1  0.913800  0.088000  0.444000  1.0  0.1091
  H  H139  1  0.197600  0.226900  0.375400  1.0  0.119
  H  H140  1  0.962500  0.137500  0.467800  1.0  0.0976
  H  H141  1  0.193300  0.083900  0.463000  1.0  0.1093
  H  H142  1  0.169300  0.404900  0.081400  1.0  0.1031
  H  H143  1  0.196700  0.297400  0.364200  1.0  0.1211
  H  H144  1  0.885900  0.182300  0.141800  1.0  0.1219
  H  H145  1  0.124200  0.358500  0.111100  1.0  0.0995
  H  H146  1  0.177500  0.371800  0.479300  1.0  0.0987
  H  H147  1  0.837600  0.132100  0.118700  1.0  0.107
  H  H148  1  0.149600  0.134200  0.484400  1.0  0.0995
  H  H149  1  0.881300  0.407900  0.458500  1.0  0.1094
  H  H150  1  0.934200  0.361800  0.479000  1.0  0.0894
  H  H151  1  0.921200  0.375700  0.120700  1.0  0.1037
  H  H152  1  0.867400  0.421000  0.099300  1.0  0.1032
  H  H153  1  0.697400  0.631900  0.145600  1.0  0.109
  H  H154  1  0.573500  0.904500  0.271000  1.0  0.114
  H  H155  1  0.572600  0.620400  0.289300  1.0  0.1238
  H  H156  1  0.394200  0.799300  0.363600  1.0  0.1195
  H  H157  1  0.495600  0.621400  0.274000  1.0  0.1208
  H  H158  1  0.392900  0.729300  0.360400  1.0  0.1272
  H  H159  1  0.724800  0.916900  0.451500  1.0  0.1018
  H  H160  1  0.653200  0.681600  0.166200  1.0  0.1179
  H  H161  1  0.498900  0.905700  0.274300  1.0  0.1168
  H  H162  1  0.413800  0.588000  0.444000  1.0  0.1091
  H  H163  1  0.697600  0.726900  0.375400  1.0  0.119
  H  H164  1  0.462500  0.637500  0.467800  1.0  0.0976
  H  H165  1  0.693300  0.583900  0.463000  1.0  0.1093
  H  H166  1  0.669300  0.904900  0.081400  1.0  0.1031
  H  H167  1  0.696700  0.797400  0.364200  1.0  0.1211
  H  H168  1  0.385900  0.682300  0.141800  1.0  0.1219
  H  H169  1  0.624200  0.858500  0.111100  1.0  0.0995
  H  H170  1  0.677500  0.871800  0.479300  1.0  0.0987
  H  H171  1  0.337600  0.632100  0.118700  1.0  0.107
  H  H172  1  0.649600  0.634200  0.484400  1.0  0.0995
  H  H173  1  0.381300  0.907900  0.458500  1.0  0.1094
  H  H174  1  0.434200  0.861800  0.479000  1.0  0.0894
  H  H175  1  0.421200  0.875700  0.120700  1.0  0.1037
  H  H176  1  0.367400  0.921000  0.099300  1.0  0.1032
  H  H177  1  0.802600  0.131900  0.854400  1.0  0.1086
  H  H178  1  0.926500  0.404500  0.729000  1.0  0.1135
  H  H179  1  0.927400  0.120400  0.710700  1.0  0.1233
  H  H180  1  0.105800  0.299300  0.636400  1.0  0.1203
  H  H181  1  0.004400  0.121400  0.726000  1.0  0.1215
  H  H182  1  0.107100  0.229300  0.639600  1.0  0.1273
  H  H183  1  0.775200  0.416900  0.548500  1.0  0.1018
  H  H184  1  0.846800  0.181600  0.833800  1.0  0.1174
  H  H185  1  0.001100  0.405700  0.725700  1.0  0.1159
  H  H186  1  0.086200  0.088000  0.556000  1.0  0.1082
  H  H187  1  0.802400  0.226900  0.624600  1.0  0.1189
  H  H188  1  0.037500  0.137500  0.532200  1.0  0.0974
  H  H189  1  0.806700  0.083900  0.537000  1.0  0.1095
  H  H190  1  0.830700  0.404900  0.918600  1.0  0.1042
  H  H191  1  0.803300  0.297400  0.635800  1.0  0.1212
  H  H192  1  0.114100  0.182300  0.858200  1.0  0.1216
  H  H193  1  0.875800  0.358500  0.888900  1.0  0.1001
  H  H194  1  0.822500  0.371800  0.520700  1.0  0.0999
  H  H195  1  0.162400  0.132100  0.881300  1.0  0.1075
  H  H196  1  0.850400  0.134200  0.515600  1.0  0.0998
  H  H197  1  0.118700  0.407900  0.541500  1.0  0.1099
  H  H198  1  0.065800  0.361800  0.521000  1.0  0.0893
  H  H199  1  0.078800  0.375700  0.879300  1.0  0.1039
  H  H200  1  0.132600  0.421000  0.900700  1.0  0.1038
  H  H201  1  0.302600  0.631900  0.854400  1.0  0.1086
  H  H202  1  0.426500  0.904500  0.729000  1.0  0.1135
  H  H203  1  0.427400  0.620400  0.710700  1.0  0.1233
  H  H204  1  0.605800  0.799300  0.636400  1.0  0.1203
  H  H205  1  0.504400  0.621400  0.726000  1.0  0.1215
  H  H206  1  0.607100  0.729300  0.639600  1.0  0.1273
  H  H207  1  0.275200  0.916900  0.548500  1.0  0.1018
  H  H208  1  0.346800  0.681600  0.833800  1.0  0.1174
  H  H209  1  0.501100  0.905700  0.725700  1.0  0.1159
  H  H210  1  0.586200  0.588000  0.556000  1.0  0.1082
  H  H211  1  0.302400  0.726900  0.624600  1.0  0.1189
  H  H212  1  0.537500  0.637500  0.532200  1.0  0.0974
  H  H213  1  0.306700  0.583900  0.537000  1.0  0.1095
  H  H214  1  0.330700  0.904900  0.918600  1.0  0.1042
  H  H215  1  0.303300  0.797400  0.635800  1.0  0.1212
  H  H216  1  0.614100  0.682300  0.858200  1.0  0.1216
  H  H217  1  0.375800  0.858500  0.888900  1.0  0.1001
  H  H218  1  0.322500  0.871800  0.520700  1.0  0.0999
  H  H219  1  0.662400  0.632100  0.881300  1.0  0.1075
  H  H220  1  0.350400  0.634200  0.515600  1.0  0.0998
  H  H221  1  0.618700  0.907900  0.541500  1.0  0.1099
  H  H222  1  0.565800  0.861800  0.521000  1.0  0.0893
  H  H223  1  0.578800  0.875700  0.879300  1.0  0.1039
  H  H224  1  0.632600  0.921000  0.900700  1.0  0.1039
  C  C225  1  0.768820  0.554070  0.756300  1.0  0.6901
  C  C226  1  0.776260  0.930640  0.718100  1.0  0.6726
  C  C227  1  0.798360  0.583740  0.735800  1.0  -0.1342
  C  C228  1  0.801250  0.897500  0.699500  1.0  -0.1468
  C  C229  1  0.871470  0.706540  0.667400  1.0  0.2017
  C  C230  1  0.166620  0.553400  0.739100  1.0  0.6779
  C  C231  1  0.127850  0.896200  0.724000  1.0  -0.1497
  C  C232  1  0.995140  0.655310  0.700200  1.0  0.185
  C  C233  1  0.157090  0.930180  0.743900  1.0  0.6851
  C  C234  1  0.131740  0.581930  0.723000  1.0  -0.1203
  C  C235  1  0.927670  0.656070  0.701500  1.0  0.1544
  C  C236  1  0.854930  0.639290  0.702500  1.0  0.0782
  C  C237  1  0.046020  0.767600  0.669900  1.0  0.2222
  C  C238  1  0.995700  0.818540  0.688400  1.0  0.219
  C  C239  1  0.067480  0.637090  0.697900  1.0  0.0477
  C  C240  1  0.812780  0.867940  0.786400  1.0  -0.0603
  C  C241  1  0.927720  0.819150  0.679400  1.0  0.2159
  C  C242  1  0.069370  0.835650  0.695600  1.0  0.0883
  C  C243  1  0.854400  0.837550  0.674100  1.0  0.0743
  C  C244  1  0.886110  0.668530  0.688300  1.0  -0.0706
  C  C245  1  0.942660  0.616920  0.718600  1.0  -0.1778
  C  C246  1  0.045300  0.704850  0.668600  1.0  0.1924
  C  C247  1  0.034180  0.667180  0.687200  1.0  -0.0428
  C  C248  1  0.943520  0.857840  0.702400  1.0  -0.1594
  C  C249  1  0.871050  0.769200  0.658600  1.0  0.1903
  C  C250  1  0.084410  0.716950  0.648400  1.0  -0.1596
  C  C251  1  0.985300  0.857350  0.709800  1.0  -0.1817
  C  C252  1  0.885470  0.807520  0.668600  1.0  -0.0452
  C  C253  1  0.085070  0.754850  0.649800  1.0  -0.155
  C  C254  1  0.796240  0.594460  0.618900  1.0  -0.074
  C  C255  1  0.839060  0.838330  0.774000  1.0  -0.0957
  C  C256  1  0.983330  0.616260  0.717200  1.0  -0.1802
  C  C257  1  0.091470  0.893260  0.619500  1.0  -0.0565
  C  C258  1  0.035710  0.805790  0.684000  1.0  -0.0469
  C  C259  1  0.827000  0.757040  0.638900  1.0  -0.1732
  C  C260  1  0.062520  0.863730  0.605100  1.0  -0.1341
  C  C261  1  0.815060  0.896480  0.597800  1.0  -0.0582
  C  C262  1  0.828750  0.601810  0.836600  1.0  -0.1031
  C  C263  1  0.827530  0.718740  0.644800  1.0  -0.1646
  C  C264  1  0.107660  0.837320  0.797400  1.0  -0.1138
  C  C265  1  0.855790  0.629130  0.818600  1.0  -0.1269
  C  C266  1  0.824250  0.621530  0.602500  1.0  -0.1394
  C  C267  1  0.136410  0.867240  0.811100  1.0  -0.0426
  C  C268  1  0.841260  0.866520  0.585700  1.0  -0.0746
  C  C269  1  0.111240  0.599030  0.611600  1.0  -0.0695
  C  C270  1  0.079530  0.626500  0.599400  1.0  -0.0994
  C  C271  1  0.087300  0.618350  0.810300  1.0  -0.0899
  C  C272  1  0.119230  0.591250  0.823000  1.0  -0.116
  C  C273  1  0.268820  0.054070  0.756300  1.0  0.6901
  C  C274  1  0.276260  0.430640  0.718100  1.0  0.6726
  C  C275  1  0.298360  0.083740  0.735800  1.0  -0.1342
  C  C276  1  0.301250  0.397500  0.699500  1.0  -0.1468
  C  C277  1  0.371470  0.206540  0.667400  1.0  0.2017
  C  C278  1  0.666667  0.053400  0.739100  1.0  0.6776
  C  C279  1  0.627850  0.396200  0.724000  1.0  -0.1497
  C  C280  1  0.495140  0.155310  0.700200  1.0  0.185
  C  C281  1  0.657090  0.430180  0.743900  1.0  0.6851
  C  C282  1  0.631740  0.081930  0.723000  1.0  -0.1194
  C  C283  1  0.427670  0.156070  0.701500  1.0  0.1544
  C  C284  1  0.354930  0.139290  0.702500  1.0  0.0782
  C  C285  1  0.546020  0.267600  0.669900  1.0  0.2222
  C  C286  1  0.495700  0.318540  0.688400  1.0  0.219
  C  C287  1  0.567480  0.137090  0.697900  1.0  0.0477
  C  C288  1  0.312780  0.367940  0.786400  1.0  -0.0603
  C  C289  1  0.427720  0.319150  0.679400  1.0  0.2159
  C  C290  1  0.569370  0.335650  0.695600  1.0  0.0883
  C  C291  1  0.354400  0.337550  0.674100  1.0  0.0743
  C  C292  1  0.386110  0.168530  0.688300  1.0  -0.0706
  C  C293  1  0.442660  0.116920  0.718600  1.0  -0.1778
  C  C294  1  0.545300  0.204850  0.668600  1.0  0.1924
  C  C295  1  0.534180  0.167180  0.687200  1.0  -0.0428
  C  C296  1  0.443520  0.357840  0.702400  1.0  -0.1594
  C  C297  1  0.371050  0.269200  0.658600  1.0  0.1903
  C  C298  1  0.584410  0.216950  0.648400  1.0  -0.1596
  C  C299  1  0.485300  0.357350  0.709800  1.0  -0.1817
  C  C300  1  0.385470  0.307520  0.668600  1.0  -0.0452
  C  C301  1  0.585070  0.254850  0.649800  1.0  -0.155
  C  C302  1  0.296240  0.094460  0.618900  1.0  -0.074
  C  C303  1  0.339060  0.338330  0.774000  1.0  -0.0957
  C  C304  1  0.483330  0.116260  0.717200  1.0  -0.1802
  C  C305  1  0.591470  0.393260  0.619500  1.0  -0.0565
  C  C306  1  0.535710  0.305790  0.684000  1.0  -0.0469
  C  C307  1  0.327000  0.257040  0.638900  1.0  -0.1732
  C  C308  1  0.562520  0.363730  0.605100  1.0  -0.1341
  C  C309  1  0.315060  0.396480  0.597800  1.0  -0.0582
  C  C310  1  0.328750  0.101810  0.836600  1.0  -0.1031
  C  C311  1  0.327530  0.218740  0.644800  1.0  -0.1646
  C  C312  1  0.607660  0.337320  0.797400  1.0  -0.1138
  C  C313  1  0.355790  0.129130  0.818600  1.0  -0.1269
  C  C314  1  0.324250  0.121530  0.602500  1.0  -0.1394
  C  C315  1  0.636410  0.367240  0.811100  1.0  -0.0426
  C  C316  1  0.341260  0.366520  0.585700  1.0  -0.0746
  C  C317  1  0.611240  0.099030  0.611600  1.0  -0.0694
  C  C318  1  0.579530  0.126500  0.599400  1.0  -0.0994
  C  C319  1  0.587300  0.118350  0.810300  1.0  -0.0899
  C  C320  1  0.619230  0.091250  0.823000  1.0  -0.1153
  C  C321  1  0.231180  0.554070  0.243700  1.0  0.69
  C  C322  1  0.223740  0.930640  0.281900  1.0  0.6733
  C  C323  1  0.201640  0.583740  0.264200  1.0  -0.133
  C  C324  1  0.198750  0.897500  0.300500  1.0  -0.1458
  C  C325  1  0.128530  0.706540  0.332600  1.0  0.2027
  C  C326  1  0.833380  0.553400  0.260900  1.0  0.6792
  C  C327  1  0.872150  0.896200  0.276000  1.0  -0.1494
  C  C328  1  0.004860  0.655310  0.299800  1.0  0.184
  C  C329  1  0.842910  0.930180  0.256100  1.0  0.6869
  C  C330  1  0.868260  0.581930  0.277000  1.0  -0.1207
  C  C331  1  0.072330  0.656070  0.298500  1.0  0.1542
  C  C332  1  0.145070  0.639290  0.297500  1.0  0.0796
  C  C333  1  0.953980  0.767600  0.330100  1.0  0.2212
  C  C334  1  0.004300  0.818540  0.311600  1.0  0.2179
  C  C335  1  0.932520  0.637090  0.302100  1.0  0.0477
  C  C336  1  0.187220  0.867940  0.213600  1.0  -0.0585
  C  C337  1  0.072280  0.819150  0.320600  1.0  0.2146
  C  C338  1  0.930630  0.835650  0.304400  1.0  0.0868
  C  C339  1  0.145600  0.837550  0.325900  1.0  0.0756
  C  C340  1  0.113890  0.668530  0.311700  1.0  -0.0704
  C  C341  1  0.057340  0.616920  0.281400  1.0  -0.1776
  C  C342  1  0.954700  0.704850  0.331400  1.0  0.1928
  C  C343  1  0.965820  0.667180  0.312800  1.0  -0.0408
  C  C344  1  0.056480  0.857840  0.297600  1.0  -0.1577
  C  C345  1  0.128950  0.769200  0.341400  1.0  0.1907
  C  C346  1  0.915590  0.716950  0.351600  1.0  -0.159
  C  C347  1  0.014700  0.857350  0.290200  1.0  -0.185
  C  C348  1  0.114530  0.807520  0.331400  1.0  -0.0455
  C  C349  1  0.914930  0.754850  0.350200  1.0  -0.1552
  C  C350  1  0.203760  0.594460  0.381100  1.0  -0.0742
  C  C351  1  0.160940  0.838330  0.226000  1.0  -0.0972
  C  C352  1  0.016670  0.616260  0.282800  1.0  -0.1804
  C  C353  1  0.908530  0.893260  0.380500  1.0  -0.0558
  C  C354  1  0.964290  0.805790  0.316000  1.0  -0.0444
  C  C355  1  0.173000  0.757040  0.361100  1.0  -0.1726
  C  C356  1  0.937480  0.863730  0.394900  1.0  -0.1367
  C  C357  1  0.184940  0.896480  0.402200  1.0  -0.058
  C  C358  1  0.171250  0.601810  0.163400  1.0  -0.1026
  C  C359  1  0.172470  0.718740  0.355200  1.0  -0.1645
  C  C360  1  0.892340  0.837320  0.202600  1.0  -0.1144
  C  C361  1  0.144210  0.629130  0.181400  1.0  -0.1268
  C  C362  1  0.175750  0.621530  0.397500  1.0  -0.1385
  C  C363  1  0.863590  0.867240  0.188900  1.0  -0.0425
  C  C364  1  0.158740  0.866520  0.414300  1.0  -0.0745
  C  C365  1  0.888760  0.599030  0.388400  1.0  -0.0707
  C  C366  1  0.920470  0.626500  0.400600  1.0  -0.0987
  C  C367  1  0.912700  0.618350  0.189700  1.0  -0.0897
  C  C368  1  0.880770  0.591250  0.177000  1.0  -0.1173
  C  C369  1  0.731180  0.054070  0.243700  1.0  0.69
  C  C370  1  0.723740  0.430640  0.281900  1.0  0.6733
  C  C371  1  0.701640  0.083740  0.264200  1.0  -0.133
  C  C372  1  0.698750  0.397500  0.300500  1.0  -0.1458
  C  C373  1  0.628530  0.206540  0.332600  1.0  0.2027
  C  C374  1  0.333380  0.053400  0.260900  1.0  0.6792
  C  C375  1  0.372150  0.396200  0.276000  1.0  -0.1494
  C  C376  1  0.504860  0.155310  0.299800  1.0  0.184
  C  C377  1  0.342910  0.430180  0.256100  1.0  0.6869
  C  C378  1  0.368260  0.081930  0.277000  1.0  -0.1207
  C  C379  1  0.572330  0.156070  0.298500  1.0  0.1542
  C  C380  1  0.645070  0.139290  0.297500  1.0  0.0796
  C  C381  1  0.453980  0.267600  0.330100  1.0  0.2212
  C  C382  1  0.504300  0.318540  0.311600  1.0  0.2179
  C  C383  1  0.432520  0.137090  0.302100  1.0  0.0477
  C  C384  1  0.687220  0.367940  0.213600  1.0  -0.0585
  C  C385  1  0.572280  0.319150  0.320600  1.0  0.2146
  C  C386  1  0.430630  0.335650  0.304400  1.0  0.0868
  C  C387  1  0.645600  0.337550  0.325900  1.0  0.0756
  C  C388  1  0.613890  0.168530  0.311700  1.0  -0.0704
  C  C389  1  0.557340  0.116920  0.281400  1.0  -0.1776
  C  C390  1  0.454700  0.204850  0.331400  1.0  0.1928
  C  C391  1  0.465820  0.167180  0.312800  1.0  -0.0408
  C  C392  1  0.556480  0.357840  0.297600  1.0  -0.1577
  C  C393  1  0.628950  0.269200  0.341400  1.0  0.1907
  C  C394  1  0.415590  0.216950  0.351600  1.0  -0.159
  C  C395  1  0.514700  0.357350  0.290200  1.0  -0.185
  C  C396  1  0.614530  0.307520  0.331400  1.0  -0.0455
  C  C397  1  0.414930  0.254850  0.350200  1.0  -0.1552
  C  C398  1  0.703760  0.094460  0.381100  1.0  -0.0742
  C  C399  1  0.660940  0.338330  0.226000  1.0  -0.0972
  C  C400  1  0.516670  0.116260  0.282800  1.0  -0.1804
  C  C401  1  0.408530  0.393260  0.380500  1.0  -0.0558
  C  C402  1  0.464290  0.305790  0.316000  1.0  -0.0444
  C  C403  1  0.673000  0.257040  0.361100  1.0  -0.1726
  C  C404  1  0.437480  0.363730  0.394900  1.0  -0.1367
  C  C405  1  0.684940  0.396480  0.402200  1.0  -0.058
  C  C406  1  0.671250  0.101810  0.163400  1.0  -0.1026
  C  C407  1  0.672470  0.218740  0.355200  1.0  -0.1645
  C  C408  1  0.392340  0.337320  0.202600  1.0  -0.1144
  C  C409  1  0.644210  0.129130  0.181400  1.0  -0.1268
  C  C410  1  0.675750  0.121530  0.397500  1.0  -0.1385
  C  C411  1  0.363590  0.367240  0.188900  1.0  -0.0425
  C  C412  1  0.658740  0.366520  0.414300  1.0  -0.0745
  C  C413  1  0.388760  0.099030  0.388400  1.0  -0.0707
  C  C414  1  0.420470  0.126500  0.400600  1.0  -0.0987
  C  C415  1  0.412700  0.118350  0.189700  1.0  -0.0897
  C  C416  1  0.380770  0.091250  0.177000  1.0  -0.1173
  C  C417  1  0.231180  0.445930  0.243700  1.0  0.69
  C  C418  1  0.223740  0.069360  0.281900  1.0  0.6731
  C  C419  1  0.201640  0.416260  0.264200  1.0  -0.1328
  C  C420  1  0.198750  0.102500  0.300500  1.0  -0.1466
  C  C421  1  0.128530  0.293460  0.332600  1.0  0.2029
  C  C422  1  0.833380  0.446600  0.260900  1.0  0.6792
  C  C423  1  0.872150  0.103800  0.276000  1.0  -0.1501
  C  C424  1  0.004860  0.344690  0.299800  1.0  0.1834
  C  C425  1  0.842910  0.069820  0.256100  1.0  0.6879
  C  C426  1  0.868260  0.418070  0.277000  1.0  -0.1196
  C  C427  1  0.072330  0.343930  0.298500  1.0  0.1543
  C  C428  1  0.145070  0.360710  0.297500  1.0  0.0795
  C  C429  1  0.953980  0.232400  0.330100  1.0  0.2214
  C  C430  1  0.004300  0.181460  0.311600  1.0  0.2181
  C  C431  1  0.932520  0.362910  0.302100  1.0  0.0472
  C  C432  1  0.187220  0.132060  0.213600  1.0  -0.0589
  C  C433  1  0.072280  0.180850  0.320600  1.0  0.2144
  C  C434  1  0.930630  0.164350  0.304400  1.0  0.0873
  C  C435  1  0.145600  0.162450  0.325900  1.0  0.0756
  C  C436  1  0.113890  0.331470  0.311700  1.0  -0.0706
  C  C437  1  0.057340  0.383080  0.281400  1.0  -0.1773
  C  C438  1  0.954700  0.295150  0.331400  1.0  0.1931
  C  C439  1  0.965820  0.332820  0.312800  1.0  -0.0415
  C  C440  1  0.056480  0.142160  0.297600  1.0  -0.1585
  C  C441  1  0.128950  0.230800  0.341400  1.0  0.1904
  C  C442  1  0.915590  0.283050  0.351600  1.0  -0.1587
  C  C443  1  0.014700  0.142650  0.290200  1.0  -0.184
  C  C444  1  0.114530  0.192480  0.331400  1.0  -0.0451
  C  C445  1  0.914930  0.245150  0.350200  1.0  -0.1553
  C  C446  1  0.203760  0.405540  0.381100  1.0  -0.074
  C  C447  1  0.160940  0.161670  0.226000  1.0  -0.0974
  C  C448  1  0.016670  0.383740  0.282800  1.0  -0.1795
  C  C449  1  0.908530  0.106740  0.380500  1.0  -0.0564
  C  C450  1  0.964290  0.194210  0.316000  1.0  -0.0434
  C  C451  1  0.173000  0.242960  0.361100  1.0  -0.173
  C  C452  1  0.937480  0.136270  0.394900  1.0  -0.1374
  C  C453  1  0.184940  0.103520  0.402200  1.0  -0.0576
  C  C454  1  0.171250  0.398190  0.163400  1.0  -0.1028
  C  C455  1  0.172470  0.281260  0.355200  1.0  -0.1631
  C  C456  1  0.892340  0.162680  0.202600  1.0  -0.1145
  C  C457  1  0.144210  0.370870  0.181400  1.0  -0.1267
  C  C458  1  0.175750  0.378470  0.397500  1.0  -0.138
  C  C459  1  0.863590  0.132760  0.188900  1.0  -0.0425
  C  C460  1  0.158740  0.133480  0.414300  1.0  -0.0745
  C  C461  1  0.888760  0.400970  0.388400  1.0  -0.0704
  C  C462  1  0.920470  0.373500  0.400600  1.0  -0.0986
  C  C463  1  0.912700  0.381650  0.189700  1.0  -0.0896
  C  C464  1  0.880770  0.408750  0.177000  1.0  -0.1169
  C  C465  1  0.731180  0.945930  0.243700  1.0  0.69
  C  C466  1  0.723740  0.569360  0.281900  1.0  0.6731
  C  C467  1  0.701640  0.916260  0.264200  1.0  -0.1328
  C  C468  1  0.698750  0.602500  0.300500  1.0  -0.1466
  C  C469  1  0.628530  0.793460  0.332600  1.0  0.2029
  C  C470  1  0.333380  0.946600  0.260900  1.0  0.6792
  C  C471  1  0.372150  0.603800  0.276000  1.0  -0.1501
  C  C472  1  0.504860  0.844690  0.299800  1.0  0.1834
  C  C473  1  0.342910  0.569820  0.256100  1.0  0.6879
  C  C474  1  0.368260  0.918070  0.277000  1.0  -0.1196
  C  C475  1  0.572330  0.843930  0.298500  1.0  0.1543
  C  C476  1  0.645070  0.860710  0.297500  1.0  0.0795
  C  C477  1  0.453980  0.732400  0.330100  1.0  0.2214
  C  C478  1  0.504300  0.681460  0.311600  1.0  0.2181
  C  C479  1  0.432520  0.862910  0.302100  1.0  0.0472
  C  C480  1  0.687220  0.632060  0.213600  1.0  -0.0589
  C  C481  1  0.572280  0.680850  0.320600  1.0  0.2144
  C  C482  1  0.430630  0.664350  0.304400  1.0  0.0873
  C  C483  1  0.645600  0.662450  0.325900  1.0  0.0756
  C  C484  1  0.613890  0.831470  0.311700  1.0  -0.0706
  C  C485  1  0.557340  0.883080  0.281400  1.0  -0.1773
  C  C486  1  0.454700  0.795150  0.331400  1.0  0.1931
  C  C487  1  0.465820  0.832820  0.312800  1.0  -0.0415
  C  C488  1  0.556480  0.642160  0.297600  1.0  -0.1585
  C  C489  1  0.628950  0.730800  0.341400  1.0  0.1904
  C  C490  1  0.415590  0.783050  0.351600  1.0  -0.1587
  C  C491  1  0.514700  0.642650  0.290200  1.0  -0.184
  C  C492  1  0.614530  0.692480  0.331400  1.0  -0.0451
  C  C493  1  0.414930  0.745150  0.350200  1.0  -0.1553
  C  C494  1  0.703760  0.905540  0.381100  1.0  -0.074
  C  C495  1  0.660940  0.661670  0.226000  1.0  -0.0974
  C  C496  1  0.516670  0.883740  0.282800  1.0  -0.1795
  C  C497  1  0.408530  0.606740  0.380500  1.0  -0.0564
  C  C498  1  0.464290  0.694210  0.316000  1.0  -0.0434
  C  C499  1  0.673000  0.742960  0.361100  1.0  -0.173
  C  C500  1  0.437480  0.636270  0.394900  1.0  -0.1374
  C  C501  1  0.684940  0.603520  0.402200  1.0  -0.0576
  C  C502  1  0.671250  0.898190  0.163400  1.0  -0.1028
  C  C503  1  0.672470  0.781260  0.355200  1.0  -0.1631
  C  C504  1  0.392340  0.662680  0.202600  1.0  -0.1145
  C  C505  1  0.644210  0.870870  0.181400  1.0  -0.1267
  C  C506  1  0.675750  0.878470  0.397500  1.0  -0.138
  C  C507  1  0.363590  0.632760  0.188900  1.0  -0.0425
  C  C508  1  0.658740  0.633480  0.414300  1.0  -0.0745
  C  C509  1  0.388760  0.900970  0.388400  1.0  -0.0704
  C  C510  1  0.420470  0.873500  0.400600  1.0  -0.0986
  C  C511  1  0.412700  0.881650  0.189700  1.0  -0.0896
  C  C512  1  0.380770  0.908750  0.177000  1.0  -0.1169
  C  C513  1  0.768820  0.445930  0.756300  1.0  0.6898
  C  C514  1  0.776260  0.069360  0.718100  1.0  0.6728
  C  C515  1  0.798360  0.416260  0.735800  1.0  -0.1339
  C  C516  1  0.801250  0.102500  0.699500  1.0  -0.1466
  C  C517  1  0.871470  0.293460  0.667400  1.0  0.202
  C  C518  1  0.166620  0.446600  0.739100  1.0  0.678
  C  C519  1  0.127850  0.103800  0.724000  1.0  -0.1498
  C  C520  1  0.995140  0.344690  0.700200  1.0  0.1841
  C  C521  1  0.157090  0.069820  0.743900  1.0  0.6861
  C  C522  1  0.131740  0.418070  0.723000  1.0  -0.12
  C  C523  1  0.927670  0.343930  0.701500  1.0  0.155
  C  C524  1  0.854930  0.360710  0.702500  1.0  0.0784
  C  C525  1  0.046020  0.232400  0.669900  1.0  0.2223
  C  C526  1  0.995700  0.181460  0.688400  1.0  0.2192
  C  C527  1  0.067480  0.362910  0.697900  1.0  0.0477
  C  C528  1  0.812780  0.132060  0.786400  1.0  -0.0605
  C  C529  1  0.927720  0.180850  0.679400  1.0  0.2155
  C  C530  1  0.069370  0.164350  0.695600  1.0  0.088
  C  C531  1  0.854400  0.162450  0.674100  1.0  0.0745
  C  C532  1  0.886110  0.331470  0.688300  1.0  -0.0709
  C  C533  1  0.942660  0.383080  0.718600  1.0  -0.1762
  C  C534  1  0.045300  0.295150  0.668600  1.0  0.1926
  C  C535  1  0.034180  0.332820  0.687200  1.0  -0.0433
  C  C536  1  0.943520  0.142160  0.702400  1.0  -0.1595
  C  C537  1  0.871050  0.230800  0.658600  1.0  0.1903
  C  C538  1  0.084410  0.283050  0.648400  1.0  -0.1589
  C  C539  1  0.985300  0.142650  0.709800  1.0  -0.1832
  C  C540  1  0.885470  0.192480  0.668600  1.0  -0.0449
  C  C541  1  0.085070  0.245150  0.649800  1.0  -0.1553
  C  C542  1  0.796240  0.405540  0.618900  1.0  -0.0737
  C  C543  1  0.839060  0.161670  0.774000  1.0  -0.0961
  C  C544  1  0.983330  0.383740  0.717200  1.0  -0.1787
  C  C545  1  0.091470  0.106740  0.619500  1.0  -0.0561
  C  C546  1  0.035710  0.194210  0.684000  1.0  -0.0463
  C  C547  1  0.827000  0.242960  0.638900  1.0  -0.1733
  C  C548  1  0.062520  0.136270  0.605100  1.0  -0.1346
  C  C549  1  0.815060  0.103520  0.597800  1.0  -0.0582
  C  C550  1  0.828750  0.398190  0.836600  1.0  -0.1032
  C  C551  1  0.827530  0.281260  0.644800  1.0  -0.1634
  C  C552  1  0.107660  0.162680  0.797400  1.0  -0.1143
  C  C553  1  0.855790  0.370870  0.818600  1.0  -0.1262
  C  C554  1  0.824250  0.378470  0.602500  1.0  -0.1392
  C  C555  1  0.136410  0.132760  0.811100  1.0  -0.0427
  C  C556  1  0.841260  0.133480  0.585700  1.0  -0.0747
  C  C557  1  0.111240  0.400970  0.611600  1.0  -0.0694
  C  C558  1  0.079530  0.373500  0.599400  1.0  -0.0997
  C  C559  1  0.087300  0.381650  0.810300  1.0  -0.0898
  C  C560  1  0.119230  0.408750  0.823000  1.0  -0.1164
  C  C561  1  0.268820  0.945930  0.756300  1.0  0.6898
  C  C562  1  0.276260  0.569360  0.718100  1.0  0.6728
  C  C563  1  0.298360  0.916260  0.735800  1.0  -0.1339
  C  C564  1  0.301250  0.602500  0.699500  1.0  -0.1466
  C  C565  1  0.371470  0.793460  0.667400  1.0  0.202
  C  C566  1  0.666667  0.946600  0.739100  1.0  0.6776
  C  C567  1  0.627850  0.603800  0.724000  1.0  -0.1498
  C  C568  1  0.495140  0.844690  0.700200  1.0  0.1841
  C  C569  1  0.657090  0.569820  0.743900  1.0  0.6861
  C  C570  1  0.631740  0.918070  0.723000  1.0  -0.1192
  C  C571  1  0.427670  0.843930  0.701500  1.0  0.155
  C  C572  1  0.354930  0.860710  0.702500  1.0  0.0784
  C  C573  1  0.546020  0.732400  0.669900  1.0  0.2223
  C  C574  1  0.495700  0.681460  0.688400  1.0  0.2192
  C  C575  1  0.567480  0.862910  0.697900  1.0  0.0477
  C  C576  1  0.312780  0.632060  0.786400  1.0  -0.0605
  C  C577  1  0.427720  0.680850  0.679400  1.0  0.2155
  C  C578  1  0.569370  0.664350  0.695600  1.0  0.088
  C  C579  1  0.354400  0.662450  0.674100  1.0  0.0745
  C  C580  1  0.386110  0.831470  0.688300  1.0  -0.0709
  C  C581  1  0.442660  0.883080  0.718600  1.0  -0.1762
  C  C582  1  0.545300  0.795150  0.668600  1.0  0.1926
  C  C583  1  0.534180  0.832820  0.687200  1.0  -0.0433
  C  C584  1  0.443520  0.642160  0.702400  1.0  -0.1595
  C  C585  1  0.371050  0.730800  0.658600  1.0  0.1903
  C  C586  1  0.584410  0.783050  0.648400  1.0  -0.1589
  C  C587  1  0.485300  0.642650  0.709800  1.0  -0.1832
  C  C588  1  0.385470  0.692480  0.668600  1.0  -0.0449
  C  C589  1  0.585070  0.745150  0.649800  1.0  -0.1553
  C  C590  1  0.296240  0.905540  0.618900  1.0  -0.0737
  C  C591  1  0.339060  0.661670  0.774000  1.0  -0.0961
  C  C592  1  0.483330  0.883740  0.717200  1.0  -0.1787
  C  C593  1  0.591470  0.606740  0.619500  1.0  -0.0561
  C  C594  1  0.535710  0.694210  0.684000  1.0  -0.0463
  C  C595  1  0.327000  0.742960  0.638900  1.0  -0.1733
  C  C596  1  0.562520  0.636270  0.605100  1.0  -0.1346
  C  C597  1  0.315060  0.603520  0.597800  1.0  -0.0582
  C  C598  1  0.328750  0.898190  0.836600  1.0  -0.1032
  C  C599  1  0.327530  0.781260  0.644800  1.0  -0.1634
  C  C600  1  0.607660  0.662680  0.797400  1.0  -0.1143
  C  C601  1  0.355790  0.870870  0.818600  1.0  -0.1262
  C  C602  1  0.324250  0.878470  0.602500  1.0  -0.1392
  C  C603  1  0.636410  0.632760  0.811100  1.0  -0.0427
  C  C604  1  0.341260  0.633480  0.585700  1.0  -0.0747
  C  C605  1  0.611240  0.900970  0.611600  1.0  -0.0693
  C  C606  1  0.579530  0.873500  0.599400  1.0  -0.0997
  C  C607  1  0.587300  0.881650  0.810300  1.0  -0.0898
  C  C608  1  0.619230  0.908750  0.823000  1.0  -0.1157
  C  C609  1  0.000000  0.735600  0.000000  1.0  0.4162
  C  C610  1  0.500000  0.235600  0.000000  1.0  0.4162
  C  C611  1  0.000000  0.264400  0.000000  1.0  0.4178
  C  C612  1  0.500000  0.764400  0.000000  1.0  0.4178
  N  N613  1  0.960850  0.678950  0.692300  1.0  -0.4087
  N  N614  1  0.960090  0.795770  0.673000  1.0  -0.4132
  N  N615  1  0.021790  0.736540  0.676100  1.0  -0.4168
  N  N616  1  0.897040  0.737760  0.671800  1.0  -0.4134
  N  N617  1  0.460850  0.178950  0.692300  1.0  -0.4087
  N  N618  1  0.460090  0.295770  0.673000  1.0  -0.4132
  N  N619  1  0.521790  0.236540  0.676100  1.0  -0.4168
  N  N620  1  0.397040  0.237760  0.671800  1.0  -0.4134
  N  N621  1  0.039150  0.678950  0.307700  1.0  -0.4091
  N  N622  1  0.039910  0.795770  0.327000  1.0  -0.4128
  N  N623  1  0.978210  0.736540  0.323900  1.0  -0.4141
  N  N624  1  0.102960  0.737760  0.328200  1.0  -0.4147
  N  N625  1  0.539150  0.178950  0.307700  1.0  -0.4091
  N  N626  1  0.539910  0.295770  0.327000  1.0  -0.4128
  N  N627  1  0.478210  0.236540  0.323900  1.0  -0.4141
  N  N628  1  0.602960  0.237760  0.328200  1.0  -0.4147
  N  N629  1  0.039150  0.321050  0.307700  1.0  -0.4097
  N  N630  1  0.039910  0.204230  0.327000  1.0  -0.4146
  N  N631  1  0.978210  0.263460  0.323900  1.0  -0.4141
  N  N632  1  0.102960  0.262240  0.328200  1.0  -0.4147
  N  N633  1  0.539150  0.821050  0.307700  1.0  -0.4097
  N  N634  1  0.539910  0.704230  0.327000  1.0  -0.4146
  N  N635  1  0.478210  0.763460  0.323900  1.0  -0.4141
  N  N636  1  0.602960  0.762240  0.328200  1.0  -0.4147
  N  N637  1  0.960850  0.321050  0.692300  1.0  -0.4097
  N  N638  1  0.960090  0.204230  0.673000  1.0  -0.4137
  N  N639  1  0.021790  0.263460  0.676100  1.0  -0.4167
  N  N640  1  0.897040  0.262240  0.671800  1.0  -0.4134
  N  N641  1  0.460850  0.821050  0.692300  1.0  -0.4097
  N  N642  1  0.460090  0.704230  0.673000  1.0  -0.4137
  N  N643  1  0.521790  0.763460  0.676100  1.0  -0.4167
  N  N644  1  0.397040  0.762240  0.671800  1.0  -0.4134
  N  N645  1  0.186250  0.000000  0.014000  1.0  0.6731
  N  N646  1  0.686250  0.500000  0.014000  1.0  0.6731
  N  N647  1  0.813750  0.000000  0.986000  1.0  0.6708
  N  N648  1  0.313750  0.500000  0.986000  1.0  0.6708
  O  O649  1  0.775010  0.542220  0.866300  1.0  -0.8168
  O  O650  1  0.738000  0.541550  0.665700  1.0  -0.6966
  O  O651  1  0.764080  0.931740  0.813200  1.0  -0.8247
  O  O652  1  0.767430  0.958230  0.642400  1.0  -0.7608
  O  O653  1  0.188030  0.540840  0.847700  1.0  -0.8107
  O  O654  1  0.175440  0.542100  0.646500  1.0  -0.6874
  O  O655  1  0.145740  0.957840  0.667700  1.0  -0.6779
  O  O656  1  0.191200  0.931600  0.836500  1.0  -0.7409
  O  O657  1  0.985400  0.744240  0.897500  1.0  -0.653
  O  O658  1  0.275010  0.042220  0.866300  1.0  -0.8168
  O  O659  1  0.238000  0.041550  0.665700  1.0  -0.6966
  O  O660  1  0.264080  0.431740  0.813200  1.0  -0.8247
  O  O661  1  0.267430  0.458230  0.642400  1.0  -0.7608
  O  O662  1  0.688030  0.040840  0.847700  1.0  -0.8105
  O  O663  1  0.675440  0.042100  0.646500  1.0  -0.6899
  O  O664  1  0.645740  0.457840  0.667700  1.0  -0.6779
  O  O665  1  0.691200  0.431600  0.836500  1.0  -0.7409
  O  O666  1  0.485400  0.244240  0.897500  1.0  -0.653
  O  O667  1  0.224990  0.542220  0.133700  1.0  -0.8172
  O  O668  1  0.262000  0.541550  0.334300  1.0  -0.6954
  O  O669  1  0.235920  0.931740  0.186800  1.0  -0.8241
  O  O670  1  0.232570  0.958230  0.357600  1.0  -0.7608
  O  O671  1  0.811970  0.540840  0.152300  1.0  -0.8112
  O  O672  1  0.824560  0.542100  0.353500  1.0  -0.6889
  O  O673  1  0.854260  0.957840  0.332300  1.0  -0.6743
  O  O674  1  0.808800  0.931600  0.163500  1.0  -0.7399
  O  O675  1  0.014600  0.744240  0.102500  1.0  -0.6524
  O  O676  1  0.724990  0.042220  0.133700  1.0  -0.8172
  O  O677  1  0.762000  0.041550  0.334300  1.0  -0.6954
  O  O678  1  0.735920  0.431740  0.186800  1.0  -0.8241
  O  O679  1  0.732570  0.458230  0.357600  1.0  -0.7608
  O  O680  1  0.311970  0.040840  0.152300  1.0  -0.8112
  O  O681  1  0.324560  0.042100  0.353500  1.0  -0.6889
  O  O682  1  0.354260  0.457840  0.332300  1.0  -0.6743
  O  O683  1  0.308800  0.431600  0.163500  1.0  -0.7399
  O  O684  1  0.514600  0.244240  0.102500  1.0  -0.6524
  O  O685  1  0.224990  0.457780  0.133700  1.0  -0.8174
  O  O686  1  0.262000  0.458450  0.334300  1.0  -0.696
  O  O687  1  0.235920  0.068260  0.186800  1.0  -0.8238
  O  O688  1  0.232570  0.041770  0.357600  1.0  -0.7599
  O  O689  1  0.811970  0.459160  0.152300  1.0  -0.8108
  O  O690  1  0.824560  0.457900  0.353500  1.0  -0.6896
  O  O691  1  0.854260  0.042160  0.332300  1.0  -0.6751
  O  O692  1  0.808800  0.068400  0.163500  1.0  -0.7395
  O  O693  1  0.014600  0.255760  0.102500  1.0  -0.6518
  O  O694  1  0.724990  0.957780  0.133700  1.0  -0.8174
  O  O695  1  0.762000  0.958450  0.334300  1.0  -0.696
  O  O696  1  0.735920  0.568260  0.186800  1.0  -0.8238
  O  O697  1  0.732570  0.541770  0.357600  1.0  -0.7599
  O  O698  1  0.311970  0.959160  0.152300  1.0  -0.8108
  O  O699  1  0.324560  0.957900  0.353500  1.0  -0.6896
  O  O700  1  0.354260  0.542160  0.332300  1.0  -0.6751
  O  O701  1  0.308800  0.568400  0.163500  1.0  -0.7395
  O  O702  1  0.514600  0.755760  0.102500  1.0  -0.6518
  O  O703  1  0.775010  0.457780  0.866300  1.0  -0.817
  O  O704  1  0.738000  0.458450  0.665700  1.0  -0.6965
  O  O705  1  0.764080  0.068260  0.813200  1.0  -0.8246
  O  O706  1  0.767430  0.041770  0.642400  1.0  -0.7611
  O  O707  1  0.188030  0.459160  0.847700  1.0  -0.8103
  O  O708  1  0.175440  0.457900  0.646500  1.0  -0.6874
  O  O709  1  0.145740  0.042160  0.667700  1.0  -0.6755
  O  O710  1  0.191200  0.068400  0.836500  1.0  -0.7415
  O  O711  1  0.985400  0.255760  0.897500  1.0  -0.6513
  O  O712  1  0.275010  0.957780  0.866300  1.0  -0.817
  O  O713  1  0.238000  0.958450  0.665700  1.0  -0.6965
  O  O714  1  0.264080  0.568260  0.813200  1.0  -0.8246
  O  O715  1  0.267430  0.541770  0.642400  1.0  -0.7611
  O  O716  1  0.688030  0.959160  0.847700  1.0  -0.8101
  O  O717  1  0.675440  0.957900  0.646500  1.0  -0.69
  O  O718  1  0.645740  0.542160  0.667700  1.0  -0.6755
  O  O719  1  0.691200  0.568400  0.836500  1.0  -0.7415
  O  O720  1  0.485400  0.755760  0.897500  1.0  -0.6513
  O  O721  1  0.182640  0.000000  0.120400  1.0  -0.6257
  O  O722  1  0.156030  0.000000  0.910800  1.0  -0.6215
  O  O723  1  0.226630  0.000000  0.010800  1.0  -0.706
  O  O724  1  0.682640  0.500000  0.120400  1.0  -0.6257
  O  O725  1  0.656030  0.500000  0.910800  1.0  -0.6215
  O  O726  1  0.726630  0.500000  0.010800  1.0  -0.706
  O  O727  1  0.817360  0.000000  0.879600  1.0  -0.6245
  O  O728  1  0.843970  0.000000  0.089200  1.0  -0.6269
  O  O729  1  0.773370  0.000000  0.989200  1.0  -0.7057
  O  O730  1  0.317360  0.500000  0.879600  1.0  -0.6245
  O  O731  1  0.343970  0.500000  0.089200  1.0  -0.6269
  O  O732  1  0.273370  0.500000  0.989200  1.0  -0.7057
