# generated using pymatgen
data_CuH5C7NO5
_symmetry_space_group_name_H-M   'P 1'
_cell_length_a   34.18200000
_cell_length_b   34.18200000
_cell_length_c   34.18200000
_cell_angle_alpha   90.00000000
_cell_angle_beta   90.00000000
_cell_angle_gamma   90.00000000
_symmetry_Int_Tables_number   1
_chemical_formula_structural   CuH5C7NO5
_chemical_formula_sum   'Cu96 H480 C672 N96 O480'
_cell_volume   39938.56067657
_cell_formula_units_Z   96
loop_
 _symmetry_equiv_pos_site_id
 _symmetry_equiv_pos_as_xyz
  1  'x, y, z'
loop_
 _atom_site_type_symbol
 _atom_site_label
 _atom_site_symmetry_multiplicity
 _atom_site_fract_x
 _atom_site_fract_y
 _atom_site_fract_z
 _atom_site_occupancy
 _atom_site_charge
  Cu  Cu1  1  0.750000  0.250000  0.045720  1.0  0.8388
  Cu  Cu2  1  0.750000  0.250000  0.968430  1.0  0.8639
  Cu  Cu3  1  0.750000  0.750000  0.545720  1.0  0.8388
  Cu  Cu4  1  0.750000  0.750000  0.468430  1.0  0.8639
  Cu  Cu5  1  0.250000  0.750000  0.045720  1.0  0.8388
  Cu  Cu6  1  0.250000  0.750000  0.968430  1.0  0.8639
  Cu  Cu7  1  0.250000  0.250000  0.545720  1.0  0.8388
  Cu  Cu8  1  0.250000  0.250000  0.468430  1.0  0.8639
  Cu  Cu9  1  0.250000  0.250000  0.954280  1.0  0.8402
  Cu  Cu10  1  0.250000  0.250000  0.031570  1.0  0.8632
  Cu  Cu11  1  0.250000  0.750000  0.454280  1.0  0.8402
  Cu  Cu12  1  0.250000  0.750000  0.531570  1.0  0.8632
  Cu  Cu13  1  0.750000  0.750000  0.954280  1.0  0.8402
  Cu  Cu14  1  0.750000  0.750000  0.031570  1.0  0.8632
  Cu  Cu15  1  0.750000  0.250000  0.454280  1.0  0.8402
  Cu  Cu16  1  0.750000  0.250000  0.531570  1.0  0.8632
  Cu  Cu17  1  0.045720  0.750000  0.250000  1.0  0.8417
  Cu  Cu18  1  0.968430  0.750000  0.250000  1.0  0.8647
  Cu  Cu19  1  0.545720  0.750000  0.750000  1.0  0.8417
  Cu  Cu20  1  0.468430  0.750000  0.750000  1.0  0.8647
  Cu  Cu21  1  0.045720  0.250000  0.750000  1.0  0.8417
  Cu  Cu22  1  0.968430  0.250000  0.750000  1.0  0.8647
  Cu  Cu23  1  0.545720  0.250000  0.250000  1.0  0.8417
  Cu  Cu24  1  0.468430  0.250000  0.250000  1.0  0.8647
  Cu  Cu25  1  0.954280  0.250000  0.250000  1.0  0.8442
  Cu  Cu26  1  0.031570  0.250000  0.250000  1.0  0.8622
  Cu  Cu27  1  0.454280  0.250000  0.750000  1.0  0.8442
  Cu  Cu28  1  0.531570  0.250000  0.750000  1.0  0.8622
  Cu  Cu29  1  0.954280  0.750000  0.750000  1.0  0.8442
  Cu  Cu30  1  0.031570  0.750000  0.750000  1.0  0.8622
  Cu  Cu31  1  0.454280  0.750000  0.250000  1.0  0.8442
  Cu  Cu32  1  0.531570  0.750000  0.250000  1.0  0.8622
  Cu  Cu33  1  0.250000  0.045720  0.750000  1.0  0.8431
  Cu  Cu34  1  0.250000  0.968430  0.750000  1.0  0.8652
  Cu  Cu35  1  0.250000  0.545720  0.250000  1.0  0.8431
  Cu  Cu36  1  0.250000  0.468430  0.250000  1.0  0.8652
  Cu  Cu37  1  0.750000  0.045720  0.250000  1.0  0.8431
  Cu  Cu38  1  0.750000  0.968430  0.250000  1.0  0.8652
  Cu  Cu39  1  0.750000  0.545720  0.750000  1.0  0.8431
  Cu  Cu40  1  0.750000  0.468430  0.750000  1.0  0.8652
  Cu  Cu41  1  0.250000  0.954280  0.250000  1.0  0.8437
  Cu  Cu42  1  0.250000  0.031570  0.250000  1.0  0.8683
  Cu  Cu43  1  0.250000  0.454280  0.750000  1.0  0.8437
  Cu  Cu44  1  0.250000  0.531570  0.750000  1.0  0.8683
  Cu  Cu45  1  0.750000  0.954280  0.750000  1.0  0.8437
  Cu  Cu46  1  0.750000  0.031570  0.750000  1.0  0.8683
  Cu  Cu47  1  0.750000  0.454280  0.250000  1.0  0.8437
  Cu  Cu48  1  0.750000  0.531570  0.250000  1.0  0.8683
  Cu  Cu49  1  0.710890  0.000000  0.000000  1.0  0.9165
  Cu  Cu50  1  0.789010  0.000000  0.000000  1.0  0.9318
  Cu  Cu51  1  0.710890  0.500000  0.500000  1.0  0.9165
  Cu  Cu52  1  0.789010  0.500000  0.500000  1.0  0.9318
  Cu  Cu53  1  0.210890  0.000000  0.500000  1.0  0.9165
  Cu  Cu54  1  0.289010  0.000000  0.500000  1.0  0.9318
  Cu  Cu55  1  0.210890  0.500000  0.000000  1.0  0.9165
  Cu  Cu56  1  0.289010  0.500000  0.000000  1.0  0.9318
  Cu  Cu57  1  0.289110  0.000000  0.000000  1.0  0.9209
  Cu  Cu58  1  0.210990  0.000000  0.000000  1.0  0.9303
  Cu  Cu59  1  0.289110  0.500000  0.500000  1.0  0.9209
  Cu  Cu60  1  0.210990  0.500000  0.500000  1.0  0.9303
  Cu  Cu61  1  0.789110  0.000000  0.500000  1.0  0.9209
  Cu  Cu62  1  0.710990  0.000000  0.500000  1.0  0.9303
  Cu  Cu63  1  0.789110  0.500000  0.000000  1.0  0.9209
  Cu  Cu64  1  0.710990  0.500000  0.000000  1.0  0.9303
  Cu  Cu65  1  0.000000  0.710890  0.000000  1.0  0.9234
  Cu  Cu66  1  0.000000  0.789010  0.000000  1.0  0.9315
  Cu  Cu67  1  0.000000  0.210890  0.500000  1.0  0.9234
  Cu  Cu68  1  0.000000  0.289010  0.500000  1.0  0.9315
  Cu  Cu69  1  0.500000  0.710890  0.500000  1.0  0.9234
  Cu  Cu70  1  0.500000  0.789010  0.500000  1.0  0.9315
  Cu  Cu71  1  0.500000  0.210890  0.000000  1.0  0.9234
  Cu  Cu72  1  0.500000  0.289010  0.000000  1.0  0.9315
  Cu  Cu73  1  0.000000  0.289110  0.000000  1.0  0.9193
  Cu  Cu74  1  0.000000  0.210990  0.000000  1.0  0.9339
  Cu  Cu75  1  0.000000  0.789110  0.500000  1.0  0.9193
  Cu  Cu76  1  0.000000  0.710990  0.500000  1.0  0.9339
  Cu  Cu77  1  0.500000  0.289110  0.500000  1.0  0.9193
  Cu  Cu78  1  0.500000  0.210990  0.500000  1.0  0.9339
  Cu  Cu79  1  0.500000  0.789110  0.000000  1.0  0.9193
  Cu  Cu80  1  0.500000  0.710990  0.000000  1.0  0.9339
  Cu  Cu81  1  0.000000  0.000000  0.710890  1.0  0.9164
  Cu  Cu82  1  0.000000  0.000000  0.789010  1.0  0.9268
  Cu  Cu83  1  0.000000  0.500000  0.210890  1.0  0.9164
  Cu  Cu84  1  0.000000  0.500000  0.289010  1.0  0.9268
  Cu  Cu85  1  0.500000  0.000000  0.210890  1.0  0.9164
  Cu  Cu86  1  0.500000  0.000000  0.289010  1.0  0.9268
  Cu  Cu87  1  0.500000  0.500000  0.710890  1.0  0.9164
  Cu  Cu88  1  0.500000  0.500000  0.789010  1.0  0.9268
  Cu  Cu89  1  0.000000  0.000000  0.289110  1.0  0.9163
  Cu  Cu90  1  0.000000  0.000000  0.210990  1.0  0.9267
  Cu  Cu91  1  0.000000  0.500000  0.789110  1.0  0.9163
  Cu  Cu92  1  0.000000  0.500000  0.710990  1.0  0.9267
  Cu  Cu93  1  0.500000  0.000000  0.789110  1.0  0.9163
  Cu  Cu94  1  0.500000  0.000000  0.710990  1.0  0.9267
  Cu  Cu95  1  0.500000  0.500000  0.289110  1.0  0.9163
  Cu  Cu96  1  0.500000  0.500000  0.210990  1.0  0.9267
  H  H97  1  0.592800  0.163800  0.072700  1.0  0.1106
  H  H98  1  0.871800  0.272100  0.986800  1.0  0.1423
  H  H99  1  0.877000  0.270200  0.032300  1.0  0.1328
  H  H100  1  0.885600  0.204300  0.061300  1.0  0.2553
  H  H101  1  0.870300  0.202800  0.984600  1.0  0.1075
  H  H102  1  0.927500  0.164400  0.093400  1.0  0.1105
  H  H103  1  0.704600  0.116000  0.062300  1.0  0.2243
  H  H104  1  0.770000  0.122400  0.033100  1.0  0.133
  H  H105  1  0.773000  0.128200  0.987700  1.0  0.1309
  H  H106  1  0.702300  0.130200  0.984500  1.0  0.1101
  H  H107  1  0.592800  0.663800  0.572700  1.0  0.1106
  H  H108  1  0.871800  0.772100  0.486800  1.0  0.1423
  H  H109  1  0.877000  0.770200  0.532300  1.0  0.1328
  H  H110  1  0.885600  0.704300  0.561300  1.0  0.2553
  H  H111  1  0.870300  0.702800  0.484600  1.0  0.1075
  H  H112  1  0.927500  0.664400  0.593400  1.0  0.1105
  H  H113  1  0.704600  0.616000  0.562300  1.0  0.2243
  H  H114  1  0.770000  0.622400  0.533100  1.0  0.133
  H  H115  1  0.773000  0.628200  0.487700  1.0  0.1309
  H  H116  1  0.702300  0.630200  0.484500  1.0  0.1101
  H  H117  1  0.092800  0.163800  0.572700  1.0  0.1106
  H  H118  1  0.371800  0.272100  0.486800  1.0  0.1423
  H  H119  1  0.377000  0.270200  0.532300  1.0  0.1328
  H  H120  1  0.385600  0.204300  0.561300  1.0  0.2553
  H  H121  1  0.370300  0.202800  0.484600  1.0  0.1075
  H  H122  1  0.427500  0.164400  0.593400  1.0  0.1105
  H  H123  1  0.204600  0.116000  0.562300  1.0  0.2243
  H  H124  1  0.270000  0.122400  0.533100  1.0  0.133
  H  H125  1  0.273000  0.128200  0.487700  1.0  0.1309
  H  H126  1  0.202300  0.130200  0.484500  1.0  0.1101
  H  H127  1  0.092800  0.663800  0.072700  1.0  0.1106
  H  H128  1  0.371800  0.772100  0.986800  1.0  0.1423
  H  H129  1  0.377000  0.770200  0.032300  1.0  0.1328
  H  H130  1  0.385600  0.704300  0.061300  1.0  0.2553
  H  H131  1  0.370300  0.702800  0.984600  1.0  0.1075
  H  H132  1  0.427500  0.664400  0.093400  1.0  0.1105
  H  H133  1  0.204600  0.616000  0.062300  1.0  0.2243
  H  H134  1  0.270000  0.622400  0.033100  1.0  0.133
  H  H135  1  0.273000  0.628200  0.987700  1.0  0.1309
  H  H136  1  0.202300  0.630200  0.984500  1.0  0.1101
  H  H137  1  0.407200  0.836200  0.072700  1.0  0.1113
  H  H138  1  0.128200  0.727900  0.986800  1.0  0.1414
  H  H139  1  0.123000  0.729800  0.032300  1.0  0.1332
  H  H140  1  0.114400  0.795700  0.061300  1.0  0.2567
  H  H141  1  0.129700  0.797200  0.984600  1.0  0.107
  H  H142  1  0.072500  0.835600  0.093400  1.0  0.1113
  H  H143  1  0.295400  0.884000  0.062300  1.0  0.2245
  H  H144  1  0.230000  0.877600  0.033100  1.0  0.1338
  H  H145  1  0.227000  0.871800  0.987700  1.0  0.1307
  H  H146  1  0.297700  0.869800  0.984500  1.0  0.1105
  H  H147  1  0.407200  0.336200  0.572700  1.0  0.1113
  H  H148  1  0.128200  0.227900  0.486800  1.0  0.1414
  H  H149  1  0.123000  0.229800  0.532300  1.0  0.1332
  H  H150  1  0.114400  0.295700  0.561300  1.0  0.2567
  H  H151  1  0.129700  0.297200  0.484600  1.0  0.107
  H  H152  1  0.072500  0.335600  0.593400  1.0  0.1113
  H  H153  1  0.295400  0.384000  0.562300  1.0  0.2245
  H  H154  1  0.230000  0.377600  0.533100  1.0  0.1338
  H  H155  1  0.227000  0.371800  0.487700  1.0  0.1307
  H  H156  1  0.297700  0.369800  0.484500  1.0  0.1105
  H  H157  1  0.907200  0.836200  0.572700  1.0  0.1113
  H  H158  1  0.628200  0.727900  0.486800  1.0  0.1414
  H  H159  1  0.623000  0.729800  0.532300  1.0  0.1332
  H  H160  1  0.614400  0.795700  0.561300  1.0  0.2567
  H  H161  1  0.629700  0.797200  0.484600  1.0  0.107
  H  H162  1  0.572500  0.835600  0.593400  1.0  0.1113
  H  H163  1  0.795400  0.884000  0.562300  1.0  0.2245
  H  H164  1  0.730000  0.877600  0.533100  1.0  0.1338
  H  H165  1  0.727000  0.871800  0.487700  1.0  0.1307
  H  H166  1  0.797700  0.869800  0.484500  1.0  0.1105
  H  H167  1  0.907200  0.336200  0.072700  1.0  0.1113
  H  H168  1  0.628200  0.227900  0.986800  1.0  0.1414
  H  H169  1  0.623000  0.229800  0.032300  1.0  0.1332
  H  H170  1  0.614400  0.295700  0.061300  1.0  0.2567
  H  H171  1  0.629700  0.297200  0.984600  1.0  0.107
  H  H172  1  0.572500  0.335600  0.093400  1.0  0.1113
  H  H173  1  0.795400  0.384000  0.062300  1.0  0.2245
  H  H174  1  0.730000  0.377600  0.033100  1.0  0.1338
  H  H175  1  0.727000  0.371800  0.987700  1.0  0.1307
  H  H176  1  0.797700  0.369800  0.984500  1.0  0.1105
  H  H177  1  0.407200  0.163800  0.927300  1.0  0.1109
  H  H178  1  0.128200  0.272100  0.013200  1.0  0.1429
  H  H179  1  0.123000  0.270200  0.967700  1.0  0.1338
  H  H180  1  0.114400  0.204300  0.938700  1.0  0.2567
  H  H181  1  0.129700  0.202800  0.015400  1.0  0.1091
  H  H182  1  0.072500  0.164400  0.906600  1.0  0.111
  H  H183  1  0.295400  0.116000  0.937700  1.0  0.2246
  H  H184  1  0.230000  0.122400  0.966900  1.0  0.1336
  H  H185  1  0.227000  0.128200  0.012300  1.0  0.1319
  H  H186  1  0.297700  0.130200  0.015500  1.0  0.1104
  H  H187  1  0.407200  0.663800  0.427300  1.0  0.1109
  H  H188  1  0.128200  0.772100  0.513200  1.0  0.1429
  H  H189  1  0.123000  0.770200  0.467700  1.0  0.1338
  H  H190  1  0.114400  0.704300  0.438700  1.0  0.2567
  H  H191  1  0.129700  0.702800  0.515400  1.0  0.1091
  H  H192  1  0.072500  0.664400  0.406600  1.0  0.111
  H  H193  1  0.295400  0.616000  0.437700  1.0  0.2246
  H  H194  1  0.230000  0.622400  0.466900  1.0  0.1336
  H  H195  1  0.227000  0.628200  0.512300  1.0  0.1319
  H  H196  1  0.297700  0.630200  0.515500  1.0  0.1104
  H  H197  1  0.907200  0.163800  0.427300  1.0  0.1109
  H  H198  1  0.628200  0.272100  0.513200  1.0  0.1429
  H  H199  1  0.623000  0.270200  0.467700  1.0  0.1338
  H  H200  1  0.614400  0.204300  0.438700  1.0  0.2567
  H  H201  1  0.629700  0.202800  0.515400  1.0  0.1091
  H  H202  1  0.572500  0.164400  0.406600  1.0  0.111
  H  H203  1  0.795400  0.116000  0.437700  1.0  0.2246
  H  H204  1  0.730000  0.122400  0.466900  1.0  0.1336
  H  H205  1  0.727000  0.128200  0.512300  1.0  0.1319
  H  H206  1  0.797700  0.130200  0.515500  1.0  0.1104
  H  H207  1  0.907200  0.663800  0.927300  1.0  0.1109
  H  H208  1  0.628200  0.772100  0.013200  1.0  0.1429
  H  H209  1  0.623000  0.770200  0.967700  1.0  0.1338
  H  H210  1  0.614400  0.704300  0.938700  1.0  0.2567
  H  H211  1  0.629700  0.702800  0.015400  1.0  0.1091
  H  H212  1  0.572500  0.664400  0.906600  1.0  0.111
  H  H213  1  0.795400  0.616000  0.937700  1.0  0.2246
  H  H214  1  0.730000  0.622400  0.966900  1.0  0.1336
  H  H215  1  0.727000  0.628200  0.012300  1.0  0.1319
  H  H216  1  0.797700  0.630200  0.015500  1.0  0.1104
  H  H217  1  0.592800  0.836200  0.927300  1.0  0.1114
  H  H218  1  0.871800  0.727900  0.013200  1.0  0.1437
  H  H219  1  0.877000  0.729800  0.967700  1.0  0.1341
  H  H220  1  0.885600  0.795700  0.938700  1.0  0.2573
  H  H221  1  0.870300  0.797200  0.015400  1.0  0.1078
  H  H222  1  0.927500  0.835600  0.906600  1.0  0.1112
  H  H223  1  0.704600  0.884000  0.937700  1.0  0.2241
  H  H224  1  0.770000  0.877600  0.966900  1.0  0.134
  H  H225  1  0.773000  0.871800  0.012300  1.0  0.1322
  H  H226  1  0.702300  0.869800  0.015500  1.0  0.111
  H  H227  1  0.592800  0.336200  0.427300  1.0  0.1114
  H  H228  1  0.871800  0.227900  0.513200  1.0  0.1437
  H  H229  1  0.877000  0.229800  0.467700  1.0  0.1341
  H  H230  1  0.885600  0.295700  0.438700  1.0  0.2573
  H  H231  1  0.870300  0.297200  0.515400  1.0  0.1078
  H  H232  1  0.927500  0.335600  0.406600  1.0  0.1112
  H  H233  1  0.704600  0.384000  0.437700  1.0  0.2241
  H  H234  1  0.770000  0.377600  0.466900  1.0  0.134
  H  H235  1  0.773000  0.371800  0.512300  1.0  0.1322
  H  H236  1  0.702300  0.369800  0.515500  1.0  0.111
  H  H237  1  0.092800  0.836200  0.427300  1.0  0.1114
  H  H238  1  0.371800  0.727900  0.513200  1.0  0.1437
  H  H239  1  0.377000  0.729800  0.467700  1.0  0.1341
  H  H240  1  0.385600  0.795700  0.438700  1.0  0.2573
  H  H241  1  0.370300  0.797200  0.515400  1.0  0.1078
  H  H242  1  0.427500  0.835600  0.406600  1.0  0.1112
  H  H243  1  0.204600  0.884000  0.437700  1.0  0.2241
  H  H244  1  0.270000  0.877600  0.466900  1.0  0.134
  H  H245  1  0.273000  0.871800  0.512300  1.0  0.1322
  H  H246  1  0.202300  0.869800  0.515500  1.0  0.111
  H  H247  1  0.092800  0.336200  0.927300  1.0  0.1114
  H  H248  1  0.371800  0.227900  0.013200  1.0  0.1437
  H  H249  1  0.377000  0.229800  0.967700  1.0  0.1341
  H  H250  1  0.385600  0.295700  0.938700  1.0  0.2573
  H  H251  1  0.370300  0.297200  0.015400  1.0  0.1078
  H  H252  1  0.427500  0.335600  0.906600  1.0  0.1112
  H  H253  1  0.204600  0.384000  0.937700  1.0  0.2241
  H  H254  1  0.270000  0.377600  0.966900  1.0  0.134
  H  H255  1  0.273000  0.371800  0.012300  1.0  0.1322
  H  H256  1  0.202300  0.369800  0.015500  1.0  0.111
  H  H257  1  0.072700  0.592800  0.163800  1.0  0.1116
  H  H258  1  0.986800  0.871800  0.272100  1.0  0.1395
  H  H259  1  0.032300  0.877000  0.270200  1.0  0.1335
  H  H260  1  0.061300  0.885600  0.204300  1.0  0.2547
  H  H261  1  0.984600  0.870300  0.202800  1.0  0.1051
  H  H262  1  0.093400  0.927500  0.164400  1.0  0.1114
  H  H263  1  0.062300  0.704600  0.116000  1.0  0.2225
  H  H264  1  0.033100  0.770000  0.122400  1.0  0.135
  H  H265  1  0.987700  0.773000  0.128200  1.0  0.1317
  H  H266  1  0.984500  0.702300  0.130200  1.0  0.1078
  H  H267  1  0.072700  0.092800  0.663800  1.0  0.1116
  H  H268  1  0.986800  0.371800  0.772100  1.0  0.1395
  H  H269  1  0.032300  0.377000  0.770200  1.0  0.1335
  H  H270  1  0.061300  0.385600  0.704300  1.0  0.2547
  H  H271  1  0.984600  0.370300  0.702800  1.0  0.1051
  H  H272  1  0.093400  0.427500  0.664400  1.0  0.1114
  H  H273  1  0.062300  0.204600  0.616000  1.0  0.2225
  H  H274  1  0.033100  0.270000  0.622400  1.0  0.135
  H  H275  1  0.987700  0.273000  0.628200  1.0  0.1317
  H  H276  1  0.984500  0.202300  0.630200  1.0  0.1078
  H  H277  1  0.572700  0.592800  0.663800  1.0  0.1116
  H  H278  1  0.486800  0.871800  0.772100  1.0  0.1395
  H  H279  1  0.532300  0.877000  0.770200  1.0  0.1335
  H  H280  1  0.561300  0.885600  0.704300  1.0  0.2547
  H  H281  1  0.484600  0.870300  0.702800  1.0  0.1051
  H  H282  1  0.593400  0.927500  0.664400  1.0  0.1114
  H  H283  1  0.562300  0.704600  0.616000  1.0  0.2225
  H  H284  1  0.533100  0.770000  0.622400  1.0  0.135
  H  H285  1  0.487700  0.773000  0.628200  1.0  0.1317
  H  H286  1  0.484500  0.702300  0.630200  1.0  0.1078
  H  H287  1  0.572700  0.092800  0.163800  1.0  0.1116
  H  H288  1  0.486800  0.371800  0.272100  1.0  0.1395
  H  H289  1  0.532300  0.377000  0.270200  1.0  0.1335
  H  H290  1  0.561300  0.385600  0.204300  1.0  0.2547
  H  H291  1  0.484600  0.370300  0.202800  1.0  0.1051
  H  H292  1  0.593400  0.427500  0.164400  1.0  0.1114
  H  H293  1  0.562300  0.204600  0.116000  1.0  0.2225
  H  H294  1  0.533100  0.270000  0.122400  1.0  0.135
  H  H295  1  0.487700  0.273000  0.128200  1.0  0.1317
  H  H296  1  0.484500  0.202300  0.130200  1.0  0.1078
  H  H297  1  0.072700  0.407200  0.836200  1.0  0.1122
  H  H298  1  0.986800  0.128200  0.727900  1.0  0.1407
  H  H299  1  0.032300  0.123000  0.729800  1.0  0.1341
  H  H300  1  0.061300  0.114400  0.795700  1.0  0.2545
  H  H301  1  0.984600  0.129700  0.797200  1.0  0.1042
  H  H302  1  0.093400  0.072500  0.835600  1.0  0.1123
  H  H303  1  0.062300  0.295400  0.884000  1.0  0.2231
  H  H304  1  0.033100  0.230000  0.877600  1.0  0.1355
  H  H305  1  0.987700  0.227000  0.871800  1.0  0.1316
  H  H306  1  0.984500  0.297700  0.869800  1.0  0.1074
  H  H307  1  0.072700  0.907200  0.336200  1.0  0.1122
  H  H308  1  0.986800  0.628200  0.227900  1.0  0.1407
  H  H309  1  0.032300  0.623000  0.229800  1.0  0.1341
  H  H310  1  0.061300  0.614400  0.295700  1.0  0.2545
  H  H311  1  0.984600  0.629700  0.297200  1.0  0.1042
  H  H312  1  0.093400  0.572500  0.335600  1.0  0.1123
  H  H313  1  0.062300  0.795400  0.384000  1.0  0.2231
  H  H314  1  0.033100  0.730000  0.377600  1.0  0.1355
  H  H315  1  0.987700  0.727000  0.371800  1.0  0.1316
  H  H316  1  0.984500  0.797700  0.369800  1.0  0.1074
  H  H317  1  0.572700  0.407200  0.336200  1.0  0.1122
  H  H318  1  0.486800  0.128200  0.227900  1.0  0.1407
  H  H319  1  0.532300  0.123000  0.229800  1.0  0.1341
  H  H320  1  0.561300  0.114400  0.295700  1.0  0.2545
  H  H321  1  0.484600  0.129700  0.297200  1.0  0.1042
  H  H322  1  0.593400  0.072500  0.335600  1.0  0.1123
  H  H323  1  0.562300  0.295400  0.384000  1.0  0.2231
  H  H324  1  0.533100  0.230000  0.377600  1.0  0.1355
  H  H325  1  0.487700  0.227000  0.371800  1.0  0.1316
  H  H326  1  0.484500  0.297700  0.369800  1.0  0.1074
  H  H327  1  0.572700  0.907200  0.836200  1.0  0.1122
  H  H328  1  0.486800  0.628200  0.727900  1.0  0.1407
  H  H329  1  0.532300  0.623000  0.729800  1.0  0.1341
  H  H330  1  0.561300  0.614400  0.795700  1.0  0.2545
  H  H331  1  0.484600  0.629700  0.797200  1.0  0.1042
  H  H332  1  0.593400  0.572500  0.835600  1.0  0.1123
  H  H333  1  0.562300  0.795400  0.884000  1.0  0.2231
  H  H334  1  0.533100  0.730000  0.877600  1.0  0.1355
  H  H335  1  0.487700  0.727000  0.871800  1.0  0.1316
  H  H336  1  0.484500  0.797700  0.869800  1.0  0.1074
  H  H337  1  0.927300  0.407200  0.163800  1.0  0.1115
  H  H338  1  0.013200  0.128200  0.272100  1.0  0.1397
  H  H339  1  0.967700  0.123000  0.270200  1.0  0.134
  H  H340  1  0.938700  0.114400  0.204300  1.0  0.256
  H  H341  1  0.015400  0.129700  0.202800  1.0  0.1054
  H  H342  1  0.906600  0.072500  0.164400  1.0  0.112
  H  H343  1  0.937700  0.295400  0.116000  1.0  0.2237
  H  H344  1  0.966900  0.230000  0.122400  1.0  0.1365
  H  H345  1  0.012300  0.227000  0.128200  1.0  0.131
  H  H346  1  0.015500  0.297700  0.130200  1.0  0.108
  H  H347  1  0.927300  0.907200  0.663800  1.0  0.1115
  H  H348  1  0.013200  0.628200  0.772100  1.0  0.1397
  H  H349  1  0.967700  0.623000  0.770200  1.0  0.134
  H  H350  1  0.938700  0.614400  0.704300  1.0  0.256
  H  H351  1  0.015400  0.629700  0.702800  1.0  0.1054
  H  H352  1  0.906600  0.572500  0.664400  1.0  0.112
  H  H353  1  0.937700  0.795400  0.616000  1.0  0.2237
  H  H354  1  0.966900  0.730000  0.622400  1.0  0.1365
  H  H355  1  0.012300  0.727000  0.628200  1.0  0.131
  H  H356  1  0.015500  0.797700  0.630200  1.0  0.108
  H  H357  1  0.427300  0.407200  0.663800  1.0  0.1115
  H  H358  1  0.513200  0.128200  0.772100  1.0  0.1397
  H  H359  1  0.467700  0.123000  0.770200  1.0  0.134
  H  H360  1  0.438700  0.114400  0.704300  1.0  0.256
  H  H361  1  0.515400  0.129700  0.702800  1.0  0.1054
  H  H362  1  0.406600  0.072500  0.664400  1.0  0.112
  H  H363  1  0.437700  0.295400  0.616000  1.0  0.2237
  H  H364  1  0.466900  0.230000  0.622400  1.0  0.1365
  H  H365  1  0.512300  0.227000  0.628200  1.0  0.131
  H  H366  1  0.515500  0.297700  0.630200  1.0  0.108
  H  H367  1  0.427300  0.907200  0.163800  1.0  0.1115
  H  H368  1  0.513200  0.628200  0.272100  1.0  0.1397
  H  H369  1  0.467700  0.623000  0.270200  1.0  0.134
  H  H370  1  0.438700  0.614400  0.204300  1.0  0.256
  H  H371  1  0.515400  0.629700  0.202800  1.0  0.1054
  H  H372  1  0.406600  0.572500  0.164400  1.0  0.112
  H  H373  1  0.437700  0.795400  0.116000  1.0  0.2237
  H  H374  1  0.466900  0.730000  0.122400  1.0  0.1365
  H  H375  1  0.512300  0.727000  0.128200  1.0  0.131
  H  H376  1  0.515500  0.797700  0.130200  1.0  0.108
  H  H377  1  0.927300  0.592800  0.836200  1.0  0.1116
  H  H378  1  0.013200  0.871800  0.727900  1.0  0.1402
  H  H379  1  0.967700  0.877000  0.729800  1.0  0.1343
  H  H380  1  0.938700  0.885600  0.795700  1.0  0.2556
  H  H381  1  0.015400  0.870300  0.797200  1.0  0.1048
  H  H382  1  0.906600  0.927500  0.835600  1.0  0.1122
  H  H383  1  0.937700  0.704600  0.884000  1.0  0.223
  H  H384  1  0.966900  0.770000  0.877600  1.0  0.1357
  H  H385  1  0.012300  0.773000  0.871800  1.0  0.1307
  H  H386  1  0.015500  0.702300  0.869800  1.0  0.1075
  H  H387  1  0.927300  0.092800  0.336200  1.0  0.1116
  H  H388  1  0.013200  0.371800  0.227900  1.0  0.1402
  H  H389  1  0.967700  0.377000  0.229800  1.0  0.1343
  H  H390  1  0.938700  0.385600  0.295700  1.0  0.2556
  H  H391  1  0.015400  0.370300  0.297200  1.0  0.1048
  H  H392  1  0.906600  0.427500  0.335600  1.0  0.1122
  H  H393  1  0.937700  0.204600  0.384000  1.0  0.223
  H  H394  1  0.966900  0.270000  0.377600  1.0  0.1357
  H  H395  1  0.012300  0.273000  0.371800  1.0  0.1307
  H  H396  1  0.015500  0.202300  0.369800  1.0  0.1075
  H  H397  1  0.427300  0.592800  0.336200  1.0  0.1116
  H  H398  1  0.513200  0.871800  0.227900  1.0  0.1402
  H  H399  1  0.467700  0.877000  0.229800  1.0  0.1343
  H  H400  1  0.438700  0.885600  0.295700  1.0  0.2556
  H  H401  1  0.515400  0.870300  0.297200  1.0  0.1048
  H  H402  1  0.406600  0.927500  0.335600  1.0  0.1122
  H  H403  1  0.437700  0.704600  0.384000  1.0  0.223
  H  H404  1  0.466900  0.770000  0.377600  1.0  0.1357
  H  H405  1  0.512300  0.773000  0.371800  1.0  0.1307
  H  H406  1  0.515500  0.702300  0.369800  1.0  0.1075
  H  H407  1  0.427300  0.092800  0.836200  1.0  0.1116
  H  H408  1  0.513200  0.371800  0.727900  1.0  0.1402
  H  H409  1  0.467700  0.377000  0.729800  1.0  0.1343
  H  H410  1  0.438700  0.385600  0.795700  1.0  0.2556
  H  H411  1  0.515400  0.370300  0.797200  1.0  0.1048
  H  H412  1  0.406600  0.427500  0.835600  1.0  0.1122
  H  H413  1  0.437700  0.204600  0.884000  1.0  0.223
  H  H414  1  0.466900  0.270000  0.877600  1.0  0.1357
  H  H415  1  0.512300  0.273000  0.871800  1.0  0.1307
  H  H416  1  0.515500  0.202300  0.869800  1.0  0.1075
  H  H417  1  0.163800  0.072700  0.592800  1.0  0.1114
  H  H418  1  0.272100  0.986800  0.871800  1.0  0.1389
  H  H419  1  0.270200  0.032300  0.877000  1.0  0.1335
  H  H420  1  0.204300  0.061300  0.885600  1.0  0.2548
  H  H421  1  0.202800  0.984600  0.870300  1.0  0.1053
  H  H422  1  0.164400  0.093400  0.927500  1.0  0.1125
  H  H423  1  0.116000  0.062300  0.704600  1.0  0.2221
  H  H424  1  0.122400  0.033100  0.770000  1.0  0.1349
  H  H425  1  0.128200  0.987700  0.773000  1.0  0.1321
  H  H426  1  0.130200  0.984500  0.702300  1.0  0.1099
  H  H427  1  0.163800  0.572700  0.092800  1.0  0.1114
  H  H428  1  0.272100  0.486800  0.371800  1.0  0.1389
  H  H429  1  0.270200  0.532300  0.377000  1.0  0.1335
  H  H430  1  0.204300  0.561300  0.385600  1.0  0.2548
  H  H431  1  0.202800  0.484600  0.370300  1.0  0.1053
  H  H432  1  0.164400  0.593400  0.427500  1.0  0.1125
  H  H433  1  0.116000  0.562300  0.204600  1.0  0.2221
  H  H434  1  0.122400  0.533100  0.270000  1.0  0.1349
  H  H435  1  0.128200  0.487700  0.273000  1.0  0.1321
  H  H436  1  0.130200  0.484500  0.202300  1.0  0.1099
  H  H437  1  0.663800  0.072700  0.092800  1.0  0.1114
  H  H438  1  0.772100  0.986800  0.371800  1.0  0.1389
  H  H439  1  0.770200  0.032300  0.377000  1.0  0.1335
  H  H440  1  0.704300  0.061300  0.385600  1.0  0.2548
  H  H441  1  0.702800  0.984600  0.370300  1.0  0.1053
  H  H442  1  0.664400  0.093400  0.427500  1.0  0.1125
  H  H443  1  0.616000  0.062300  0.204600  1.0  0.2221
  H  H444  1  0.622400  0.033100  0.270000  1.0  0.1349
  H  H445  1  0.628200  0.987700  0.273000  1.0  0.1321
  H  H446  1  0.630200  0.984500  0.202300  1.0  0.1099
  H  H447  1  0.663800  0.572700  0.592800  1.0  0.1114
  H  H448  1  0.772100  0.486800  0.871800  1.0  0.1389
  H  H449  1  0.770200  0.532300  0.877000  1.0  0.1335
  H  H450  1  0.704300  0.561300  0.885600  1.0  0.2548
  H  H451  1  0.702800  0.484600  0.870300  1.0  0.1053
  H  H452  1  0.664400  0.593400  0.927500  1.0  0.1125
  H  H453  1  0.616000  0.562300  0.704600  1.0  0.2221
  H  H454  1  0.622400  0.533100  0.770000  1.0  0.1349
  H  H455  1  0.628200  0.487700  0.773000  1.0  0.1321
  H  H456  1  0.630200  0.484500  0.702300  1.0  0.1099
  H  H457  1  0.836200  0.072700  0.407200  1.0  0.1115
  H  H458  1  0.727900  0.986800  0.128200  1.0  0.1396
  H  H459  1  0.729800  0.032300  0.123000  1.0  0.1345
  H  H460  1  0.795700  0.061300  0.114400  1.0  0.2551
  H  H461  1  0.797200  0.984600  0.129700  1.0  0.1061
  H  H462  1  0.835600  0.093400  0.072500  1.0  0.1122
  H  H463  1  0.884000  0.062300  0.295400  1.0  0.2218
  H  H464  1  0.877600  0.033100  0.230000  1.0  0.1356
  H  H465  1  0.871800  0.987700  0.227000  1.0  0.1311
  H  H466  1  0.869800  0.984500  0.297700  1.0  0.1106
  H  H467  1  0.836200  0.572700  0.907200  1.0  0.1115
  H  H468  1  0.727900  0.486800  0.628200  1.0  0.1396
  H  H469  1  0.729800  0.532300  0.623000  1.0  0.1345
  H  H470  1  0.795700  0.561300  0.614400  1.0  0.2551
  H  H471  1  0.797200  0.484600  0.629700  1.0  0.1061
  H  H472  1  0.835600  0.593400  0.572500  1.0  0.1122
  H  H473  1  0.884000  0.562300  0.795400  1.0  0.2218
  H  H474  1  0.877600  0.533100  0.730000  1.0  0.1356
  H  H475  1  0.871800  0.487700  0.727000  1.0  0.1311
  H  H476  1  0.869800  0.484500  0.797700  1.0  0.1106
  H  H477  1  0.336200  0.072700  0.907200  1.0  0.1115
  H  H478  1  0.227900  0.986800  0.628200  1.0  0.1396
  H  H479  1  0.229800  0.032300  0.623000  1.0  0.1345
  H  H480  1  0.295700  0.061300  0.614400  1.0  0.2551
  H  H481  1  0.297200  0.984600  0.629700  1.0  0.1061
  H  H482  1  0.335600  0.093400  0.572500  1.0  0.1122
  H  H483  1  0.384000  0.062300  0.795400  1.0  0.2218
  H  H484  1  0.377600  0.033100  0.730000  1.0  0.1356
  H  H485  1  0.371800  0.987700  0.727000  1.0  0.1311
  H  H486  1  0.369800  0.984500  0.797700  1.0  0.1106
  H  H487  1  0.336200  0.572700  0.407200  1.0  0.1115
  H  H488  1  0.227900  0.486800  0.128200  1.0  0.1396
  H  H489  1  0.229800  0.532300  0.123000  1.0  0.1345
  H  H490  1  0.295700  0.561300  0.114400  1.0  0.2551
  H  H491  1  0.297200  0.484600  0.129700  1.0  0.1061
  H  H492  1  0.335600  0.593400  0.072500  1.0  0.1122
  H  H493  1  0.384000  0.562300  0.295400  1.0  0.2218
  H  H494  1  0.377600  0.533100  0.230000  1.0  0.1356
  H  H495  1  0.371800  0.487700  0.227000  1.0  0.1311
  H  H496  1  0.369800  0.484500  0.297700  1.0  0.1106
  H  H497  1  0.163800  0.927300  0.407200  1.0  0.1113
  H  H498  1  0.272100  0.013200  0.128200  1.0  0.1385
  H  H499  1  0.270200  0.967700  0.123000  1.0  0.1343
  H  H500  1  0.204300  0.938700  0.114400  1.0  0.2562
  H  H501  1  0.202800  0.015400  0.129700  1.0  0.1054
  H  H502  1  0.164400  0.906600  0.072500  1.0  0.1125
  H  H503  1  0.116000  0.937700  0.295400  1.0  0.223
  H  H504  1  0.122400  0.966900  0.230000  1.0  0.1363
  H  H505  1  0.128200  0.012300  0.227000  1.0  0.131
  H  H506  1  0.130200  0.015500  0.297700  1.0  0.1095
  H  H507  1  0.163800  0.427300  0.907200  1.0  0.1113
  H  H508  1  0.272100  0.513200  0.628200  1.0  0.1385
  H  H509  1  0.270200  0.467700  0.623000  1.0  0.1343
  H  H510  1  0.204300  0.438700  0.614400  1.0  0.2562
  H  H511  1  0.202800  0.515400  0.629700  1.0  0.1054
  H  H512  1  0.164400  0.406600  0.572500  1.0  0.1125
  H  H513  1  0.116000  0.437700  0.795400  1.0  0.223
  H  H514  1  0.122400  0.466900  0.730000  1.0  0.1363
  H  H515  1  0.128200  0.512300  0.727000  1.0  0.131
  H  H516  1  0.130200  0.515500  0.797700  1.0  0.1095
  H  H517  1  0.663800  0.927300  0.907200  1.0  0.1113
  H  H518  1  0.772100  0.013200  0.628200  1.0  0.1385
  H  H519  1  0.770200  0.967700  0.623000  1.0  0.1343
  H  H520  1  0.704300  0.938700  0.614400  1.0  0.2562
  H  H521  1  0.702800  0.015400  0.629700  1.0  0.1054
  H  H522  1  0.664400  0.906600  0.572500  1.0  0.1125
  H  H523  1  0.616000  0.937700  0.795400  1.0  0.223
  H  H524  1  0.622400  0.966900  0.730000  1.0  0.1363
  H  H525  1  0.628200  0.012300  0.727000  1.0  0.131
  H  H526  1  0.630200  0.015500  0.797700  1.0  0.1095
  H  H527  1  0.663800  0.427300  0.407200  1.0  0.1113
  H  H528  1  0.772100  0.513200  0.128200  1.0  0.1385
  H  H529  1  0.770200  0.467700  0.123000  1.0  0.1343
  H  H530  1  0.704300  0.438700  0.114400  1.0  0.2562
  H  H531  1  0.702800  0.515400  0.129700  1.0  0.1054
  H  H532  1  0.664400  0.406600  0.072500  1.0  0.1125
  H  H533  1  0.616000  0.437700  0.295400  1.0  0.223
  H  H534  1  0.622400  0.466900  0.230000  1.0  0.1363
  H  H535  1  0.628200  0.512300  0.227000  1.0  0.131
  H  H536  1  0.630200  0.515500  0.297700  1.0  0.1095
  H  H537  1  0.836200  0.927300  0.592800  1.0  0.1111
  H  H538  1  0.727900  0.013200  0.871800  1.0  0.1388
  H  H539  1  0.729800  0.967700  0.877000  1.0  0.1344
  H  H540  1  0.795700  0.938700  0.885600  1.0  0.2565
  H  H541  1  0.797200  0.015400  0.870300  1.0  0.1042
  H  H542  1  0.835600  0.906600  0.927500  1.0  0.1121
  H  H543  1  0.884000  0.937700  0.704600  1.0  0.2225
  H  H544  1  0.877600  0.966900  0.770000  1.0  0.1363
  H  H545  1  0.871800  0.012300  0.773000  1.0  0.1311
  H  H546  1  0.869800  0.015500  0.702300  1.0  0.11
  H  H547  1  0.836200  0.427300  0.092800  1.0  0.1111
  H  H548  1  0.727900  0.513200  0.371800  1.0  0.1388
  H  H549  1  0.729800  0.467700  0.377000  1.0  0.1344
  H  H550  1  0.795700  0.438700  0.385600  1.0  0.2565
  H  H551  1  0.797200  0.515400  0.370300  1.0  0.1042
  H  H552  1  0.835600  0.406600  0.427500  1.0  0.1121
  H  H553  1  0.884000  0.437700  0.204600  1.0  0.2225
  H  H554  1  0.877600  0.466900  0.270000  1.0  0.1363
  H  H555  1  0.871800  0.512300  0.273000  1.0  0.1311
  H  H556  1  0.869800  0.515500  0.202300  1.0  0.11
  H  H557  1  0.336200  0.927300  0.092800  1.0  0.1111
  H  H558  1  0.227900  0.013200  0.371800  1.0  0.1388
  H  H559  1  0.229800  0.967700  0.377000  1.0  0.1344
  H  H560  1  0.295700  0.938700  0.385600  1.0  0.2565
  H  H561  1  0.297200  0.015400  0.370300  1.0  0.1042
  H  H562  1  0.335600  0.906600  0.427500  1.0  0.1121
  H  H563  1  0.384000  0.937700  0.204600  1.0  0.2225
  H  H564  1  0.377600  0.966900  0.270000  1.0  0.1363
  H  H565  1  0.371800  0.012300  0.273000  1.0  0.1311
  H  H566  1  0.369800  0.015500  0.202300  1.0  0.11
  H  H567  1  0.336200  0.427300  0.592800  1.0  0.1111
  H  H568  1  0.227900  0.513200  0.871800  1.0  0.1388
  H  H569  1  0.229800  0.467700  0.877000  1.0  0.1344
  H  H570  1  0.295700  0.438700  0.885600  1.0  0.2565
  H  H571  1  0.297200  0.515400  0.870300  1.0  0.1042
  H  H572  1  0.335600  0.406600  0.927500  1.0  0.1121
  H  H573  1  0.384000  0.437700  0.704600  1.0  0.2225
  H  H574  1  0.377600  0.466900  0.770000  1.0  0.1363
  H  H575  1  0.371800  0.512300  0.773000  1.0  0.1311
  H  H576  1  0.369800  0.515500  0.702300  1.0  0.11
  C  C577  1  0.599700  0.142300  0.087800  1.0  -0.0764
  C  C578  1  0.882700  0.256700  0.007900  1.0  -0.337
  C  C579  1  0.632600  0.120100  0.077600  1.0  -0.0365
  C  C580  1  0.879700  0.132200  0.077000  1.0  -0.0079
  C  C581  1  0.868300  0.154800  0.041400  1.0  0.5819
  C  C582  1  0.863000  0.216800  0.008500  1.0  0.0739
  C  C583  1  0.756200  0.117300  0.007400  1.0  -0.3319
  C  C584  1  0.912700  0.142500  0.100100  1.0  -0.1219
  C  C585  1  0.818900  0.224600  0.007100  1.0  0.6691
  C  C586  1  0.724600  0.181700  0.007000  1.0  0.6604
  C  C587  1  0.754600  0.073700  0.003000  1.0  0.7409
  C  C588  1  0.654900  0.131500  0.041500  1.0  0.5429
  C  C589  1  0.926500  0.254500  0.002800  1.0  0.7257
  C  C590  1  0.716400  0.136800  0.007700  1.0  0.019
  C  C591  1  0.599700  0.642300  0.587800  1.0  -0.0764
  C  C592  1  0.882700  0.756700  0.507900  1.0  -0.337
  C  C593  1  0.632600  0.620100  0.577600  1.0  -0.0365
  C  C594  1  0.879700  0.632200  0.577000  1.0  -0.0079
  C  C595  1  0.868300  0.654800  0.541400  1.0  0.5819
  C  C596  1  0.863000  0.716800  0.508500  1.0  0.0739
  C  C597  1  0.756200  0.617300  0.507400  1.0  -0.3319
  C  C598  1  0.912700  0.642500  0.600100  1.0  -0.1219
  C  C599  1  0.818900  0.724600  0.507100  1.0  0.6691
  C  C600  1  0.724600  0.681700  0.507000  1.0  0.6604
  C  C601  1  0.754600  0.573700  0.503000  1.0  0.7409
  C  C602  1  0.654900  0.631500  0.541500  1.0  0.5429
  C  C603  1  0.926500  0.754500  0.502800  1.0  0.7257
  C  C604  1  0.716400  0.636800  0.507700  1.0  0.019
  C  C605  1  0.099700  0.142300  0.587800  1.0  -0.0764
  C  C606  1  0.382700  0.256700  0.507900  1.0  -0.337
  C  C607  1  0.132600  0.120100  0.577600  1.0  -0.0365
  C  C608  1  0.379700  0.132200  0.577000  1.0  -0.0079
  C  C609  1  0.368300  0.154800  0.541400  1.0  0.5819
  C  C610  1  0.363000  0.216800  0.508500  1.0  0.0739
  C  C611  1  0.256200  0.117300  0.507400  1.0  -0.3319
  C  C612  1  0.412700  0.142500  0.600100  1.0  -0.1219
  C  C613  1  0.318900  0.224600  0.507100  1.0  0.6691
  C  C614  1  0.224600  0.181700  0.507000  1.0  0.6604
  C  C615  1  0.254600  0.073700  0.503000  1.0  0.7409
  C  C616  1  0.154900  0.131500  0.541500  1.0  0.5429
  C  C617  1  0.426500  0.254500  0.502800  1.0  0.7257
  C  C618  1  0.216400  0.136800  0.507700  1.0  0.019
  C  C619  1  0.099700  0.642300  0.087800  1.0  -0.0764
  C  C620  1  0.382700  0.756700  0.007900  1.0  -0.337
  C  C621  1  0.132600  0.620100  0.077600  1.0  -0.0365
  C  C622  1  0.379700  0.632200  0.077000  1.0  -0.0079
  C  C623  1  0.368300  0.654800  0.041400  1.0  0.5819
  C  C624  1  0.363000  0.716800  0.008500  1.0  0.0739
  C  C625  1  0.256200  0.617300  0.007400  1.0  -0.3319
  C  C626  1  0.412700  0.642500  0.100100  1.0  -0.1219
  C  C627  1  0.318900  0.724600  0.007100  1.0  0.6691
  C  C628  1  0.224600  0.681700  0.007000  1.0  0.6604
  C  C629  1  0.254600  0.573700  0.003000  1.0  0.7409
  C  C630  1  0.154900  0.631500  0.041500  1.0  0.5429
  C  C631  1  0.426500  0.754500  0.002800  1.0  0.7257
  C  C632  1  0.216400  0.636800  0.007700  1.0  0.019
  C  C633  1  0.400300  0.857700  0.087800  1.0  -0.075
  C  C634  1  0.117300  0.743300  0.007900  1.0  -0.3356
  C  C635  1  0.367400  0.879900  0.077600  1.0  -0.036
  C  C636  1  0.120300  0.867800  0.077000  1.0  -0.0075
  C  C637  1  0.131700  0.845200  0.041400  1.0  0.582
  C  C638  1  0.137000  0.783200  0.008500  1.0  0.0741
  C  C639  1  0.243800  0.882700  0.007400  1.0  -0.3323
  C  C640  1  0.087300  0.857500  0.100100  1.0  -0.1207
  C  C641  1  0.181100  0.775400  0.007100  1.0  0.6701
  C  C642  1  0.275400  0.818300  0.007000  1.0  0.6604
  C  C643  1  0.245400  0.926300  0.003000  1.0  0.7405
  C  C644  1  0.345100  0.868500  0.041500  1.0  0.5432
  C  C645  1  0.073500  0.745500  0.002800  1.0  0.7249
  C  C646  1  0.283600  0.863200  0.007700  1.0  0.0179
  C  C647  1  0.400300  0.357700  0.587800  1.0  -0.075
  C  C648  1  0.117300  0.243300  0.507900  1.0  -0.3356
  C  C649  1  0.367400  0.379900  0.577600  1.0  -0.036
  C  C650  1  0.120300  0.367800  0.577000  1.0  -0.0075
  C  C651  1  0.131700  0.345200  0.541400  1.0  0.582
  C  C652  1  0.137000  0.283200  0.508500  1.0  0.0741
  C  C653  1  0.243800  0.382700  0.507400  1.0  -0.3323
  C  C654  1  0.087300  0.357500  0.600100  1.0  -0.1207
  C  C655  1  0.181100  0.275400  0.507100  1.0  0.6701
  C  C656  1  0.275400  0.318300  0.507000  1.0  0.6604
  C  C657  1  0.245400  0.426300  0.503000  1.0  0.7405
  C  C658  1  0.345100  0.368500  0.541500  1.0  0.5432
  C  C659  1  0.073500  0.245500  0.502800  1.0  0.7249
  C  C660  1  0.283600  0.363200  0.507700  1.0  0.0179
  C  C661  1  0.900300  0.857700  0.587800  1.0  -0.075
  C  C662  1  0.617300  0.743300  0.507900  1.0  -0.3356
  C  C663  1  0.867400  0.879900  0.577600  1.0  -0.036
  C  C664  1  0.620300  0.867800  0.577000  1.0  -0.0075
  C  C665  1  0.631700  0.845200  0.541400  1.0  0.582
  C  C666  1  0.637000  0.783200  0.508500  1.0  0.0741
  C  C667  1  0.743800  0.882700  0.507400  1.0  -0.3323
  C  C668  1  0.587300  0.857500  0.600100  1.0  -0.1207
  C  C669  1  0.681100  0.775400  0.507100  1.0  0.6701
  C  C670  1  0.775400  0.818300  0.507000  1.0  0.6604
  C  C671  1  0.745400  0.926300  0.503000  1.0  0.7405
  C  C672  1  0.845100  0.868500  0.541500  1.0  0.5432
  C  C673  1  0.573500  0.745500  0.502800  1.0  0.7249
  C  C674  1  0.783600  0.863200  0.507700  1.0  0.0179
  C  C675  1  0.900300  0.357700  0.087800  1.0  -0.075
  C  C676  1  0.617300  0.243300  0.007900  1.0  -0.3356
  C  C677  1  0.867400  0.379900  0.077600  1.0  -0.036
  C  C678  1  0.620300  0.367800  0.077000  1.0  -0.0075
  C  C679  1  0.631700  0.345200  0.041400  1.0  0.582
  C  C680  1  0.637000  0.283200  0.008500  1.0  0.0741
  C  C681  1  0.743800  0.382700  0.007400  1.0  -0.3323
  C  C682  1  0.587300  0.357500  0.100100  1.0  -0.1207
  C  C683  1  0.681100  0.275400  0.007100  1.0  0.6701
  C  C684  1  0.775400  0.318300  0.007000  1.0  0.6604
  C  C685  1  0.745400  0.426300  0.003000  1.0  0.7405
  C  C686  1  0.845100  0.368500  0.041500  1.0  0.5432
  C  C687  1  0.573500  0.245500  0.002800  1.0  0.7249
  C  C688  1  0.783600  0.363200  0.007700  1.0  0.0179
  C  C689  1  0.400300  0.142300  0.912200  1.0  -0.076
  C  C690  1  0.117300  0.256700  0.992100  1.0  -0.3359
  C  C691  1  0.367400  0.120100  0.922400  1.0  -0.0358
  C  C692  1  0.120300  0.132200  0.923000  1.0  -0.008
  C  C693  1  0.131700  0.154800  0.958600  1.0  0.5823
  C  C694  1  0.137000  0.216800  0.991500  1.0  0.0736
  C  C695  1  0.243800  0.117300  0.992600  1.0  -0.3313
  C  C696  1  0.087300  0.142500  0.899900  1.0  -0.1225
  C  C697  1  0.181100  0.224600  0.992900  1.0  0.6706
  C  C698  1  0.275400  0.181700  0.993000  1.0  0.6607
  C  C699  1  0.245400  0.073700  0.997000  1.0  0.7404
  C  C700  1  0.345100  0.131500  0.958500  1.0  0.5434
  C  C701  1  0.073500  0.254500  0.997200  1.0  0.7247
  C  C702  1  0.283600  0.136800  0.992300  1.0  0.0192
  C  C703  1  0.400300  0.642300  0.412200  1.0  -0.076
  C  C704  1  0.117300  0.756700  0.492100  1.0  -0.3359
  C  C705  1  0.367400  0.620100  0.422400  1.0  -0.0358
  C  C706  1  0.120300  0.632200  0.423000  1.0  -0.008
  C  C707  1  0.131700  0.654800  0.458600  1.0  0.5823
  C  C708  1  0.137000  0.716800  0.491500  1.0  0.0736
  C  C709  1  0.243800  0.617300  0.492600  1.0  -0.3313
  C  C710  1  0.087300  0.642500  0.399900  1.0  -0.1225
  C  C711  1  0.181100  0.724600  0.492900  1.0  0.6706
  C  C712  1  0.275400  0.681700  0.493000  1.0  0.6607
  C  C713  1  0.245400  0.573700  0.497000  1.0  0.7404
  C  C714  1  0.345100  0.631500  0.458500  1.0  0.5434
  C  C715  1  0.073500  0.754500  0.497200  1.0  0.7247
  C  C716  1  0.283600  0.636800  0.492300  1.0  0.0192
  C  C717  1  0.900300  0.142300  0.412200  1.0  -0.076
  C  C718  1  0.617300  0.256700  0.492100  1.0  -0.3359
  C  C719  1  0.867400  0.120100  0.422400  1.0  -0.0358
  C  C720  1  0.620300  0.132200  0.423000  1.0  -0.008
  C  C721  1  0.631700  0.154800  0.458600  1.0  0.5823
  C  C722  1  0.637000  0.216800  0.491500  1.0  0.0736
  C  C723  1  0.743800  0.117300  0.492600  1.0  -0.3313
  C  C724  1  0.587300  0.142500  0.399900  1.0  -0.1225
  C  C725  1  0.681100  0.224600  0.492900  1.0  0.6706
  C  C726  1  0.775400  0.181700  0.493000  1.0  0.6607
  C  C727  1  0.745400  0.073700  0.497000  1.0  0.7404
  C  C728  1  0.845100  0.131500  0.458500  1.0  0.5434
  C  C729  1  0.573500  0.254500  0.497200  1.0  0.7247
  C  C730  1  0.783600  0.136800  0.492300  1.0  0.0192
  C  C731  1  0.900300  0.642300  0.912200  1.0  -0.076
  C  C732  1  0.617300  0.756700  0.992100  1.0  -0.3359
  C  C733  1  0.867400  0.620100  0.922400  1.0  -0.0358
  C  C734  1  0.620300  0.632200  0.923000  1.0  -0.008
  C  C735  1  0.631700  0.654800  0.958600  1.0  0.5823
  C  C736  1  0.637000  0.716800  0.991500  1.0  0.0736
  C  C737  1  0.743800  0.617300  0.992600  1.0  -0.3313
  C  C738  1  0.587300  0.642500  0.899900  1.0  -0.1225
  C  C739  1  0.681100  0.724600  0.992900  1.0  0.6706
  C  C740  1  0.775400  0.681700  0.993000  1.0  0.6607
  C  C741  1  0.745400  0.573700  0.997000  1.0  0.7404
  C  C742  1  0.845100  0.631500  0.958500  1.0  0.5434
  C  C743  1  0.573500  0.754500  0.997200  1.0  0.7247
  C  C744  1  0.783600  0.636800  0.992300  1.0  0.0192
  C  C745  1  0.599700  0.857700  0.912200  1.0  -0.076
  C  C746  1  0.882700  0.743300  0.992100  1.0  -0.3366
  C  C747  1  0.632600  0.879900  0.922400  1.0  -0.0363
  C  C748  1  0.879700  0.867800  0.923000  1.0  -0.0078
  C  C749  1  0.868300  0.845200  0.958600  1.0  0.5806
  C  C750  1  0.863000  0.783200  0.991500  1.0  0.0742
  C  C751  1  0.756200  0.882700  0.992600  1.0  -0.3315
  C  C752  1  0.912700  0.857500  0.899900  1.0  -0.1201
  C  C753  1  0.818900  0.775400  0.992900  1.0  0.6698
  C  C754  1  0.724600  0.818300  0.993000  1.0  0.6611
  C  C755  1  0.754600  0.926300  0.997000  1.0  0.7403
  C  C756  1  0.654900  0.868500  0.958500  1.0  0.5433
  C  C757  1  0.926500  0.745500  0.997200  1.0  0.7259
  C  C758  1  0.716400  0.863200  0.992300  1.0  0.0187
  C  C759  1  0.599700  0.357700  0.412200  1.0  -0.076
  C  C760  1  0.882700  0.243300  0.492100  1.0  -0.3366
  C  C761  1  0.632600  0.379900  0.422400  1.0  -0.0363
  C  C762  1  0.879700  0.367800  0.423000  1.0  -0.0078
  C  C763  1  0.868300  0.345200  0.458600  1.0  0.5806
  C  C764  1  0.863000  0.283200  0.491500  1.0  0.0742
  C  C765  1  0.756200  0.382700  0.492600  1.0  -0.3315
  C  C766  1  0.912700  0.357500  0.399900  1.0  -0.1201
  C  C767  1  0.818900  0.275400  0.492900  1.0  0.6698
  C  C768  1  0.724600  0.318300  0.493000  1.0  0.6611
  C  C769  1  0.754600  0.426300  0.497000  1.0  0.7403
  C  C770  1  0.654900  0.368500  0.458500  1.0  0.5433
  C  C771  1  0.926500  0.245500  0.497200  1.0  0.7259
  C  C772  1  0.716400  0.363200  0.492300  1.0  0.0187
  C  C773  1  0.099700  0.857700  0.412200  1.0  -0.076
  C  C774  1  0.382700  0.743300  0.492100  1.0  -0.3366
  C  C775  1  0.132600  0.879900  0.422400  1.0  -0.0363
  C  C776  1  0.379700  0.867800  0.423000  1.0  -0.0078
  C  C777  1  0.368300  0.845200  0.458600  1.0  0.5806
  C  C778  1  0.363000  0.783200  0.491500  1.0  0.0742
  C  C779  1  0.256200  0.882700  0.492600  1.0  -0.3315
  C  C780  1  0.412700  0.857500  0.399900  1.0  -0.1201
  C  C781  1  0.318900  0.775400  0.492900  1.0  0.6698
  C  C782  1  0.224600  0.818300  0.493000  1.0  0.6611
  C  C783  1  0.254600  0.926300  0.497000  1.0  0.7403
  C  C784  1  0.154900  0.868500  0.458500  1.0  0.5433
  C  C785  1  0.426500  0.745500  0.497200  1.0  0.7259
  C  C786  1  0.216400  0.863200  0.492300  1.0  0.0187
  C  C787  1  0.099700  0.357700  0.912200  1.0  -0.076
  C  C788  1  0.382700  0.243300  0.992100  1.0  -0.3366
  C  C789  1  0.132600  0.379900  0.922400  1.0  -0.0363
  C  C790  1  0.379700  0.367800  0.923000  1.0  -0.0078
  C  C791  1  0.368300  0.345200  0.958600  1.0  0.5806
  C  C792  1  0.363000  0.283200  0.991500  1.0  0.0742
  C  C793  1  0.256200  0.382700  0.992600  1.0  -0.3315
  C  C794  1  0.412700  0.357500  0.899900  1.0  -0.1201
  C  C795  1  0.318900  0.275400  0.992900  1.0  0.6698
  C  C796  1  0.224600  0.318300  0.993000  1.0  0.6611
  C  C797  1  0.254600  0.426300  0.997000  1.0  0.7403
  C  C798  1  0.154900  0.368500  0.958500  1.0  0.5433
  C  C799  1  0.426500  0.245500  0.997200  1.0  0.7259
  C  C800  1  0.216400  0.363200  0.992300  1.0  0.0187
  C  C801  1  0.087800  0.599700  0.142300  1.0  -0.0769
  C  C802  1  0.007900  0.882700  0.256700  1.0  -0.3383
  C  C803  1  0.077600  0.632600  0.120100  1.0  -0.0352
  C  C804  1  0.077000  0.879700  0.132200  1.0  -0.0069
  C  C805  1  0.041400  0.868300  0.154800  1.0  0.5823
  C  C806  1  0.008500  0.863000  0.216800  1.0  0.0727
  C  C807  1  0.007400  0.756200  0.117300  1.0  -0.329
  C  C808  1  0.100100  0.912700  0.142500  1.0  -0.1204
  C  C809  1  0.007100  0.818900  0.224600  1.0  0.6704
  C  C810  1  0.007000  0.724600  0.181700  1.0  0.6624
  C  C811  1  0.003000  0.754600  0.073700  1.0  0.7454
  C  C812  1  0.041500  0.654900  0.131500  1.0  0.543
  C  C813  1  0.002800  0.926500  0.254500  1.0  0.726
  C  C814  1  0.007700  0.716400  0.136800  1.0  0.019
  C  C815  1  0.087800  0.099700  0.642300  1.0  -0.0769
  C  C816  1  0.007900  0.382700  0.756700  1.0  -0.3383
  C  C817  1  0.077600  0.132600  0.620100  1.0  -0.0352
  C  C818  1  0.077000  0.379700  0.632200  1.0  -0.0069
  C  C819  1  0.041400  0.368300  0.654800  1.0  0.5823
  C  C820  1  0.008500  0.363000  0.716800  1.0  0.0727
  C  C821  1  0.007400  0.256200  0.617300  1.0  -0.329
  C  C822  1  0.100100  0.412700  0.642500  1.0  -0.1204
  C  C823  1  0.007100  0.318900  0.724600  1.0  0.6704
  C  C824  1  0.007000  0.224600  0.681700  1.0  0.6624
  C  C825  1  0.003000  0.254600  0.573700  1.0  0.7454
  C  C826  1  0.041500  0.154900  0.631500  1.0  0.543
  C  C827  1  0.002800  0.426500  0.754500  1.0  0.726
  C  C828  1  0.007700  0.216400  0.636800  1.0  0.019
  C  C829  1  0.587800  0.599700  0.642300  1.0  -0.0769
  C  C830  1  0.507900  0.882700  0.756700  1.0  -0.3383
  C  C831  1  0.577600  0.632600  0.620100  1.0  -0.0352
  C  C832  1  0.577000  0.879700  0.632200  1.0  -0.0069
  C  C833  1  0.541400  0.868300  0.654800  1.0  0.5823
  C  C834  1  0.508500  0.863000  0.716800  1.0  0.0727
  C  C835  1  0.507400  0.756200  0.617300  1.0  -0.329
  C  C836  1  0.600100  0.912700  0.642500  1.0  -0.1204
  C  C837  1  0.507100  0.818900  0.724600  1.0  0.6704
  C  C838  1  0.507000  0.724600  0.681700  1.0  0.6624
  C  C839  1  0.503000  0.754600  0.573700  1.0  0.7454
  C  C840  1  0.541500  0.654900  0.631500  1.0  0.543
  C  C841  1  0.502800  0.926500  0.754500  1.0  0.726
  C  C842  1  0.507700  0.716400  0.636800  1.0  0.019
  C  C843  1  0.587800  0.099700  0.142300  1.0  -0.0769
  C  C844  1  0.507900  0.382700  0.256700  1.0  -0.3383
  C  C845  1  0.577600  0.132600  0.120100  1.0  -0.0352
  C  C846  1  0.577000  0.379700  0.132200  1.0  -0.0069
  C  C847  1  0.541400  0.368300  0.154800  1.0  0.5823
  C  C848  1  0.508500  0.363000  0.216800  1.0  0.0727
  C  C849  1  0.507400  0.256200  0.117300  1.0  -0.329
  C  C850  1  0.600100  0.412700  0.142500  1.0  -0.1204
  C  C851  1  0.507100  0.318900  0.224600  1.0  0.6704
  C  C852  1  0.507000  0.224600  0.181700  1.0  0.6624
  C  C853  1  0.503000  0.254600  0.073700  1.0  0.7454
  C  C854  1  0.541500  0.154900  0.131500  1.0  0.543
  C  C855  1  0.502800  0.426500  0.254500  1.0  0.726
  C  C856  1  0.507700  0.216400  0.136800  1.0  0.019
  C  C857  1  0.087800  0.400300  0.857700  1.0  -0.0773
  C  C858  1  0.007900  0.117300  0.743300  1.0  -0.3384
  C  C859  1  0.077600  0.367400  0.879900  1.0  -0.0352
  C  C860  1  0.077000  0.120300  0.867800  1.0  -0.0073
  C  C861  1  0.041400  0.131700  0.845200  1.0  0.5817
  C  C862  1  0.008500  0.137000  0.783200  1.0  0.0738
  C  C863  1  0.007400  0.243800  0.882700  1.0  -0.3298
  C  C864  1  0.100100  0.087300  0.857500  1.0  -0.121
  C  C865  1  0.007100  0.181100  0.775400  1.0  0.6704
  C  C866  1  0.007000  0.275400  0.818300  1.0  0.6621
  C  C867  1  0.003000  0.245400  0.926300  1.0  0.7427
  C  C868  1  0.041500  0.345100  0.868500  1.0  0.5403
  C  C869  1  0.002800  0.073500  0.745500  1.0  0.7261
  C  C870  1  0.007700  0.283600  0.863200  1.0  0.0197
  C  C871  1  0.087800  0.900300  0.357700  1.0  -0.0773
  C  C872  1  0.007900  0.617300  0.243300  1.0  -0.3384
  C  C873  1  0.077600  0.867400  0.379900  1.0  -0.0352
  C  C874  1  0.077000  0.620300  0.367800  1.0  -0.0073
  C  C875  1  0.041400  0.631700  0.345200  1.0  0.5817
  C  C876  1  0.008500  0.637000  0.283200  1.0  0.0738
  C  C877  1  0.007400  0.743800  0.382700  1.0  -0.3298
  C  C878  1  0.100100  0.587300  0.357500  1.0  -0.121
  C  C879  1  0.007100  0.681100  0.275400  1.0  0.6704
  C  C880  1  0.007000  0.775400  0.318300  1.0  0.6621
  C  C881  1  0.003000  0.745400  0.426300  1.0  0.7427
  C  C882  1  0.041500  0.845100  0.368500  1.0  0.5403
  C  C883  1  0.002800  0.573500  0.245500  1.0  0.7261
  C  C884  1  0.007700  0.783600  0.363200  1.0  0.0197
  C  C885  1  0.587800  0.400300  0.357700  1.0  -0.0773
  C  C886  1  0.507900  0.117300  0.243300  1.0  -0.3384
  C  C887  1  0.577600  0.367400  0.379900  1.0  -0.0352
  C  C888  1  0.577000  0.120300  0.367800  1.0  -0.0073
  C  C889  1  0.541400  0.131700  0.345200  1.0  0.5817
  C  C890  1  0.508500  0.137000  0.283200  1.0  0.0738
  C  C891  1  0.507400  0.243800  0.382700  1.0  -0.3298
  C  C892  1  0.600100  0.087300  0.357500  1.0  -0.121
  C  C893  1  0.507100  0.181100  0.275400  1.0  0.6704
  C  C894  1  0.507000  0.275400  0.318300  1.0  0.6621
  C  C895  1  0.503000  0.245400  0.426300  1.0  0.7427
  C  C896  1  0.541500  0.345100  0.368500  1.0  0.5403
  C  C897  1  0.502800  0.073500  0.245500  1.0  0.7261
  C  C898  1  0.507700  0.283600  0.363200  1.0  0.0197
  C  C899  1  0.587800  0.900300  0.857700  1.0  -0.0773
  C  C900  1  0.507900  0.617300  0.743300  1.0  -0.3384
  C  C901  1  0.577600  0.867400  0.879900  1.0  -0.0352
  C  C902  1  0.577000  0.620300  0.867800  1.0  -0.0073
  C  C903  1  0.541400  0.631700  0.845200  1.0  0.5817
  C  C904  1  0.508500  0.637000  0.783200  1.0  0.0738
  C  C905  1  0.507400  0.743800  0.882700  1.0  -0.3298
  C  C906  1  0.600100  0.587300  0.857500  1.0  -0.121
  C  C907  1  0.507100  0.681100  0.775400  1.0  0.6704
  C  C908  1  0.507000  0.775400  0.818300  1.0  0.6621
  C  C909  1  0.503000  0.745400  0.926300  1.0  0.7427
  C  C910  1  0.541500  0.845100  0.868500  1.0  0.5403
  C  C911  1  0.502800  0.573500  0.745500  1.0  0.7261
  C  C912  1  0.507700  0.783600  0.863200  1.0  0.0197
  C  C913  1  0.912200  0.400300  0.142300  1.0  -0.0774
  C  C914  1  0.992100  0.117300  0.256700  1.0  -0.3366
  C  C915  1  0.922400  0.367400  0.120100  1.0  -0.0357
  C  C916  1  0.923000  0.120300  0.132200  1.0  -0.0078
  C  C917  1  0.958600  0.131700  0.154800  1.0  0.5805
  C  C918  1  0.991500  0.137000  0.216800  1.0  0.0734
  C  C919  1  0.992600  0.243800  0.117300  1.0  -0.329
  C  C920  1  0.899900  0.087300  0.142500  1.0  -0.1192
  C  C921  1  0.992900  0.181100  0.224600  1.0  0.6705
  C  C922  1  0.993000  0.275400  0.181700  1.0  0.6629
  C  C923  1  0.997000  0.245400  0.073700  1.0  0.7442
  C  C924  1  0.958500  0.345100  0.131500  1.0  0.541
  C  C925  1  0.997200  0.073500  0.254500  1.0  0.7253
  C  C926  1  0.992300  0.283600  0.136800  1.0  0.0194
  C  C927  1  0.912200  0.900300  0.642300  1.0  -0.0774
  C  C928  1  0.992100  0.617300  0.756700  1.0  -0.3366
  C  C929  1  0.922400  0.867400  0.620100  1.0  -0.0357
  C  C930  1  0.923000  0.620300  0.632200  1.0  -0.0078
  C  C931  1  0.958600  0.631700  0.654800  1.0  0.5805
  C  C932  1  0.991500  0.637000  0.716800  1.0  0.0734
  C  C933  1  0.992600  0.743800  0.617300  1.0  -0.329
  C  C934  1  0.899900  0.587300  0.642500  1.0  -0.1192
  C  C935  1  0.992900  0.681100  0.724600  1.0  0.6705
  C  C936  1  0.993000  0.775400  0.681700  1.0  0.6629
  C  C937  1  0.997000  0.745400  0.573700  1.0  0.7442
  C  C938  1  0.958500  0.845100  0.631500  1.0  0.541
  C  C939  1  0.997200  0.573500  0.754500  1.0  0.7253
  C  C940  1  0.992300  0.783600  0.636800  1.0  0.0194
  C  C941  1  0.412200  0.400300  0.642300  1.0  -0.0774
  C  C942  1  0.492100  0.117300  0.756700  1.0  -0.3366
  C  C943  1  0.422400  0.367400  0.620100  1.0  -0.0357
  C  C944  1  0.423000  0.120300  0.632200  1.0  -0.0078
  C  C945  1  0.458600  0.131700  0.654800  1.0  0.5805
  C  C946  1  0.491500  0.137000  0.716800  1.0  0.0734
  C  C947  1  0.492600  0.243800  0.617300  1.0  -0.329
  C  C948  1  0.399900  0.087300  0.642500  1.0  -0.1192
  C  C949  1  0.492900  0.181100  0.724600  1.0  0.6705
  C  C950  1  0.493000  0.275400  0.681700  1.0  0.6629
  C  C951  1  0.497000  0.245400  0.573700  1.0  0.7442
  C  C952  1  0.458500  0.345100  0.631500  1.0  0.541
  C  C953  1  0.497200  0.073500  0.754500  1.0  0.7253
  C  C954  1  0.492300  0.283600  0.636800  1.0  0.0194
  C  C955  1  0.412200  0.900300  0.142300  1.0  -0.0774
  C  C956  1  0.492100  0.617300  0.256700  1.0  -0.3366
  C  C957  1  0.422400  0.867400  0.120100  1.0  -0.0357
  C  C958  1  0.423000  0.620300  0.132200  1.0  -0.0078
  C  C959  1  0.458600  0.631700  0.154800  1.0  0.5805
  C  C960  1  0.491500  0.637000  0.216800  1.0  0.0734
  C  C961  1  0.492600  0.743800  0.117300  1.0  -0.329
  C  C962  1  0.399900  0.587300  0.142500  1.0  -0.1192
  C  C963  1  0.492900  0.681100  0.224600  1.0  0.6705
  C  C964  1  0.493000  0.775400  0.181700  1.0  0.6629
  C  C965  1  0.497000  0.745400  0.073700  1.0  0.7442
  C  C966  1  0.458500  0.845100  0.131500  1.0  0.541
  C  C967  1  0.497200  0.573500  0.254500  1.0  0.7253
  C  C968  1  0.492300  0.783600  0.136800  1.0  0.0194
  C  C969  1  0.912200  0.599700  0.857700  1.0  -0.0778
  C  C970  1  0.992100  0.882700  0.743300  1.0  -0.3364
  C  C971  1  0.922400  0.632600  0.879900  1.0  -0.0359
  C  C972  1  0.923000  0.879700  0.867800  1.0  -0.0082
  C  C973  1  0.958600  0.868300  0.845200  1.0  0.5812
  C  C974  1  0.991500  0.863000  0.783200  1.0  0.0735
  C  C975  1  0.992600  0.756200  0.882700  1.0  -0.3299
  C  C976  1  0.899900  0.912700  0.857500  1.0  -0.1199
  C  C977  1  0.992900  0.818900  0.775400  1.0  0.6701
  C  C978  1  0.993000  0.724600  0.818300  1.0  0.6619
  C  C979  1  0.997000  0.754600  0.926300  1.0  0.7414
  C  C980  1  0.958500  0.654900  0.868500  1.0  0.5421
  C  C981  1  0.997200  0.926500  0.745500  1.0  0.7248
  C  C982  1  0.992300  0.716400  0.863200  1.0  0.0197
  C  C983  1  0.912200  0.099700  0.357700  1.0  -0.0778
  C  C984  1  0.992100  0.382700  0.243300  1.0  -0.3364
  C  C985  1  0.922400  0.132600  0.379900  1.0  -0.0359
  C  C986  1  0.923000  0.379700  0.367800  1.0  -0.0082
  C  C987  1  0.958600  0.368300  0.345200  1.0  0.5812
  C  C988  1  0.991500  0.363000  0.283200  1.0  0.0735
  C  C989  1  0.992600  0.256200  0.382700  1.0  -0.3299
  C  C990  1  0.899900  0.412700  0.357500  1.0  -0.1199
  C  C991  1  0.992900  0.318900  0.275400  1.0  0.6701
  C  C992  1  0.993000  0.224600  0.318300  1.0  0.6619
  C  C993  1  0.997000  0.254600  0.426300  1.0  0.7414
  C  C994  1  0.958500  0.154900  0.368500  1.0  0.5421
  C  C995  1  0.997200  0.426500  0.245500  1.0  0.7248
  C  C996  1  0.992300  0.216400  0.363200  1.0  0.0197
  C  C997  1  0.412200  0.599700  0.357700  1.0  -0.0778
  C  C998  1  0.492100  0.882700  0.243300  1.0  -0.3364
  C  C999  1  0.422400  0.632600  0.379900  1.0  -0.0359
  C  C1000  1  0.423000  0.879700  0.367800  1.0  -0.0082
  C  C1001  1  0.458600  0.868300  0.345200  1.0  0.5812
  C  C1002  1  0.491500  0.863000  0.283200  1.0  0.0735
  C  C1003  1  0.492600  0.756200  0.382700  1.0  -0.3299
  C  C1004  1  0.399900  0.912700  0.357500  1.0  -0.1199
  C  C1005  1  0.492900  0.818900  0.275400  1.0  0.6701
  C  C1006  1  0.493000  0.724600  0.318300  1.0  0.6619
  C  C1007  1  0.497000  0.754600  0.426300  1.0  0.7414
  C  C1008  1  0.458500  0.654900  0.368500  1.0  0.5421
  C  C1009  1  0.497200  0.926500  0.245500  1.0  0.7248
  C  C1010  1  0.492300  0.716400  0.363200  1.0  0.0197
  C  C1011  1  0.412200  0.099700  0.857700  1.0  -0.0778
  C  C1012  1  0.492100  0.382700  0.743300  1.0  -0.3364
  C  C1013  1  0.422400  0.132600  0.879900  1.0  -0.0359
  C  C1014  1  0.423000  0.379700  0.867800  1.0  -0.0082
  C  C1015  1  0.458600  0.368300  0.845200  1.0  0.5812
  C  C1016  1  0.491500  0.363000  0.783200  1.0  0.0735
  C  C1017  1  0.492600  0.256200  0.882700  1.0  -0.3299
  C  C1018  1  0.399900  0.412700  0.857500  1.0  -0.1199
  C  C1019  1  0.492900  0.318900  0.775400  1.0  0.6701
  C  C1020  1  0.493000  0.224600  0.818300  1.0  0.6619
  C  C1021  1  0.497000  0.254600  0.926300  1.0  0.7414
  C  C1022  1  0.458500  0.154900  0.868500  1.0  0.5421
  C  C1023  1  0.497200  0.426500  0.745500  1.0  0.7248
  C  C1024  1  0.492300  0.216400  0.863200  1.0  0.0197
  C  C1025  1  0.142300  0.087800  0.599700  1.0  -0.076
  C  C1026  1  0.256700  0.007900  0.882700  1.0  -0.334
  C  C1027  1  0.120100  0.077600  0.632600  1.0  -0.0364
  C  C1028  1  0.132200  0.077000  0.879700  1.0  -0.0082
  C  C1029  1  0.154800  0.041400  0.868300  1.0  0.5798
  C  C1030  1  0.216800  0.008500  0.863000  1.0  0.0738
  C  C1031  1  0.117300  0.007400  0.756200  1.0  -0.3283
  C  C1032  1  0.142500  0.100100  0.912700  1.0  -0.121
  C  C1033  1  0.224600  0.007100  0.818900  1.0  0.6732
  C  C1034  1  0.181700  0.007000  0.724600  1.0  0.6605
  C  C1035  1  0.073700  0.003000  0.754600  1.0  0.7368
  C  C1036  1  0.131500  0.041500  0.654900  1.0  0.5472
  C  C1037  1  0.254500  0.002800  0.926500  1.0  0.7273
  C  C1038  1  0.136800  0.007700  0.716400  1.0  0.0191
  C  C1039  1  0.142300  0.587800  0.099700  1.0  -0.076
  C  C1040  1  0.256700  0.507900  0.382700  1.0  -0.334
  C  C1041  1  0.120100  0.577600  0.132600  1.0  -0.0364
  C  C1042  1  0.132200  0.577000  0.379700  1.0  -0.0082
  C  C1043  1  0.154800  0.541400  0.368300  1.0  0.5798
  C  C1044  1  0.216800  0.508500  0.363000  1.0  0.0738
  C  C1045  1  0.117300  0.507400  0.256200  1.0  -0.3283
  C  C1046  1  0.142500  0.600100  0.412700  1.0  -0.121
  C  C1047  1  0.224600  0.507100  0.318900  1.0  0.6732
  C  C1048  1  0.181700  0.507000  0.224600  1.0  0.6605
  C  C1049  1  0.073700  0.503000  0.254600  1.0  0.7368
  C  C1050  1  0.131500  0.541500  0.154900  1.0  0.5472
  C  C1051  1  0.254500  0.502800  0.426500  1.0  0.7273
  C  C1052  1  0.136800  0.507700  0.216400  1.0  0.0191
  C  C1053  1  0.642300  0.087800  0.099700  1.0  -0.076
  C  C1054  1  0.756700  0.007900  0.382700  1.0  -0.334
  C  C1055  1  0.620100  0.077600  0.132600  1.0  -0.0364
  C  C1056  1  0.632200  0.077000  0.379700  1.0  -0.0082
  C  C1057  1  0.654800  0.041400  0.368300  1.0  0.5798
  C  C1058  1  0.716800  0.008500  0.363000  1.0  0.0738
  C  C1059  1  0.617300  0.007400  0.256200  1.0  -0.3283
  C  C1060  1  0.642500  0.100100  0.412700  1.0  -0.121
  C  C1061  1  0.724600  0.007100  0.318900  1.0  0.6732
  C  C1062  1  0.681700  0.007000  0.224600  1.0  0.6605
  C  C1063  1  0.573700  0.003000  0.254600  1.0  0.7368
  C  C1064  1  0.631500  0.041500  0.154900  1.0  0.5472
  C  C1065  1  0.754500  0.002800  0.426500  1.0  0.7273
  C  C1066  1  0.636800  0.007700  0.216400  1.0  0.0191
  C  C1067  1  0.642300  0.587800  0.599700  1.0  -0.076
  C  C1068  1  0.756700  0.507900  0.882700  1.0  -0.334
  C  C1069  1  0.620100  0.577600  0.632600  1.0  -0.0364
  C  C1070  1  0.632200  0.577000  0.879700  1.0  -0.0082
  C  C1071  1  0.654800  0.541400  0.868300  1.0  0.5798
  C  C1072  1  0.716800  0.508500  0.863000  1.0  0.0738
  C  C1073  1  0.617300  0.507400  0.756200  1.0  -0.3283
  C  C1074  1  0.642500  0.600100  0.912700  1.0  -0.121
  C  C1075  1  0.724600  0.507100  0.818900  1.0  0.6732
  C  C1076  1  0.681700  0.507000  0.724600  1.0  0.6605
  C  C1077  1  0.573700  0.503000  0.754600  1.0  0.7368
  C  C1078  1  0.631500  0.541500  0.654900  1.0  0.5472
  C  C1079  1  0.754500  0.502800  0.926500  1.0  0.7273
  C  C1080  1  0.636800  0.507700  0.716400  1.0  0.0191
  C  C1081  1  0.857700  0.087800  0.400300  1.0  -0.0759
  C  C1082  1  0.743300  0.007900  0.117300  1.0  -0.3345
  C  C1083  1  0.879900  0.077600  0.367400  1.0  -0.0368
  C  C1084  1  0.867800  0.077000  0.120300  1.0  -0.008
  C  C1085  1  0.845200  0.041400  0.131700  1.0  0.5818
  C  C1086  1  0.783200  0.008500  0.137000  1.0  0.0734
  C  C1087  1  0.882700  0.007400  0.243800  1.0  -0.3286
  C  C1088  1  0.857500  0.100100  0.087300  1.0  -0.1213
  C  C1089  1  0.775400  0.007100  0.181100  1.0  0.673
  C  C1090  1  0.818300  0.007000  0.275400  1.0  0.6591
  C  C1091  1  0.926300  0.003000  0.245400  1.0  0.7381
  C  C1092  1  0.868500  0.041500  0.345100  1.0  0.5475
  C  C1093  1  0.745500  0.002800  0.073500  1.0  0.7285
  C  C1094  1  0.863200  0.007700  0.283600  1.0  0.0201
  C  C1095  1  0.857700  0.587800  0.900300  1.0  -0.0759
  C  C1096  1  0.743300  0.507900  0.617300  1.0  -0.3345
  C  C1097  1  0.879900  0.577600  0.867400  1.0  -0.0368
  C  C1098  1  0.867800  0.577000  0.620300  1.0  -0.008
  C  C1099  1  0.845200  0.541400  0.631700  1.0  0.5818
  C  C1100  1  0.783200  0.508500  0.637000  1.0  0.0734
  C  C1101  1  0.882700  0.507400  0.743800  1.0  -0.3286
  C  C1102  1  0.857500  0.600100  0.587300  1.0  -0.1213
  C  C1103  1  0.775400  0.507100  0.681100  1.0  0.673
  C  C1104  1  0.818300  0.507000  0.775400  1.0  0.6591
  C  C1105  1  0.926300  0.503000  0.745400  1.0  0.7381
  C  C1106  1  0.868500  0.541500  0.845100  1.0  0.5475
  C  C1107  1  0.745500  0.502800  0.573500  1.0  0.7285
  C  C1108  1  0.863200  0.507700  0.783600  1.0  0.0201
  C  C1109  1  0.357700  0.087800  0.900300  1.0  -0.0759
  C  C1110  1  0.243300  0.007900  0.617300  1.0  -0.3345
  C  C1111  1  0.379900  0.077600  0.867400  1.0  -0.0368
  C  C1112  1  0.367800  0.077000  0.620300  1.0  -0.008
  C  C1113  1  0.345200  0.041400  0.631700  1.0  0.5818
  C  C1114  1  0.283200  0.008500  0.637000  1.0  0.0734
  C  C1115  1  0.382700  0.007400  0.743800  1.0  -0.3286
  C  C1116  1  0.357500  0.100100  0.587300  1.0  -0.1213
  C  C1117  1  0.275400  0.007100  0.681100  1.0  0.673
  C  C1118  1  0.318300  0.007000  0.775400  1.0  0.6591
  C  C1119  1  0.426300  0.003000  0.745400  1.0  0.7381
  C  C1120  1  0.368500  0.041500  0.845100  1.0  0.5475
  C  C1121  1  0.245500  0.002800  0.573500  1.0  0.7285
  C  C1122  1  0.363200  0.007700  0.783600  1.0  0.0201
  C  C1123  1  0.357700  0.587800  0.400300  1.0  -0.0759
  C  C1124  1  0.243300  0.507900  0.117300  1.0  -0.3345
  C  C1125  1  0.379900  0.577600  0.367400  1.0  -0.0368
  C  C1126  1  0.367800  0.577000  0.120300  1.0  -0.008
  C  C1127  1  0.345200  0.541400  0.131700  1.0  0.5818
  C  C1128  1  0.283200  0.508500  0.137000  1.0  0.0734
  C  C1129  1  0.382700  0.507400  0.243800  1.0  -0.3286
  C  C1130  1  0.357500  0.600100  0.087300  1.0  -0.1213
  C  C1131  1  0.275400  0.507100  0.181100  1.0  0.673
  C  C1132  1  0.318300  0.507000  0.275400  1.0  0.6591
  C  C1133  1  0.426300  0.503000  0.245400  1.0  0.7381
  C  C1134  1  0.368500  0.541500  0.345100  1.0  0.5475
  C  C1135  1  0.245500  0.502800  0.073500  1.0  0.7285
  C  C1136  1  0.363200  0.507700  0.283600  1.0  0.0201
  C  C1137  1  0.142300  0.912200  0.400300  1.0  -0.0753
  C  C1138  1  0.256700  0.992100  0.117300  1.0  -0.3325
  C  C1139  1  0.120100  0.922400  0.367400  1.0  -0.0369
  C  C1140  1  0.132200  0.923000  0.120300  1.0  -0.0077
  C  C1141  1  0.154800  0.958600  0.131700  1.0  0.58
  C  C1142  1  0.216800  0.991500  0.137000  1.0  0.0738
  C  C1143  1  0.117300  0.992600  0.243800  1.0  -0.3274
  C  C1144  1  0.142500  0.899900  0.087300  1.0  -0.121
  C  C1145  1  0.224600  0.992900  0.181100  1.0  0.673
  C  C1146  1  0.181700  0.993000  0.275400  1.0  0.6599
  C  C1147  1  0.073700  0.997000  0.245400  1.0  0.7374
  C  C1148  1  0.131500  0.958500  0.345100  1.0  0.5467
  C  C1149  1  0.254500  0.997200  0.073500  1.0  0.7301
  C  C1150  1  0.136800  0.992300  0.283600  1.0  0.0204
  C  C1151  1  0.142300  0.412200  0.900300  1.0  -0.0753
  C  C1152  1  0.256700  0.492100  0.617300  1.0  -0.3325
  C  C1153  1  0.120100  0.422400  0.867400  1.0  -0.0369
  C  C1154  1  0.132200  0.423000  0.620300  1.0  -0.0077
  C  C1155  1  0.154800  0.458600  0.631700  1.0  0.58
  C  C1156  1  0.216800  0.491500  0.637000  1.0  0.0738
  C  C1157  1  0.117300  0.492600  0.743800  1.0  -0.3274
  C  C1158  1  0.142500  0.399900  0.587300  1.0  -0.121
  C  C1159  1  0.224600  0.492900  0.681100  1.0  0.673
  C  C1160  1  0.181700  0.493000  0.775400  1.0  0.6599
  C  C1161  1  0.073700  0.497000  0.745400  1.0  0.7374
  C  C1162  1  0.131500  0.458500  0.845100  1.0  0.5467
  C  C1163  1  0.254500  0.497200  0.573500  1.0  0.7301
  C  C1164  1  0.136800  0.492300  0.783600  1.0  0.0204
  C  C1165  1  0.642300  0.912200  0.900300  1.0  -0.0753
  C  C1166  1  0.756700  0.992100  0.617300  1.0  -0.3325
  C  C1167  1  0.620100  0.922400  0.867400  1.0  -0.0369
  C  C1168  1  0.632200  0.923000  0.620300  1.0  -0.0077
  C  C1169  1  0.654800  0.958600  0.631700  1.0  0.58
  C  C1170  1  0.716800  0.991500  0.637000  1.0  0.0738
  C  C1171  1  0.617300  0.992600  0.743800  1.0  -0.3274
  C  C1172  1  0.642500  0.899900  0.587300  1.0  -0.121
  C  C1173  1  0.724600  0.992900  0.681100  1.0  0.673
  C  C1174  1  0.681700  0.993000  0.775400  1.0  0.6599
  C  C1175  1  0.573700  0.997000  0.745400  1.0  0.7374
  C  C1176  1  0.631500  0.958500  0.845100  1.0  0.5467
  C  C1177  1  0.754500  0.997200  0.573500  1.0  0.7301
  C  C1178  1  0.636800  0.992300  0.783600  1.0  0.0204
  C  C1179  1  0.642300  0.412200  0.400300  1.0  -0.0753
  C  C1180  1  0.756700  0.492100  0.117300  1.0  -0.3325
  C  C1181  1  0.620100  0.422400  0.367400  1.0  -0.0369
  C  C1182  1  0.632200  0.423000  0.120300  1.0  -0.0077
  C  C1183  1  0.654800  0.458600  0.131700  1.0  0.58
  C  C1184  1  0.716800  0.491500  0.137000  1.0  0.0738
  C  C1185  1  0.617300  0.492600  0.243800  1.0  -0.3274
  C  C1186  1  0.642500  0.399900  0.087300  1.0  -0.121
  C  C1187  1  0.724600  0.492900  0.181100  1.0  0.673
  C  C1188  1  0.681700  0.493000  0.275400  1.0  0.6599
  C  C1189  1  0.573700  0.497000  0.245400  1.0  0.7374
  C  C1190  1  0.631500  0.458500  0.345100  1.0  0.5467
  C  C1191  1  0.754500  0.497200  0.073500  1.0  0.7301
  C  C1192  1  0.636800  0.492300  0.283600  1.0  0.0204
  C  C1193  1  0.857700  0.912200  0.599700  1.0  -0.0759
  C  C1194  1  0.743300  0.992100  0.882700  1.0  -0.3365
  C  C1195  1  0.879900  0.922400  0.632600  1.0  -0.0359
  C  C1196  1  0.867800  0.923000  0.879700  1.0  -0.0081
  C  C1197  1  0.845200  0.958600  0.868300  1.0  0.5801
  C  C1198  1  0.783200  0.991500  0.863000  1.0  0.0743
  C  C1199  1  0.882700  0.992600  0.756200  1.0  -0.3289
  C  C1200  1  0.857500  0.899900  0.912700  1.0  -0.1212
  C  C1201  1  0.775400  0.992900  0.818900  1.0  0.6726
  C  C1202  1  0.818300  0.993000  0.724600  1.0  0.6591
  C  C1203  1  0.926300  0.997000  0.754600  1.0  0.7379
  C  C1204  1  0.868500  0.958500  0.654900  1.0  0.5472
  C  C1205  1  0.745500  0.997200  0.926500  1.0  0.7268
  C  C1206  1  0.863200  0.992300  0.716400  1.0  0.0203
  C  C1207  1  0.857700  0.412200  0.099700  1.0  -0.0759
  C  C1208  1  0.743300  0.492100  0.382700  1.0  -0.3365
  C  C1209  1  0.879900  0.422400  0.132600  1.0  -0.0359
  C  C1210  1  0.867800  0.423000  0.379700  1.0  -0.0081
  C  C1211  1  0.845200  0.458600  0.368300  1.0  0.5801
  C  C1212  1  0.783200  0.491500  0.363000  1.0  0.0743
  C  C1213  1  0.882700  0.492600  0.256200  1.0  -0.3289
  C  C1214  1  0.857500  0.399900  0.412700  1.0  -0.1212
  C  C1215  1  0.775400  0.492900  0.318900  1.0  0.6726
  C  C1216  1  0.818300  0.493000  0.224600  1.0  0.6591
  C  C1217  1  0.926300  0.497000  0.254600  1.0  0.7379
  C  C1218  1  0.868500  0.458500  0.154900  1.0  0.5472
  C  C1219  1  0.745500  0.497200  0.426500  1.0  0.7268
  C  C1220  1  0.863200  0.492300  0.216400  1.0  0.0203
  C  C1221  1  0.357700  0.912200  0.099700  1.0  -0.0759
  C  C1222  1  0.243300  0.992100  0.382700  1.0  -0.3365
  C  C1223  1  0.379900  0.922400  0.132600  1.0  -0.0359
  C  C1224  1  0.367800  0.923000  0.379700  1.0  -0.0081
  C  C1225  1  0.345200  0.958600  0.368300  1.0  0.5801
  C  C1226  1  0.283200  0.991500  0.363000  1.0  0.0743
  C  C1227  1  0.382700  0.992600  0.256200  1.0  -0.3289
  C  C1228  1  0.357500  0.899900  0.412700  1.0  -0.1212
  C  C1229  1  0.275400  0.992900  0.318900  1.0  0.6726
  C  C1230  1  0.318300  0.993000  0.224600  1.0  0.6591
  C  C1231  1  0.426300  0.997000  0.254600  1.0  0.7379
  C  C1232  1  0.368500  0.958500  0.154900  1.0  0.5472
  C  C1233  1  0.245500  0.997200  0.426500  1.0  0.7268
  C  C1234  1  0.363200  0.992300  0.216400  1.0  0.0203
  C  C1235  1  0.357700  0.412200  0.599700  1.0  -0.0759
  C  C1236  1  0.243300  0.492100  0.882700  1.0  -0.3365
  C  C1237  1  0.379900  0.422400  0.632600  1.0  -0.0359
  C  C1238  1  0.367800  0.423000  0.879700  1.0  -0.0081
  C  C1239  1  0.345200  0.458600  0.868300  1.0  0.5801
  C  C1240  1  0.283200  0.491500  0.863000  1.0  0.0743
  C  C1241  1  0.382700  0.492600  0.756200  1.0  -0.3289
  C  C1242  1  0.357500  0.399900  0.912700  1.0  -0.1212
  C  C1243  1  0.275400  0.492900  0.818900  1.0  0.6726
  C  C1244  1  0.318300  0.493000  0.724600  1.0  0.6591
  C  C1245  1  0.426300  0.497000  0.754600  1.0  0.7379
  C  C1246  1  0.368500  0.458500  0.654900  1.0  0.5472
  C  C1247  1  0.245500  0.497200  0.926500  1.0  0.7268
  C  C1248  1  0.363200  0.492300  0.716400  1.0  0.0203
  N  N1249  1  0.693900  0.125400  0.041300  1.0  -0.3831
  N  N1250  1  0.874600  0.193400  0.041500  1.0  -0.3709
  N  N1251  1  0.693900  0.625400  0.541300  1.0  -0.3831
  N  N1252  1  0.874600  0.693400  0.541500  1.0  -0.3709
  N  N1253  1  0.193900  0.125400  0.541300  1.0  -0.3831
  N  N1254  1  0.374600  0.193400  0.541500  1.0  -0.3709
  N  N1255  1  0.193900  0.625400  0.041300  1.0  -0.3831
  N  N1256  1  0.374600  0.693400  0.041500  1.0  -0.3709
  N  N1257  1  0.306100  0.874600  0.041300  1.0  -0.3836
  N  N1258  1  0.125400  0.806600  0.041500  1.0  -0.3718
  N  N1259  1  0.306100  0.374600  0.541300  1.0  -0.3836
  N  N1260  1  0.125400  0.306600  0.541500  1.0  -0.3718
  N  N1261  1  0.806100  0.874600  0.541300  1.0  -0.3836
  N  N1262  1  0.625400  0.806600  0.541500  1.0  -0.3718
  N  N1263  1  0.806100  0.374600  0.041300  1.0  -0.3836
  N  N1264  1  0.625400  0.306600  0.041500  1.0  -0.3718
  N  N1265  1  0.306100  0.125400  0.958700  1.0  -0.3812
  N  N1266  1  0.125400  0.193400  0.958500  1.0  -0.3706
  N  N1267  1  0.306100  0.625400  0.458700  1.0  -0.3812
  N  N1268  1  0.125400  0.693400  0.458500  1.0  -0.3706
  N  N1269  1  0.806100  0.125400  0.458700  1.0  -0.3812
  N  N1270  1  0.625400  0.193400  0.458500  1.0  -0.3706
  N  N1271  1  0.806100  0.625400  0.958700  1.0  -0.3812
  N  N1272  1  0.625400  0.693400  0.958500  1.0  -0.3706
  N  N1273  1  0.693900  0.874600  0.958700  1.0  -0.381
  N  N1274  1  0.874600  0.806600  0.958500  1.0  -0.3716
  N  N1275  1  0.693900  0.374600  0.458700  1.0  -0.381
  N  N1276  1  0.874600  0.306600  0.458500  1.0  -0.3716
  N  N1277  1  0.193900  0.874600  0.458700  1.0  -0.381
  N  N1278  1  0.374600  0.806600  0.458500  1.0  -0.3716
  N  N1279  1  0.193900  0.374600  0.958700  1.0  -0.381
  N  N1280  1  0.374600  0.306600  0.958500  1.0  -0.3716
  N  N1281  1  0.041300  0.693900  0.125400  1.0  -0.3836
  N  N1282  1  0.041500  0.874600  0.193400  1.0  -0.3731
  N  N1283  1  0.041300  0.193900  0.625400  1.0  -0.3836
  N  N1284  1  0.041500  0.374600  0.693400  1.0  -0.3731
  N  N1285  1  0.541300  0.693900  0.625400  1.0  -0.3836
  N  N1286  1  0.541500  0.874600  0.693400  1.0  -0.3731
  N  N1287  1  0.541300  0.193900  0.125400  1.0  -0.3836
  N  N1288  1  0.541500  0.374600  0.193400  1.0  -0.3731
  N  N1289  1  0.041300  0.306100  0.874600  1.0  -0.3837
  N  N1290  1  0.041500  0.125400  0.806600  1.0  -0.3729
  N  N1291  1  0.041300  0.806100  0.374600  1.0  -0.3837
  N  N1292  1  0.041500  0.625400  0.306600  1.0  -0.3729
  N  N1293  1  0.541300  0.306100  0.374600  1.0  -0.3837
  N  N1294  1  0.541500  0.125400  0.306600  1.0  -0.3729
  N  N1295  1  0.541300  0.806100  0.874600  1.0  -0.3837
  N  N1296  1  0.541500  0.625400  0.806600  1.0  -0.3729
  N  N1297  1  0.958700  0.306100  0.125400  1.0  -0.3859
  N  N1298  1  0.958500  0.125400  0.193400  1.0  -0.3749
  N  N1299  1  0.958700  0.806100  0.625400  1.0  -0.3859
  N  N1300  1  0.958500  0.625400  0.693400  1.0  -0.3749
  N  N1301  1  0.458700  0.306100  0.625400  1.0  -0.3859
  N  N1302  1  0.458500  0.125400  0.693400  1.0  -0.3749
  N  N1303  1  0.458700  0.806100  0.125400  1.0  -0.3859
  N  N1304  1  0.458500  0.625400  0.193400  1.0  -0.3749
  N  N1305  1  0.958700  0.693900  0.874600  1.0  -0.3854
  N  N1306  1  0.958500  0.874600  0.806600  1.0  -0.3739
  N  N1307  1  0.958700  0.193900  0.374600  1.0  -0.3854
  N  N1308  1  0.958500  0.374600  0.306600  1.0  -0.3739
  N  N1309  1  0.458700  0.693900  0.374600  1.0  -0.3854
  N  N1310  1  0.458500  0.874600  0.306600  1.0  -0.3739
  N  N1311  1  0.458700  0.193900  0.874600  1.0  -0.3854
  N  N1312  1  0.458500  0.374600  0.806600  1.0  -0.3739
  N  N1313  1  0.125400  0.041300  0.693900  1.0  -0.3828
  N  N1314  1  0.193400  0.041500  0.874600  1.0  -0.3709
  N  N1315  1  0.125400  0.541300  0.193900  1.0  -0.3828
  N  N1316  1  0.193400  0.541500  0.374600  1.0  -0.3709
  N  N1317  1  0.625400  0.041300  0.193900  1.0  -0.3828
  N  N1318  1  0.693400  0.041500  0.374600  1.0  -0.3709
  N  N1319  1  0.625400  0.541300  0.693900  1.0  -0.3828
  N  N1320  1  0.693400  0.541500  0.874600  1.0  -0.3709
  N  N1321  1  0.874600  0.041300  0.306100  1.0  -0.381
  N  N1322  1  0.806600  0.041500  0.125400  1.0  -0.3712
  N  N1323  1  0.874600  0.541300  0.806100  1.0  -0.381
  N  N1324  1  0.806600  0.541500  0.625400  1.0  -0.3712
  N  N1325  1  0.374600  0.041300  0.806100  1.0  -0.381
  N  N1326  1  0.306600  0.041500  0.625400  1.0  -0.3712
  N  N1327  1  0.374600  0.541300  0.306100  1.0  -0.381
  N  N1328  1  0.306600  0.541500  0.125400  1.0  -0.3712
  N  N1329  1  0.125400  0.958700  0.306100  1.0  -0.3818
  N  N1330  1  0.193400  0.958500  0.125400  1.0  -0.3712
  N  N1331  1  0.125400  0.458700  0.806100  1.0  -0.3818
  N  N1332  1  0.193400  0.458500  0.625400  1.0  -0.3712
  N  N1333  1  0.625400  0.958700  0.806100  1.0  -0.3818
  N  N1334  1  0.693400  0.958500  0.625400  1.0  -0.3712
  N  N1335  1  0.625400  0.458700  0.306100  1.0  -0.3818
  N  N1336  1  0.693400  0.458500  0.125400  1.0  -0.3712
  N  N1337  1  0.874600  0.958700  0.693900  1.0  -0.3824
  N  N1338  1  0.806600  0.958500  0.874600  1.0  -0.3705
  N  N1339  1  0.874600  0.458700  0.193900  1.0  -0.3824
  N  N1340  1  0.806600  0.458500  0.374600  1.0  -0.3705
  N  N1341  1  0.374600  0.958700  0.193900  1.0  -0.3824
  N  N1342  1  0.306600  0.958500  0.374600  1.0  -0.3705
  N  N1343  1  0.374600  0.458700  0.693900  1.0  -0.3824
  N  N1344  1  0.306600  0.458500  0.874600  1.0  -0.3705
  O  O1345  1  0.854000  0.137500  0.012700  1.0  -0.4812
  O  O1346  1  0.805200  0.234000  0.974400  1.0  -0.5689
  O  O1347  1  0.786400  0.055500  0.008800  1.0  -0.5756
  O  O1348  1  0.733700  0.195400  0.974500  1.0  -0.5525
  O  O1349  1  0.637800  0.145700  0.012600  1.0  -0.4896
  O  O1350  1  0.723700  0.199250  0.039000  1.0  -0.5932
  O  O1351  1  0.944100  0.286300  0.008900  1.0  -0.5778
  O  O1352  1  0.800700  0.223900  0.039300  1.0  -0.606
  O  O1353  1  0.722800  0.057800  0.992600  1.0  -0.5712
  O  O1354  1  0.941900  0.222500  0.992600  1.0  -0.5681
  O  O1355  1  0.854000  0.637500  0.512700  1.0  -0.4812
  O  O1356  1  0.805200  0.734000  0.474400  1.0  -0.5689
  O  O1357  1  0.786400  0.555500  0.508800  1.0  -0.5756
  O  O1358  1  0.733700  0.695400  0.474500  1.0  -0.5525
  O  O1359  1  0.637800  0.645700  0.512600  1.0  -0.4896
  O  O1360  1  0.723700  0.699250  0.539000  1.0  -0.5932
  O  O1361  1  0.944100  0.786300  0.508900  1.0  -0.5778
  O  O1362  1  0.800700  0.723900  0.539300  1.0  -0.606
  O  O1363  1  0.722800  0.557800  0.492600  1.0  -0.5712
  O  O1364  1  0.941900  0.722500  0.492600  1.0  -0.5681
  O  O1365  1  0.354000  0.137500  0.512700  1.0  -0.4812
  O  O1366  1  0.305200  0.234000  0.474400  1.0  -0.5689
  O  O1367  1  0.286400  0.055500  0.508800  1.0  -0.5756
  O  O1368  1  0.233700  0.195400  0.474500  1.0  -0.5525
  O  O1369  1  0.137800  0.145700  0.512600  1.0  -0.4896
  O  O1370  1  0.223700  0.199250  0.539000  1.0  -0.5932
  O  O1371  1  0.444100  0.286300  0.508900  1.0  -0.5778
  O  O1372  1  0.300700  0.223900  0.539300  1.0  -0.606
  O  O1373  1  0.222800  0.057800  0.492600  1.0  -0.5712
  O  O1374  1  0.441900  0.222500  0.492600  1.0  -0.5681
  O  O1375  1  0.354000  0.637500  0.012700  1.0  -0.4812
  O  O1376  1  0.305200  0.734000  0.974400  1.0  -0.5689
  O  O1377  1  0.286400  0.555500  0.008800  1.0  -0.5756
  O  O1378  1  0.233700  0.695400  0.974500  1.0  -0.5525
  O  O1379  1  0.137800  0.645700  0.012600  1.0  -0.4896
  O  O1380  1  0.223700  0.699250  0.039000  1.0  -0.5932
  O  O1381  1  0.444100  0.786300  0.008900  1.0  -0.5778
  O  O1382  1  0.300700  0.723900  0.039300  1.0  -0.606
  O  O1383  1  0.222800  0.557800  0.992600  1.0  -0.5712
  O  O1384  1  0.441900  0.722500  0.992600  1.0  -0.5681
  O  O1385  1  0.146000  0.862500  0.012700  1.0  -0.4812
  O  O1386  1  0.194800  0.766000  0.974400  1.0  -0.5698
  O  O1387  1  0.213600  0.944500  0.008800  1.0  -0.5768
  O  O1388  1  0.266300  0.804600  0.974500  1.0  -0.5528
  O  O1389  1  0.362200  0.854300  0.012600  1.0  -0.4894
  O  O1390  1  0.276300  0.800750  0.039000  1.0  -0.5924
  O  O1391  1  0.055900  0.713700  0.008900  1.0  -0.5765
  O  O1392  1  0.199300  0.776100  0.039300  1.0  -0.6043
  O  O1393  1  0.277200  0.942200  0.992600  1.0  -0.5711
  O  O1394  1  0.058100  0.777500  0.992600  1.0  -0.5684
  O  O1395  1  0.146000  0.362500  0.512700  1.0  -0.4812
  O  O1396  1  0.194800  0.266000  0.474400  1.0  -0.5698
  O  O1397  1  0.213600  0.444500  0.508800  1.0  -0.5768
  O  O1398  1  0.266300  0.304600  0.474500  1.0  -0.5528
  O  O1399  1  0.362200  0.354300  0.512600  1.0  -0.4894
  O  O1400  1  0.276300  0.300750  0.539000  1.0  -0.5924
  O  O1401  1  0.055900  0.213700  0.508900  1.0  -0.5765
  O  O1402  1  0.199300  0.276100  0.539300  1.0  -0.6043
  O  O1403  1  0.277200  0.442200  0.492600  1.0  -0.5711
  O  O1404  1  0.058100  0.277500  0.492600  1.0  -0.5684
  O  O1405  1  0.646000  0.862500  0.512700  1.0  -0.4812
  O  O1406  1  0.694800  0.766000  0.474400  1.0  -0.5698
  O  O1407  1  0.713600  0.944500  0.508800  1.0  -0.5768
  O  O1408  1  0.766300  0.804600  0.474500  1.0  -0.5528
  O  O1409  1  0.862200  0.854300  0.512600  1.0  -0.4894
  O  O1410  1  0.776300  0.800750  0.539000  1.0  -0.5924
  O  O1411  1  0.555900  0.713700  0.508900  1.0  -0.5765
  O  O1412  1  0.699300  0.776100  0.539300  1.0  -0.6043
  O  O1413  1  0.777200  0.942200  0.492600  1.0  -0.5711
  O  O1414  1  0.558100  0.777500  0.492600  1.0  -0.5684
  O  O1415  1  0.646000  0.362500  0.012700  1.0  -0.4812
  O  O1416  1  0.694800  0.266000  0.974400  1.0  -0.5698
  O  O1417  1  0.713600  0.444500  0.008800  1.0  -0.5768
  O  O1418  1  0.766300  0.304600  0.974500  1.0  -0.5528
  O  O1419  1  0.862200  0.354300  0.012600  1.0  -0.4894
  O  O1420  1  0.776300  0.300750  0.039000  1.0  -0.5924
  O  O1421  1  0.555900  0.213700  0.008900  1.0  -0.5765
  O  O1422  1  0.699300  0.276100  0.039300  1.0  -0.6043
  O  O1423  1  0.777200  0.442200  0.992600  1.0  -0.5711
  O  O1424  1  0.558100  0.277500  0.992600  1.0  -0.5684
  O  O1425  1  0.146000  0.137500  0.987300  1.0  -0.483
  O  O1426  1  0.194800  0.234000  0.025600  1.0  -0.5677
  O  O1427  1  0.213600  0.055500  0.991200  1.0  -0.5777
  O  O1428  1  0.266300  0.195400  0.025500  1.0  -0.5515
  O  O1429  1  0.362200  0.145700  0.987400  1.0  -0.4921
  O  O1430  1  0.276300  0.199250  0.961000  1.0  -0.5939
  O  O1431  1  0.055900  0.286300  0.991100  1.0  -0.5774
  O  O1432  1  0.199300  0.223900  0.960700  1.0  -0.6065
  O  O1433  1  0.277200  0.057800  0.007400  1.0  -0.5689
  O  O1434  1  0.058100  0.222500  0.007400  1.0  -0.5679
  O  O1435  1  0.146000  0.637500  0.487300  1.0  -0.483
  O  O1436  1  0.194800  0.734000  0.525600  1.0  -0.5677
  O  O1437  1  0.213600  0.555500  0.491200  1.0  -0.5777
  O  O1438  1  0.266300  0.695400  0.525500  1.0  -0.5515
  O  O1439  1  0.362200  0.645700  0.487400  1.0  -0.4921
  O  O1440  1  0.276300  0.699250  0.461000  1.0  -0.5939
  O  O1441  1  0.055900  0.786300  0.491100  1.0  -0.5774
  O  O1442  1  0.199300  0.723900  0.460700  1.0  -0.6065
  O  O1443  1  0.277200  0.557800  0.507400  1.0  -0.5689
  O  O1444  1  0.058100  0.722500  0.507400  1.0  -0.5679
  O  O1445  1  0.646000  0.137500  0.487300  1.0  -0.483
  O  O1446  1  0.694800  0.234000  0.525600  1.0  -0.5677
  O  O1447  1  0.713600  0.055500  0.491200  1.0  -0.5777
  O  O1448  1  0.766300  0.195400  0.525500  1.0  -0.5515
  O  O1449  1  0.862200  0.145700  0.487400  1.0  -0.4921
  O  O1450  1  0.776300  0.199250  0.461000  1.0  -0.5939
  O  O1451  1  0.555900  0.286300  0.491100  1.0  -0.5774
  O  O1452  1  0.699300  0.223900  0.460700  1.0  -0.6065
  O  O1453  1  0.777200  0.057800  0.507400  1.0  -0.5689
  O  O1454  1  0.558100  0.222500  0.507400  1.0  -0.5679
  O  O1455  1  0.646000  0.637500  0.987300  1.0  -0.483
  O  O1456  1  0.694800  0.734000  0.025600  1.0  -0.5677
  O  O1457  1  0.713600  0.555500  0.991200  1.0  -0.5777
  O  O1458  1  0.766300  0.695400  0.025500  1.0  -0.5515
  O  O1459  1  0.862200  0.645700  0.987400  1.0  -0.4921
  O  O1460  1  0.776300  0.699250  0.961000  1.0  -0.5939
  O  O1461  1  0.555900  0.786300  0.991100  1.0  -0.5774
  O  O1462  1  0.699300  0.723900  0.960700  1.0  -0.6065
  O  O1463  1  0.777200  0.557800  0.007400  1.0  -0.5689
  O  O1464  1  0.558100  0.722500  0.007400  1.0  -0.5679
  O  O1465  1  0.854000  0.862500  0.987300  1.0  -0.483
  O  O1466  1  0.805200  0.766000  0.025600  1.0  -0.5672
  O  O1467  1  0.786400  0.944500  0.991200  1.0  -0.5761
  O  O1468  1  0.733700  0.804600  0.025500  1.0  -0.5513
  O  O1469  1  0.637800  0.854300  0.987400  1.0  -0.4914
  O  O1470  1  0.723700  0.800750  0.961000  1.0  -0.594
  O  O1471  1  0.944100  0.713700  0.991100  1.0  -0.5777
  O  O1472  1  0.800700  0.776100  0.960700  1.0  -0.6064
  O  O1473  1  0.722800  0.942200  0.007400  1.0  -0.5695
  O  O1474  1  0.941900  0.777500  0.007400  1.0  -0.5668
  O  O1475  1  0.854000  0.362500  0.487300  1.0  -0.483
  O  O1476  1  0.805200  0.266000  0.525600  1.0  -0.5672
  O  O1477  1  0.786400  0.444500  0.491200  1.0  -0.5761
  O  O1478  1  0.733700  0.304600  0.525500  1.0  -0.5513
  O  O1479  1  0.637800  0.354300  0.487400  1.0  -0.4914
  O  O1480  1  0.723700  0.300750  0.461000  1.0  -0.594
  O  O1481  1  0.944100  0.213700  0.491100  1.0  -0.5777
  O  O1482  1  0.800700  0.276100  0.460700  1.0  -0.6064
  O  O1483  1  0.722800  0.442200  0.507400  1.0  -0.5695
  O  O1484  1  0.941900  0.277500  0.507400  1.0  -0.5668
  O  O1485  1  0.354000  0.862500  0.487300  1.0  -0.483
  O  O1486  1  0.305200  0.766000  0.525600  1.0  -0.5672
  O  O1487  1  0.286400  0.944500  0.491200  1.0  -0.5761
  O  O1488  1  0.233700  0.804600  0.525500  1.0  -0.5513
  O  O1489  1  0.137800  0.854300  0.487400  1.0  -0.4914
  O  O1490  1  0.223700  0.800750  0.461000  1.0  -0.594
  O  O1491  1  0.444100  0.713700  0.491100  1.0  -0.5777
  O  O1492  1  0.300700  0.776100  0.460700  1.0  -0.6064
  O  O1493  1  0.222800  0.942200  0.507400  1.0  -0.5695
  O  O1494  1  0.441900  0.777500  0.507400  1.0  -0.5668
  O  O1495  1  0.354000  0.362500  0.987300  1.0  -0.483
  O  O1496  1  0.305200  0.266000  0.025600  1.0  -0.5672
  O  O1497  1  0.286400  0.444500  0.991200  1.0  -0.5761
  O  O1498  1  0.233700  0.304600  0.025500  1.0  -0.5513
  O  O1499  1  0.137800  0.354300  0.987400  1.0  -0.4914
  O  O1500  1  0.223700  0.300750  0.961000  1.0  -0.594
  O  O1501  1  0.444100  0.213700  0.991100  1.0  -0.5777
  O  O1502  1  0.300700  0.276100  0.960700  1.0  -0.6064
  O  O1503  1  0.222800  0.442200  0.007400  1.0  -0.5695
  O  O1504  1  0.441900  0.277500  0.007400  1.0  -0.5668
  O  O1505  1  0.012700  0.854000  0.137500  1.0  -0.4798
  O  O1506  1  0.974400  0.805200  0.234000  1.0  -0.5691
  O  O1507  1  0.008800  0.786400  0.055500  1.0  -0.5831
  O  O1508  1  0.974500  0.733700  0.195400  1.0  -0.5529
  O  O1509  1  0.012600  0.637800  0.145700  1.0  -0.4898
  O  O1510  1  0.039000  0.723700  0.199250  1.0  -0.5916
  O  O1511  1  0.008900  0.944100  0.286300  1.0  -0.5825
  O  O1512  1  0.039300  0.800700  0.223900  1.0  -0.601
  O  O1513  1  0.992600  0.722800  0.057800  1.0  -0.5692
  O  O1514  1  0.992600  0.941900  0.222500  1.0  -0.5724
  O  O1515  1  0.012700  0.354000  0.637500  1.0  -0.4798
  O  O1516  1  0.974400  0.305200  0.734000  1.0  -0.5691
  O  O1517  1  0.008800  0.286400  0.555500  1.0  -0.5831
  O  O1518  1  0.974500  0.233700  0.695400  1.0  -0.5529
  O  O1519  1  0.012600  0.137800  0.645700  1.0  -0.4898
  O  O1520  1  0.039000  0.223700  0.699250  1.0  -0.5916
  O  O1521  1  0.008900  0.444100  0.786300  1.0  -0.5825
  O  O1522  1  0.039300  0.300700  0.723900  1.0  -0.601
  O  O1523  1  0.992600  0.222800  0.557800  1.0  -0.5692
  O  O1524  1  0.992600  0.441900  0.722500  1.0  -0.5724
  O  O1525  1  0.512700  0.854000  0.637500  1.0  -0.4798
  O  O1526  1  0.474400  0.805200  0.734000  1.0  -0.5691
  O  O1527  1  0.508800  0.786400  0.555500  1.0  -0.5831
  O  O1528  1  0.474500  0.733700  0.695400  1.0  -0.5529
  O  O1529  1  0.512600  0.637800  0.645700  1.0  -0.4898
  O  O1530  1  0.539000  0.723700  0.699250  1.0  -0.5916
  O  O1531  1  0.508900  0.944100  0.786300  1.0  -0.5825
  O  O1532  1  0.539300  0.800700  0.723900  1.0  -0.601
  O  O1533  1  0.492600  0.722800  0.557800  1.0  -0.5692
  O  O1534  1  0.492600  0.941900  0.722500  1.0  -0.5724
  O  O1535  1  0.512700  0.354000  0.137500  1.0  -0.4798
  O  O1536  1  0.474400  0.305200  0.234000  1.0  -0.5691
  O  O1537  1  0.508800  0.286400  0.055500  1.0  -0.5831
  O  O1538  1  0.474500  0.233700  0.195400  1.0  -0.5529
  O  O1539  1  0.512600  0.137800  0.145700  1.0  -0.4898
  O  O1540  1  0.539000  0.223700  0.199250  1.0  -0.5916
  O  O1541  1  0.508900  0.444100  0.286300  1.0  -0.5825
  O  O1542  1  0.539300  0.300700  0.223900  1.0  -0.601
  O  O1543  1  0.492600  0.222800  0.057800  1.0  -0.5692
  O  O1544  1  0.492600  0.441900  0.222500  1.0  -0.5724
  O  O1545  1  0.012700  0.146000  0.862500  1.0  -0.4806
  O  O1546  1  0.974400  0.194800  0.766000  1.0  -0.5689
  O  O1547  1  0.008800  0.213600  0.944500  1.0  -0.5813
  O  O1548  1  0.974500  0.266300  0.804600  1.0  -0.5525
  O  O1549  1  0.012600  0.362200  0.854300  1.0  -0.49
  O  O1550  1  0.039000  0.276300  0.800750  1.0  -0.5925
  O  O1551  1  0.008900  0.055900  0.713700  1.0  -0.5825
  O  O1552  1  0.039300  0.199300  0.776100  1.0  -0.6001
  O  O1553  1  0.992600  0.277200  0.942200  1.0  -0.5699
  O  O1554  1  0.992600  0.058100  0.777500  1.0  -0.5708
  O  O1555  1  0.012700  0.646000  0.362500  1.0  -0.4806
  O  O1556  1  0.974400  0.694800  0.266000  1.0  -0.5689
  O  O1557  1  0.008800  0.713600  0.444500  1.0  -0.5813
  O  O1558  1  0.974500  0.766300  0.304600  1.0  -0.5525
  O  O1559  1  0.012600  0.862200  0.354300  1.0  -0.49
  O  O1560  1  0.039000  0.776300  0.300750  1.0  -0.5925
  O  O1561  1  0.008900  0.555900  0.213700  1.0  -0.5825
  O  O1562  1  0.039300  0.699300  0.276100  1.0  -0.6001
  O  O1563  1  0.992600  0.777200  0.442200  1.0  -0.5699
  O  O1564  1  0.992600  0.558100  0.277500  1.0  -0.5708
  O  O1565  1  0.512700  0.146000  0.362500  1.0  -0.4806
  O  O1566  1  0.474400  0.194800  0.266000  1.0  -0.5689
  O  O1567  1  0.508800  0.213600  0.444500  1.0  -0.5813
  O  O1568  1  0.474500  0.266300  0.304600  1.0  -0.5525
  O  O1569  1  0.512600  0.362200  0.354300  1.0  -0.49
  O  O1570  1  0.539000  0.276300  0.300750  1.0  -0.5925
  O  O1571  1  0.508900  0.055900  0.213700  1.0  -0.5825
  O  O1572  1  0.539300  0.199300  0.276100  1.0  -0.6001
  O  O1573  1  0.492600  0.277200  0.442200  1.0  -0.5699
  O  O1574  1  0.492600  0.058100  0.277500  1.0  -0.5708
  O  O1575  1  0.512700  0.646000  0.862500  1.0  -0.4806
  O  O1576  1  0.474400  0.694800  0.766000  1.0  -0.5689
  O  O1577  1  0.508800  0.713600  0.944500  1.0  -0.5813
  O  O1578  1  0.474500  0.766300  0.804600  1.0  -0.5525
  O  O1579  1  0.512600  0.862200  0.854300  1.0  -0.49
  O  O1580  1  0.539000  0.776300  0.800750  1.0  -0.5925
  O  O1581  1  0.508900  0.555900  0.713700  1.0  -0.5825
  O  O1582  1  0.539300  0.699300  0.776100  1.0  -0.6001
  O  O1583  1  0.492600  0.777200  0.942200  1.0  -0.5699
  O  O1584  1  0.492600  0.558100  0.777500  1.0  -0.5708
  O  O1585  1  0.987300  0.146000  0.137500  1.0  -0.4815
  O  O1586  1  0.025600  0.194800  0.234000  1.0  -0.5708
  O  O1587  1  0.991200  0.213600  0.055500  1.0  -0.5812
  O  O1588  1  0.025500  0.266300  0.195400  1.0  -0.5541
  O  O1589  1  0.987400  0.362200  0.145700  1.0  -0.4895
  O  O1590  1  0.961000  0.276300  0.199250  1.0  -0.5915
  O  O1591  1  0.991100  0.055900  0.286300  1.0  -0.581
  O  O1592  1  0.960700  0.199300  0.223900  1.0  -0.5994
  O  O1593  1  0.007400  0.277200  0.057800  1.0  -0.5689
  O  O1594  1  0.007400  0.058100  0.222500  1.0  -0.5722
  O  O1595  1  0.987300  0.646000  0.637500  1.0  -0.4815
  O  O1596  1  0.025600  0.694800  0.734000  1.0  -0.5708
  O  O1597  1  0.991200  0.713600  0.555500  1.0  -0.5812
  O  O1598  1  0.025500  0.766300  0.695400  1.0  -0.5541
  O  O1599  1  0.987400  0.862200  0.645700  1.0  -0.4895
  O  O1600  1  0.961000  0.776300  0.699250  1.0  -0.5915
  O  O1601  1  0.991100  0.555900  0.786300  1.0  -0.581
  O  O1602  1  0.960700  0.699300  0.723900  1.0  -0.5994
  O  O1603  1  0.007400  0.777200  0.557800  1.0  -0.5689
  O  O1604  1  0.007400  0.558100  0.722500  1.0  -0.5722
  O  O1605  1  0.487300  0.146000  0.637500  1.0  -0.4815
  O  O1606  1  0.525600  0.194800  0.734000  1.0  -0.5708
  O  O1607  1  0.491200  0.213600  0.555500  1.0  -0.5812
  O  O1608  1  0.525500  0.266300  0.695400  1.0  -0.5541
  O  O1609  1  0.487400  0.362200  0.645700  1.0  -0.4895
  O  O1610  1  0.461000  0.276300  0.699250  1.0  -0.5915
  O  O1611  1  0.491100  0.055900  0.786300  1.0  -0.581
  O  O1612  1  0.460700  0.199300  0.723900  1.0  -0.5994
  O  O1613  1  0.507400  0.277200  0.557800  1.0  -0.5689
  O  O1614  1  0.507400  0.058100  0.722500  1.0  -0.5722
  O  O1615  1  0.487300  0.646000  0.137500  1.0  -0.4815
  O  O1616  1  0.525600  0.694800  0.234000  1.0  -0.5708
  O  O1617  1  0.491200  0.713600  0.055500  1.0  -0.5812
  O  O1618  1  0.525500  0.766300  0.195400  1.0  -0.5541
  O  O1619  1  0.487400  0.862200  0.145700  1.0  -0.4895
  O  O1620  1  0.461000  0.776300  0.199250  1.0  -0.5915
  O  O1621  1  0.491100  0.555900  0.286300  1.0  -0.581
  O  O1622  1  0.460700  0.699300  0.223900  1.0  -0.5994
  O  O1623  1  0.507400  0.777200  0.057800  1.0  -0.5689
  O  O1624  1  0.507400  0.558100  0.222500  1.0  -0.5722
  O  O1625  1  0.987300  0.854000  0.862500  1.0  -0.4819
  O  O1626  1  0.025600  0.805200  0.766000  1.0  -0.5699
  O  O1627  1  0.991200  0.786400  0.944500  1.0  -0.5816
  O  O1628  1  0.025500  0.733700  0.804600  1.0  -0.5539
  O  O1629  1  0.987400  0.637800  0.854300  1.0  -0.4904
  O  O1630  1  0.961000  0.723700  0.800750  1.0  -0.592
  O  O1631  1  0.991100  0.944100  0.713700  1.0  -0.5814
  O  O1632  1  0.960700  0.800700  0.776100  1.0  -0.6
  O  O1633  1  0.007400  0.722800  0.942200  1.0  -0.5696
  O  O1634  1  0.007400  0.941900  0.777500  1.0  -0.5699
  O  O1635  1  0.987300  0.354000  0.362500  1.0  -0.4819
  O  O1636  1  0.025600  0.305200  0.266000  1.0  -0.5699
  O  O1637  1  0.991200  0.286400  0.444500  1.0  -0.5816
  O  O1638  1  0.025500  0.233700  0.304600  1.0  -0.5539
  O  O1639  1  0.987400  0.137800  0.354300  1.0  -0.4904
  O  O1640  1  0.961000  0.223700  0.300750  1.0  -0.592
  O  O1641  1  0.991100  0.444100  0.213700  1.0  -0.5814
  O  O1642  1  0.960700  0.300700  0.276100  1.0  -0.6
  O  O1643  1  0.007400  0.222800  0.442200  1.0  -0.5696
  O  O1644  1  0.007400  0.441900  0.277500  1.0  -0.5699
  O  O1645  1  0.487300  0.854000  0.362500  1.0  -0.4819
  O  O1646  1  0.525600  0.805200  0.266000  1.0  -0.5699
  O  O1647  1  0.491200  0.786400  0.444500  1.0  -0.5816
  O  O1648  1  0.525500  0.733700  0.304600  1.0  -0.5539
  O  O1649  1  0.487400  0.637800  0.354300  1.0  -0.4904
  O  O1650  1  0.461000  0.723700  0.300750  1.0  -0.592
  O  O1651  1  0.491100  0.944100  0.213700  1.0  -0.5814
  O  O1652  1  0.460700  0.800700  0.276100  1.0  -0.6
  O  O1653  1  0.507400  0.722800  0.442200  1.0  -0.5696
  O  O1654  1  0.507400  0.941900  0.277500  1.0  -0.5699
  O  O1655  1  0.487300  0.354000  0.862500  1.0  -0.4819
  O  O1656  1  0.525600  0.305200  0.766000  1.0  -0.5699
  O  O1657  1  0.491200  0.286400  0.944500  1.0  -0.5816
  O  O1658  1  0.525500  0.233700  0.804600  1.0  -0.5539
  O  O1659  1  0.487400  0.137800  0.854300  1.0  -0.4904
  O  O1660  1  0.461000  0.223700  0.800750  1.0  -0.592
  O  O1661  1  0.491100  0.444100  0.713700  1.0  -0.5814
  O  O1662  1  0.460700  0.300700  0.776100  1.0  -0.6
  O  O1663  1  0.507400  0.222800  0.942200  1.0  -0.5696
  O  O1664  1  0.507400  0.441900  0.777500  1.0  -0.5699
  O  O1665  1  0.137500  0.012700  0.854000  1.0  -0.4813
  O  O1666  1  0.234000  0.974400  0.805200  1.0  -0.5734
  O  O1667  1  0.055500  0.008800  0.786400  1.0  -0.5801
  O  O1668  1  0.195400  0.974500  0.733700  1.0  -0.56
  O  O1669  1  0.145700  0.012600  0.637800  1.0  -0.4897
  O  O1670  1  0.199250  0.039000  0.723700  1.0  -0.5941
  O  O1671  1  0.286300  0.008900  0.944100  1.0  -0.5798
  O  O1672  1  0.223900  0.039300  0.800700  1.0  -0.6022
  O  O1673  1  0.057800  0.992600  0.722800  1.0  -0.5694
  O  O1674  1  0.222500  0.992600  0.941900  1.0  -0.5715
  O  O1675  1  0.137500  0.512700  0.354000  1.0  -0.4813
  O  O1676  1  0.234000  0.474400  0.305200  1.0  -0.5734
  O  O1677  1  0.055500  0.508800  0.286400  1.0  -0.5801
  O  O1678  1  0.195400  0.474500  0.233700  1.0  -0.56
  O  O1679  1  0.145700  0.512600  0.137800  1.0  -0.4897
  O  O1680  1  0.199250  0.539000  0.223700  1.0  -0.5941
  O  O1681  1  0.286300  0.508900  0.444100  1.0  -0.5798
  O  O1682  1  0.223900  0.539300  0.300700  1.0  -0.6022
  O  O1683  1  0.057800  0.492600  0.222800  1.0  -0.5694
  O  O1684  1  0.222500  0.492600  0.441900  1.0  -0.5715
  O  O1685  1  0.637500  0.012700  0.354000  1.0  -0.4813
  O  O1686  1  0.734000  0.974400  0.305200  1.0  -0.5734
  O  O1687  1  0.555500  0.008800  0.286400  1.0  -0.5801
  O  O1688  1  0.695400  0.974500  0.233700  1.0  -0.56
  O  O1689  1  0.645700  0.012600  0.137800  1.0  -0.4897
  O  O1690  1  0.699250  0.039000  0.223700  1.0  -0.5941
  O  O1691  1  0.786300  0.008900  0.444100  1.0  -0.5798
  O  O1692  1  0.723900  0.039300  0.300700  1.0  -0.6022
  O  O1693  1  0.557800  0.992600  0.222800  1.0  -0.5694
  O  O1694  1  0.722500  0.992600  0.441900  1.0  -0.5715
  O  O1695  1  0.637500  0.512700  0.854000  1.0  -0.4813
  O  O1696  1  0.734000  0.474400  0.805200  1.0  -0.5734
  O  O1697  1  0.555500  0.508800  0.786400  1.0  -0.5801
  O  O1698  1  0.695400  0.474500  0.733700  1.0  -0.56
  O  O1699  1  0.645700  0.512600  0.637800  1.0  -0.4897
  O  O1700  1  0.699250  0.539000  0.723700  1.0  -0.5941
  O  O1701  1  0.786300  0.508900  0.944100  1.0  -0.5798
  O  O1702  1  0.723900  0.539300  0.800700  1.0  -0.6022
  O  O1703  1  0.557800  0.492600  0.722800  1.0  -0.5694
  O  O1704  1  0.722500  0.492600  0.941900  1.0  -0.5715
  O  O1705  1  0.862500  0.012700  0.146000  1.0  -0.4818
  O  O1706  1  0.766000  0.974400  0.194800  1.0  -0.573
  O  O1707  1  0.944500  0.008800  0.213600  1.0  -0.5806
  O  O1708  1  0.804600  0.974500  0.266300  1.0  -0.5606
  O  O1709  1  0.854300  0.012600  0.362200  1.0  -0.4915
  O  O1710  1  0.800750  0.039000  0.276300  1.0  -0.5941
  O  O1711  1  0.713700  0.008900  0.055900  1.0  -0.5814
  O  O1712  1  0.776100  0.039300  0.199300  1.0  -0.6018
  O  O1713  1  0.942200  0.992600  0.277200  1.0  -0.5679
  O  O1714  1  0.777500  0.992600  0.058100  1.0  -0.5705
  O  O1715  1  0.862500  0.512700  0.646000  1.0  -0.4818
  O  O1716  1  0.766000  0.474400  0.694800  1.0  -0.573
  O  O1717  1  0.944500  0.508800  0.713600  1.0  -0.5806
  O  O1718  1  0.804600  0.474500  0.766300  1.0  -0.5606
  O  O1719  1  0.854300  0.512600  0.862200  1.0  -0.4915
  O  O1720  1  0.800750  0.539000  0.776300  1.0  -0.5941
  O  O1721  1  0.713700  0.508900  0.555900  1.0  -0.5814
  O  O1722  1  0.776100  0.539300  0.699300  1.0  -0.6018
  O  O1723  1  0.942200  0.492600  0.777200  1.0  -0.5679
  O  O1724  1  0.777500  0.492600  0.558100  1.0  -0.5705
  O  O1725  1  0.362500  0.012700  0.646000  1.0  -0.4818
  O  O1726  1  0.266000  0.974400  0.694800  1.0  -0.573
  O  O1727  1  0.444500  0.008800  0.713600  1.0  -0.5806
  O  O1728  1  0.304600  0.974500  0.766300  1.0  -0.5606
  O  O1729  1  0.354300  0.012600  0.862200  1.0  -0.4915
  O  O1730  1  0.300750  0.039000  0.776300  1.0  -0.5941
  O  O1731  1  0.213700  0.008900  0.555900  1.0  -0.5814
  O  O1732  1  0.276100  0.039300  0.699300  1.0  -0.6018
  O  O1733  1  0.442200  0.992600  0.777200  1.0  -0.5679
  O  O1734  1  0.277500  0.992600  0.558100  1.0  -0.5705
  O  O1735  1  0.362500  0.512700  0.146000  1.0  -0.4818
  O  O1736  1  0.266000  0.474400  0.194800  1.0  -0.573
  O  O1737  1  0.444500  0.508800  0.213600  1.0  -0.5806
  O  O1738  1  0.304600  0.474500  0.266300  1.0  -0.5606
  O  O1739  1  0.354300  0.512600  0.362200  1.0  -0.4915
  O  O1740  1  0.300750  0.539000  0.276300  1.0  -0.5941
  O  O1741  1  0.213700  0.508900  0.055900  1.0  -0.5814
  O  O1742  1  0.276100  0.539300  0.199300  1.0  -0.6018
  O  O1743  1  0.442200  0.492600  0.277200  1.0  -0.5679
  O  O1744  1  0.277500  0.492600  0.058100  1.0  -0.5705
  O  O1745  1  0.137500  0.987300  0.146000  1.0  -0.4801
  O  O1746  1  0.234000  0.025600  0.194800  1.0  -0.5701
  O  O1747  1  0.055500  0.991200  0.213600  1.0  -0.5811
  O  O1748  1  0.195400  0.025500  0.266300  1.0  -0.5583
  O  O1749  1  0.145700  0.987400  0.362200  1.0  -0.4895
  O  O1750  1  0.199250  0.961000  0.276300  1.0  -0.5954
  O  O1751  1  0.286300  0.991100  0.055900  1.0  -0.58
  O  O1752  1  0.223900  0.960700  0.199300  1.0  -0.6023
  O  O1753  1  0.057800  0.007400  0.277200  1.0  -0.5685
  O  O1754  1  0.222500  0.007400  0.058100  1.0  -0.5718
  O  O1755  1  0.137500  0.487300  0.646000  1.0  -0.4801
  O  O1756  1  0.234000  0.525600  0.694800  1.0  -0.5701
  O  O1757  1  0.055500  0.491200  0.713600  1.0  -0.5811
  O  O1758  1  0.195400  0.525500  0.766300  1.0  -0.5583
  O  O1759  1  0.145700  0.487400  0.862200  1.0  -0.4895
  O  O1760  1  0.199250  0.461000  0.776300  1.0  -0.5954
  O  O1761  1  0.286300  0.491100  0.555900  1.0  -0.58
  O  O1762  1  0.223900  0.460700  0.699300  1.0  -0.6023
  O  O1763  1  0.057800  0.507400  0.777200  1.0  -0.5685
  O  O1764  1  0.222500  0.507400  0.558100  1.0  -0.5718
  O  O1765  1  0.637500  0.987300  0.646000  1.0  -0.4801
  O  O1766  1  0.734000  0.025600  0.694800  1.0  -0.5701
  O  O1767  1  0.555500  0.991200  0.713600  1.0  -0.5811
  O  O1768  1  0.695400  0.025500  0.766300  1.0  -0.5583
  O  O1769  1  0.645700  0.987400  0.862200  1.0  -0.4895
  O  O1770  1  0.699250  0.961000  0.776300  1.0  -0.5954
  O  O1771  1  0.786300  0.991100  0.555900  1.0  -0.58
  O  O1772  1  0.723900  0.960700  0.699300  1.0  -0.6023
  O  O1773  1  0.557800  0.007400  0.777200  1.0  -0.5685
  O  O1774  1  0.722500  0.007400  0.558100  1.0  -0.5718
  O  O1775  1  0.637500  0.487300  0.146000  1.0  -0.4801
  O  O1776  1  0.734000  0.525600  0.194800  1.0  -0.5701
  O  O1777  1  0.555500  0.491200  0.213600  1.0  -0.5811
  O  O1778  1  0.695400  0.525500  0.266300  1.0  -0.5583
  O  O1779  1  0.645700  0.487400  0.362200  1.0  -0.4895
  O  O1780  1  0.699250  0.461000  0.276300  1.0  -0.5954
  O  O1781  1  0.786300  0.491100  0.055900  1.0  -0.58
  O  O1782  1  0.723900  0.460700  0.199300  1.0  -0.6023
  O  O1783  1  0.557800  0.507400  0.277200  1.0  -0.5685
  O  O1784  1  0.722500  0.507400  0.058100  1.0  -0.5718
  O  O1785  1  0.862500  0.987300  0.854000  1.0  -0.4814
  O  O1786  1  0.766000  0.025600  0.805200  1.0  -0.5697
  O  O1787  1  0.944500  0.991200  0.786400  1.0  -0.5799
  O  O1788  1  0.804600  0.025500  0.733700  1.0  -0.5574
  O  O1789  1  0.854300  0.987400  0.637800  1.0  -0.4882
  O  O1790  1  0.800750  0.961000  0.723700  1.0  -0.5956
  O  O1791  1  0.713700  0.991100  0.944100  1.0  -0.5805
  O  O1792  1  0.776100  0.960700  0.800700  1.0  -0.6026
  O  O1793  1  0.942200  0.007400  0.722800  1.0  -0.5696
  O  O1794  1  0.777500  0.007400  0.941900  1.0  -0.5713
  O  O1795  1  0.862500  0.487300  0.354000  1.0  -0.4814
  O  O1796  1  0.766000  0.525600  0.305200  1.0  -0.5697
  O  O1797  1  0.944500  0.491200  0.286400  1.0  -0.5799
  O  O1798  1  0.804600  0.525500  0.233700  1.0  -0.5574
  O  O1799  1  0.854300  0.487400  0.137800  1.0  -0.4882
  O  O1800  1  0.800750  0.461000  0.223700  1.0  -0.5956
  O  O1801  1  0.713700  0.491100  0.444100  1.0  -0.5805
  O  O1802  1  0.776100  0.460700  0.300700  1.0  -0.6026
  O  O1803  1  0.942200  0.507400  0.222800  1.0  -0.5696
  O  O1804  1  0.777500  0.507400  0.441900  1.0  -0.5713
  O  O1805  1  0.362500  0.987300  0.354000  1.0  -0.4814
  O  O1806  1  0.266000  0.025600  0.305200  1.0  -0.5697
  O  O1807  1  0.444500  0.991200  0.286400  1.0  -0.5799
  O  O1808  1  0.304600  0.025500  0.233700  1.0  -0.5574
  O  O1809  1  0.354300  0.987400  0.137800  1.0  -0.4882
  O  O1810  1  0.300750  0.961000  0.223700  1.0  -0.5956
  O  O1811  1  0.213700  0.991100  0.444100  1.0  -0.5805
  O  O1812  1  0.276100  0.960700  0.300700  1.0  -0.6026
  O  O1813  1  0.442200  0.007400  0.222800  1.0  -0.5696
  O  O1814  1  0.277500  0.007400  0.441900  1.0  -0.5713
  O  O1815  1  0.362500  0.487300  0.854000  1.0  -0.4814
  O  O1816  1  0.266000  0.525600  0.805200  1.0  -0.5697
  O  O1817  1  0.444500  0.491200  0.786400  1.0  -0.5799
  O  O1818  1  0.304600  0.525500  0.733700  1.0  -0.5574
  O  O1819  1  0.354300  0.487400  0.637800  1.0  -0.4882
  O  O1820  1  0.300750  0.461000  0.723700  1.0  -0.5956
  O  O1821  1  0.213700  0.491100  0.944100  1.0  -0.5805
  O  O1822  1  0.276100  0.460700  0.800700  1.0  -0.6026
  O  O1823  1  0.442200  0.507400  0.722800  1.0  -0.5696
  O  O1824  1  0.277500  0.507400  0.941900  1.0  -0.5713
