# generated using pymatgen
data_CuH5C7NO5
_symmetry_space_group_name_H-M   'P 1'
_cell_length_a   34.17200000
_cell_length_b   34.17200000
_cell_length_c   34.17200000
_cell_angle_alpha   90.00000000
_cell_angle_beta   90.00000000
_cell_angle_gamma   90.00000000
_symmetry_Int_Tables_number   1
_chemical_formula_structural   CuH5C7NO5
_chemical_formula_sum   'Cu96 H480 C672 N96 O480'
_cell_volume   39903.51865645
_cell_formula_units_Z   96
loop_
 _symmetry_equiv_pos_site_id
 _symmetry_equiv_pos_as_xyz
  1  'x, y, z'
loop_
 _atom_site_type_symbol
 _atom_site_label
 _atom_site_symmetry_multiplicity
 _atom_site_fract_x
 _atom_site_fract_y
 _atom_site_fract_z
 _atom_site_occupancy
 _atom_site_charge
  Cu  Cu1  1  0.250000  0.750000  0.954730  1.0  0.8604
  Cu  Cu2  1  0.250000  0.750000  0.031620  1.0  0.8634
  Cu  Cu3  1  0.250000  0.250000  0.454730  1.0  0.8604
  Cu  Cu4  1  0.250000  0.250000  0.531620  1.0  0.8634
  Cu  Cu5  1  0.750000  0.250000  0.954730  1.0  0.8604
  Cu  Cu6  1  0.750000  0.250000  0.031620  1.0  0.8634
  Cu  Cu7  1  0.750000  0.750000  0.454730  1.0  0.8604
  Cu  Cu8  1  0.750000  0.750000  0.531620  1.0  0.8634
  Cu  Cu9  1  0.750000  0.750000  0.045270  1.0  0.858
  Cu  Cu10  1  0.750000  0.750000  0.968380  1.0  0.8641
  Cu  Cu11  1  0.750000  0.250000  0.545270  1.0  0.858
  Cu  Cu12  1  0.750000  0.250000  0.468380  1.0  0.8641
  Cu  Cu13  1  0.250000  0.250000  0.045270  1.0  0.858
  Cu  Cu14  1  0.250000  0.250000  0.968380  1.0  0.8641
  Cu  Cu15  1  0.250000  0.750000  0.545270  1.0  0.858
  Cu  Cu16  1  0.250000  0.750000  0.468380  1.0  0.8641
  Cu  Cu17  1  0.954730  0.250000  0.750000  1.0  0.8643
  Cu  Cu18  1  0.031620  0.250000  0.750000  1.0  0.8625
  Cu  Cu19  1  0.454730  0.250000  0.250000  1.0  0.8643
  Cu  Cu20  1  0.531620  0.250000  0.250000  1.0  0.8625
  Cu  Cu21  1  0.954730  0.750000  0.250000  1.0  0.8643
  Cu  Cu22  1  0.031620  0.750000  0.250000  1.0  0.8625
  Cu  Cu23  1  0.454730  0.750000  0.750000  1.0  0.8643
  Cu  Cu24  1  0.531620  0.750000  0.750000  1.0  0.8625
  Cu  Cu25  1  0.045270  0.750000  0.750000  1.0  0.8626
  Cu  Cu26  1  0.968380  0.750000  0.750000  1.0  0.8653
  Cu  Cu27  1  0.545270  0.750000  0.250000  1.0  0.8626
  Cu  Cu28  1  0.468380  0.750000  0.250000  1.0  0.8653
  Cu  Cu29  1  0.045270  0.250000  0.250000  1.0  0.8626
  Cu  Cu30  1  0.968380  0.250000  0.250000  1.0  0.8653
  Cu  Cu31  1  0.545270  0.250000  0.750000  1.0  0.8626
  Cu  Cu32  1  0.468380  0.250000  0.750000  1.0  0.8653
  Cu  Cu33  1  0.750000  0.954730  0.250000  1.0  0.8641
  Cu  Cu34  1  0.750000  0.031620  0.250000  1.0  0.8685
  Cu  Cu35  1  0.750000  0.454730  0.750000  1.0  0.8641
  Cu  Cu36  1  0.750000  0.531620  0.750000  1.0  0.8685
  Cu  Cu37  1  0.250000  0.954730  0.750000  1.0  0.8641
  Cu  Cu38  1  0.250000  0.031620  0.750000  1.0  0.8685
  Cu  Cu39  1  0.250000  0.454730  0.250000  1.0  0.8641
  Cu  Cu40  1  0.250000  0.531620  0.250000  1.0  0.8685
  Cu  Cu41  1  0.750000  0.045270  0.750000  1.0  0.863
  Cu  Cu42  1  0.750000  0.968380  0.750000  1.0  0.8656
  Cu  Cu43  1  0.750000  0.545270  0.250000  1.0  0.863
  Cu  Cu44  1  0.750000  0.468380  0.250000  1.0  0.8656
  Cu  Cu45  1  0.250000  0.045270  0.250000  1.0  0.863
  Cu  Cu46  1  0.250000  0.968380  0.250000  1.0  0.8656
  Cu  Cu47  1  0.250000  0.545270  0.750000  1.0  0.863
  Cu  Cu48  1  0.250000  0.468380  0.750000  1.0  0.8656
  Cu  Cu49  1  0.289200  0.000000  0.000000  1.0  0.8904
  Cu  Cu50  1  0.210950  0.000000  0.000000  1.0  0.9159
  Cu  Cu51  1  0.289200  0.500000  0.500000  1.0  0.8904
  Cu  Cu52  1  0.210950  0.500000  0.500000  1.0  0.9159
  Cu  Cu53  1  0.789200  0.000000  0.500000  1.0  0.8904
  Cu  Cu54  1  0.710950  0.000000  0.500000  1.0  0.9159
  Cu  Cu55  1  0.789200  0.500000  0.000000  1.0  0.8904
  Cu  Cu56  1  0.710950  0.500000  0.000000  1.0  0.9159
  Cu  Cu57  1  0.710800  0.000000  0.000000  1.0  0.888
  Cu  Cu58  1  0.789050  0.000000  0.000000  1.0  0.919
  Cu  Cu59  1  0.710800  0.500000  0.500000  1.0  0.888
  Cu  Cu60  1  0.789050  0.500000  0.500000  1.0  0.919
  Cu  Cu61  1  0.210800  0.000000  0.500000  1.0  0.888
  Cu  Cu62  1  0.289050  0.000000  0.500000  1.0  0.919
  Cu  Cu63  1  0.210800  0.500000  0.000000  1.0  0.888
  Cu  Cu64  1  0.289050  0.500000  0.000000  1.0  0.919
  Cu  Cu65  1  0.000000  0.289200  0.000000  1.0  0.8879
  Cu  Cu66  1  0.000000  0.210950  0.000000  1.0  0.9207
  Cu  Cu67  1  0.000000  0.789200  0.500000  1.0  0.8879
  Cu  Cu68  1  0.000000  0.710950  0.500000  1.0  0.9207
  Cu  Cu69  1  0.500000  0.289200  0.500000  1.0  0.8879
  Cu  Cu70  1  0.500000  0.210950  0.500000  1.0  0.9207
  Cu  Cu71  1  0.500000  0.789200  0.000000  1.0  0.8879
  Cu  Cu72  1  0.500000  0.710950  0.000000  1.0  0.9207
  Cu  Cu73  1  0.000000  0.710800  0.000000  1.0  0.8928
  Cu  Cu74  1  0.000000  0.789050  0.000000  1.0  0.9186
  Cu  Cu75  1  0.000000  0.210800  0.500000  1.0  0.8928
  Cu  Cu76  1  0.000000  0.289050  0.500000  1.0  0.9186
  Cu  Cu77  1  0.500000  0.710800  0.500000  1.0  0.8928
  Cu  Cu78  1  0.500000  0.789050  0.500000  1.0  0.9186
  Cu  Cu79  1  0.500000  0.210800  0.000000  1.0  0.8928
  Cu  Cu80  1  0.500000  0.289050  0.000000  1.0  0.9186
  Cu  Cu81  1  0.000000  0.000000  0.289200  1.0  0.8863
  Cu  Cu82  1  0.000000  0.000000  0.210950  1.0  0.9125
  Cu  Cu83  1  0.000000  0.500000  0.789200  1.0  0.8863
  Cu  Cu84  1  0.000000  0.500000  0.710950  1.0  0.9125
  Cu  Cu85  1  0.500000  0.000000  0.789200  1.0  0.8863
  Cu  Cu86  1  0.500000  0.000000  0.710950  1.0  0.9125
  Cu  Cu87  1  0.500000  0.500000  0.289200  1.0  0.8863
  Cu  Cu88  1  0.500000  0.500000  0.210950  1.0  0.9125
  Cu  Cu89  1  0.000000  0.000000  0.710800  1.0  0.8852
  Cu  Cu90  1  0.000000  0.000000  0.789050  1.0  0.9139
  Cu  Cu91  1  0.000000  0.500000  0.210800  1.0  0.8852
  Cu  Cu92  1  0.000000  0.500000  0.289050  1.0  0.9139
  Cu  Cu93  1  0.500000  0.000000  0.210800  1.0  0.8852
  Cu  Cu94  1  0.500000  0.000000  0.289050  1.0  0.9139
  Cu  Cu95  1  0.500000  0.500000  0.710800  1.0  0.8852
  Cu  Cu96  1  0.500000  0.500000  0.789050  1.0  0.9139
  H  H97  1  0.407000  0.836300  0.927700  1.0  0.1106
  H  H98  1  0.122800  0.730400  0.967100  1.0  0.1332
  H  H99  1  0.128400  0.727400  0.012500  1.0  0.1419
  H  H100  1  0.114600  0.795400  0.938100  1.0  0.2345
  H  H101  1  0.129600  0.797600  0.015900  1.0  0.1084
  H  H102  1  0.072600  0.835700  0.906900  1.0  0.1138
  H  H103  1  0.295400  0.884000  0.937700  1.0  0.2326
  H  H104  1  0.230000  0.877600  0.966900  1.0  0.138
  H  H105  1  0.227000  0.871800  0.012300  1.0  0.1324
  H  H106  1  0.297700  0.869800  0.015500  1.0  0.1113
  H  H107  1  0.407000  0.336300  0.427700  1.0  0.1106
  H  H108  1  0.122800  0.230400  0.467100  1.0  0.1332
  H  H109  1  0.128400  0.227400  0.512500  1.0  0.1419
  H  H110  1  0.114600  0.295400  0.438100  1.0  0.2345
  H  H111  1  0.129600  0.297600  0.515900  1.0  0.1084
  H  H112  1  0.072600  0.335700  0.406900  1.0  0.1138
  H  H113  1  0.295400  0.384000  0.437700  1.0  0.2326
  H  H114  1  0.230000  0.377600  0.466900  1.0  0.138
  H  H115  1  0.227000  0.371800  0.512300  1.0  0.1324
  H  H116  1  0.297700  0.369800  0.515500  1.0  0.1113
  H  H117  1  0.907000  0.836300  0.427700  1.0  0.1106
  H  H118  1  0.622800  0.730400  0.467100  1.0  0.1332
  H  H119  1  0.628400  0.727400  0.512500  1.0  0.1419
  H  H120  1  0.614600  0.795400  0.438100  1.0  0.2345
  H  H121  1  0.629600  0.797600  0.515900  1.0  0.1084
  H  H122  1  0.572600  0.835700  0.406900  1.0  0.1138
  H  H123  1  0.795400  0.884000  0.437700  1.0  0.2326
  H  H124  1  0.730000  0.877600  0.466900  1.0  0.138
  H  H125  1  0.727000  0.871800  0.512300  1.0  0.1324
  H  H126  1  0.797700  0.869800  0.515500  1.0  0.1113
  H  H127  1  0.907000  0.336300  0.927700  1.0  0.1106
  H  H128  1  0.622800  0.230400  0.967100  1.0  0.1332
  H  H129  1  0.628400  0.227400  0.012500  1.0  0.1419
  H  H130  1  0.614600  0.295400  0.938100  1.0  0.2345
  H  H131  1  0.629600  0.297600  0.015900  1.0  0.1084
  H  H132  1  0.572600  0.335700  0.906900  1.0  0.1138
  H  H133  1  0.795400  0.384000  0.937700  1.0  0.2326
  H  H134  1  0.730000  0.377600  0.966900  1.0  0.138
  H  H135  1  0.727000  0.371800  0.012300  1.0  0.1324
  H  H136  1  0.797700  0.369800  0.015500  1.0  0.1113
  H  H137  1  0.593000  0.163700  0.927700  1.0  0.11
  H  H138  1  0.877200  0.269600  0.967100  1.0  0.1331
  H  H139  1  0.871600  0.272600  0.012500  1.0  0.1414
  H  H140  1  0.885400  0.204600  0.938100  1.0  0.233
  H  H141  1  0.870400  0.202400  0.015900  1.0  0.1094
  H  H142  1  0.927400  0.164300  0.906900  1.0  0.1132
  H  H143  1  0.704600  0.116000  0.937700  1.0  0.2322
  H  H144  1  0.770000  0.122400  0.966900  1.0  0.1379
  H  H145  1  0.773000  0.128200  0.012300  1.0  0.1315
  H  H146  1  0.702300  0.130200  0.015500  1.0  0.1127
  H  H147  1  0.593000  0.663700  0.427700  1.0  0.11
  H  H148  1  0.877200  0.769600  0.467100  1.0  0.1331
  H  H149  1  0.871600  0.772600  0.512500  1.0  0.1414
  H  H150  1  0.885400  0.704600  0.438100  1.0  0.233
  H  H151  1  0.870400  0.702400  0.515900  1.0  0.1094
  H  H152  1  0.927400  0.664300  0.406900  1.0  0.1132
  H  H153  1  0.704600  0.616000  0.437700  1.0  0.2322
  H  H154  1  0.770000  0.622400  0.466900  1.0  0.1379
  H  H155  1  0.773000  0.628200  0.512300  1.0  0.1315
  H  H156  1  0.702300  0.630200  0.515500  1.0  0.1127
  H  H157  1  0.093000  0.163700  0.427700  1.0  0.11
  H  H158  1  0.377200  0.269600  0.467100  1.0  0.1331
  H  H159  1  0.371600  0.272600  0.512500  1.0  0.1414
  H  H160  1  0.385400  0.204600  0.438100  1.0  0.233
  H  H161  1  0.370400  0.202400  0.515900  1.0  0.1094
  H  H162  1  0.427400  0.164300  0.406900  1.0  0.1132
  H  H163  1  0.204600  0.116000  0.437700  1.0  0.2322
  H  H164  1  0.270000  0.122400  0.466900  1.0  0.1379
  H  H165  1  0.273000  0.128200  0.512300  1.0  0.1315
  H  H166  1  0.202300  0.130200  0.515500  1.0  0.1127
  H  H167  1  0.093000  0.663700  0.927700  1.0  0.11
  H  H168  1  0.377200  0.769600  0.967100  1.0  0.1331
  H  H169  1  0.371600  0.772600  0.012500  1.0  0.1414
  H  H170  1  0.385400  0.704600  0.938100  1.0  0.233
  H  H171  1  0.370400  0.702400  0.015900  1.0  0.1094
  H  H172  1  0.427400  0.664300  0.906900  1.0  0.1132
  H  H173  1  0.204600  0.616000  0.937700  1.0  0.2322
  H  H174  1  0.270000  0.622400  0.966900  1.0  0.1379
  H  H175  1  0.273000  0.628200  0.012300  1.0  0.1315
  H  H176  1  0.202300  0.630200  0.015500  1.0  0.1127
  H  H177  1  0.593000  0.836300  0.072300  1.0  0.11
  H  H178  1  0.877200  0.730400  0.032900  1.0  0.1345
  H  H179  1  0.871600  0.727400  0.987500  1.0  0.1403
  H  H180  1  0.885400  0.795400  0.061900  1.0  0.2331
  H  H181  1  0.870400  0.797600  0.984100  1.0  0.1087
  H  H182  1  0.927400  0.835700  0.093100  1.0  0.1138
  H  H183  1  0.704600  0.884000  0.062300  1.0  0.2328
  H  H184  1  0.770000  0.877600  0.033100  1.0  0.1359
  H  H185  1  0.773000  0.871800  0.987700  1.0  0.1306
  H  H186  1  0.702300  0.869800  0.984500  1.0  0.111
  H  H187  1  0.593000  0.336300  0.572300  1.0  0.11
  H  H188  1  0.877200  0.230400  0.532900  1.0  0.1345
  H  H189  1  0.871600  0.227400  0.487500  1.0  0.1403
  H  H190  1  0.885400  0.295400  0.561900  1.0  0.2331
  H  H191  1  0.870400  0.297600  0.484100  1.0  0.1087
  H  H192  1  0.927400  0.335700  0.593100  1.0  0.1138
  H  H193  1  0.704600  0.384000  0.562300  1.0  0.2328
  H  H194  1  0.770000  0.377600  0.533100  1.0  0.1359
  H  H195  1  0.773000  0.371800  0.487700  1.0  0.1306
  H  H196  1  0.702300  0.369800  0.484500  1.0  0.111
  H  H197  1  0.093000  0.836300  0.572300  1.0  0.11
  H  H198  1  0.377200  0.730400  0.532900  1.0  0.1345
  H  H199  1  0.371600  0.727400  0.487500  1.0  0.1403
  H  H200  1  0.385400  0.795400  0.561900  1.0  0.2331
  H  H201  1  0.370400  0.797600  0.484100  1.0  0.1087
  H  H202  1  0.427400  0.835700  0.593100  1.0  0.1138
  H  H203  1  0.204600  0.884000  0.562300  1.0  0.2328
  H  H204  1  0.270000  0.877600  0.533100  1.0  0.1359
  H  H205  1  0.273000  0.871800  0.487700  1.0  0.1306
  H  H206  1  0.202300  0.869800  0.484500  1.0  0.111
  H  H207  1  0.093000  0.336300  0.072300  1.0  0.11
  H  H208  1  0.377200  0.230400  0.032900  1.0  0.1345
  H  H209  1  0.371600  0.227400  0.987500  1.0  0.1403
  H  H210  1  0.385400  0.295400  0.061900  1.0  0.2331
  H  H211  1  0.370400  0.297600  0.984100  1.0  0.1087
  H  H212  1  0.427400  0.335700  0.093100  1.0  0.1138
  H  H213  1  0.204600  0.384000  0.062300  1.0  0.2328
  H  H214  1  0.270000  0.377600  0.033100  1.0  0.1359
  H  H215  1  0.273000  0.371800  0.987700  1.0  0.1306
  H  H216  1  0.202300  0.369800  0.984500  1.0  0.111
  H  H217  1  0.407000  0.163700  0.072300  1.0  0.1098
  H  H218  1  0.122800  0.269600  0.032900  1.0  0.1336
  H  H219  1  0.128400  0.272600  0.987500  1.0  0.1399
  H  H220  1  0.114600  0.204600  0.061900  1.0  0.2329
  H  H221  1  0.129600  0.202400  0.984100  1.0  0.1084
  H  H222  1  0.072600  0.164300  0.093100  1.0  0.1134
  H  H223  1  0.295400  0.116000  0.062300  1.0  0.233
  H  H224  1  0.230000  0.122400  0.033100  1.0  0.1363
  H  H225  1  0.227000  0.128200  0.987700  1.0  0.1312
  H  H226  1  0.297700  0.130200  0.984500  1.0  0.1114
  H  H227  1  0.407000  0.663700  0.572300  1.0  0.1098
  H  H228  1  0.122800  0.769600  0.532900  1.0  0.1336
  H  H229  1  0.128400  0.772600  0.487500  1.0  0.1399
  H  H230  1  0.114600  0.704600  0.561900  1.0  0.2329
  H  H231  1  0.129600  0.702400  0.484100  1.0  0.1084
  H  H232  1  0.072600  0.664300  0.593100  1.0  0.1134
  H  H233  1  0.295400  0.616000  0.562300  1.0  0.233
  H  H234  1  0.230000  0.622400  0.533100  1.0  0.1363
  H  H235  1  0.227000  0.628200  0.487700  1.0  0.1312
  H  H236  1  0.297700  0.630200  0.484500  1.0  0.1114
  H  H237  1  0.907000  0.163700  0.572300  1.0  0.1098
  H  H238  1  0.622800  0.269600  0.532900  1.0  0.1336
  H  H239  1  0.628400  0.272600  0.487500  1.0  0.1399
  H  H240  1  0.614600  0.204600  0.561900  1.0  0.2329
  H  H241  1  0.629600  0.202400  0.484100  1.0  0.1084
  H  H242  1  0.572600  0.164300  0.593100  1.0  0.1134
  H  H243  1  0.795400  0.116000  0.562300  1.0  0.233
  H  H244  1  0.730000  0.122400  0.533100  1.0  0.1363
  H  H245  1  0.727000  0.128200  0.487700  1.0  0.1312
  H  H246  1  0.797700  0.130200  0.484500  1.0  0.1114
  H  H247  1  0.907000  0.663700  0.072300  1.0  0.1098
  H  H248  1  0.622800  0.769600  0.032900  1.0  0.1336
  H  H249  1  0.628400  0.772600  0.987500  1.0  0.1399
  H  H250  1  0.614600  0.704600  0.061900  1.0  0.2329
  H  H251  1  0.629600  0.702400  0.984100  1.0  0.1084
  H  H252  1  0.572600  0.664300  0.093100  1.0  0.1134
  H  H253  1  0.795400  0.616000  0.062300  1.0  0.233
  H  H254  1  0.730000  0.622400  0.033100  1.0  0.1363
  H  H255  1  0.727000  0.628200  0.987700  1.0  0.1312
  H  H256  1  0.797700  0.630200  0.984500  1.0  0.1114
  H  H257  1  0.927700  0.407000  0.836300  1.0  0.1104
  H  H258  1  0.967100  0.122800  0.730400  1.0  0.1342
  H  H259  1  0.012500  0.128400  0.727400  1.0  0.1386
  H  H260  1  0.938100  0.114600  0.795400  1.0  0.232
  H  H261  1  0.015900  0.129600  0.797600  1.0  0.1065
  H  H262  1  0.906900  0.072600  0.835700  1.0  0.1148
  H  H263  1  0.937700  0.295400  0.884000  1.0  0.2319
  H  H264  1  0.966900  0.230000  0.877600  1.0  0.139
  H  H265  1  0.012300  0.227000  0.871800  1.0  0.1306
  H  H266  1  0.015500  0.297700  0.869800  1.0  0.1105
  H  H267  1  0.927700  0.907000  0.336300  1.0  0.1104
  H  H268  1  0.967100  0.622800  0.230400  1.0  0.1342
  H  H269  1  0.012500  0.628400  0.227400  1.0  0.1386
  H  H270  1  0.938100  0.614600  0.295400  1.0  0.232
  H  H271  1  0.015900  0.629600  0.297600  1.0  0.1065
  H  H272  1  0.906900  0.572600  0.335700  1.0  0.1148
  H  H273  1  0.937700  0.795400  0.384000  1.0  0.2319
  H  H274  1  0.966900  0.730000  0.377600  1.0  0.139
  H  H275  1  0.012300  0.727000  0.371800  1.0  0.1306
  H  H276  1  0.015500  0.797700  0.369800  1.0  0.1105
  H  H277  1  0.427700  0.407000  0.336300  1.0  0.1104
  H  H278  1  0.467100  0.122800  0.230400  1.0  0.1342
  H  H279  1  0.512500  0.128400  0.227400  1.0  0.1386
  H  H280  1  0.438100  0.114600  0.295400  1.0  0.232
  H  H281  1  0.515900  0.129600  0.297600  1.0  0.1065
  H  H282  1  0.406900  0.072600  0.335700  1.0  0.1148
  H  H283  1  0.437700  0.295400  0.384000  1.0  0.2319
  H  H284  1  0.466900  0.230000  0.377600  1.0  0.139
  H  H285  1  0.512300  0.227000  0.371800  1.0  0.1306
  H  H286  1  0.515500  0.297700  0.369800  1.0  0.1105
  H  H287  1  0.427700  0.907000  0.836300  1.0  0.1104
  H  H288  1  0.467100  0.622800  0.730400  1.0  0.1342
  H  H289  1  0.512500  0.628400  0.727400  1.0  0.1386
  H  H290  1  0.438100  0.614600  0.795400  1.0  0.232
  H  H291  1  0.515900  0.629600  0.797600  1.0  0.1065
  H  H292  1  0.406900  0.572600  0.835700  1.0  0.1148
  H  H293  1  0.437700  0.795400  0.884000  1.0  0.2319
  H  H294  1  0.466900  0.730000  0.877600  1.0  0.139
  H  H295  1  0.512300  0.727000  0.871800  1.0  0.1306
  H  H296  1  0.515500  0.797700  0.869800  1.0  0.1105
  H  H297  1  0.927700  0.593000  0.163700  1.0  0.1105
  H  H298  1  0.967100  0.877200  0.269600  1.0  0.134
  H  H299  1  0.012500  0.871600  0.272600  1.0  0.1383
  H  H300  1  0.938100  0.885400  0.204600  1.0  0.2316
  H  H301  1  0.015900  0.870400  0.202400  1.0  0.1074
  H  H302  1  0.906900  0.927400  0.164300  1.0  0.1145
  H  H303  1  0.937700  0.704600  0.116000  1.0  0.2322
  H  H304  1  0.966900  0.770000  0.122400  1.0  0.1385
  H  H305  1  0.012300  0.773000  0.128200  1.0  0.1311
  H  H306  1  0.015500  0.702300  0.130200  1.0  0.1102
  H  H307  1  0.927700  0.093000  0.663700  1.0  0.1105
  H  H308  1  0.967100  0.377200  0.769600  1.0  0.134
  H  H309  1  0.012500  0.371600  0.772600  1.0  0.1383
  H  H310  1  0.938100  0.385400  0.704600  1.0  0.2316
  H  H311  1  0.015900  0.370400  0.702400  1.0  0.1074
  H  H312  1  0.906900  0.427400  0.664300  1.0  0.1145
  H  H313  1  0.937700  0.204600  0.616000  1.0  0.2322
  H  H314  1  0.966900  0.270000  0.622400  1.0  0.1385
  H  H315  1  0.012300  0.273000  0.628200  1.0  0.1311
  H  H316  1  0.015500  0.202300  0.630200  1.0  0.1102
  H  H317  1  0.427700  0.593000  0.663700  1.0  0.1105
  H  H318  1  0.467100  0.877200  0.769600  1.0  0.134
  H  H319  1  0.512500  0.871600  0.772600  1.0  0.1383
  H  H320  1  0.438100  0.885400  0.704600  1.0  0.2316
  H  H321  1  0.515900  0.870400  0.702400  1.0  0.1074
  H  H322  1  0.406900  0.927400  0.664300  1.0  0.1145
  H  H323  1  0.437700  0.704600  0.616000  1.0  0.2322
  H  H324  1  0.466900  0.770000  0.622400  1.0  0.1385
  H  H325  1  0.512300  0.773000  0.628200  1.0  0.1311
  H  H326  1  0.515500  0.702300  0.630200  1.0  0.1102
  H  H327  1  0.427700  0.093000  0.163700  1.0  0.1105
  H  H328  1  0.467100  0.377200  0.269600  1.0  0.134
  H  H329  1  0.512500  0.371600  0.272600  1.0  0.1383
  H  H330  1  0.438100  0.385400  0.204600  1.0  0.2316
  H  H331  1  0.515900  0.370400  0.202400  1.0  0.1074
  H  H332  1  0.406900  0.427400  0.164300  1.0  0.1145
  H  H333  1  0.437700  0.204600  0.116000  1.0  0.2322
  H  H334  1  0.466900  0.270000  0.122400  1.0  0.1385
  H  H335  1  0.512300  0.273000  0.128200  1.0  0.1311
  H  H336  1  0.515500  0.202300  0.130200  1.0  0.1102
  H  H337  1  0.072300  0.593000  0.836300  1.0  0.1107
  H  H338  1  0.032900  0.877200  0.730400  1.0  0.1334
  H  H339  1  0.987500  0.871600  0.727400  1.0  0.139
  H  H340  1  0.061900  0.885400  0.795400  1.0  0.2309
  H  H341  1  0.984100  0.870400  0.797600  1.0  0.105
  H  H342  1  0.093100  0.927400  0.835700  1.0  0.1152
  H  H343  1  0.062300  0.704600  0.884000  1.0  0.2311
  H  H344  1  0.033100  0.770000  0.877600  1.0  0.1384
  H  H345  1  0.987700  0.773000  0.871800  1.0  0.1324
  H  H346  1  0.984500  0.702300  0.869800  1.0  0.1107
  H  H347  1  0.072300  0.093000  0.336300  1.0  0.1107
  H  H348  1  0.032900  0.377200  0.230400  1.0  0.1334
  H  H349  1  0.987500  0.371600  0.227400  1.0  0.139
  H  H350  1  0.061900  0.385400  0.295400  1.0  0.2309
  H  H351  1  0.984100  0.370400  0.297600  1.0  0.105
  H  H352  1  0.093100  0.427400  0.335700  1.0  0.1152
  H  H353  1  0.062300  0.204600  0.384000  1.0  0.2311
  H  H354  1  0.033100  0.270000  0.377600  1.0  0.1384
  H  H355  1  0.987700  0.273000  0.371800  1.0  0.1324
  H  H356  1  0.984500  0.202300  0.369800  1.0  0.1107
  H  H357  1  0.572300  0.593000  0.336300  1.0  0.1107
  H  H358  1  0.532900  0.877200  0.230400  1.0  0.1334
  H  H359  1  0.487500  0.871600  0.227400  1.0  0.139
  H  H360  1  0.561900  0.885400  0.295400  1.0  0.2309
  H  H361  1  0.484100  0.870400  0.297600  1.0  0.105
  H  H362  1  0.593100  0.927400  0.335700  1.0  0.1152
  H  H363  1  0.562300  0.704600  0.384000  1.0  0.2311
  H  H364  1  0.533100  0.770000  0.377600  1.0  0.1384
  H  H365  1  0.487700  0.773000  0.371800  1.0  0.1324
  H  H366  1  0.484500  0.702300  0.369800  1.0  0.1107
  H  H367  1  0.572300  0.093000  0.836300  1.0  0.1107
  H  H368  1  0.532900  0.377200  0.730400  1.0  0.1334
  H  H369  1  0.487500  0.371600  0.727400  1.0  0.139
  H  H370  1  0.561900  0.385400  0.795400  1.0  0.2309
  H  H371  1  0.484100  0.370400  0.797600  1.0  0.105
  H  H372  1  0.593100  0.427400  0.835700  1.0  0.1152
  H  H373  1  0.562300  0.204600  0.884000  1.0  0.2311
  H  H374  1  0.533100  0.270000  0.877600  1.0  0.1384
  H  H375  1  0.487700  0.273000  0.871800  1.0  0.1324
  H  H376  1  0.484500  0.202300  0.869800  1.0  0.1107
  H  H377  1  0.072300  0.407000  0.163700  1.0  0.1103
  H  H378  1  0.032900  0.122800  0.269600  1.0  0.1329
  H  H379  1  0.987500  0.128400  0.272600  1.0  0.1382
  H  H380  1  0.061900  0.114600  0.204600  1.0  0.2321
  H  H381  1  0.984100  0.129600  0.202400  1.0  0.1061
  H  H382  1  0.093100  0.072600  0.164300  1.0  0.1148
  H  H383  1  0.062300  0.295400  0.116000  1.0  0.2308
  H  H384  1  0.033100  0.230000  0.122400  1.0  0.1394
  H  H385  1  0.987700  0.227000  0.128200  1.0  0.1325
  H  H386  1  0.984500  0.297700  0.130200  1.0  0.1107
  H  H387  1  0.072300  0.907000  0.663700  1.0  0.1103
  H  H388  1  0.032900  0.622800  0.769600  1.0  0.1329
  H  H389  1  0.987500  0.628400  0.772600  1.0  0.1382
  H  H390  1  0.061900  0.614600  0.704600  1.0  0.2321
  H  H391  1  0.984100  0.629600  0.702400  1.0  0.1061
  H  H392  1  0.093100  0.572600  0.664300  1.0  0.1148
  H  H393  1  0.062300  0.795400  0.616000  1.0  0.2308
  H  H394  1  0.033100  0.730000  0.622400  1.0  0.1394
  H  H395  1  0.987700  0.727000  0.628200  1.0  0.1325
  H  H396  1  0.984500  0.797700  0.630200  1.0  0.1107
  H  H397  1  0.572300  0.407000  0.663700  1.0  0.1103
  H  H398  1  0.532900  0.122800  0.769600  1.0  0.1329
  H  H399  1  0.487500  0.128400  0.772600  1.0  0.1382
  H  H400  1  0.561900  0.114600  0.704600  1.0  0.2321
  H  H401  1  0.484100  0.129600  0.702400  1.0  0.1061
  H  H402  1  0.593100  0.072600  0.664300  1.0  0.1148
  H  H403  1  0.562300  0.295400  0.616000  1.0  0.2308
  H  H404  1  0.533100  0.230000  0.622400  1.0  0.1394
  H  H405  1  0.487700  0.227000  0.628200  1.0  0.1325
  H  H406  1  0.484500  0.297700  0.630200  1.0  0.1107
  H  H407  1  0.572300  0.907000  0.163700  1.0  0.1103
  H  H408  1  0.532900  0.622800  0.269600  1.0  0.1329
  H  H409  1  0.487500  0.628400  0.272600  1.0  0.1382
  H  H410  1  0.561900  0.614600  0.204600  1.0  0.2321
  H  H411  1  0.484100  0.629600  0.202400  1.0  0.1061
  H  H412  1  0.593100  0.572600  0.164300  1.0  0.1148
  H  H413  1  0.562300  0.795400  0.116000  1.0  0.2308
  H  H414  1  0.533100  0.730000  0.122400  1.0  0.1394
  H  H415  1  0.487700  0.727000  0.128200  1.0  0.1325
  H  H416  1  0.484500  0.797700  0.130200  1.0  0.1107
  H  H417  1  0.836300  0.927700  0.407000  1.0  0.1102
  H  H418  1  0.730400  0.967100  0.122800  1.0  0.1347
  H  H419  1  0.727400  0.012500  0.128400  1.0  0.1376
  H  H420  1  0.795400  0.938100  0.114600  1.0  0.2332
  H  H421  1  0.797600  0.015900  0.129600  1.0  0.106
  H  H422  1  0.835700  0.906900  0.072600  1.0  0.1137
  H  H423  1  0.884000  0.937700  0.295400  1.0  0.2313
  H  H424  1  0.877600  0.966900  0.230000  1.0  0.1389
  H  H425  1  0.871800  0.012300  0.227000  1.0  0.1316
  H  H426  1  0.869800  0.015500  0.297700  1.0  0.1106
  H  H427  1  0.836300  0.427700  0.907000  1.0  0.1102
  H  H428  1  0.730400  0.467100  0.622800  1.0  0.1347
  H  H429  1  0.727400  0.512500  0.628400  1.0  0.1376
  H  H430  1  0.795400  0.438100  0.614600  1.0  0.2332
  H  H431  1  0.797600  0.515900  0.629600  1.0  0.106
  H  H432  1  0.835700  0.406900  0.572600  1.0  0.1137
  H  H433  1  0.884000  0.437700  0.795400  1.0  0.2313
  H  H434  1  0.877600  0.466900  0.730000  1.0  0.1389
  H  H435  1  0.871800  0.512300  0.727000  1.0  0.1316
  H  H436  1  0.869800  0.515500  0.797700  1.0  0.1106
  H  H437  1  0.336300  0.927700  0.907000  1.0  0.1102
  H  H438  1  0.230400  0.967100  0.622800  1.0  0.1347
  H  H439  1  0.227400  0.012500  0.628400  1.0  0.1376
  H  H440  1  0.295400  0.938100  0.614600  1.0  0.2332
  H  H441  1  0.297600  0.015900  0.629600  1.0  0.106
  H  H442  1  0.335700  0.906900  0.572600  1.0  0.1137
  H  H443  1  0.384000  0.937700  0.795400  1.0  0.2313
  H  H444  1  0.377600  0.966900  0.730000  1.0  0.1389
  H  H445  1  0.371800  0.012300  0.727000  1.0  0.1316
  H  H446  1  0.369800  0.015500  0.797700  1.0  0.1106
  H  H447  1  0.336300  0.427700  0.407000  1.0  0.1102
  H  H448  1  0.230400  0.467100  0.122800  1.0  0.1347
  H  H449  1  0.227400  0.512500  0.128400  1.0  0.1376
  H  H450  1  0.295400  0.438100  0.114600  1.0  0.2332
  H  H451  1  0.297600  0.515900  0.129600  1.0  0.106
  H  H452  1  0.335700  0.406900  0.072600  1.0  0.1137
  H  H453  1  0.384000  0.437700  0.295400  1.0  0.2313
  H  H454  1  0.377600  0.466900  0.230000  1.0  0.1389
  H  H455  1  0.371800  0.512300  0.227000  1.0  0.1316
  H  H456  1  0.369800  0.515500  0.297700  1.0  0.1106
  H  H457  1  0.163700  0.927700  0.593000  1.0  0.1102
  H  H458  1  0.269600  0.967100  0.877200  1.0  0.134
  H  H459  1  0.272600  0.012500  0.871600  1.0  0.1371
  H  H460  1  0.204600  0.938100  0.885400  1.0  0.2334
  H  H461  1  0.202400  0.015900  0.870400  1.0  0.1063
  H  H462  1  0.164300  0.906900  0.927400  1.0  0.1142
  H  H463  1  0.116000  0.937700  0.704600  1.0  0.231
  H  H464  1  0.122400  0.966900  0.770000  1.0  0.1394
  H  H465  1  0.128200  0.012300  0.773000  1.0  0.1309
  H  H466  1  0.130200  0.015500  0.702300  1.0  0.1113
  H  H467  1  0.163700  0.427700  0.093000  1.0  0.1102
  H  H468  1  0.269600  0.467100  0.377200  1.0  0.134
  H  H469  1  0.272600  0.512500  0.371600  1.0  0.1371
  H  H470  1  0.204600  0.438100  0.385400  1.0  0.2334
  H  H471  1  0.202400  0.515900  0.370400  1.0  0.1063
  H  H472  1  0.164300  0.406900  0.427400  1.0  0.1142
  H  H473  1  0.116000  0.437700  0.204600  1.0  0.231
  H  H474  1  0.122400  0.466900  0.270000  1.0  0.1394
  H  H475  1  0.128200  0.512300  0.273000  1.0  0.1309
  H  H476  1  0.130200  0.515500  0.202300  1.0  0.1113
  H  H477  1  0.663700  0.927700  0.093000  1.0  0.1102
  H  H478  1  0.769600  0.967100  0.377200  1.0  0.134
  H  H479  1  0.772600  0.012500  0.371600  1.0  0.1371
  H  H480  1  0.704600  0.938100  0.385400  1.0  0.2334
  H  H481  1  0.702400  0.015900  0.370400  1.0  0.1063
  H  H482  1  0.664300  0.906900  0.427400  1.0  0.1142
  H  H483  1  0.616000  0.937700  0.204600  1.0  0.231
  H  H484  1  0.622400  0.966900  0.270000  1.0  0.1394
  H  H485  1  0.628200  0.012300  0.273000  1.0  0.1309
  H  H486  1  0.630200  0.015500  0.202300  1.0  0.1113
  H  H487  1  0.663700  0.427700  0.593000  1.0  0.1102
  H  H488  1  0.769600  0.467100  0.877200  1.0  0.134
  H  H489  1  0.772600  0.512500  0.871600  1.0  0.1371
  H  H490  1  0.704600  0.438100  0.885400  1.0  0.2334
  H  H491  1  0.702400  0.515900  0.870400  1.0  0.1063
  H  H492  1  0.664300  0.406900  0.927400  1.0  0.1142
  H  H493  1  0.616000  0.437700  0.704600  1.0  0.231
  H  H494  1  0.622400  0.466900  0.770000  1.0  0.1394
  H  H495  1  0.628200  0.512300  0.773000  1.0  0.1309
  H  H496  1  0.630200  0.515500  0.702300  1.0  0.1113
  H  H497  1  0.836300  0.072300  0.593000  1.0  0.11
  H  H498  1  0.730400  0.032900  0.877200  1.0  0.1344
  H  H499  1  0.727400  0.987500  0.871600  1.0  0.1376
  H  H500  1  0.795400  0.061900  0.885400  1.0  0.2321
  H  H501  1  0.797600  0.984100  0.870400  1.0  0.1068
  H  H502  1  0.835700  0.093100  0.927400  1.0  0.1139
  H  H503  1  0.884000  0.062300  0.704600  1.0  0.2298
  H  H504  1  0.877600  0.033100  0.770000  1.0  0.1372
  H  H505  1  0.871800  0.987700  0.773000  1.0  0.1321
  H  H506  1  0.869800  0.984500  0.702300  1.0  0.1113
  H  H507  1  0.836300  0.572300  0.093000  1.0  0.11
  H  H508  1  0.730400  0.532900  0.377200  1.0  0.1344
  H  H509  1  0.727400  0.487500  0.371600  1.0  0.1376
  H  H510  1  0.795400  0.561900  0.385400  1.0  0.2321
  H  H511  1  0.797600  0.484100  0.370400  1.0  0.1068
  H  H512  1  0.835700  0.593100  0.427400  1.0  0.1139
  H  H513  1  0.884000  0.562300  0.204600  1.0  0.2298
  H  H514  1  0.877600  0.533100  0.270000  1.0  0.1372
  H  H515  1  0.871800  0.487700  0.273000  1.0  0.1321
  H  H516  1  0.869800  0.484500  0.202300  1.0  0.1113
  H  H517  1  0.336300  0.072300  0.093000  1.0  0.11
  H  H518  1  0.230400  0.032900  0.377200  1.0  0.1344
  H  H519  1  0.227400  0.987500  0.371600  1.0  0.1376
  H  H520  1  0.295400  0.061900  0.385400  1.0  0.2321
  H  H521  1  0.297600  0.984100  0.370400  1.0  0.1068
  H  H522  1  0.335700  0.093100  0.427400  1.0  0.1139
  H  H523  1  0.384000  0.062300  0.204600  1.0  0.2298
  H  H524  1  0.377600  0.033100  0.270000  1.0  0.1372
  H  H525  1  0.371800  0.987700  0.273000  1.0  0.1321
  H  H526  1  0.369800  0.984500  0.202300  1.0  0.1113
  H  H527  1  0.336300  0.572300  0.593000  1.0  0.11
  H  H528  1  0.230400  0.532900  0.877200  1.0  0.1344
  H  H529  1  0.227400  0.487500  0.871600  1.0  0.1376
  H  H530  1  0.295400  0.561900  0.885400  1.0  0.2321
  H  H531  1  0.297600  0.484100  0.870400  1.0  0.1068
  H  H532  1  0.335700  0.593100  0.927400  1.0  0.1139
  H  H533  1  0.384000  0.562300  0.704600  1.0  0.2298
  H  H534  1  0.377600  0.533100  0.770000  1.0  0.1372
  H  H535  1  0.371800  0.487700  0.773000  1.0  0.1321
  H  H536  1  0.369800  0.484500  0.702300  1.0  0.1113
  H  H537  1  0.163700  0.072300  0.407000  1.0  0.1104
  H  H538  1  0.269600  0.032900  0.122800  1.0  0.1339
  H  H539  1  0.272600  0.987500  0.128400  1.0  0.1379
  H  H540  1  0.204600  0.061900  0.114600  1.0  0.2315
  H  H541  1  0.202400  0.984100  0.129600  1.0  0.106
  H  H542  1  0.164300  0.093100  0.072600  1.0  0.114
  H  H543  1  0.116000  0.062300  0.295400  1.0  0.2305
  H  H544  1  0.122400  0.033100  0.230000  1.0  0.1379
  H  H545  1  0.128200  0.987700  0.227000  1.0  0.131
  H  H546  1  0.130200  0.984500  0.297700  1.0  0.1118
  H  H547  1  0.163700  0.572300  0.907000  1.0  0.1104
  H  H548  1  0.269600  0.532900  0.622800  1.0  0.1339
  H  H549  1  0.272600  0.487500  0.628400  1.0  0.1379
  H  H550  1  0.204600  0.561900  0.614600  1.0  0.2315
  H  H551  1  0.202400  0.484100  0.629600  1.0  0.106
  H  H552  1  0.164300  0.593100  0.572600  1.0  0.114
  H  H553  1  0.116000  0.562300  0.795400  1.0  0.2305
  H  H554  1  0.122400  0.533100  0.730000  1.0  0.1379
  H  H555  1  0.128200  0.487700  0.727000  1.0  0.131
  H  H556  1  0.130200  0.484500  0.797700  1.0  0.1118
  H  H557  1  0.663700  0.072300  0.907000  1.0  0.1104
  H  H558  1  0.769600  0.032900  0.622800  1.0  0.1339
  H  H559  1  0.772600  0.987500  0.628400  1.0  0.1379
  H  H560  1  0.704600  0.061900  0.614600  1.0  0.2315
  H  H561  1  0.702400  0.984100  0.629600  1.0  0.106
  H  H562  1  0.664300  0.093100  0.572600  1.0  0.114
  H  H563  1  0.616000  0.062300  0.795400  1.0  0.2305
  H  H564  1  0.622400  0.033100  0.730000  1.0  0.1379
  H  H565  1  0.628200  0.987700  0.727000  1.0  0.131
  H  H566  1  0.630200  0.984500  0.797700  1.0  0.1118
  H  H567  1  0.663700  0.572300  0.407000  1.0  0.1104
  H  H568  1  0.769600  0.532900  0.122800  1.0  0.1339
  H  H569  1  0.772600  0.487500  0.128400  1.0  0.1379
  H  H570  1  0.704600  0.561900  0.114600  1.0  0.2315
  H  H571  1  0.702400  0.484100  0.129600  1.0  0.106
  H  H572  1  0.664300  0.593100  0.072600  1.0  0.114
  H  H573  1  0.616000  0.562300  0.295400  1.0  0.2305
  H  H574  1  0.622400  0.533100  0.230000  1.0  0.1379
  H  H575  1  0.628200  0.487700  0.227000  1.0  0.131
  H  H576  1  0.630200  0.484500  0.297700  1.0  0.1118
  C  C577  1  0.400100  0.857700  0.912500  1.0  -0.0757
  C  C578  1  0.117200  0.743200  0.991800  1.0  -0.3342
  C  C579  1  0.367200  0.879900  0.922700  1.0  -0.012
  C  C580  1  0.120500  0.867700  0.922700  1.0  -0.0228
  C  C581  1  0.131700  0.845300  0.958100  1.0  0.5632
  C  C582  1  0.137000  0.783500  0.992000  1.0  0.0622
  C  C583  1  0.243400  0.882700  0.992100  1.0  -0.3514
  C  C584  1  0.087500  0.857400  0.900100  1.0  -0.1241
  C  C585  1  0.181000  0.775500  0.992600  1.0  0.649
  C  C586  1  0.275500  0.818600  0.992700  1.0  0.6828
  C  C587  1  0.245500  0.926400  0.997000  1.0  0.7388
  C  C588  1  0.345300  0.868500  0.958300  1.0  0.5611
  C  C589  1  0.073500  0.745400  0.997200  1.0  0.7338
  C  C590  1  0.283300  0.862500  0.992000  1.0  0.0921
  C  C591  1  0.400100  0.357700  0.412500  1.0  -0.0757
  C  C592  1  0.117200  0.243200  0.491800  1.0  -0.3342
  C  C593  1  0.367200  0.379900  0.422700  1.0  -0.012
  C  C594  1  0.120500  0.367700  0.422700  1.0  -0.0228
  C  C595  1  0.131700  0.345300  0.458100  1.0  0.5632
  C  C596  1  0.137000  0.283500  0.492000  1.0  0.0622
  C  C597  1  0.243400  0.382700  0.492100  1.0  -0.3514
  C  C598  1  0.087500  0.357400  0.400100  1.0  -0.1241
  C  C599  1  0.181000  0.275500  0.492600  1.0  0.649
  C  C600  1  0.275500  0.318600  0.492700  1.0  0.6828
  C  C601  1  0.245500  0.426400  0.497000  1.0  0.7388
  C  C602  1  0.345300  0.368500  0.458300  1.0  0.5611
  C  C603  1  0.073500  0.245400  0.497200  1.0  0.7338
  C  C604  1  0.283300  0.362500  0.492000  1.0  0.0921
  C  C605  1  0.900100  0.857700  0.412500  1.0  -0.0757
  C  C606  1  0.617200  0.743200  0.491800  1.0  -0.3342
  C  C607  1  0.867200  0.879900  0.422700  1.0  -0.012
  C  C608  1  0.620500  0.867700  0.422700  1.0  -0.0228
  C  C609  1  0.631700  0.845300  0.458100  1.0  0.5632
  C  C610  1  0.637000  0.783500  0.492000  1.0  0.0622
  C  C611  1  0.743400  0.882700  0.492100  1.0  -0.3514
  C  C612  1  0.587500  0.857400  0.400100  1.0  -0.1241
  C  C613  1  0.681000  0.775500  0.492600  1.0  0.649
  C  C614  1  0.775500  0.818600  0.492700  1.0  0.6828
  C  C615  1  0.745500  0.926400  0.497000  1.0  0.7388
  C  C616  1  0.845300  0.868500  0.458300  1.0  0.5611
  C  C617  1  0.573500  0.745400  0.497200  1.0  0.7338
  C  C618  1  0.783300  0.862500  0.492000  1.0  0.0921
  C  C619  1  0.900100  0.357700  0.912500  1.0  -0.0757
  C  C620  1  0.617200  0.243200  0.991800  1.0  -0.3342
  C  C621  1  0.867200  0.379900  0.922700  1.0  -0.012
  C  C622  1  0.620500  0.367700  0.922700  1.0  -0.0228
  C  C623  1  0.631700  0.345300  0.958100  1.0  0.5632
  C  C624  1  0.637000  0.283500  0.992000  1.0  0.0622
  C  C625  1  0.743400  0.382700  0.992100  1.0  -0.3514
  C  C626  1  0.587500  0.357400  0.900100  1.0  -0.1241
  C  C627  1  0.681000  0.275500  0.992600  1.0  0.649
  C  C628  1  0.775500  0.318600  0.992700  1.0  0.6828
  C  C629  1  0.745500  0.426400  0.997000  1.0  0.7388
  C  C630  1  0.845300  0.368500  0.958300  1.0  0.5611
  C  C631  1  0.573500  0.245400  0.997200  1.0  0.7338
  C  C632  1  0.783300  0.362500  0.992000  1.0  0.0921
  C  C633  1  0.599900  0.142300  0.912500  1.0  -0.0767
  C  C634  1  0.882800  0.256800  0.991800  1.0  -0.3373
  C  C635  1  0.632800  0.120100  0.922700  1.0  -0.0126
  C  C636  1  0.879500  0.132300  0.922700  1.0  -0.0226
  C  C637  1  0.868300  0.154700  0.958100  1.0  0.5651
  C  C638  1  0.863000  0.216500  0.992000  1.0  0.0621
  C  C639  1  0.756600  0.117300  0.992100  1.0  -0.3499
  C  C640  1  0.912500  0.142600  0.900100  1.0  -0.1253
  C  C641  1  0.819000  0.224500  0.992600  1.0  0.6466
  C  C642  1  0.724500  0.181400  0.992700  1.0  0.6832
  C  C643  1  0.754500  0.073600  0.997000  1.0  0.7403
  C  C644  1  0.654700  0.131500  0.958300  1.0  0.5603
  C  C645  1  0.926500  0.254600  0.997200  1.0  0.7346
  C  C646  1  0.716700  0.137500  0.992000  1.0  0.0919
  C  C647  1  0.599900  0.642300  0.412500  1.0  -0.0767
  C  C648  1  0.882800  0.756800  0.491800  1.0  -0.3373
  C  C649  1  0.632800  0.620100  0.422700  1.0  -0.0126
  C  C650  1  0.879500  0.632300  0.422700  1.0  -0.0226
  C  C651  1  0.868300  0.654700  0.458100  1.0  0.5651
  C  C652  1  0.863000  0.716500  0.492000  1.0  0.0621
  C  C653  1  0.756600  0.617300  0.492100  1.0  -0.3499
  C  C654  1  0.912500  0.642600  0.400100  1.0  -0.1253
  C  C655  1  0.819000  0.724500  0.492600  1.0  0.6466
  C  C656  1  0.724500  0.681400  0.492700  1.0  0.6832
  C  C657  1  0.754500  0.573600  0.497000  1.0  0.7403
  C  C658  1  0.654700  0.631500  0.458300  1.0  0.5603
  C  C659  1  0.926500  0.754600  0.497200  1.0  0.7346
  C  C660  1  0.716700  0.637500  0.492000  1.0  0.0919
  C  C661  1  0.099900  0.142300  0.412500  1.0  -0.0767
  C  C662  1  0.382800  0.256800  0.491800  1.0  -0.3373
  C  C663  1  0.132800  0.120100  0.422700  1.0  -0.0126
  C  C664  1  0.379500  0.132300  0.422700  1.0  -0.0226
  C  C665  1  0.368300  0.154700  0.458100  1.0  0.5651
  C  C666  1  0.363000  0.216500  0.492000  1.0  0.0621
  C  C667  1  0.256600  0.117300  0.492100  1.0  -0.3499
  C  C668  1  0.412500  0.142600  0.400100  1.0  -0.1253
  C  C669  1  0.319000  0.224500  0.492600  1.0  0.6466
  C  C670  1  0.224500  0.181400  0.492700  1.0  0.6832
  C  C671  1  0.254500  0.073600  0.497000  1.0  0.7403
  C  C672  1  0.154700  0.131500  0.458300  1.0  0.5603
  C  C673  1  0.426500  0.254600  0.497200  1.0  0.7346
  C  C674  1  0.216700  0.137500  0.492000  1.0  0.0919
  C  C675  1  0.099900  0.642300  0.912500  1.0  -0.0767
  C  C676  1  0.382800  0.756800  0.991800  1.0  -0.3373
  C  C677  1  0.132800  0.620100  0.922700  1.0  -0.0126
  C  C678  1  0.379500  0.632300  0.922700  1.0  -0.0226
  C  C679  1  0.368300  0.654700  0.958100  1.0  0.5651
  C  C680  1  0.363000  0.716500  0.992000  1.0  0.0621
  C  C681  1  0.256600  0.617300  0.992100  1.0  -0.3499
  C  C682  1  0.412500  0.642600  0.900100  1.0  -0.1253
  C  C683  1  0.319000  0.724500  0.992600  1.0  0.6466
  C  C684  1  0.224500  0.681400  0.992700  1.0  0.6832
  C  C685  1  0.254500  0.573600  0.997000  1.0  0.7403
  C  C686  1  0.154700  0.631500  0.958300  1.0  0.5603
  C  C687  1  0.426500  0.754600  0.997200  1.0  0.7346
  C  C688  1  0.216700  0.637500  0.992000  1.0  0.0919
  C  C689  1  0.599900  0.857700  0.087500  1.0  -0.0752
  C  C690  1  0.882800  0.743200  0.008200  1.0  -0.3353
  C  C691  1  0.632800  0.879900  0.077300  1.0  -0.0124
  C  C692  1  0.879500  0.867700  0.077300  1.0  -0.0225
  C  C693  1  0.868300  0.845300  0.041900  1.0  0.565
  C  C694  1  0.863000  0.783500  0.008000  1.0  0.0628
  C  C695  1  0.756600  0.882700  0.007900  1.0  -0.3506
  C  C696  1  0.912500  0.857400  0.099900  1.0  -0.1242
  C  C697  1  0.819000  0.775500  0.007400  1.0  0.6458
  C  C698  1  0.724500  0.818600  0.007300  1.0  0.6822
  C  C699  1  0.754500  0.926400  0.003000  1.0  0.7403
  C  C700  1  0.654700  0.868500  0.041700  1.0  0.5603
  C  C701  1  0.926500  0.745400  0.002800  1.0  0.7351
  C  C702  1  0.716700  0.862500  0.008000  1.0  0.0915
  C  C703  1  0.599900  0.357700  0.587500  1.0  -0.0752
  C  C704  1  0.882800  0.243200  0.508200  1.0  -0.3353
  C  C705  1  0.632800  0.379900  0.577300  1.0  -0.0124
  C  C706  1  0.879500  0.367700  0.577300  1.0  -0.0225
  C  C707  1  0.868300  0.345300  0.541900  1.0  0.565
  C  C708  1  0.863000  0.283500  0.508000  1.0  0.0628
  C  C709  1  0.756600  0.382700  0.507900  1.0  -0.3506
  C  C710  1  0.912500  0.357400  0.599900  1.0  -0.1242
  C  C711  1  0.819000  0.275500  0.507400  1.0  0.6458
  C  C712  1  0.724500  0.318600  0.507300  1.0  0.6822
  C  C713  1  0.754500  0.426400  0.503000  1.0  0.7403
  C  C714  1  0.654700  0.368500  0.541700  1.0  0.5603
  C  C715  1  0.926500  0.245400  0.502800  1.0  0.7351
  C  C716  1  0.716700  0.362500  0.508000  1.0  0.0915
  C  C717  1  0.099900  0.857700  0.587500  1.0  -0.0752
  C  C718  1  0.382800  0.743200  0.508200  1.0  -0.3353
  C  C719  1  0.132800  0.879900  0.577300  1.0  -0.0124
  C  C720  1  0.379500  0.867700  0.577300  1.0  -0.0225
  C  C721  1  0.368300  0.845300  0.541900  1.0  0.565
  C  C722  1  0.363000  0.783500  0.508000  1.0  0.0628
  C  C723  1  0.256600  0.882700  0.507900  1.0  -0.3506
  C  C724  1  0.412500  0.857400  0.599900  1.0  -0.1242
  C  C725  1  0.319000  0.775500  0.507400  1.0  0.6458
  C  C726  1  0.224500  0.818600  0.507300  1.0  0.6822
  C  C727  1  0.254500  0.926400  0.503000  1.0  0.7403
  C  C728  1  0.154700  0.868500  0.541700  1.0  0.5603
  C  C729  1  0.426500  0.745400  0.502800  1.0  0.7351
  C  C730  1  0.216700  0.862500  0.508000  1.0  0.0915
  C  C731  1  0.099900  0.357700  0.087500  1.0  -0.0752
  C  C732  1  0.382800  0.243200  0.008200  1.0  -0.3353
  C  C733  1  0.132800  0.379900  0.077300  1.0  -0.0124
  C  C734  1  0.379500  0.367700  0.077300  1.0  -0.0225
  C  C735  1  0.368300  0.345300  0.041900  1.0  0.565
  C  C736  1  0.363000  0.283500  0.008000  1.0  0.0628
  C  C737  1  0.256600  0.382700  0.007900  1.0  -0.3506
  C  C738  1  0.412500  0.357400  0.099900  1.0  -0.1242
  C  C739  1  0.319000  0.275500  0.007400  1.0  0.6458
  C  C740  1  0.224500  0.318600  0.007300  1.0  0.6822
  C  C741  1  0.254500  0.426400  0.003000  1.0  0.7403
  C  C742  1  0.154700  0.368500  0.041700  1.0  0.5603
  C  C743  1  0.426500  0.245400  0.002800  1.0  0.7351
  C  C744  1  0.216700  0.362500  0.008000  1.0  0.0915
  C  C745  1  0.400100  0.142300  0.087500  1.0  -0.0766
  C  C746  1  0.117200  0.256800  0.008200  1.0  -0.3352
  C  C747  1  0.367200  0.120100  0.077300  1.0  -0.0119
  C  C748  1  0.120500  0.132300  0.077300  1.0  -0.0231
  C  C749  1  0.131700  0.154700  0.041900  1.0  0.5649
  C  C750  1  0.137000  0.216500  0.008000  1.0  0.0623
  C  C751  1  0.243400  0.117300  0.007900  1.0  -0.3506
  C  C752  1  0.087500  0.142600  0.099900  1.0  -0.1254
  C  C753  1  0.181000  0.224500  0.007400  1.0  0.648
  C  C754  1  0.275500  0.181400  0.007300  1.0  0.6826
  C  C755  1  0.245500  0.073600  0.003000  1.0  0.7401
  C  C756  1  0.345300  0.131500  0.041700  1.0  0.5615
  C  C757  1  0.073500  0.254600  0.002800  1.0  0.7346
  C  C758  1  0.283300  0.137500  0.008000  1.0  0.092
  C  C759  1  0.400100  0.642300  0.587500  1.0  -0.0766
  C  C760  1  0.117200  0.756800  0.508200  1.0  -0.3352
  C  C761  1  0.367200  0.620100  0.577300  1.0  -0.0119
  C  C762  1  0.120500  0.632300  0.577300  1.0  -0.0231
  C  C763  1  0.131700  0.654700  0.541900  1.0  0.5649
  C  C764  1  0.137000  0.716500  0.508000  1.0  0.0623
  C  C765  1  0.243400  0.617300  0.507900  1.0  -0.3506
  C  C766  1  0.087500  0.642600  0.599900  1.0  -0.1254
  C  C767  1  0.181000  0.724500  0.507400  1.0  0.648
  C  C768  1  0.275500  0.681400  0.507300  1.0  0.6826
  C  C769  1  0.245500  0.573600  0.503000  1.0  0.7401
  C  C770  1  0.345300  0.631500  0.541700  1.0  0.5615
  C  C771  1  0.073500  0.754600  0.502800  1.0  0.7346
  C  C772  1  0.283300  0.637500  0.508000  1.0  0.092
  C  C773  1  0.900100  0.142300  0.587500  1.0  -0.0766
  C  C774  1  0.617200  0.256800  0.508200  1.0  -0.3352
  C  C775  1  0.867200  0.120100  0.577300  1.0  -0.0119
  C  C776  1  0.620500  0.132300  0.577300  1.0  -0.0231
  C  C777  1  0.631700  0.154700  0.541900  1.0  0.5649
  C  C778  1  0.637000  0.216500  0.508000  1.0  0.0623
  C  C779  1  0.743400  0.117300  0.507900  1.0  -0.3506
  C  C780  1  0.587500  0.142600  0.599900  1.0  -0.1254
  C  C781  1  0.681000  0.224500  0.507400  1.0  0.648
  C  C782  1  0.775500  0.181400  0.507300  1.0  0.6826
  C  C783  1  0.745500  0.073600  0.503000  1.0  0.7401
  C  C784  1  0.845300  0.131500  0.541700  1.0  0.5615
  C  C785  1  0.573500  0.254600  0.502800  1.0  0.7346
  C  C786  1  0.783300  0.137500  0.508000  1.0  0.092
  C  C787  1  0.900100  0.642300  0.087500  1.0  -0.0766
  C  C788  1  0.617200  0.756800  0.008200  1.0  -0.3352
  C  C789  1  0.867200  0.620100  0.077300  1.0  -0.0119
  C  C790  1  0.620500  0.632300  0.077300  1.0  -0.0231
  C  C791  1  0.631700  0.654700  0.041900  1.0  0.5649
  C  C792  1  0.637000  0.716500  0.008000  1.0  0.0623
  C  C793  1  0.743400  0.617300  0.007900  1.0  -0.3506
  C  C794  1  0.587500  0.642600  0.099900  1.0  -0.1254
  C  C795  1  0.681000  0.724500  0.007400  1.0  0.648
  C  C796  1  0.775500  0.681400  0.007300  1.0  0.6826
  C  C797  1  0.745500  0.573600  0.003000  1.0  0.7401
  C  C798  1  0.845300  0.631500  0.041700  1.0  0.5615
  C  C799  1  0.573500  0.754600  0.002800  1.0  0.7346
  C  C800  1  0.783300  0.637500  0.008000  1.0  0.092
  C  C801  1  0.912500  0.400100  0.857700  1.0  -0.0769
  C  C802  1  0.991800  0.117200  0.743200  1.0  -0.3355
  C  C803  1  0.922700  0.367200  0.879900  1.0  -0.012
  C  C804  1  0.922700  0.120500  0.867700  1.0  -0.0235
  C  C805  1  0.958100  0.131700  0.845300  1.0  0.5642
  C  C806  1  0.992000  0.137000  0.783500  1.0  0.0623
  C  C807  1  0.992100  0.243400  0.882700  1.0  -0.3458
  C  C808  1  0.900100  0.087500  0.857400  1.0  -0.1243
  C  C809  1  0.992600  0.181000  0.775500  1.0  0.6499
  C  C810  1  0.992700  0.275500  0.818600  1.0  0.6843
  C  C811  1  0.997000  0.245500  0.926400  1.0  0.7402
  C  C812  1  0.958300  0.345300  0.868500  1.0  0.5574
  C  C813  1  0.997200  0.073500  0.745400  1.0  0.7344
  C  C814  1  0.992000  0.283300  0.862500  1.0  0.0927
  C  C815  1  0.912500  0.900100  0.357700  1.0  -0.0769
  C  C816  1  0.991800  0.617200  0.243200  1.0  -0.3355
  C  C817  1  0.922700  0.867200  0.379900  1.0  -0.012
  C  C818  1  0.922700  0.620500  0.367700  1.0  -0.0235
  C  C819  1  0.958100  0.631700  0.345300  1.0  0.5642
  C  C820  1  0.992000  0.637000  0.283500  1.0  0.0623
  C  C821  1  0.992100  0.743400  0.382700  1.0  -0.3458
  C  C822  1  0.900100  0.587500  0.357400  1.0  -0.1243
  C  C823  1  0.992600  0.681000  0.275500  1.0  0.6499
  C  C824  1  0.992700  0.775500  0.318600  1.0  0.6843
  C  C825  1  0.997000  0.745500  0.426400  1.0  0.7402
  C  C826  1  0.958300  0.845300  0.368500  1.0  0.5574
  C  C827  1  0.997200  0.573500  0.245400  1.0  0.7344
  C  C828  1  0.992000  0.783300  0.362500  1.0  0.0927
  C  C829  1  0.412500  0.400100  0.357700  1.0  -0.0769
  C  C830  1  0.491800  0.117200  0.243200  1.0  -0.3355
  C  C831  1  0.422700  0.367200  0.379900  1.0  -0.012
  C  C832  1  0.422700  0.120500  0.367700  1.0  -0.0235
  C  C833  1  0.458100  0.131700  0.345300  1.0  0.5642
  C  C834  1  0.492000  0.137000  0.283500  1.0  0.0623
  C  C835  1  0.492100  0.243400  0.382700  1.0  -0.3458
  C  C836  1  0.400100  0.087500  0.357400  1.0  -0.1243
  C  C837  1  0.492600  0.181000  0.275500  1.0  0.6499
  C  C838  1  0.492700  0.275500  0.318600  1.0  0.6843
  C  C839  1  0.497000  0.245500  0.426400  1.0  0.7402
  C  C840  1  0.458300  0.345300  0.368500  1.0  0.5574
  C  C841  1  0.497200  0.073500  0.245400  1.0  0.7344
  C  C842  1  0.492000  0.283300  0.362500  1.0  0.0927
  C  C843  1  0.412500  0.900100  0.857700  1.0  -0.0769
  C  C844  1  0.491800  0.617200  0.743200  1.0  -0.3355
  C  C845  1  0.422700  0.867200  0.879900  1.0  -0.012
  C  C846  1  0.422700  0.620500  0.867700  1.0  -0.0235
  C  C847  1  0.458100  0.631700  0.845300  1.0  0.5642
  C  C848  1  0.492000  0.637000  0.783500  1.0  0.0623
  C  C849  1  0.492100  0.743400  0.882700  1.0  -0.3458
  C  C850  1  0.400100  0.587500  0.857400  1.0  -0.1243
  C  C851  1  0.492600  0.681000  0.775500  1.0  0.6499
  C  C852  1  0.492700  0.775500  0.818600  1.0  0.6843
  C  C853  1  0.497000  0.745500  0.926400  1.0  0.7402
  C  C854  1  0.458300  0.845300  0.868500  1.0  0.5574
  C  C855  1  0.497200  0.573500  0.745400  1.0  0.7344
  C  C856  1  0.492000  0.783300  0.862500  1.0  0.0927
  C  C857  1  0.912500  0.599900  0.142300  1.0  -0.0773
  C  C858  1  0.991800  0.882800  0.256800  1.0  -0.3369
  C  C859  1  0.922700  0.632800  0.120100  1.0  -0.0122
  C  C860  1  0.922700  0.879500  0.132300  1.0  -0.0227
  C  C861  1  0.958100  0.868300  0.154700  1.0  0.5652
  C  C862  1  0.992000  0.863000  0.216500  1.0  0.0609
  C  C863  1  0.992100  0.756600  0.117300  1.0  -0.3467
  C  C864  1  0.900100  0.912500  0.142600  1.0  -0.1235
  C  C865  1  0.992600  0.819000  0.224500  1.0  0.6496
  C  C866  1  0.992700  0.724500  0.181400  1.0  0.683
  C  C867  1  0.997000  0.754500  0.073600  1.0  0.7411
  C  C868  1  0.958300  0.654700  0.131500  1.0  0.5581
  C  C869  1  0.997200  0.926500  0.254600  1.0  0.7332
  C  C870  1  0.992000  0.716700  0.137500  1.0  0.0925
  C  C871  1  0.912500  0.099900  0.642300  1.0  -0.0773
  C  C872  1  0.991800  0.382800  0.756800  1.0  -0.3369
  C  C873  1  0.922700  0.132800  0.620100  1.0  -0.0122
  C  C874  1  0.922700  0.379500  0.632300  1.0  -0.0227
  C  C875  1  0.958100  0.368300  0.654700  1.0  0.5652
  C  C876  1  0.992000  0.363000  0.716500  1.0  0.0609
  C  C877  1  0.992100  0.256600  0.617300  1.0  -0.3467
  C  C878  1  0.900100  0.412500  0.642600  1.0  -0.1235
  C  C879  1  0.992600  0.319000  0.724500  1.0  0.6496
  C  C880  1  0.992700  0.224500  0.681400  1.0  0.683
  C  C881  1  0.997000  0.254500  0.573600  1.0  0.7411
  C  C882  1  0.958300  0.154700  0.631500  1.0  0.5581
  C  C883  1  0.997200  0.426500  0.754600  1.0  0.7332
  C  C884  1  0.992000  0.216700  0.637500  1.0  0.0925
  C  C885  1  0.412500  0.599900  0.642300  1.0  -0.0773
  C  C886  1  0.491800  0.882800  0.756800  1.0  -0.3369
  C  C887  1  0.422700  0.632800  0.620100  1.0  -0.0122
  C  C888  1  0.422700  0.879500  0.632300  1.0  -0.0227
  C  C889  1  0.458100  0.868300  0.654700  1.0  0.5652
  C  C890  1  0.492000  0.863000  0.716500  1.0  0.0609
  C  C891  1  0.492100  0.756600  0.617300  1.0  -0.3467
  C  C892  1  0.400100  0.912500  0.642600  1.0  -0.1235
  C  C893  1  0.492600  0.819000  0.724500  1.0  0.6496
  C  C894  1  0.492700  0.724500  0.681400  1.0  0.683
  C  C895  1  0.497000  0.754500  0.573600  1.0  0.7411
  C  C896  1  0.458300  0.654700  0.631500  1.0  0.5581
  C  C897  1  0.497200  0.926500  0.754600  1.0  0.7332
  C  C898  1  0.492000  0.716700  0.637500  1.0  0.0925
  C  C899  1  0.412500  0.099900  0.142300  1.0  -0.0773
  C  C900  1  0.491800  0.382800  0.256800  1.0  -0.3369
  C  C901  1  0.422700  0.132800  0.120100  1.0  -0.0122
  C  C902  1  0.422700  0.379500  0.132300  1.0  -0.0227
  C  C903  1  0.458100  0.368300  0.154700  1.0  0.5652
  C  C904  1  0.492000  0.363000  0.216500  1.0  0.0609
  C  C905  1  0.492100  0.256600  0.117300  1.0  -0.3467
  C  C906  1  0.400100  0.412500  0.142600  1.0  -0.1235
  C  C907  1  0.492600  0.319000  0.224500  1.0  0.6496
  C  C908  1  0.492700  0.224500  0.181400  1.0  0.683
  C  C909  1  0.497000  0.254500  0.073600  1.0  0.7411
  C  C910  1  0.458300  0.154700  0.131500  1.0  0.5581
  C  C911  1  0.497200  0.426500  0.254600  1.0  0.7332
  C  C912  1  0.492000  0.216700  0.137500  1.0  0.0925
  C  C913  1  0.087500  0.599900  0.857700  1.0  -0.0774
  C  C914  1  0.008200  0.882800  0.743200  1.0  -0.3361
  C  C915  1  0.077300  0.632800  0.879900  1.0  -0.012
  C  C916  1  0.077300  0.879500  0.867700  1.0  -0.0229
  C  C917  1  0.041900  0.868300  0.845300  1.0  0.5635
  C  C918  1  0.008000  0.863000  0.783500  1.0  0.0624
  C  C919  1  0.007900  0.756600  0.882700  1.0  -0.3478
  C  C920  1  0.099900  0.912500  0.857400  1.0  -0.1239
  C  C921  1  0.007400  0.819000  0.775500  1.0  0.6496
  C  C922  1  0.007300  0.724500  0.818600  1.0  0.6838
  C  C923  1  0.003000  0.754500  0.926400  1.0  0.7406
  C  C924  1  0.041700  0.654700  0.868500  1.0  0.557
  C  C925  1  0.002800  0.926500  0.745400  1.0  0.735
  C  C926  1  0.008000  0.716700  0.862500  1.0  0.0926
  C  C927  1  0.087500  0.099900  0.357700  1.0  -0.0774
  C  C928  1  0.008200  0.382800  0.243200  1.0  -0.3361
  C  C929  1  0.077300  0.132800  0.379900  1.0  -0.012
  C  C930  1  0.077300  0.379500  0.367700  1.0  -0.0229
  C  C931  1  0.041900  0.368300  0.345300  1.0  0.5635
  C  C932  1  0.008000  0.363000  0.283500  1.0  0.0624
  C  C933  1  0.007900  0.256600  0.382700  1.0  -0.3478
  C  C934  1  0.099900  0.412500  0.357400  1.0  -0.1239
  C  C935  1  0.007400  0.319000  0.275500  1.0  0.6496
  C  C936  1  0.007300  0.224500  0.318600  1.0  0.6838
  C  C937  1  0.003000  0.254500  0.426400  1.0  0.7406
  C  C938  1  0.041700  0.154700  0.368500  1.0  0.557
  C  C939  1  0.002800  0.426500  0.245400  1.0  0.735
  C  C940  1  0.008000  0.216700  0.362500  1.0  0.0926
  C  C941  1  0.587500  0.599900  0.357700  1.0  -0.0774
  C  C942  1  0.508200  0.882800  0.243200  1.0  -0.3361
  C  C943  1  0.577300  0.632800  0.379900  1.0  -0.012
  C  C944  1  0.577300  0.879500  0.367700  1.0  -0.0229
  C  C945  1  0.541900  0.868300  0.345300  1.0  0.5635
  C  C946  1  0.508000  0.863000  0.283500  1.0  0.0624
  C  C947  1  0.507900  0.756600  0.382700  1.0  -0.3478
  C  C948  1  0.599900  0.912500  0.357400  1.0  -0.1239
  C  C949  1  0.507400  0.819000  0.275500  1.0  0.6496
  C  C950  1  0.507300  0.724500  0.318600  1.0  0.6838
  C  C951  1  0.503000  0.754500  0.426400  1.0  0.7406
  C  C952  1  0.541700  0.654700  0.368500  1.0  0.557
  C  C953  1  0.502800  0.926500  0.245400  1.0  0.735
  C  C954  1  0.508000  0.716700  0.362500  1.0  0.0926
  C  C955  1  0.587500  0.099900  0.857700  1.0  -0.0774
  C  C956  1  0.508200  0.382800  0.743200  1.0  -0.3361
  C  C957  1  0.577300  0.132800  0.879900  1.0  -0.012
  C  C958  1  0.577300  0.379500  0.867700  1.0  -0.0229
  C  C959  1  0.541900  0.368300  0.845300  1.0  0.5635
  C  C960  1  0.508000  0.363000  0.783500  1.0  0.0624
  C  C961  1  0.507900  0.256600  0.882700  1.0  -0.3478
  C  C962  1  0.599900  0.412500  0.857400  1.0  -0.1239
  C  C963  1  0.507400  0.319000  0.775500  1.0  0.6496
  C  C964  1  0.507300  0.224500  0.818600  1.0  0.6838
  C  C965  1  0.503000  0.254500  0.926400  1.0  0.7406
  C  C966  1  0.541700  0.154700  0.868500  1.0  0.557
  C  C967  1  0.502800  0.426500  0.745400  1.0  0.735
  C  C968  1  0.508000  0.216700  0.862500  1.0  0.0926
  C  C969  1  0.087500  0.400100  0.142300  1.0  -0.0756
  C  C970  1  0.008200  0.117200  0.256800  1.0  -0.3362
  C  C971  1  0.077300  0.367200  0.120100  1.0  -0.0113
  C  C972  1  0.077300  0.120500  0.132300  1.0  -0.0225
  C  C973  1  0.041900  0.131700  0.154700  1.0  0.5651
  C  C974  1  0.008000  0.137000  0.216500  1.0  0.0619
  C  C975  1  0.007900  0.243400  0.117300  1.0  -0.3459
  C  C976  1  0.099900  0.087500  0.142600  1.0  -0.1238
  C  C977  1  0.007400  0.181000  0.224500  1.0  0.6499
  C  C978  1  0.007300  0.275500  0.181400  1.0  0.6824
  C  C979  1  0.003000  0.245500  0.073600  1.0  0.7416
  C  C980  1  0.041700  0.345300  0.131500  1.0  0.5567
  C  C981  1  0.002800  0.073500  0.254600  1.0  0.7347
  C  C982  1  0.008000  0.283300  0.137500  1.0  0.0925
  C  C983  1  0.087500  0.900100  0.642300  1.0  -0.0756
  C  C984  1  0.008200  0.617200  0.756800  1.0  -0.3362
  C  C985  1  0.077300  0.867200  0.620100  1.0  -0.0113
  C  C986  1  0.077300  0.620500  0.632300  1.0  -0.0225
  C  C987  1  0.041900  0.631700  0.654700  1.0  0.5651
  C  C988  1  0.008000  0.637000  0.716500  1.0  0.0619
  C  C989  1  0.007900  0.743400  0.617300  1.0  -0.3459
  C  C990  1  0.099900  0.587500  0.642600  1.0  -0.1238
  C  C991  1  0.007400  0.681000  0.724500  1.0  0.6499
  C  C992  1  0.007300  0.775500  0.681400  1.0  0.6824
  C  C993  1  0.003000  0.745500  0.573600  1.0  0.7416
  C  C994  1  0.041700  0.845300  0.631500  1.0  0.5567
  C  C995  1  0.002800  0.573500  0.754600  1.0  0.7347
  C  C996  1  0.008000  0.783300  0.637500  1.0  0.0925
  C  C997  1  0.587500  0.400100  0.642300  1.0  -0.0756
  C  C998  1  0.508200  0.117200  0.756800  1.0  -0.3362
  C  C999  1  0.577300  0.367200  0.620100  1.0  -0.0113
  C  C1000  1  0.577300  0.120500  0.632300  1.0  -0.0225
  C  C1001  1  0.541900  0.131700  0.654700  1.0  0.5651
  C  C1002  1  0.508000  0.137000  0.716500  1.0  0.0619
  C  C1003  1  0.507900  0.243400  0.617300  1.0  -0.3459
  C  C1004  1  0.599900  0.087500  0.642600  1.0  -0.1238
  C  C1005  1  0.507400  0.181000  0.724500  1.0  0.6499
  C  C1006  1  0.507300  0.275500  0.681400  1.0  0.6824
  C  C1007  1  0.503000  0.245500  0.573600  1.0  0.7416
  C  C1008  1  0.541700  0.345300  0.631500  1.0  0.5567
  C  C1009  1  0.502800  0.073500  0.754600  1.0  0.7347
  C  C1010  1  0.508000  0.283300  0.637500  1.0  0.0925
  C  C1011  1  0.587500  0.900100  0.142300  1.0  -0.0756
  C  C1012  1  0.508200  0.617200  0.256800  1.0  -0.3362
  C  C1013  1  0.577300  0.867200  0.120100  1.0  -0.0113
  C  C1014  1  0.577300  0.620500  0.132300  1.0  -0.0225
  C  C1015  1  0.541900  0.631700  0.154700  1.0  0.5651
  C  C1016  1  0.508000  0.637000  0.216500  1.0  0.0619
  C  C1017  1  0.507900  0.743400  0.117300  1.0  -0.3459
  C  C1018  1  0.599900  0.587500  0.142600  1.0  -0.1238
  C  C1019  1  0.507400  0.681000  0.224500  1.0  0.6499
  C  C1020  1  0.507300  0.775500  0.181400  1.0  0.6824
  C  C1021  1  0.503000  0.745500  0.073600  1.0  0.7416
  C  C1022  1  0.541700  0.845300  0.131500  1.0  0.5567
  C  C1023  1  0.502800  0.573500  0.254600  1.0  0.7347
  C  C1024  1  0.508000  0.783300  0.137500  1.0  0.0925
  C  C1025  1  0.857700  0.912500  0.400100  1.0  -0.0759
  C  C1026  1  0.743200  0.991800  0.117200  1.0  -0.333
  C  C1027  1  0.879900  0.922700  0.367200  1.0  -0.0123
  C  C1028  1  0.867700  0.922700  0.120500  1.0  -0.0233
  C  C1029  1  0.845300  0.958100  0.131700  1.0  0.5626
  C  C1030  1  0.783500  0.992000  0.137000  1.0  0.063
  C  C1031  1  0.882700  0.992100  0.243400  1.0  -0.3473
  C  C1032  1  0.857400  0.900100  0.087500  1.0  -0.1245
  C  C1033  1  0.775500  0.992600  0.181000  1.0  0.6511
  C  C1034  1  0.818600  0.992700  0.275500  1.0  0.6794
  C  C1035  1  0.926400  0.997000  0.245500  1.0  0.7361
  C  C1036  1  0.868500  0.958300  0.345300  1.0  0.563
  C  C1037  1  0.745400  0.997200  0.073500  1.0  0.7377
  C  C1038  1  0.862500  0.992000  0.283300  1.0  0.0928
  C  C1039  1  0.857700  0.412500  0.900100  1.0  -0.0759
  C  C1040  1  0.743200  0.491800  0.617200  1.0  -0.333
  C  C1041  1  0.879900  0.422700  0.867200  1.0  -0.0123
  C  C1042  1  0.867700  0.422700  0.620500  1.0  -0.0233
  C  C1043  1  0.845300  0.458100  0.631700  1.0  0.5626
  C  C1044  1  0.783500  0.492000  0.637000  1.0  0.063
  C  C1045  1  0.882700  0.492100  0.743400  1.0  -0.3473
  C  C1046  1  0.857400  0.400100  0.587500  1.0  -0.1245
  C  C1047  1  0.775500  0.492600  0.681000  1.0  0.6511
  C  C1048  1  0.818600  0.492700  0.775500  1.0  0.6794
  C  C1049  1  0.926400  0.497000  0.745500  1.0  0.7361
  C  C1050  1  0.868500  0.458300  0.845300  1.0  0.563
  C  C1051  1  0.745400  0.497200  0.573500  1.0  0.7377
  C  C1052  1  0.862500  0.492000  0.783300  1.0  0.0928
  C  C1053  1  0.357700  0.912500  0.900100  1.0  -0.0759
  C  C1054  1  0.243200  0.991800  0.617200  1.0  -0.333
  C  C1055  1  0.379900  0.922700  0.867200  1.0  -0.0123
  C  C1056  1  0.367700  0.922700  0.620500  1.0  -0.0233
  C  C1057  1  0.345300  0.958100  0.631700  1.0  0.5626
  C  C1058  1  0.283500  0.992000  0.637000  1.0  0.063
  C  C1059  1  0.382700  0.992100  0.743400  1.0  -0.3473
  C  C1060  1  0.357400  0.900100  0.587500  1.0  -0.1245
  C  C1061  1  0.275500  0.992600  0.681000  1.0  0.6511
  C  C1062  1  0.318600  0.992700  0.775500  1.0  0.6794
  C  C1063  1  0.426400  0.997000  0.745500  1.0  0.7361
  C  C1064  1  0.368500  0.958300  0.845300  1.0  0.563
  C  C1065  1  0.245400  0.997200  0.573500  1.0  0.7377
  C  C1066  1  0.362500  0.992000  0.783300  1.0  0.0928
  C  C1067  1  0.357700  0.412500  0.400100  1.0  -0.0759
  C  C1068  1  0.243200  0.491800  0.117200  1.0  -0.333
  C  C1069  1  0.379900  0.422700  0.367200  1.0  -0.0123
  C  C1070  1  0.367700  0.422700  0.120500  1.0  -0.0233
  C  C1071  1  0.345300  0.458100  0.131700  1.0  0.5626
  C  C1072  1  0.283500  0.492000  0.137000  1.0  0.063
  C  C1073  1  0.382700  0.492100  0.243400  1.0  -0.3473
  C  C1074  1  0.357400  0.400100  0.087500  1.0  -0.1245
  C  C1075  1  0.275500  0.492600  0.181000  1.0  0.6511
  C  C1076  1  0.318600  0.492700  0.275500  1.0  0.6794
  C  C1077  1  0.426400  0.497000  0.245500  1.0  0.7361
  C  C1078  1  0.368500  0.458300  0.345300  1.0  0.563
  C  C1079  1  0.245400  0.497200  0.073500  1.0  0.7377
  C  C1080  1  0.362500  0.492000  0.283300  1.0  0.0928
  C  C1081  1  0.142300  0.912500  0.599900  1.0  -0.0757
  C  C1082  1  0.256800  0.991800  0.882800  1.0  -0.3339
  C  C1083  1  0.120100  0.922700  0.632800  1.0  -0.012
  C  C1084  1  0.132300  0.922700  0.879500  1.0  -0.0233
  C  C1085  1  0.154700  0.958100  0.868300  1.0  0.5626
  C  C1086  1  0.216500  0.992000  0.863000  1.0  0.0622
  C  C1087  1  0.117300  0.992100  0.756600  1.0  -0.3467
  C  C1088  1  0.142600  0.900100  0.912500  1.0  -0.1251
  C  C1089  1  0.224500  0.992600  0.819000  1.0  0.6516
  C  C1090  1  0.181400  0.992700  0.724500  1.0  0.68
  C  C1091  1  0.073600  0.997000  0.754500  1.0  0.736
  C  C1092  1  0.131500  0.958300  0.654700  1.0  0.5617
  C  C1093  1  0.254600  0.997200  0.926500  1.0  0.7358
  C  C1094  1  0.137500  0.992000  0.716700  1.0  0.0924
  C  C1095  1  0.142300  0.412500  0.099900  1.0  -0.0757
  C  C1096  1  0.256800  0.491800  0.382800  1.0  -0.3339
  C  C1097  1  0.120100  0.422700  0.132800  1.0  -0.012
  C  C1098  1  0.132300  0.422700  0.379500  1.0  -0.0233
  C  C1099  1  0.154700  0.458100  0.368300  1.0  0.5626
  C  C1100  1  0.216500  0.492000  0.363000  1.0  0.0622
  C  C1101  1  0.117300  0.492100  0.256600  1.0  -0.3467
  C  C1102  1  0.142600  0.400100  0.412500  1.0  -0.1251
  C  C1103  1  0.224500  0.492600  0.319000  1.0  0.6516
  C  C1104  1  0.181400  0.492700  0.224500  1.0  0.68
  C  C1105  1  0.073600  0.497000  0.254500  1.0  0.736
  C  C1106  1  0.131500  0.458300  0.154700  1.0  0.5617
  C  C1107  1  0.254600  0.497200  0.426500  1.0  0.7358
  C  C1108  1  0.137500  0.492000  0.216700  1.0  0.0924
  C  C1109  1  0.642300  0.912500  0.099900  1.0  -0.0757
  C  C1110  1  0.756800  0.991800  0.382800  1.0  -0.3339
  C  C1111  1  0.620100  0.922700  0.132800  1.0  -0.012
  C  C1112  1  0.632300  0.922700  0.379500  1.0  -0.0233
  C  C1113  1  0.654700  0.958100  0.368300  1.0  0.5626
  C  C1114  1  0.716500  0.992000  0.363000  1.0  0.0622
  C  C1115  1  0.617300  0.992100  0.256600  1.0  -0.3467
  C  C1116  1  0.642600  0.900100  0.412500  1.0  -0.1251
  C  C1117  1  0.724500  0.992600  0.319000  1.0  0.6516
  C  C1118  1  0.681400  0.992700  0.224500  1.0  0.68
  C  C1119  1  0.573600  0.997000  0.254500  1.0  0.736
  C  C1120  1  0.631500  0.958300  0.154700  1.0  0.5617
  C  C1121  1  0.754600  0.997200  0.426500  1.0  0.7358
  C  C1122  1  0.637500  0.992000  0.216700  1.0  0.0924
  C  C1123  1  0.642300  0.412500  0.599900  1.0  -0.0757
  C  C1124  1  0.756800  0.491800  0.882800  1.0  -0.3339
  C  C1125  1  0.620100  0.422700  0.632800  1.0  -0.012
  C  C1126  1  0.632300  0.422700  0.879500  1.0  -0.0233
  C  C1127  1  0.654700  0.458100  0.868300  1.0  0.5626
  C  C1128  1  0.716500  0.492000  0.863000  1.0  0.0622
  C  C1129  1  0.617300  0.492100  0.756600  1.0  -0.3467
  C  C1130  1  0.642600  0.400100  0.912500  1.0  -0.1251
  C  C1131  1  0.724500  0.492600  0.819000  1.0  0.6516
  C  C1132  1  0.681400  0.492700  0.724500  1.0  0.68
  C  C1133  1  0.573600  0.497000  0.754500  1.0  0.736
  C  C1134  1  0.631500  0.458300  0.654700  1.0  0.5617
  C  C1135  1  0.754600  0.497200  0.926500  1.0  0.7358
  C  C1136  1  0.637500  0.492000  0.716700  1.0  0.0924
  C  C1137  1  0.857700  0.087500  0.599900  1.0  -0.0755
  C  C1138  1  0.743200  0.008200  0.882800  1.0  -0.3336
  C  C1139  1  0.879900  0.077300  0.632800  1.0  -0.0121
  C  C1140  1  0.867700  0.077300  0.879500  1.0  -0.0237
  C  C1141  1  0.845300  0.041900  0.868300  1.0  0.563
  C  C1142  1  0.783500  0.008000  0.863000  1.0  0.062
  C  C1143  1  0.882700  0.007900  0.756600  1.0  -0.3478
  C  C1144  1  0.857400  0.099900  0.912500  1.0  -0.1248
  C  C1145  1  0.775500  0.007400  0.819000  1.0  0.6517
  C  C1146  1  0.818600  0.007300  0.724500  1.0  0.6801
  C  C1147  1  0.926400  0.003000  0.754500  1.0  0.7372
  C  C1148  1  0.868500  0.041700  0.654700  1.0  0.5615
  C  C1149  1  0.745400  0.002800  0.926500  1.0  0.7353
  C  C1150  1  0.862500  0.008000  0.716700  1.0  0.0903
  C  C1151  1  0.857700  0.587500  0.099900  1.0  -0.0755
  C  C1152  1  0.743200  0.508200  0.382800  1.0  -0.3336
  C  C1153  1  0.879900  0.577300  0.132800  1.0  -0.0121
  C  C1154  1  0.867700  0.577300  0.379500  1.0  -0.0237
  C  C1155  1  0.845300  0.541900  0.368300  1.0  0.563
  C  C1156  1  0.783500  0.508000  0.363000  1.0  0.062
  C  C1157  1  0.882700  0.507900  0.256600  1.0  -0.3478
  C  C1158  1  0.857400  0.599900  0.412500  1.0  -0.1248
  C  C1159  1  0.775500  0.507400  0.319000  1.0  0.6517
  C  C1160  1  0.818600  0.507300  0.224500  1.0  0.6801
  C  C1161  1  0.926400  0.503000  0.254500  1.0  0.7372
  C  C1162  1  0.868500  0.541700  0.154700  1.0  0.5615
  C  C1163  1  0.745400  0.502800  0.426500  1.0  0.7353
  C  C1164  1  0.862500  0.508000  0.216700  1.0  0.0903
  C  C1165  1  0.357700  0.087500  0.099900  1.0  -0.0755
  C  C1166  1  0.243200  0.008200  0.382800  1.0  -0.3336
  C  C1167  1  0.379900  0.077300  0.132800  1.0  -0.0121
  C  C1168  1  0.367700  0.077300  0.379500  1.0  -0.0237
  C  C1169  1  0.345300  0.041900  0.368300  1.0  0.563
  C  C1170  1  0.283500  0.008000  0.363000  1.0  0.062
  C  C1171  1  0.382700  0.007900  0.256600  1.0  -0.3478
  C  C1172  1  0.357400  0.099900  0.412500  1.0  -0.1248
  C  C1173  1  0.275500  0.007400  0.319000  1.0  0.6517
  C  C1174  1  0.318600  0.007300  0.224500  1.0  0.6801
  C  C1175  1  0.426400  0.003000  0.254500  1.0  0.7372
  C  C1176  1  0.368500  0.041700  0.154700  1.0  0.5615
  C  C1177  1  0.245400  0.002800  0.426500  1.0  0.7353
  C  C1178  1  0.362500  0.008000  0.216700  1.0  0.0903
  C  C1179  1  0.357700  0.587500  0.599900  1.0  -0.0755
  C  C1180  1  0.243200  0.508200  0.882800  1.0  -0.3336
  C  C1181  1  0.379900  0.577300  0.632800  1.0  -0.0121
  C  C1182  1  0.367700  0.577300  0.879500  1.0  -0.0237
  C  C1183  1  0.345300  0.541900  0.868300  1.0  0.563
  C  C1184  1  0.283500  0.508000  0.863000  1.0  0.062
  C  C1185  1  0.382700  0.507900  0.756600  1.0  -0.3478
  C  C1186  1  0.357400  0.599900  0.912500  1.0  -0.1248
  C  C1187  1  0.275500  0.507400  0.819000  1.0  0.6517
  C  C1188  1  0.318600  0.507300  0.724500  1.0  0.6801
  C  C1189  1  0.426400  0.503000  0.754500  1.0  0.7372
  C  C1190  1  0.368500  0.541700  0.654700  1.0  0.5615
  C  C1191  1  0.245400  0.502800  0.926500  1.0  0.7353
  C  C1192  1  0.362500  0.508000  0.716700  1.0  0.0903
  C  C1193  1  0.142300  0.087500  0.400100  1.0  -0.0771
  C  C1194  1  0.256800  0.008200  0.117200  1.0  -0.3327
  C  C1195  1  0.120100  0.077300  0.367200  1.0  -0.0128
  C  C1196  1  0.132300  0.077300  0.120500  1.0  -0.0237
  C  C1197  1  0.154700  0.041900  0.131700  1.0  0.5632
  C  C1198  1  0.216500  0.008000  0.137000  1.0  0.0619
  C  C1199  1  0.117300  0.007900  0.243400  1.0  -0.346
  C  C1200  1  0.142600  0.099900  0.087500  1.0  -0.1251
  C  C1201  1  0.224500  0.007400  0.181000  1.0  0.652
  C  C1202  1  0.181400  0.007300  0.275500  1.0  0.68
  C  C1203  1  0.073600  0.003000  0.245500  1.0  0.7353
  C  C1204  1  0.131500  0.041700  0.345300  1.0  0.5644
  C  C1205  1  0.254600  0.002800  0.073500  1.0  0.7371
  C  C1206  1  0.137500  0.008000  0.283300  1.0  0.0921
  C  C1207  1  0.142300  0.587500  0.900100  1.0  -0.0771
  C  C1208  1  0.256800  0.508200  0.617200  1.0  -0.3327
  C  C1209  1  0.120100  0.577300  0.867200  1.0  -0.0128
  C  C1210  1  0.132300  0.577300  0.620500  1.0  -0.0237
  C  C1211  1  0.154700  0.541900  0.631700  1.0  0.5632
  C  C1212  1  0.216500  0.508000  0.637000  1.0  0.0619
  C  C1213  1  0.117300  0.507900  0.743400  1.0  -0.346
  C  C1214  1  0.142600  0.599900  0.587500  1.0  -0.1251
  C  C1215  1  0.224500  0.507400  0.681000  1.0  0.652
  C  C1216  1  0.181400  0.507300  0.775500  1.0  0.68
  C  C1217  1  0.073600  0.503000  0.745500  1.0  0.7353
  C  C1218  1  0.131500  0.541700  0.845300  1.0  0.5644
  C  C1219  1  0.254600  0.502800  0.573500  1.0  0.7371
  C  C1220  1  0.137500  0.508000  0.783300  1.0  0.0921
  C  C1221  1  0.642300  0.087500  0.900100  1.0  -0.0771
  C  C1222  1  0.756800  0.008200  0.617200  1.0  -0.3327
  C  C1223  1  0.620100  0.077300  0.867200  1.0  -0.0128
  C  C1224  1  0.632300  0.077300  0.620500  1.0  -0.0237
  C  C1225  1  0.654700  0.041900  0.631700  1.0  0.5632
  C  C1226  1  0.716500  0.008000  0.637000  1.0  0.0619
  C  C1227  1  0.617300  0.007900  0.743400  1.0  -0.346
  C  C1228  1  0.642600  0.099900  0.587500  1.0  -0.1251
  C  C1229  1  0.724500  0.007400  0.681000  1.0  0.652
  C  C1230  1  0.681400  0.007300  0.775500  1.0  0.68
  C  C1231  1  0.573600  0.003000  0.745500  1.0  0.7353
  C  C1232  1  0.631500  0.041700  0.845300  1.0  0.5644
  C  C1233  1  0.754600  0.002800  0.573500  1.0  0.7371
  C  C1234  1  0.637500  0.008000  0.783300  1.0  0.0921
  C  C1235  1  0.642300  0.587500  0.400100  1.0  -0.0771
  C  C1236  1  0.756800  0.508200  0.117200  1.0  -0.3327
  C  C1237  1  0.620100  0.577300  0.367200  1.0  -0.0128
  C  C1238  1  0.632300  0.577300  0.120500  1.0  -0.0237
  C  C1239  1  0.654700  0.541900  0.131700  1.0  0.5632
  C  C1240  1  0.716500  0.508000  0.137000  1.0  0.0619
  C  C1241  1  0.617300  0.507900  0.243400  1.0  -0.346
  C  C1242  1  0.642600  0.599900  0.087500  1.0  -0.1251
  C  C1243  1  0.724500  0.507400  0.181000  1.0  0.652
  C  C1244  1  0.681400  0.507300  0.275500  1.0  0.68
  C  C1245  1  0.573600  0.503000  0.245500  1.0  0.7353
  C  C1246  1  0.631500  0.541700  0.345300  1.0  0.5644
  C  C1247  1  0.754600  0.502800  0.073500  1.0  0.7371
  C  C1248  1  0.637500  0.508000  0.283300  1.0  0.0921
  N  N1249  1  0.306200  0.874500  0.958500  1.0  -0.383
  N  N1250  1  0.125400  0.806500  0.958000  1.0  -0.3795
  N  N1251  1  0.306200  0.374500  0.458500  1.0  -0.383
  N  N1252  1  0.125400  0.306500  0.458000  1.0  -0.3795
  N  N1253  1  0.806200  0.874500  0.458500  1.0  -0.383
  N  N1254  1  0.625400  0.806500  0.458000  1.0  -0.3795
  N  N1255  1  0.806200  0.374500  0.958500  1.0  -0.383
  N  N1256  1  0.625400  0.306500  0.958000  1.0  -0.3795
  N  N1257  1  0.693800  0.125500  0.958500  1.0  -0.3834
  N  N1258  1  0.874600  0.193500  0.958000  1.0  -0.3797
  N  N1259  1  0.693800  0.625500  0.458500  1.0  -0.3834
  N  N1260  1  0.874600  0.693500  0.458000  1.0  -0.3797
  N  N1261  1  0.193800  0.125500  0.458500  1.0  -0.3834
  N  N1262  1  0.374600  0.193500  0.458000  1.0  -0.3797
  N  N1263  1  0.193800  0.625500  0.958500  1.0  -0.3834
  N  N1264  1  0.374600  0.693500  0.958000  1.0  -0.3797
  N  N1265  1  0.693800  0.874500  0.041500  1.0  -0.3837
  N  N1266  1  0.874600  0.806500  0.042000  1.0  -0.3808
  N  N1267  1  0.693800  0.374500  0.541500  1.0  -0.3837
  N  N1268  1  0.874600  0.306500  0.542000  1.0  -0.3808
  N  N1269  1  0.193800  0.874500  0.541500  1.0  -0.3837
  N  N1270  1  0.374600  0.806500  0.542000  1.0  -0.3808
  N  N1271  1  0.193800  0.374500  0.041500  1.0  -0.3837
  N  N1272  1  0.374600  0.306500  0.042000  1.0  -0.3808
  N  N1273  1  0.306200  0.125500  0.041500  1.0  -0.3847
  N  N1274  1  0.125400  0.193500  0.042000  1.0  -0.3797
  N  N1275  1  0.306200  0.625500  0.541500  1.0  -0.3847
  N  N1276  1  0.125400  0.693500  0.542000  1.0  -0.3797
  N  N1277  1  0.806200  0.125500  0.541500  1.0  -0.3847
  N  N1278  1  0.625400  0.193500  0.542000  1.0  -0.3797
  N  N1279  1  0.806200  0.625500  0.041500  1.0  -0.3847
  N  N1280  1  0.625400  0.693500  0.042000  1.0  -0.3797
  N  N1281  1  0.958500  0.306200  0.874500  1.0  -0.3871
  N  N1282  1  0.958000  0.125400  0.806500  1.0  -0.3823
  N  N1283  1  0.958500  0.806200  0.374500  1.0  -0.3871
  N  N1284  1  0.958000  0.625400  0.306500  1.0  -0.3823
  N  N1285  1  0.458500  0.306200  0.374500  1.0  -0.3871
  N  N1286  1  0.458000  0.125400  0.306500  1.0  -0.3823
  N  N1287  1  0.458500  0.806200  0.874500  1.0  -0.3871
  N  N1288  1  0.458000  0.625400  0.806500  1.0  -0.3823
  N  N1289  1  0.958500  0.693800  0.125500  1.0  -0.3867
  N  N1290  1  0.958000  0.874600  0.193500  1.0  -0.3832
  N  N1291  1  0.958500  0.193800  0.625500  1.0  -0.3867
  N  N1292  1  0.958000  0.374600  0.693500  1.0  -0.3832
  N  N1293  1  0.458500  0.693800  0.625500  1.0  -0.3867
  N  N1294  1  0.458000  0.874600  0.693500  1.0  -0.3832
  N  N1295  1  0.458500  0.193800  0.125500  1.0  -0.3867
  N  N1296  1  0.458000  0.374600  0.193500  1.0  -0.3832
  N  N1297  1  0.041500  0.693800  0.874500  1.0  -0.3863
  N  N1298  1  0.042000  0.874600  0.806500  1.0  -0.3819
  N  N1299  1  0.041500  0.193800  0.374500  1.0  -0.3863
  N  N1300  1  0.042000  0.374600  0.306500  1.0  -0.3819
  N  N1301  1  0.541500  0.693800  0.374500  1.0  -0.3863
  N  N1302  1  0.542000  0.874600  0.306500  1.0  -0.3819
  N  N1303  1  0.541500  0.193800  0.874500  1.0  -0.3863
  N  N1304  1  0.542000  0.374600  0.806500  1.0  -0.3819
  N  N1305  1  0.041500  0.306200  0.125500  1.0  -0.3862
  N  N1306  1  0.042000  0.125400  0.193500  1.0  -0.383
  N  N1307  1  0.041500  0.806200  0.625500  1.0  -0.3862
  N  N1308  1  0.042000  0.625400  0.693500  1.0  -0.383
  N  N1309  1  0.541500  0.306200  0.625500  1.0  -0.3862
  N  N1310  1  0.542000  0.125400  0.693500  1.0  -0.383
  N  N1311  1  0.541500  0.806200  0.125500  1.0  -0.3862
  N  N1312  1  0.542000  0.625400  0.193500  1.0  -0.383
  N  N1313  1  0.874500  0.958500  0.306200  1.0  -0.3831
  N  N1314  1  0.806500  0.958000  0.125400  1.0  -0.3783
  N  N1315  1  0.874500  0.458500  0.806200  1.0  -0.3831
  N  N1316  1  0.806500  0.458000  0.625400  1.0  -0.3783
  N  N1317  1  0.374500  0.958500  0.806200  1.0  -0.3831
  N  N1318  1  0.306500  0.958000  0.625400  1.0  -0.3783
  N  N1319  1  0.374500  0.458500  0.306200  1.0  -0.3831
  N  N1320  1  0.306500  0.458000  0.125400  1.0  -0.3783
  N  N1321  1  0.125500  0.958500  0.693800  1.0  -0.3853
  N  N1322  1  0.193500  0.958000  0.874600  1.0  -0.3796
  N  N1323  1  0.125500  0.458500  0.193800  1.0  -0.3853
  N  N1324  1  0.193500  0.458000  0.374600  1.0  -0.3796
  N  N1325  1  0.625500  0.958500  0.193800  1.0  -0.3853
  N  N1326  1  0.693500  0.958000  0.374600  1.0  -0.3796
  N  N1327  1  0.625500  0.458500  0.693800  1.0  -0.3853
  N  N1328  1  0.693500  0.458000  0.874600  1.0  -0.3796
  N  N1329  1  0.874500  0.041500  0.693800  1.0  -0.3834
  N  N1330  1  0.806500  0.042000  0.874600  1.0  -0.3796
  N  N1331  1  0.874500  0.541500  0.193800  1.0  -0.3834
  N  N1332  1  0.806500  0.542000  0.374600  1.0  -0.3796
  N  N1333  1  0.374500  0.041500  0.193800  1.0  -0.3834
  N  N1334  1  0.306500  0.042000  0.374600  1.0  -0.3796
  N  N1335  1  0.374500  0.541500  0.693800  1.0  -0.3834
  N  N1336  1  0.306500  0.542000  0.874600  1.0  -0.3796
  N  N1337  1  0.125500  0.041500  0.306200  1.0  -0.3833
  N  N1338  1  0.193500  0.042000  0.125400  1.0  -0.3804
  N  N1339  1  0.125500  0.541500  0.806200  1.0  -0.3833
  N  N1340  1  0.193500  0.542000  0.625400  1.0  -0.3804
  N  N1341  1  0.625500  0.041500  0.806200  1.0  -0.3833
  N  N1342  1  0.693500  0.042000  0.625400  1.0  -0.3804
  N  N1343  1  0.625500  0.541500  0.306200  1.0  -0.3833
  N  N1344  1  0.693500  0.542000  0.125400  1.0  -0.3804
  O  O1345  1  0.146300  0.862200  0.987200  1.0  -0.4877
  O  O1346  1  0.195000  0.766100  0.025900  1.0  -0.565
  O  O1347  1  0.213600  0.944400  0.991200  1.0  -0.5875
  O  O1348  1  0.266200  0.804700  0.025100  1.0  -0.5665
  O  O1349  1  0.362100  0.854200  0.987400  1.0  -0.4922
  O  O1350  1  0.275800  0.800700  0.960700  1.0  -0.5999
  O  O1351  1  0.056000  0.713600  0.991100  1.0  -0.5806
  O  O1352  1  0.199210  0.775800  0.960500  1.0  -0.5898
  O  O1353  1  0.277000  0.942100  0.007300  1.0  -0.5781
  O  O1354  1  0.058000  0.777000  0.007500  1.0  -0.5659
  O  O1355  1  0.146300  0.362200  0.487200  1.0  -0.4877
  O  O1356  1  0.195000  0.266100  0.525900  1.0  -0.565
  O  O1357  1  0.213600  0.444400  0.491200  1.0  -0.5875
  O  O1358  1  0.266200  0.304700  0.525100  1.0  -0.5665
  O  O1359  1  0.362100  0.354200  0.487400  1.0  -0.4922
  O  O1360  1  0.275800  0.300700  0.460700  1.0  -0.5999
  O  O1361  1  0.056000  0.213600  0.491100  1.0  -0.5806
  O  O1362  1  0.199210  0.275800  0.460500  1.0  -0.5898
  O  O1363  1  0.277000  0.442100  0.507300  1.0  -0.5781
  O  O1364  1  0.058000  0.277000  0.507500  1.0  -0.5659
  O  O1365  1  0.646300  0.862200  0.487200  1.0  -0.4877
  O  O1366  1  0.695000  0.766100  0.525900  1.0  -0.565
  O  O1367  1  0.713600  0.944400  0.491200  1.0  -0.5875
  O  O1368  1  0.766200  0.804700  0.525100  1.0  -0.5665
  O  O1369  1  0.862100  0.854200  0.487400  1.0  -0.4922
  O  O1370  1  0.775800  0.800700  0.460700  1.0  -0.5999
  O  O1371  1  0.556000  0.713600  0.491100  1.0  -0.5806
  O  O1372  1  0.699210  0.775800  0.460500  1.0  -0.5898
  O  O1373  1  0.777000  0.942100  0.507300  1.0  -0.5781
  O  O1374  1  0.558000  0.777000  0.507500  1.0  -0.5659
  O  O1375  1  0.646300  0.362200  0.987200  1.0  -0.4877
  O  O1376  1  0.695000  0.266100  0.025900  1.0  -0.565
  O  O1377  1  0.713600  0.444400  0.991200  1.0  -0.5875
  O  O1378  1  0.766200  0.304700  0.025100  1.0  -0.5665
  O  O1379  1  0.862100  0.354200  0.987400  1.0  -0.4922
  O  O1380  1  0.775800  0.300700  0.960700  1.0  -0.5999
  O  O1381  1  0.556000  0.213600  0.991100  1.0  -0.5806
  O  O1382  1  0.699210  0.275800  0.960500  1.0  -0.5898
  O  O1383  1  0.777000  0.442100  0.007300  1.0  -0.5781
  O  O1384  1  0.558000  0.277000  0.007500  1.0  -0.5659
  O  O1385  1  0.853700  0.137800  0.987200  1.0  -0.4879
  O  O1386  1  0.805000  0.233900  0.025900  1.0  -0.5655
  O  O1387  1  0.786400  0.055600  0.991200  1.0  -0.5871
  O  O1388  1  0.733800  0.195300  0.025100  1.0  -0.566
  O  O1389  1  0.637900  0.145800  0.987400  1.0  -0.4906
  O  O1390  1  0.724200  0.199300  0.960700  1.0  -0.6011
  O  O1391  1  0.944000  0.286400  0.991100  1.0  -0.5822
  O  O1392  1  0.800790  0.224200  0.960500  1.0  -0.5908
  O  O1393  1  0.723000  0.057900  0.007300  1.0  -0.5777
  O  O1394  1  0.942000  0.223000  0.007500  1.0  -0.566
  O  O1395  1  0.853700  0.637800  0.487200  1.0  -0.4879
  O  O1396  1  0.805000  0.733900  0.525900  1.0  -0.5655
  O  O1397  1  0.786400  0.555600  0.491200  1.0  -0.5871
  O  O1398  1  0.733800  0.695300  0.525100  1.0  -0.566
  O  O1399  1  0.637900  0.645800  0.487400  1.0  -0.4906
  O  O1400  1  0.724200  0.699300  0.460700  1.0  -0.6011
  O  O1401  1  0.944000  0.786400  0.491100  1.0  -0.5822
  O  O1402  1  0.800790  0.724200  0.460500  1.0  -0.5908
  O  O1403  1  0.723000  0.557900  0.507300  1.0  -0.5777
  O  O1404  1  0.942000  0.723000  0.507500  1.0  -0.566
  O  O1405  1  0.353700  0.137800  0.487200  1.0  -0.4879
  O  O1406  1  0.305000  0.233900  0.525900  1.0  -0.5655
  O  O1407  1  0.286400  0.055600  0.491200  1.0  -0.5871
  O  O1408  1  0.233800  0.195300  0.525100  1.0  -0.566
  O  O1409  1  0.137900  0.145800  0.487400  1.0  -0.4906
  O  O1410  1  0.224200  0.199300  0.460700  1.0  -0.6011
  O  O1411  1  0.444000  0.286400  0.491100  1.0  -0.5822
  O  O1412  1  0.300790  0.224200  0.460500  1.0  -0.5908
  O  O1413  1  0.223000  0.057900  0.507300  1.0  -0.5777
  O  O1414  1  0.442000  0.223000  0.507500  1.0  -0.566
  O  O1415  1  0.353700  0.637800  0.987200  1.0  -0.4879
  O  O1416  1  0.305000  0.733900  0.025900  1.0  -0.5655
  O  O1417  1  0.286400  0.555600  0.991200  1.0  -0.5871
  O  O1418  1  0.233800  0.695300  0.025100  1.0  -0.566
  O  O1419  1  0.137900  0.645800  0.987400  1.0  -0.4906
  O  O1420  1  0.224200  0.699300  0.960700  1.0  -0.6011
  O  O1421  1  0.444000  0.786400  0.991100  1.0  -0.5822
  O  O1422  1  0.300790  0.724200  0.960500  1.0  -0.5908
  O  O1423  1  0.223000  0.557900  0.007300  1.0  -0.5777
  O  O1424  1  0.442000  0.723000  0.007500  1.0  -0.566
  O  O1425  1  0.853700  0.862200  0.012800  1.0  -0.4868
  O  O1426  1  0.805000  0.766100  0.974100  1.0  -0.5643
  O  O1427  1  0.786400  0.944400  0.008800  1.0  -0.5863
  O  O1428  1  0.733800  0.804700  0.974900  1.0  -0.5666
  O  O1429  1  0.637900  0.854200  0.012600  1.0  -0.4895
  O  O1430  1  0.724200  0.800700  0.039300  1.0  -0.5996
  O  O1431  1  0.944000  0.713600  0.008900  1.0  -0.5809
  O  O1432  1  0.800790  0.775800  0.039500  1.0  -0.5897
  O  O1433  1  0.723000  0.942100  0.992700  1.0  -0.5776
  O  O1434  1  0.942000  0.777000  0.992500  1.0  -0.5664
  O  O1435  1  0.853700  0.362200  0.512800  1.0  -0.4868
  O  O1436  1  0.805000  0.266100  0.474100  1.0  -0.5643
  O  O1437  1  0.786400  0.444400  0.508800  1.0  -0.5863
  O  O1438  1  0.733800  0.304700  0.474900  1.0  -0.5666
  O  O1439  1  0.637900  0.354200  0.512600  1.0  -0.4895
  O  O1440  1  0.724200  0.300700  0.539300  1.0  -0.5996
  O  O1441  1  0.944000  0.213600  0.508900  1.0  -0.5809
  O  O1442  1  0.800790  0.275800  0.539500  1.0  -0.5897
  O  O1443  1  0.723000  0.442100  0.492700  1.0  -0.5776
  O  O1444  1  0.942000  0.277000  0.492500  1.0  -0.5664
  O  O1445  1  0.353700  0.862200  0.512800  1.0  -0.4868
  O  O1446  1  0.305000  0.766100  0.474100  1.0  -0.5643
  O  O1447  1  0.286400  0.944400  0.508800  1.0  -0.5863
  O  O1448  1  0.233800  0.804700  0.474900  1.0  -0.5666
  O  O1449  1  0.137900  0.854200  0.512600  1.0  -0.4895
  O  O1450  1  0.224200  0.800700  0.539300  1.0  -0.5996
  O  O1451  1  0.444000  0.713600  0.508900  1.0  -0.5809
  O  O1452  1  0.300790  0.775800  0.539500  1.0  -0.5897
  O  O1453  1  0.223000  0.942100  0.492700  1.0  -0.5776
  O  O1454  1  0.442000  0.777000  0.492500  1.0  -0.5664
  O  O1455  1  0.353700  0.362200  0.012800  1.0  -0.4868
  O  O1456  1  0.305000  0.266100  0.974100  1.0  -0.5643
  O  O1457  1  0.286400  0.444400  0.008800  1.0  -0.5863
  O  O1458  1  0.233800  0.304700  0.974900  1.0  -0.5666
  O  O1459  1  0.137900  0.354200  0.012600  1.0  -0.4895
  O  O1460  1  0.224200  0.300700  0.039300  1.0  -0.5996
  O  O1461  1  0.444000  0.213600  0.008900  1.0  -0.5809
  O  O1462  1  0.300790  0.275800  0.039500  1.0  -0.5897
  O  O1463  1  0.223000  0.442100  0.992700  1.0  -0.5776
  O  O1464  1  0.442000  0.277000  0.992500  1.0  -0.5664
  O  O1465  1  0.146300  0.137800  0.012800  1.0  -0.4857
  O  O1466  1  0.195000  0.233900  0.974100  1.0  -0.5657
  O  O1467  1  0.213600  0.055600  0.008800  1.0  -0.587
  O  O1468  1  0.266200  0.195300  0.974900  1.0  -0.5653
  O  O1469  1  0.362100  0.145800  0.012600  1.0  -0.4906
  O  O1470  1  0.275800  0.199300  0.039300  1.0  -0.599
  O  O1471  1  0.056000  0.286400  0.008900  1.0  -0.5803
  O  O1472  1  0.199210  0.224200  0.039500  1.0  -0.5882
  O  O1473  1  0.277000  0.057900  0.992700  1.0  -0.578
  O  O1474  1  0.058000  0.223000  0.992500  1.0  -0.5655
  O  O1475  1  0.146300  0.637800  0.512800  1.0  -0.4857
  O  O1476  1  0.195000  0.733900  0.474100  1.0  -0.5657
  O  O1477  1  0.213600  0.555600  0.508800  1.0  -0.587
  O  O1478  1  0.266200  0.695300  0.474900  1.0  -0.5653
  O  O1479  1  0.362100  0.645800  0.512600  1.0  -0.4906
  O  O1480  1  0.275800  0.699300  0.539300  1.0  -0.599
  O  O1481  1  0.056000  0.786400  0.508900  1.0  -0.5803
  O  O1482  1  0.199210  0.724200  0.539500  1.0  -0.5882
  O  O1483  1  0.277000  0.557900  0.492700  1.0  -0.578
  O  O1484  1  0.058000  0.723000  0.492500  1.0  -0.5655
  O  O1485  1  0.646300  0.137800  0.512800  1.0  -0.4857
  O  O1486  1  0.695000  0.233900  0.474100  1.0  -0.5657
  O  O1487  1  0.713600  0.055600  0.508800  1.0  -0.587
  O  O1488  1  0.766200  0.195300  0.474900  1.0  -0.5653
  O  O1489  1  0.862100  0.145800  0.512600  1.0  -0.4906
  O  O1490  1  0.775800  0.199300  0.539300  1.0  -0.599
  O  O1491  1  0.556000  0.286400  0.508900  1.0  -0.5803
  O  O1492  1  0.699210  0.224200  0.539500  1.0  -0.5882
  O  O1493  1  0.777000  0.057900  0.492700  1.0  -0.578
  O  O1494  1  0.558000  0.223000  0.492500  1.0  -0.5655
  O  O1495  1  0.646300  0.637800  0.012800  1.0  -0.4857
  O  O1496  1  0.695000  0.733900  0.974100  1.0  -0.5657
  O  O1497  1  0.713600  0.555600  0.008800  1.0  -0.587
  O  O1498  1  0.766200  0.695300  0.974900  1.0  -0.5653
  O  O1499  1  0.862100  0.645800  0.012600  1.0  -0.4906
  O  O1500  1  0.775800  0.699300  0.039300  1.0  -0.599
  O  O1501  1  0.556000  0.786400  0.008900  1.0  -0.5803
  O  O1502  1  0.699210  0.724200  0.039500  1.0  -0.5882
  O  O1503  1  0.777000  0.557900  0.992700  1.0  -0.578
  O  O1504  1  0.558000  0.723000  0.992500  1.0  -0.5655
  O  O1505  1  0.987200  0.146300  0.862200  1.0  -0.4874
  O  O1506  1  0.025900  0.195000  0.766100  1.0  -0.5673
  O  O1507  1  0.991200  0.213600  0.944400  1.0  -0.5916
  O  O1508  1  0.025100  0.266200  0.804700  1.0  -0.5681
  O  O1509  1  0.987400  0.362100  0.854200  1.0  -0.489
  O  O1510  1  0.960700  0.275800  0.800700  1.0  -0.5959
  O  O1511  1  0.991100  0.056000  0.713600  1.0  -0.586
  O  O1512  1  0.960500  0.199210  0.775800  1.0  -0.5857
  O  O1513  1  0.007300  0.277000  0.942100  1.0  -0.577
  O  O1514  1  0.007500  0.058000  0.777000  1.0  -0.5673
  O  O1515  1  0.987200  0.646300  0.362200  1.0  -0.4874
  O  O1516  1  0.025900  0.695000  0.266100  1.0  -0.5673
  O  O1517  1  0.991200  0.713600  0.444400  1.0  -0.5916
  O  O1518  1  0.025100  0.766200  0.304700  1.0  -0.5681
  O  O1519  1  0.987400  0.862100  0.354200  1.0  -0.489
  O  O1520  1  0.960700  0.775800  0.300700  1.0  -0.5959
  O  O1521  1  0.991100  0.556000  0.213600  1.0  -0.586
  O  O1522  1  0.960500  0.699210  0.275800  1.0  -0.5857
  O  O1523  1  0.007300  0.777000  0.442100  1.0  -0.577
  O  O1524  1  0.007500  0.558000  0.277000  1.0  -0.5673
  O  O1525  1  0.487200  0.146300  0.362200  1.0  -0.4874
  O  O1526  1  0.525900  0.195000  0.266100  1.0  -0.5673
  O  O1527  1  0.491200  0.213600  0.444400  1.0  -0.5916
  O  O1528  1  0.525100  0.266200  0.304700  1.0  -0.5681
  O  O1529  1  0.487400  0.362100  0.354200  1.0  -0.489
  O  O1530  1  0.460700  0.275800  0.300700  1.0  -0.5959
  O  O1531  1  0.491100  0.056000  0.213600  1.0  -0.586
  O  O1532  1  0.460500  0.199210  0.275800  1.0  -0.5857
  O  O1533  1  0.507300  0.277000  0.442100  1.0  -0.577
  O  O1534  1  0.507500  0.058000  0.277000  1.0  -0.5673
  O  O1535  1  0.487200  0.646300  0.862200  1.0  -0.4874
  O  O1536  1  0.525900  0.695000  0.766100  1.0  -0.5673
  O  O1537  1  0.491200  0.713600  0.944400  1.0  -0.5916
  O  O1538  1  0.525100  0.766200  0.804700  1.0  -0.5681
  O  O1539  1  0.487400  0.862100  0.854200  1.0  -0.489
  O  O1540  1  0.460700  0.775800  0.800700  1.0  -0.5959
  O  O1541  1  0.491100  0.556000  0.713600  1.0  -0.586
  O  O1542  1  0.460500  0.699210  0.775800  1.0  -0.5857
  O  O1543  1  0.507300  0.777000  0.942100  1.0  -0.577
  O  O1544  1  0.507500  0.558000  0.777000  1.0  -0.5673
  O  O1545  1  0.987200  0.853700  0.137800  1.0  -0.4858
  O  O1546  1  0.025900  0.805000  0.233900  1.0  -0.5676
  O  O1547  1  0.991200  0.786400  0.055600  1.0  -0.5915
  O  O1548  1  0.025100  0.733800  0.195300  1.0  -0.5683
  O  O1549  1  0.987400  0.637900  0.145800  1.0  -0.4898
  O  O1550  1  0.960700  0.724200  0.199300  1.0  -0.5959
  O  O1551  1  0.991100  0.944000  0.286400  1.0  -0.5868
  O  O1552  1  0.960500  0.800790  0.224200  1.0  -0.5854
  O  O1553  1  0.007300  0.723000  0.057900  1.0  -0.5773
  O  O1554  1  0.007500  0.942000  0.223000  1.0  -0.5679
  O  O1555  1  0.987200  0.353700  0.637800  1.0  -0.4858
  O  O1556  1  0.025900  0.305000  0.733900  1.0  -0.5676
  O  O1557  1  0.991200  0.286400  0.555600  1.0  -0.5915
  O  O1558  1  0.025100  0.233800  0.695300  1.0  -0.5683
  O  O1559  1  0.987400  0.137900  0.645800  1.0  -0.4898
  O  O1560  1  0.960700  0.224200  0.699300  1.0  -0.5959
  O  O1561  1  0.991100  0.444000  0.786400  1.0  -0.5868
  O  O1562  1  0.960500  0.300790  0.724200  1.0  -0.5854
  O  O1563  1  0.007300  0.223000  0.557900  1.0  -0.5773
  O  O1564  1  0.007500  0.442000  0.723000  1.0  -0.5679
  O  O1565  1  0.487200  0.853700  0.637800  1.0  -0.4858
  O  O1566  1  0.525900  0.805000  0.733900  1.0  -0.5676
  O  O1567  1  0.491200  0.786400  0.555600  1.0  -0.5915
  O  O1568  1  0.525100  0.733800  0.695300  1.0  -0.5683
  O  O1569  1  0.487400  0.637900  0.645800  1.0  -0.4898
  O  O1570  1  0.460700  0.724200  0.699300  1.0  -0.5959
  O  O1571  1  0.491100  0.944000  0.786400  1.0  -0.5868
  O  O1572  1  0.460500  0.800790  0.724200  1.0  -0.5854
  O  O1573  1  0.507300  0.723000  0.557900  1.0  -0.5773
  O  O1574  1  0.507500  0.942000  0.723000  1.0  -0.5679
  O  O1575  1  0.487200  0.353700  0.137800  1.0  -0.4858
  O  O1576  1  0.525900  0.305000  0.233900  1.0  -0.5676
  O  O1577  1  0.491200  0.286400  0.055600  1.0  -0.5915
  O  O1578  1  0.525100  0.233800  0.195300  1.0  -0.5683
  O  O1579  1  0.487400  0.137900  0.145800  1.0  -0.4898
  O  O1580  1  0.460700  0.224200  0.199300  1.0  -0.5959
  O  O1581  1  0.491100  0.444000  0.286400  1.0  -0.5868
  O  O1582  1  0.460500  0.300790  0.224200  1.0  -0.5854
  O  O1583  1  0.507300  0.223000  0.057900  1.0  -0.5773
  O  O1584  1  0.507500  0.442000  0.223000  1.0  -0.5679
  O  O1585  1  0.012800  0.853700  0.862200  1.0  -0.4849
  O  O1586  1  0.974100  0.805000  0.766100  1.0  -0.5652
  O  O1587  1  0.008800  0.786400  0.944400  1.0  -0.5925
  O  O1588  1  0.974900  0.733800  0.804700  1.0  -0.5666
  O  O1589  1  0.012600  0.637900  0.854200  1.0  -0.4893
  O  O1590  1  0.039300  0.724200  0.800700  1.0  -0.5976
  O  O1591  1  0.008900  0.944000  0.713600  1.0  -0.5853
  O  O1592  1  0.039500  0.800790  0.775800  1.0  -0.5868
  O  O1593  1  0.992700  0.723000  0.942100  1.0  -0.5761
  O  O1594  1  0.992500  0.942000  0.777000  1.0  -0.5682
  O  O1595  1  0.012800  0.353700  0.362200  1.0  -0.4849
  O  O1596  1  0.974100  0.305000  0.266100  1.0  -0.5652
  O  O1597  1  0.008800  0.286400  0.444400  1.0  -0.5925
  O  O1598  1  0.974900  0.233800  0.304700  1.0  -0.5666
  O  O1599  1  0.012600  0.137900  0.354200  1.0  -0.4893
  O  O1600  1  0.039300  0.224200  0.300700  1.0  -0.5976
  O  O1601  1  0.008900  0.444000  0.213600  1.0  -0.5853
  O  O1602  1  0.039500  0.300790  0.275800  1.0  -0.5868
  O  O1603  1  0.992700  0.223000  0.442100  1.0  -0.5761
  O  O1604  1  0.992500  0.442000  0.277000  1.0  -0.5682
  O  O1605  1  0.512800  0.853700  0.362200  1.0  -0.4849
  O  O1606  1  0.474100  0.805000  0.266100  1.0  -0.5652
  O  O1607  1  0.508800  0.786400  0.444400  1.0  -0.5925
  O  O1608  1  0.474900  0.733800  0.304700  1.0  -0.5666
  O  O1609  1  0.512600  0.637900  0.354200  1.0  -0.4893
  O  O1610  1  0.539300  0.724200  0.300700  1.0  -0.5976
  O  O1611  1  0.508900  0.944000  0.213600  1.0  -0.5853
  O  O1612  1  0.539500  0.800790  0.275800  1.0  -0.5868
  O  O1613  1  0.492700  0.723000  0.442100  1.0  -0.5761
  O  O1614  1  0.492500  0.942000  0.277000  1.0  -0.5682
  O  O1615  1  0.512800  0.353700  0.862200  1.0  -0.4849
  O  O1616  1  0.474100  0.305000  0.766100  1.0  -0.5652
  O  O1617  1  0.508800  0.286400  0.944400  1.0  -0.5925
  O  O1618  1  0.474900  0.233800  0.804700  1.0  -0.5666
  O  O1619  1  0.512600  0.137900  0.854200  1.0  -0.4893
  O  O1620  1  0.539300  0.224200  0.800700  1.0  -0.5976
  O  O1621  1  0.508900  0.444000  0.713600  1.0  -0.5853
  O  O1622  1  0.539500  0.300790  0.775800  1.0  -0.5868
  O  O1623  1  0.492700  0.223000  0.942100  1.0  -0.5761
  O  O1624  1  0.492500  0.442000  0.777000  1.0  -0.5682
  O  O1625  1  0.012800  0.146300  0.137800  1.0  -0.4843
  O  O1626  1  0.974100  0.195000  0.233900  1.0  -0.5651
  O  O1627  1  0.008800  0.213600  0.055600  1.0  -0.5919
  O  O1628  1  0.974900  0.266200  0.195300  1.0  -0.5667
  O  O1629  1  0.012600  0.362100  0.145800  1.0  -0.489
  O  O1630  1  0.039300  0.275800  0.199300  1.0  -0.5972
  O  O1631  1  0.008900  0.056000  0.286400  1.0  -0.5873
  O  O1632  1  0.039500  0.199210  0.224200  1.0  -0.5863
  O  O1633  1  0.992700  0.277000  0.057900  1.0  -0.5763
  O  O1634  1  0.992500  0.058000  0.223000  1.0  -0.5681
  O  O1635  1  0.012800  0.646300  0.637800  1.0  -0.4843
  O  O1636  1  0.974100  0.695000  0.733900  1.0  -0.5651
  O  O1637  1  0.008800  0.713600  0.555600  1.0  -0.5919
  O  O1638  1  0.974900  0.766200  0.695300  1.0  -0.5667
  O  O1639  1  0.012600  0.862100  0.645800  1.0  -0.489
  O  O1640  1  0.039300  0.775800  0.699300  1.0  -0.5972
  O  O1641  1  0.008900  0.556000  0.786400  1.0  -0.5873
  O  O1642  1  0.039500  0.699210  0.724200  1.0  -0.5863
  O  O1643  1  0.992700  0.777000  0.557900  1.0  -0.5763
  O  O1644  1  0.992500  0.558000  0.723000  1.0  -0.5681
  O  O1645  1  0.512800  0.146300  0.637800  1.0  -0.4843
  O  O1646  1  0.474100  0.195000  0.733900  1.0  -0.5651
  O  O1647  1  0.508800  0.213600  0.555600  1.0  -0.5919
  O  O1648  1  0.474900  0.266200  0.695300  1.0  -0.5667
  O  O1649  1  0.512600  0.362100  0.645800  1.0  -0.489
  O  O1650  1  0.539300  0.275800  0.699300  1.0  -0.5972
  O  O1651  1  0.508900  0.056000  0.786400  1.0  -0.5873
  O  O1652  1  0.539500  0.199210  0.724200  1.0  -0.5863
  O  O1653  1  0.492700  0.277000  0.557900  1.0  -0.5763
  O  O1654  1  0.492500  0.058000  0.723000  1.0  -0.5681
  O  O1655  1  0.512800  0.646300  0.137800  1.0  -0.4843
  O  O1656  1  0.474100  0.695000  0.233900  1.0  -0.5651
  O  O1657  1  0.508800  0.713600  0.055600  1.0  -0.5919
  O  O1658  1  0.474900  0.766200  0.195300  1.0  -0.5667
  O  O1659  1  0.512600  0.862100  0.145800  1.0  -0.489
  O  O1660  1  0.539300  0.775800  0.199300  1.0  -0.5972
  O  O1661  1  0.508900  0.556000  0.286400  1.0  -0.5873
  O  O1662  1  0.539500  0.699210  0.224200  1.0  -0.5863
  O  O1663  1  0.492700  0.777000  0.057900  1.0  -0.5763
  O  O1664  1  0.492500  0.558000  0.223000  1.0  -0.5681
  O  O1665  1  0.862200  0.987200  0.146300  1.0  -0.4845
  O  O1666  1  0.766100  0.025900  0.195000  1.0  -0.5682
  O  O1667  1  0.944400  0.991200  0.213600  1.0  -0.5917
  O  O1668  1  0.804700  0.025100  0.266200  1.0  -0.5696
  O  O1669  1  0.854200  0.987400  0.362100  1.0  -0.4889
  O  O1670  1  0.800700  0.960700  0.275800  1.0  -0.5983
  O  O1671  1  0.713600  0.991100  0.056000  1.0  -0.5829
  O  O1672  1  0.775800  0.960500  0.199210  1.0  -0.5882
  O  O1673  1  0.942100  0.007300  0.277000  1.0  -0.5752
  O  O1674  1  0.777000  0.007500  0.058000  1.0  -0.5686
  O  O1675  1  0.862200  0.487200  0.646300  1.0  -0.4845
  O  O1676  1  0.766100  0.525900  0.695000  1.0  -0.5682
  O  O1677  1  0.944400  0.491200  0.713600  1.0  -0.5917
  O  O1678  1  0.804700  0.525100  0.766200  1.0  -0.5696
  O  O1679  1  0.854200  0.487400  0.862100  1.0  -0.4889
  O  O1680  1  0.800700  0.460700  0.775800  1.0  -0.5983
  O  O1681  1  0.713600  0.491100  0.556000  1.0  -0.5829
  O  O1682  1  0.775800  0.460500  0.699210  1.0  -0.5882
  O  O1683  1  0.942100  0.507300  0.777000  1.0  -0.5752
  O  O1684  1  0.777000  0.507500  0.558000  1.0  -0.5686
  O  O1685  1  0.362200  0.987200  0.646300  1.0  -0.4845
  O  O1686  1  0.266100  0.025900  0.695000  1.0  -0.5682
  O  O1687  1  0.444400  0.991200  0.713600  1.0  -0.5917
  O  O1688  1  0.304700  0.025100  0.766200  1.0  -0.5696
  O  O1689  1  0.354200  0.987400  0.862100  1.0  -0.4889
  O  O1690  1  0.300700  0.960700  0.775800  1.0  -0.5983
  O  O1691  1  0.213600  0.991100  0.556000  1.0  -0.5829
  O  O1692  1  0.275800  0.960500  0.699210  1.0  -0.5882
  O  O1693  1  0.442100  0.007300  0.777000  1.0  -0.5752
  O  O1694  1  0.277000  0.007500  0.558000  1.0  -0.5686
  O  O1695  1  0.362200  0.487200  0.146300  1.0  -0.4845
  O  O1696  1  0.266100  0.525900  0.195000  1.0  -0.5682
  O  O1697  1  0.444400  0.491200  0.213600  1.0  -0.5917
  O  O1698  1  0.304700  0.525100  0.266200  1.0  -0.5696
  O  O1699  1  0.354200  0.487400  0.362100  1.0  -0.4889
  O  O1700  1  0.300700  0.460700  0.275800  1.0  -0.5983
  O  O1701  1  0.213600  0.491100  0.056000  1.0  -0.5829
  O  O1702  1  0.275800  0.460500  0.199210  1.0  -0.5882
  O  O1703  1  0.442100  0.507300  0.277000  1.0  -0.5752
  O  O1704  1  0.277000  0.507500  0.058000  1.0  -0.5686
  O  O1705  1  0.137800  0.987200  0.853700  1.0  -0.4829
  O  O1706  1  0.233900  0.025900  0.805000  1.0  -0.5688
  O  O1707  1  0.055600  0.991200  0.786400  1.0  -0.5916
  O  O1708  1  0.195300  0.025100  0.733800  1.0  -0.5702
  O  O1709  1  0.145800  0.987400  0.637900  1.0  -0.4901
  O  O1710  1  0.199300  0.960700  0.724200  1.0  -0.5978
  O  O1711  1  0.286400  0.991100  0.944000  1.0  -0.5828
  O  O1712  1  0.224200  0.960500  0.800790  1.0  -0.5889
  O  O1713  1  0.057900  0.007300  0.723000  1.0  -0.5755
  O  O1714  1  0.223000  0.007500  0.942000  1.0  -0.5691
  O  O1715  1  0.137800  0.487200  0.353700  1.0  -0.4829
  O  O1716  1  0.233900  0.525900  0.305000  1.0  -0.5688
  O  O1717  1  0.055600  0.491200  0.286400  1.0  -0.5916
  O  O1718  1  0.195300  0.525100  0.233800  1.0  -0.5702
  O  O1719  1  0.145800  0.487400  0.137900  1.0  -0.4901
  O  O1720  1  0.199300  0.460700  0.224200  1.0  -0.5978
  O  O1721  1  0.286400  0.491100  0.444000  1.0  -0.5828
  O  O1722  1  0.224200  0.460500  0.300790  1.0  -0.5889
  O  O1723  1  0.057900  0.507300  0.223000  1.0  -0.5755
  O  O1724  1  0.223000  0.507500  0.442000  1.0  -0.5691
  O  O1725  1  0.637800  0.987200  0.353700  1.0  -0.4829
  O  O1726  1  0.733900  0.025900  0.305000  1.0  -0.5688
  O  O1727  1  0.555600  0.991200  0.286400  1.0  -0.5916
  O  O1728  1  0.695300  0.025100  0.233800  1.0  -0.5702
  O  O1729  1  0.645800  0.987400  0.137900  1.0  -0.4901
  O  O1730  1  0.699300  0.960700  0.224200  1.0  -0.5978
  O  O1731  1  0.786400  0.991100  0.444000  1.0  -0.5828
  O  O1732  1  0.724200  0.960500  0.300790  1.0  -0.5889
  O  O1733  1  0.557900  0.007300  0.223000  1.0  -0.5755
  O  O1734  1  0.723000  0.007500  0.442000  1.0  -0.5691
  O  O1735  1  0.637800  0.487200  0.853700  1.0  -0.4829
  O  O1736  1  0.733900  0.525900  0.805000  1.0  -0.5688
  O  O1737  1  0.555600  0.491200  0.786400  1.0  -0.5916
  O  O1738  1  0.695300  0.525100  0.733800  1.0  -0.5702
  O  O1739  1  0.645800  0.487400  0.637900  1.0  -0.4901
  O  O1740  1  0.699300  0.460700  0.724200  1.0  -0.5978
  O  O1741  1  0.786400  0.491100  0.944000  1.0  -0.5828
  O  O1742  1  0.724200  0.460500  0.800790  1.0  -0.5889
  O  O1743  1  0.557900  0.507300  0.723000  1.0  -0.5755
  O  O1744  1  0.723000  0.507500  0.942000  1.0  -0.5691
  O  O1745  1  0.862200  0.012800  0.853700  1.0  -0.4852
  O  O1746  1  0.766100  0.974100  0.805000  1.0  -0.5693
  O  O1747  1  0.944400  0.008800  0.786400  1.0  -0.5916
  O  O1748  1  0.804700  0.974900  0.733800  1.0  -0.574
  O  O1749  1  0.854200  0.012600  0.637900  1.0  -0.4914
  O  O1750  1  0.800700  0.039300  0.724200  1.0  -0.5986
  O  O1751  1  0.713600  0.008900  0.944000  1.0  -0.5831
  O  O1752  1  0.775800  0.039500  0.800790  1.0  -0.5896
  O  O1753  1  0.942100  0.992700  0.723000  1.0  -0.5748
  O  O1754  1  0.777000  0.992500  0.942000  1.0  -0.5686
  O  O1755  1  0.862200  0.512800  0.353700  1.0  -0.4852
  O  O1756  1  0.766100  0.474100  0.305000  1.0  -0.5693
  O  O1757  1  0.944400  0.508800  0.286400  1.0  -0.5916
  O  O1758  1  0.804700  0.474900  0.233800  1.0  -0.574
  O  O1759  1  0.854200  0.512600  0.137900  1.0  -0.4914
  O  O1760  1  0.800700  0.539300  0.224200  1.0  -0.5986
  O  O1761  1  0.713600  0.508900  0.444000  1.0  -0.5831
  O  O1762  1  0.775800  0.539500  0.300790  1.0  -0.5896
  O  O1763  1  0.942100  0.492700  0.223000  1.0  -0.5748
  O  O1764  1  0.777000  0.492500  0.442000  1.0  -0.5686
  O  O1765  1  0.362200  0.012800  0.353700  1.0  -0.4852
  O  O1766  1  0.266100  0.974100  0.305000  1.0  -0.5693
  O  O1767  1  0.444400  0.008800  0.286400  1.0  -0.5916
  O  O1768  1  0.304700  0.974900  0.233800  1.0  -0.574
  O  O1769  1  0.354200  0.012600  0.137900  1.0  -0.4914
  O  O1770  1  0.300700  0.039300  0.224200  1.0  -0.5986
  O  O1771  1  0.213600  0.008900  0.444000  1.0  -0.5831
  O  O1772  1  0.275800  0.039500  0.300790  1.0  -0.5896
  O  O1773  1  0.442100  0.992700  0.223000  1.0  -0.5748
  O  O1774  1  0.277000  0.992500  0.442000  1.0  -0.5686
  O  O1775  1  0.362200  0.512800  0.853700  1.0  -0.4852
  O  O1776  1  0.266100  0.474100  0.805000  1.0  -0.5693
  O  O1777  1  0.444400  0.508800  0.786400  1.0  -0.5916
  O  O1778  1  0.304700  0.474900  0.733800  1.0  -0.574
  O  O1779  1  0.354200  0.512600  0.637900  1.0  -0.4914
  O  O1780  1  0.300700  0.539300  0.724200  1.0  -0.5986
  O  O1781  1  0.213600  0.508900  0.944000  1.0  -0.5831
  O  O1782  1  0.275800  0.539500  0.800790  1.0  -0.5896
  O  O1783  1  0.442100  0.492700  0.723000  1.0  -0.5748
  O  O1784  1  0.277000  0.492500  0.942000  1.0  -0.5686
  O  O1785  1  0.137800  0.012800  0.146300  1.0  -0.4829
  O  O1786  1  0.233900  0.974100  0.195000  1.0  -0.5705
  O  O1787  1  0.055600  0.008800  0.213600  1.0  -0.5909
  O  O1788  1  0.195300  0.974900  0.266200  1.0  -0.5729
  O  O1789  1  0.145800  0.012600  0.362100  1.0  -0.4902
  O  O1790  1  0.199300  0.039300  0.275800  1.0  -0.598
  O  O1791  1  0.286400  0.008900  0.056000  1.0  -0.583
  O  O1792  1  0.224200  0.039500  0.199210  1.0  -0.5899
  O  O1793  1  0.057900  0.992700  0.277000  1.0  -0.5748
  O  O1794  1  0.223000  0.992500  0.058000  1.0  -0.5687
  O  O1795  1  0.137800  0.512800  0.646300  1.0  -0.4829
  O  O1796  1  0.233900  0.474100  0.695000  1.0  -0.5705
  O  O1797  1  0.055600  0.508800  0.713600  1.0  -0.5909
  O  O1798  1  0.195300  0.474900  0.766200  1.0  -0.5729
  O  O1799  1  0.145800  0.512600  0.862100  1.0  -0.4902
  O  O1800  1  0.199300  0.539300  0.775800  1.0  -0.598
  O  O1801  1  0.286400  0.508900  0.556000  1.0  -0.583
  O  O1802  1  0.224200  0.539500  0.699210  1.0  -0.5899
  O  O1803  1  0.057900  0.492700  0.777000  1.0  -0.5748
  O  O1804  1  0.223000  0.492500  0.558000  1.0  -0.5687
  O  O1805  1  0.637800  0.012800  0.646300  1.0  -0.4829
  O  O1806  1  0.733900  0.974100  0.695000  1.0  -0.5705
  O  O1807  1  0.555600  0.008800  0.713600  1.0  -0.5909
  O  O1808  1  0.695300  0.974900  0.766200  1.0  -0.5729
  O  O1809  1  0.645800  0.012600  0.862100  1.0  -0.4902
  O  O1810  1  0.699300  0.039300  0.775800  1.0  -0.598
  O  O1811  1  0.786400  0.008900  0.556000  1.0  -0.583
  O  O1812  1  0.724200  0.039500  0.699210  1.0  -0.5899
  O  O1813  1  0.557900  0.992700  0.777000  1.0  -0.5748
  O  O1814  1  0.723000  0.992500  0.558000  1.0  -0.5687
  O  O1815  1  0.637800  0.512800  0.146300  1.0  -0.4829
  O  O1816  1  0.733900  0.474100  0.195000  1.0  -0.5705
  O  O1817  1  0.555600  0.508800  0.213600  1.0  -0.5909
  O  O1818  1  0.695300  0.474900  0.266200  1.0  -0.5729
  O  O1819  1  0.645800  0.512600  0.362100  1.0  -0.4902
  O  O1820  1  0.699300  0.539300  0.275800  1.0  -0.598
  O  O1821  1  0.786400  0.508900  0.056000  1.0  -0.583
  O  O1822  1  0.724200  0.539500  0.199210  1.0  -0.5899
  O  O1823  1  0.557900  0.492700  0.277000  1.0  -0.5748
  O  O1824  1  0.723000  0.492500  0.058000  1.0  -0.5687
