# generated using pymatgen
data_Na2Co3H18(C2O)24
_symmetry_space_group_name_H-M   'P 1'
_cell_length_a   25.65500000
_cell_length_b   28.56100000
_cell_length_c   32.00100000
_cell_angle_alpha   90.00000000
_cell_angle_beta   90.00000000
_cell_angle_gamma   90.00000000
_symmetry_Int_Tables_number   1
_chemical_formula_structural   Na2Co3H18(C2O)24
_chemical_formula_sum   'Na32 Co48 H288 C768 O384'
_cell_volume   23448.17129246
_cell_formula_units_Z   16
loop_
 _symmetry_equiv_pos_site_id
 _symmetry_equiv_pos_as_xyz
  1  'x, y, z'
loop_
 _atom_site_type_symbol
 _atom_site_label
 _atom_site_symmetry_multiplicity
 _atom_site_fract_x
 _atom_site_fract_y
 _atom_site_fract_z
 _atom_site_occupancy
 _atom_site_charge
  Na  Na1  1  0.625000  0.125000  0.744660  1.0  0.9963
  Na  Na2  1  0.625000  0.625000  0.244660  1.0  0.9963
  Na  Na3  1  0.125000  0.625000  0.744660  1.0  0.9963
  Na  Na4  1  0.125000  0.125000  0.244660  1.0  0.9963
  Na  Na5  1  0.125000  0.125000  0.005340  1.0  0.996
  Na  Na6  1  0.125000  0.625000  0.505340  1.0  0.996
  Na  Na7  1  0.625000  0.625000  0.005340  1.0  0.996
  Na  Na8  1  0.625000  0.125000  0.505340  1.0  0.996
  Na  Na9  1  0.375000  0.875000  0.255340  1.0  0.996
  Na  Na10  1  0.375000  0.375000  0.755340  1.0  0.996
  Na  Na11  1  0.875000  0.375000  0.255340  1.0  0.996
  Na  Na12  1  0.875000  0.875000  0.755340  1.0  0.996
  Na  Na13  1  0.875000  0.875000  0.994660  1.0  0.9963
  Na  Na14  1  0.875000  0.375000  0.494660  1.0  0.9963
  Na  Na15  1  0.375000  0.375000  0.994660  1.0  0.9963
  Na  Na16  1  0.375000  0.875000  0.494660  1.0  0.9963
  Na  Na17  1  0.625000  0.125000  0.625000  1.0  1.0098
  Na  Na18  1  0.125000  0.625000  0.625000  1.0  1.0098
  Na  Na19  1  0.125000  0.125000  0.125000  1.0  1.0098
  Na  Na20  1  0.625000  0.625000  0.125000  1.0  1.0098
  Na  Na21  1  0.375000  0.875000  0.375000  1.0  1.0098
  Na  Na22  1  0.875000  0.375000  0.375000  1.0  1.0098
  Na  Na23  1  0.875000  0.875000  0.875000  1.0  1.0098
  Na  Na24  1  0.375000  0.375000  0.875000  1.0  1.0098
  Na  Na25  1  0.875000  0.375000  0.875000  1.0  0.9497
  Na  Na26  1  0.875000  0.875000  0.375000  1.0  0.9497
  Na  Na27  1  0.375000  0.375000  0.375000  1.0  0.9497
  Na  Na28  1  0.375000  0.875000  0.875000  1.0  0.9497
  Na  Na29  1  0.125000  0.625000  0.125000  1.0  0.9497
  Na  Na30  1  0.125000  0.125000  0.625000  1.0  0.9497
  Na  Na31  1  0.625000  0.625000  0.625000  1.0  0.9497
  Na  Na32  1  0.625000  0.125000  0.125000  1.0  0.9497
  Co  Co33  1  0.757330  0.129750  0.784500  1.0  1.0645
  Co  Co34  1  0.757330  0.629750  0.284500  1.0  1.0645
  Co  Co35  1  0.257330  0.129750  0.284500  1.0  1.0645
  Co  Co36  1  0.257330  0.629750  0.784500  1.0  1.0645
  Co  Co37  1  0.992670  0.620250  0.784500  1.0  1.0667
  Co  Co38  1  0.992670  0.120250  0.284500  1.0  1.0667
  Co  Co39  1  0.492670  0.620250  0.284500  1.0  1.0667
  Co  Co40  1  0.492670  0.120250  0.784500  1.0  1.0667
  Co  Co41  1  0.992670  0.129750  0.965500  1.0  1.0683
  Co  Co42  1  0.992670  0.629750  0.465500  1.0  1.0683
  Co  Co43  1  0.492670  0.129750  0.465500  1.0  1.0683
  Co  Co44  1  0.492670  0.629750  0.965500  1.0  1.0683
  Co  Co45  1  0.757330  0.620250  0.965500  1.0  1.066
  Co  Co46  1  0.757330  0.120250  0.465500  1.0  1.066
  Co  Co47  1  0.257330  0.620250  0.465500  1.0  1.066
  Co  Co48  1  0.257330  0.120250  0.965500  1.0  1.066
  Co  Co49  1  0.242670  0.870250  0.215500  1.0  1.0682
  Co  Co50  1  0.242670  0.370250  0.715500  1.0  1.0682
  Co  Co51  1  0.742670  0.870250  0.715500  1.0  1.0682
  Co  Co52  1  0.742670  0.370250  0.215500  1.0  1.0682
  Co  Co53  1  0.007330  0.379750  0.215500  1.0  1.066
  Co  Co54  1  0.007330  0.879750  0.715500  1.0  1.066
  Co  Co55  1  0.507330  0.379750  0.715500  1.0  1.066
  Co  Co56  1  0.507330  0.879750  0.215500  1.0  1.066
  Co  Co57  1  0.007330  0.870250  0.034500  1.0  1.0646
  Co  Co58  1  0.007330  0.370250  0.534500  1.0  1.0646
  Co  Co59  1  0.507330  0.870250  0.534500  1.0  1.0646
  Co  Co60  1  0.507330  0.370250  0.034500  1.0  1.0646
  Co  Co61  1  0.242670  0.379750  0.034500  1.0  1.0667
  Co  Co62  1  0.242670  0.879750  0.534500  1.0  1.0667
  Co  Co63  1  0.742670  0.379750  0.534500  1.0  1.0667
  Co  Co64  1  0.742670  0.879750  0.034500  1.0  1.0667
  Co  Co65  1  0.875000  0.375000  0.756910  1.0  0.9668
  Co  Co66  1  0.875000  0.875000  0.256910  1.0  0.9668
  Co  Co67  1  0.375000  0.375000  0.256910  1.0  0.9668
  Co  Co68  1  0.375000  0.875000  0.756910  1.0  0.9668
  Co  Co69  1  0.875000  0.375000  0.993090  1.0  0.9665
  Co  Co70  1  0.875000  0.875000  0.493090  1.0  0.9665
  Co  Co71  1  0.375000  0.375000  0.493090  1.0  0.9665
  Co  Co72  1  0.375000  0.875000  0.993090  1.0  0.9665
  Co  Co73  1  0.125000  0.625000  0.243090  1.0  0.9665
  Co  Co74  1  0.125000  0.125000  0.743090  1.0  0.9665
  Co  Co75  1  0.625000  0.625000  0.743090  1.0  0.9665
  Co  Co76  1  0.625000  0.125000  0.243090  1.0  0.9665
  Co  Co77  1  0.125000  0.625000  0.006910  1.0  0.9668
  Co  Co78  1  0.125000  0.125000  0.506910  1.0  0.9668
  Co  Co79  1  0.625000  0.625000  0.506910  1.0  0.9668
  Co  Co80  1  0.625000  0.125000  0.006910  1.0  0.9668
  H  H81  1  0.767800  0.271000  0.800200  1.0  0.1306
  H  H82  1  0.692000  0.251800  0.908600  1.0  0.1067
  H  H83  1  0.882400  0.235100  0.755400  1.0  0.1386
  H  H84  1  0.731700  0.017300  0.695300  1.0  0.1395
  H  H85  1  0.696300  0.331000  0.922200  1.0  0.1336
  H  H86  1  0.793700  0.166500  0.643500  1.0  0.1175
  H  H87  1  0.896800  0.085200  0.695500  1.0  0.1255
  H  H88  1  0.808300  0.246500  0.643700  1.0  0.1184
  H  H89  1  0.888900  0.003900  0.696100  1.0  0.1211
  H  H90  1  0.767800  0.771000  0.300200  1.0  0.1306
  H  H91  1  0.692000  0.751800  0.408600  1.0  0.1067
  H  H92  1  0.882400  0.735100  0.255400  1.0  0.1386
  H  H93  1  0.731700  0.517300  0.195300  1.0  0.1395
  H  H94  1  0.696300  0.831000  0.422200  1.0  0.1336
  H  H95  1  0.793700  0.666500  0.143500  1.0  0.1175
  H  H96  1  0.896800  0.585200  0.195500  1.0  0.1255
  H  H97  1  0.808300  0.746500  0.143700  1.0  0.1184
  H  H98  1  0.888900  0.503900  0.196100  1.0  0.1211
  H  H99  1  0.267800  0.271000  0.300200  1.0  0.1306
  H  H100  1  0.192000  0.251800  0.408600  1.0  0.1067
  H  H101  1  0.382400  0.235100  0.255400  1.0  0.1386
  H  H102  1  0.231700  0.017300  0.195300  1.0  0.1395
  H  H103  1  0.196300  0.331000  0.422200  1.0  0.1336
  H  H104  1  0.293700  0.166500  0.143500  1.0  0.1175
  H  H105  1  0.396800  0.085200  0.195500  1.0  0.1255
  H  H106  1  0.308300  0.246500  0.143700  1.0  0.1184
  H  H107  1  0.388900  0.003900  0.196100  1.0  0.1211
  H  H108  1  0.267800  0.771000  0.800200  1.0  0.1306
  H  H109  1  0.192000  0.751800  0.908600  1.0  0.1067
  H  H110  1  0.382400  0.735100  0.755400  1.0  0.1386
  H  H111  1  0.231700  0.517300  0.695300  1.0  0.1395
  H  H112  1  0.196300  0.831000  0.922200  1.0  0.1336
  H  H113  1  0.293700  0.666500  0.643500  1.0  0.1175
  H  H114  1  0.396800  0.585200  0.695500  1.0  0.1255
  H  H115  1  0.308300  0.746500  0.643700  1.0  0.1184
  H  H116  1  0.388900  0.503900  0.696100  1.0  0.1211
  H  H117  1  0.982200  0.479000  0.800200  1.0  0.1308
  H  H118  1  0.058000  0.498200  0.908600  1.0  0.1066
  H  H119  1  0.867600  0.514900  0.755400  1.0  0.1389
  H  H120  1  0.018300  0.732700  0.695300  1.0  0.1396
  H  H121  1  0.053700  0.419000  0.922200  1.0  0.1335
  H  H122  1  0.956300  0.583500  0.643500  1.0  0.1175
  H  H123  1  0.853200  0.664800  0.695500  1.0  0.1255
  H  H124  1  0.941700  0.503500  0.643700  1.0  0.1183
  H  H125  1  0.861100  0.746100  0.696100  1.0  0.1206
  H  H126  1  0.982200  0.979000  0.300200  1.0  0.1308
  H  H127  1  0.058000  0.998200  0.408600  1.0  0.1066
  H  H128  1  0.867600  0.014900  0.255400  1.0  0.1389
  H  H129  1  0.018300  0.232700  0.195300  1.0  0.1396
  H  H130  1  0.053700  0.919000  0.422200  1.0  0.1335
  H  H131  1  0.956300  0.083500  0.143500  1.0  0.1175
  H  H132  1  0.853200  0.164800  0.195500  1.0  0.1255
  H  H133  1  0.941700  0.003500  0.143700  1.0  0.1183
  H  H134  1  0.861100  0.246100  0.196100  1.0  0.1206
  H  H135  1  0.482200  0.479000  0.300200  1.0  0.1308
  H  H136  1  0.558000  0.498200  0.408600  1.0  0.1066
  H  H137  1  0.367600  0.514900  0.255400  1.0  0.1389
  H  H138  1  0.518300  0.732700  0.195300  1.0  0.1396
  H  H139  1  0.553700  0.419000  0.422200  1.0  0.1335
  H  H140  1  0.456300  0.583500  0.143500  1.0  0.1175
  H  H141  1  0.353200  0.664800  0.195500  1.0  0.1255
  H  H142  1  0.441700  0.503500  0.143700  1.0  0.1183
  H  H143  1  0.361100  0.746100  0.196100  1.0  0.1206
  H  H144  1  0.482200  0.979000  0.800200  1.0  0.1308
  H  H145  1  0.558000  0.998200  0.908600  1.0  0.1066
  H  H146  1  0.367600  0.014900  0.755400  1.0  0.1389
  H  H147  1  0.518300  0.232700  0.695300  1.0  0.1396
  H  H148  1  0.553700  0.919000  0.922200  1.0  0.1335
  H  H149  1  0.456300  0.083500  0.643500  1.0  0.1175
  H  H150  1  0.353200  0.164800  0.695500  1.0  0.1255
  H  H151  1  0.441700  0.003500  0.643700  1.0  0.1183
  H  H152  1  0.361100  0.246100  0.696100  1.0  0.1206
  H  H153  1  0.982200  0.271000  0.949800  1.0  0.1315
  H  H154  1  0.058000  0.251800  0.841400  1.0  0.1064
  H  H155  1  0.867600  0.235100  0.994600  1.0  0.1386
  H  H156  1  0.018300  0.017300  0.054700  1.0  0.1396
  H  H157  1  0.053700  0.331000  0.827800  1.0  0.1336
  H  H158  1  0.956300  0.166500  0.106500  1.0  0.118
  H  H159  1  0.853200  0.085200  0.054500  1.0  0.1255
  H  H160  1  0.941700  0.246500  0.106300  1.0  0.1178
  H  H161  1  0.861100  0.003900  0.053900  1.0  0.1205
  H  H162  1  0.982200  0.771000  0.449800  1.0  0.1315
  H  H163  1  0.058000  0.751800  0.341400  1.0  0.1064
  H  H164  1  0.867600  0.735100  0.494600  1.0  0.1386
  H  H165  1  0.018300  0.517300  0.554700  1.0  0.1396
  H  H166  1  0.053700  0.831000  0.327800  1.0  0.1336
  H  H167  1  0.956300  0.666500  0.606500  1.0  0.118
  H  H168  1  0.853200  0.585200  0.554500  1.0  0.1255
  H  H169  1  0.941700  0.746500  0.606300  1.0  0.1178
  H  H170  1  0.861100  0.503900  0.553900  1.0  0.1205
  H  H171  1  0.482200  0.271000  0.449800  1.0  0.1315
  H  H172  1  0.558000  0.251800  0.341400  1.0  0.1064
  H  H173  1  0.367600  0.235100  0.494600  1.0  0.1386
  H  H174  1  0.518300  0.017300  0.554700  1.0  0.1396
  H  H175  1  0.553700  0.331000  0.327800  1.0  0.1336
  H  H176  1  0.456300  0.166500  0.606500  1.0  0.118
  H  H177  1  0.353200  0.085200  0.554500  1.0  0.1255
  H  H178  1  0.441700  0.246500  0.606300  1.0  0.1178
  H  H179  1  0.361100  0.003900  0.553900  1.0  0.1205
  H  H180  1  0.482200  0.771000  0.949800  1.0  0.1315
  H  H181  1  0.558000  0.751800  0.841400  1.0  0.1064
  H  H182  1  0.367600  0.735100  0.994600  1.0  0.1386
  H  H183  1  0.518300  0.517300  0.054700  1.0  0.1396
  H  H184  1  0.553700  0.831000  0.827800  1.0  0.1336
  H  H185  1  0.456300  0.666500  0.106500  1.0  0.118
  H  H186  1  0.353200  0.585200  0.054500  1.0  0.1255
  H  H187  1  0.441700  0.746500  0.106300  1.0  0.1178
  H  H188  1  0.361100  0.503900  0.053900  1.0  0.1205
  H  H189  1  0.767800  0.479000  0.949800  1.0  0.1312
  H  H190  1  0.692000  0.498200  0.841400  1.0  0.1068
  H  H191  1  0.882400  0.514900  0.994600  1.0  0.1392
  H  H192  1  0.731700  0.732700  0.054700  1.0  0.1394
  H  H193  1  0.696300  0.419000  0.827800  1.0  0.1335
  H  H194  1  0.793700  0.583500  0.106500  1.0  0.1179
  H  H195  1  0.896800  0.664800  0.054500  1.0  0.1258
  H  H196  1  0.808300  0.503500  0.106300  1.0  0.1186
  H  H197  1  0.888900  0.746100  0.053900  1.0  0.1205
  H  H198  1  0.767800  0.979000  0.449800  1.0  0.1312
  H  H199  1  0.692000  0.998200  0.341400  1.0  0.1068
  H  H200  1  0.882400  0.014900  0.494600  1.0  0.1392
  H  H201  1  0.731700  0.232700  0.554700  1.0  0.1394
  H  H202  1  0.696300  0.919000  0.327800  1.0  0.1335
  H  H203  1  0.793700  0.083500  0.606500  1.0  0.1179
  H  H204  1  0.896800  0.164800  0.554500  1.0  0.1258
  H  H205  1  0.808300  0.003500  0.606300  1.0  0.1186
  H  H206  1  0.888900  0.246100  0.553900  1.0  0.1205
  H  H207  1  0.267800  0.479000  0.449800  1.0  0.1312
  H  H208  1  0.192000  0.498200  0.341400  1.0  0.1068
  H  H209  1  0.382400  0.514900  0.494600  1.0  0.1392
  H  H210  1  0.231700  0.732700  0.554700  1.0  0.1394
  H  H211  1  0.196300  0.419000  0.327800  1.0  0.1335
  H  H212  1  0.293700  0.583500  0.606500  1.0  0.1179
  H  H213  1  0.396800  0.664800  0.554500  1.0  0.1258
  H  H214  1  0.308300  0.503500  0.606300  1.0  0.1186
  H  H215  1  0.388900  0.746100  0.553900  1.0  0.1205
  H  H216  1  0.267800  0.979000  0.949800  1.0  0.1312
  H  H217  1  0.192000  0.998200  0.841400  1.0  0.1068
  H  H218  1  0.382400  0.014900  0.994600  1.0  0.1392
  H  H219  1  0.231700  0.232700  0.054700  1.0  0.1394
  H  H220  1  0.196300  0.919000  0.827800  1.0  0.1335
  H  H221  1  0.293700  0.083500  0.106500  1.0  0.1179
  H  H222  1  0.396800  0.164800  0.054500  1.0  0.1258
  H  H223  1  0.308300  0.003500  0.106300  1.0  0.1186
  H  H224  1  0.388900  0.246100  0.053900  1.0  0.1205
  H  H225  1  0.232200  0.729000  0.199800  1.0  0.1315
  H  H226  1  0.308000  0.748200  0.091400  1.0  0.1058
  H  H227  1  0.117600  0.764900  0.244600  1.0  0.1387
  H  H228  1  0.268300  0.982700  0.304700  1.0  0.1394
  H  H229  1  0.303700  0.669000  0.077800  1.0  0.1341
  H  H230  1  0.206300  0.833500  0.356500  1.0  0.1181
  H  H231  1  0.103200  0.914800  0.304500  1.0  0.1255
  H  H232  1  0.191700  0.753500  0.356300  1.0  0.118
  H  H233  1  0.111100  0.996100  0.303900  1.0  0.1205
  H  H234  1  0.232200  0.229000  0.699800  1.0  0.1315
  H  H235  1  0.308000  0.248200  0.591400  1.0  0.1058
  H  H236  1  0.117600  0.264900  0.744600  1.0  0.1387
  H  H237  1  0.268300  0.482700  0.804700  1.0  0.1394
  H  H238  1  0.303700  0.169000  0.577800  1.0  0.1341
  H  H239  1  0.206300  0.333500  0.856500  1.0  0.1181
  H  H240  1  0.103200  0.414800  0.804500  1.0  0.1255
  H  H241  1  0.191700  0.253500  0.856300  1.0  0.118
  H  H242  1  0.111100  0.496100  0.803900  1.0  0.1205
  H  H243  1  0.732200  0.729000  0.699800  1.0  0.1315
  H  H244  1  0.808000  0.748200  0.591400  1.0  0.1058
  H  H245  1  0.617600  0.764900  0.744600  1.0  0.1387
  H  H246  1  0.768300  0.982700  0.804700  1.0  0.1394
  H  H247  1  0.803700  0.669000  0.577800  1.0  0.1341
  H  H248  1  0.706300  0.833500  0.856500  1.0  0.1181
  H  H249  1  0.603200  0.914800  0.804500  1.0  0.1255
  H  H250  1  0.691700  0.753500  0.856300  1.0  0.118
  H  H251  1  0.611100  0.996100  0.803900  1.0  0.1205
  H  H252  1  0.732200  0.229000  0.199800  1.0  0.1315
  H  H253  1  0.808000  0.248200  0.091400  1.0  0.1058
  H  H254  1  0.617600  0.264900  0.244600  1.0  0.1387
  H  H255  1  0.768300  0.482700  0.304700  1.0  0.1394
  H  H256  1  0.803700  0.169000  0.077800  1.0  0.1341
  H  H257  1  0.706300  0.333500  0.356500  1.0  0.1181
  H  H258  1  0.603200  0.414800  0.304500  1.0  0.1255
  H  H259  1  0.691700  0.253500  0.356300  1.0  0.118
  H  H260  1  0.611100  0.496100  0.303900  1.0  0.1205
  H  H261  1  0.017800  0.521000  0.199800  1.0  0.1311
  H  H262  1  0.942000  0.501800  0.091400  1.0  0.1059
  H  H263  1  0.132400  0.485100  0.244600  1.0  0.1389
  H  H264  1  0.981700  0.267300  0.304700  1.0  0.1397
  H  H265  1  0.946300  0.581000  0.077800  1.0  0.1337
  H  H266  1  0.043700  0.416500  0.356500  1.0  0.1178
  H  H267  1  0.146800  0.335200  0.304500  1.0  0.1257
  H  H268  1  0.058300  0.496500  0.356300  1.0  0.1179
  H  H269  1  0.138900  0.253900  0.303900  1.0  0.1206
  H  H270  1  0.017800  0.021000  0.699800  1.0  0.1311
  H  H271  1  0.942000  0.001800  0.591400  1.0  0.1059
  H  H272  1  0.132400  0.985100  0.744600  1.0  0.1389
  H  H273  1  0.981700  0.767300  0.804700  1.0  0.1397
  H  H274  1  0.946300  0.081000  0.577800  1.0  0.1337
  H  H275  1  0.043700  0.916500  0.856500  1.0  0.1178
  H  H276  1  0.146800  0.835200  0.804500  1.0  0.1257
  H  H277  1  0.058300  0.996500  0.856300  1.0  0.1179
  H  H278  1  0.138900  0.753900  0.803900  1.0  0.1206
  H  H279  1  0.517800  0.521000  0.699800  1.0  0.1311
  H  H280  1  0.442000  0.501800  0.591400  1.0  0.1059
  H  H281  1  0.632400  0.485100  0.744600  1.0  0.1389
  H  H282  1  0.481700  0.267300  0.804700  1.0  0.1397
  H  H283  1  0.446300  0.581000  0.577800  1.0  0.1337
  H  H284  1  0.543700  0.416500  0.856500  1.0  0.1178
  H  H285  1  0.646800  0.335200  0.804500  1.0  0.1257
  H  H286  1  0.558300  0.496500  0.856300  1.0  0.1179
  H  H287  1  0.638900  0.253900  0.803900  1.0  0.1206
  H  H288  1  0.517800  0.021000  0.199800  1.0  0.1311
  H  H289  1  0.442000  0.001800  0.091400  1.0  0.1059
  H  H290  1  0.632400  0.985100  0.244600  1.0  0.1389
  H  H291  1  0.481700  0.767300  0.304700  1.0  0.1397
  H  H292  1  0.446300  0.081000  0.077800  1.0  0.1337
  H  H293  1  0.543700  0.916500  0.356500  1.0  0.1178
  H  H294  1  0.646800  0.835200  0.304500  1.0  0.1257
  H  H295  1  0.558300  0.996500  0.356300  1.0  0.1179
  H  H296  1  0.638900  0.753900  0.303900  1.0  0.1206
  H  H297  1  0.017800  0.729000  0.050200  1.0  0.1307
  H  H298  1  0.942000  0.748200  0.158600  1.0  0.1061
  H  H299  1  0.132400  0.764900  0.005400  1.0  0.1389
  H  H300  1  0.981700  0.982700  0.945300  1.0  0.1395
  H  H301  1  0.946300  0.669000  0.172200  1.0  0.1328
  H  H302  1  0.043700  0.833500  0.893500  1.0  0.1172
  H  H303  1  0.146800  0.914800  0.945500  1.0  0.1257
  H  H304  1  0.058300  0.753500  0.893700  1.0  0.1186
  H  H305  1  0.138900  0.996100  0.946100  1.0  0.1209
  H  H306  1  0.017800  0.229000  0.550200  1.0  0.1307
  H  H307  1  0.942000  0.248200  0.658600  1.0  0.1061
  H  H308  1  0.132400  0.264900  0.505400  1.0  0.1389
  H  H309  1  0.981700  0.482700  0.445300  1.0  0.1395
  H  H310  1  0.946300  0.169000  0.672200  1.0  0.1328
  H  H311  1  0.043700  0.333500  0.393500  1.0  0.1172
  H  H312  1  0.146800  0.414800  0.445500  1.0  0.1257
  H  H313  1  0.058300  0.253500  0.393700  1.0  0.1186
  H  H314  1  0.138900  0.496100  0.446100  1.0  0.1209
  H  H315  1  0.517800  0.729000  0.550200  1.0  0.1307
  H  H316  1  0.442000  0.748200  0.658600  1.0  0.1061
  H  H317  1  0.632400  0.764900  0.505400  1.0  0.1389
  H  H318  1  0.481700  0.982700  0.445300  1.0  0.1395
  H  H319  1  0.446300  0.669000  0.672200  1.0  0.1328
  H  H320  1  0.543700  0.833500  0.393500  1.0  0.1172
  H  H321  1  0.646800  0.914800  0.445500  1.0  0.1257
  H  H322  1  0.558300  0.753500  0.393700  1.0  0.1186
  H  H323  1  0.638900  0.996100  0.446100  1.0  0.1209
  H  H324  1  0.517800  0.229000  0.050200  1.0  0.1307
  H  H325  1  0.442000  0.248200  0.158600  1.0  0.1061
  H  H326  1  0.632400  0.264900  0.005400  1.0  0.1389
  H  H327  1  0.481700  0.482700  0.945300  1.0  0.1395
  H  H328  1  0.446300  0.169000  0.172200  1.0  0.1328
  H  H329  1  0.543700  0.333500  0.893500  1.0  0.1172
  H  H330  1  0.646800  0.414800  0.945500  1.0  0.1257
  H  H331  1  0.558300  0.253500  0.893700  1.0  0.1186
  H  H332  1  0.638900  0.496100  0.946100  1.0  0.1209
  H  H333  1  0.232200  0.521000  0.050200  1.0  0.1307
  H  H334  1  0.308000  0.501800  0.158600  1.0  0.1063
  H  H335  1  0.117600  0.485100  0.005400  1.0  0.1386
  H  H336  1  0.268300  0.267300  0.945300  1.0  0.1396
  H  H337  1  0.303700  0.581000  0.172200  1.0  0.1332
  H  H338  1  0.206300  0.416500  0.893500  1.0  0.1179
  H  H339  1  0.103200  0.335200  0.945500  1.0  0.1255
  H  H340  1  0.191700  0.496500  0.893700  1.0  0.1183
  H  H341  1  0.111100  0.253900  0.946100  1.0  0.1208
  H  H342  1  0.232200  0.021000  0.550200  1.0  0.1307
  H  H343  1  0.308000  0.001800  0.658600  1.0  0.1063
  H  H344  1  0.117600  0.985100  0.505400  1.0  0.1386
  H  H345  1  0.268300  0.767300  0.445300  1.0  0.1396
  H  H346  1  0.303700  0.081000  0.672200  1.0  0.1332
  H  H347  1  0.206300  0.916500  0.393500  1.0  0.1179
  H  H348  1  0.103200  0.835200  0.445500  1.0  0.1255
  H  H349  1  0.191700  0.996500  0.393700  1.0  0.1183
  H  H350  1  0.111100  0.753900  0.446100  1.0  0.1208
  H  H351  1  0.732200  0.521000  0.550200  1.0  0.1307
  H  H352  1  0.808000  0.501800  0.658600  1.0  0.1063
  H  H353  1  0.617600  0.485100  0.505400  1.0  0.1386
  H  H354  1  0.768300  0.267300  0.445300  1.0  0.1396
  H  H355  1  0.803700  0.581000  0.672200  1.0  0.1332
  H  H356  1  0.706300  0.416500  0.393500  1.0  0.1179
  H  H357  1  0.603200  0.335200  0.445500  1.0  0.1255
  H  H358  1  0.691700  0.496500  0.393700  1.0  0.1183
  H  H359  1  0.611100  0.253900  0.446100  1.0  0.1208
  H  H360  1  0.732200  0.021000  0.050200  1.0  0.1307
  H  H361  1  0.808000  0.001800  0.158600  1.0  0.1063
  H  H362  1  0.617600  0.985100  0.005400  1.0  0.1386
  H  H363  1  0.768300  0.767300  0.945300  1.0  0.1396
  H  H364  1  0.803700  0.081000  0.172200  1.0  0.1332
  H  H365  1  0.706300  0.916500  0.893500  1.0  0.1179
  H  H366  1  0.603200  0.835200  0.945500  1.0  0.1255
  H  H367  1  0.691700  0.996500  0.893700  1.0  0.1183
  H  H368  1  0.611100  0.753900  0.946100  1.0  0.1208
  C  C369  1  0.727900  0.200990  0.844400  1.0  0.7396
  C  C370  1  0.869000  0.145500  0.770710  1.0  0.7278
  C  C371  1  0.720030  0.107190  0.700990  1.0  0.7005
  C  C372  1  0.730300  0.252890  0.853770  1.0  -0.114
  C  C373  1  0.852900  0.173070  0.732980  1.0  -0.0976
  C  C374  1  0.770100  0.079480  0.697150  1.0  -0.0974
  C  C375  1  0.754000  0.283110  0.825530  1.0  -0.0229
  C  C376  1  0.709000  0.271800  0.889200  1.0  -0.0097
  C  C377  1  0.826800  0.152320  0.699680  1.0  -0.0057
  C  C378  1  0.863600  0.221500  0.732860  1.0  -0.0135
  C  C379  1  0.819400  0.100180  0.698310  1.0  0.0506
  C  C380  1  0.765330  0.031070  0.696210  1.0  -0.0284
  C  C381  1  0.757890  0.331100  0.833730  1.0  -0.1253
  C  C382  1  0.711700  0.319000  0.897500  1.0  -0.0633
  C  C383  1  0.811000  0.180400  0.666550  1.0  -0.0627
  C  C384  1  0.846700  0.249340  0.699810  1.0  -0.1032
  C  C385  1  0.863200  0.071450  0.696590  1.0  -0.0824
  C  C386  1  0.809360  0.002490  0.696520  1.0  -0.1101
  C  C387  1  0.736600  0.349310  0.870130  1.0  0.0521
  C  C388  1  0.790900  0.359200  0.803600  1.0  0.6774
  C  C389  1  0.820100  0.228000  0.666460  1.0  -0.0328
  C  C390  1  0.855100  0.301200  0.701060  1.0  0.6937
  C  C391  1  0.858500  0.023010  0.696380  1.0  -0.012
  C  C392  1  0.804400  0.949810  0.698940  1.0  0.6787
  C  C393  1  0.727900  0.700990  0.344400  1.0  0.7396
  C  C394  1  0.869000  0.645500  0.270710  1.0  0.7278
  C  C395  1  0.720030  0.607190  0.200990  1.0  0.7005
  C  C396  1  0.730300  0.752890  0.353770  1.0  -0.114
  C  C397  1  0.852900  0.673070  0.232980  1.0  -0.0976
  C  C398  1  0.770100  0.579480  0.197150  1.0  -0.0974
  C  C399  1  0.754000  0.783110  0.325530  1.0  -0.0229
  C  C400  1  0.709000  0.771800  0.389200  1.0  -0.0097
  C  C401  1  0.826800  0.652320  0.199680  1.0  -0.0057
  C  C402  1  0.863600  0.721500  0.232860  1.0  -0.0135
  C  C403  1  0.819400  0.600180  0.198310  1.0  0.0506
  C  C404  1  0.765330  0.531070  0.196210  1.0  -0.0284
  C  C405  1  0.757890  0.831100  0.333730  1.0  -0.1253
  C  C406  1  0.711700  0.819000  0.397500  1.0  -0.0633
  C  C407  1  0.811000  0.680400  0.166550  1.0  -0.0627
  C  C408  1  0.846700  0.749340  0.199810  1.0  -0.1032
  C  C409  1  0.863200  0.571450  0.196590  1.0  -0.0824
  C  C410  1  0.809360  0.502490  0.196520  1.0  -0.1101
  C  C411  1  0.736600  0.849310  0.370130  1.0  0.0521
  C  C412  1  0.790900  0.859200  0.303600  1.0  0.6774
  C  C413  1  0.820100  0.728000  0.166460  1.0  -0.0328
  C  C414  1  0.855100  0.801200  0.201060  1.0  0.6937
  C  C415  1  0.858500  0.523010  0.196380  1.0  -0.012
  C  C416  1  0.804400  0.449810  0.198940  1.0  0.6787
  C  C417  1  0.227900  0.200990  0.344400  1.0  0.7396
  C  C418  1  0.369000  0.145500  0.270710  1.0  0.7278
  C  C419  1  0.220030  0.107190  0.200990  1.0  0.7005
  C  C420  1  0.230300  0.252890  0.353770  1.0  -0.114
  C  C421  1  0.352900  0.173070  0.232980  1.0  -0.0976
  C  C422  1  0.270100  0.079480  0.197150  1.0  -0.0974
  C  C423  1  0.254000  0.283110  0.325530  1.0  -0.0229
  C  C424  1  0.209000  0.271800  0.389200  1.0  -0.0097
  C  C425  1  0.326800  0.152320  0.199680  1.0  -0.0057
  C  C426  1  0.363600  0.221500  0.232860  1.0  -0.0135
  C  C427  1  0.319400  0.100180  0.198310  1.0  0.0506
  C  C428  1  0.265330  0.031070  0.196210  1.0  -0.0284
  C  C429  1  0.257890  0.331100  0.333730  1.0  -0.1253
  C  C430  1  0.211700  0.319000  0.397500  1.0  -0.0633
  C  C431  1  0.311000  0.180400  0.166550  1.0  -0.0627
  C  C432  1  0.346700  0.249340  0.199810  1.0  -0.1032
  C  C433  1  0.363200  0.071450  0.196590  1.0  -0.0824
  C  C434  1  0.309360  0.002490  0.196520  1.0  -0.1101
  C  C435  1  0.236600  0.349310  0.370130  1.0  0.0521
  C  C436  1  0.290900  0.359200  0.303600  1.0  0.6774
  C  C437  1  0.320100  0.228000  0.166460  1.0  -0.0328
  C  C438  1  0.355100  0.301200  0.201060  1.0  0.6937
  C  C439  1  0.358500  0.023010  0.196380  1.0  -0.012
  C  C440  1  0.304400  0.949810  0.198940  1.0  0.6787
  C  C441  1  0.227900  0.700990  0.844400  1.0  0.7396
  C  C442  1  0.369000  0.645500  0.770710  1.0  0.7278
  C  C443  1  0.220030  0.607190  0.700990  1.0  0.7005
  C  C444  1  0.230300  0.752890  0.853770  1.0  -0.114
  C  C445  1  0.352900  0.673070  0.732980  1.0  -0.0976
  C  C446  1  0.270100  0.579480  0.697150  1.0  -0.0974
  C  C447  1  0.254000  0.783110  0.825530  1.0  -0.0229
  C  C448  1  0.209000  0.771800  0.889200  1.0  -0.0097
  C  C449  1  0.326800  0.652320  0.699680  1.0  -0.0057
  C  C450  1  0.363600  0.721500  0.732860  1.0  -0.0135
  C  C451  1  0.319400  0.600180  0.698310  1.0  0.0506
  C  C452  1  0.265330  0.531070  0.696210  1.0  -0.0284
  C  C453  1  0.257890  0.831100  0.833730  1.0  -0.1253
  C  C454  1  0.211700  0.819000  0.897500  1.0  -0.0633
  C  C455  1  0.311000  0.680400  0.666550  1.0  -0.0627
  C  C456  1  0.346700  0.749340  0.699810  1.0  -0.1032
  C  C457  1  0.363200  0.571450  0.696590  1.0  -0.0824
  C  C458  1  0.309360  0.502490  0.696520  1.0  -0.1101
  C  C459  1  0.236600  0.849310  0.870130  1.0  0.0521
  C  C460  1  0.290900  0.859200  0.803600  1.0  0.6774
  C  C461  1  0.320100  0.728000  0.666460  1.0  -0.0328
  C  C462  1  0.355100  0.801200  0.701060  1.0  0.6937
  C  C463  1  0.358500  0.523010  0.696380  1.0  -0.012
  C  C464  1  0.304400  0.449810  0.698940  1.0  0.6787
  C  C465  1  0.022100  0.549010  0.844400  1.0  0.7413
  C  C466  1  0.881000  0.604500  0.770710  1.0  0.7276
  C  C467  1  0.029970  0.642810  0.700990  1.0  0.7011
  C  C468  1  0.019700  0.497110  0.853770  1.0  -0.1105
  C  C469  1  0.897100  0.576930  0.732980  1.0  -0.0994
  C  C470  1  0.979900  0.670520  0.697150  1.0  -0.0943
  C  C471  1  0.996000  0.466890  0.825530  1.0  -0.0227
  C  C472  1  0.041000  0.478200  0.889200  1.0  -0.0103
  C  C473  1  0.923200  0.597680  0.699680  1.0  -0.0047
  C  C474  1  0.886400  0.528500  0.732860  1.0  -0.0154
  C  C475  1  0.930600  0.649820  0.698310  1.0  0.0516
  C  C476  1  0.984670  0.718930  0.696210  1.0  -0.0287
  C  C477  1  0.992110  0.418900  0.833730  1.0  -0.1253
  C  C478  1  0.038300  0.431000  0.897500  1.0  -0.0644
  C  C479  1  0.939000  0.569600  0.666550  1.0  -0.064
  C  C480  1  0.903300  0.500660  0.699810  1.0  -0.1031
  C  C481  1  0.886800  0.678550  0.696590  1.0  -0.0793
  C  C482  1  0.940640  0.747510  0.696520  1.0  -0.1079
  C  C483  1  0.013400  0.400690  0.870130  1.0  0.0515
  C  C484  1  0.959100  0.390800  0.803600  1.0  0.6772
  C  C485  1  0.929900  0.522000  0.666460  1.0  -0.0334
  C  C486  1  0.894900  0.448800  0.701060  1.0  0.695
  C  C487  1  0.891500  0.726990  0.696380  1.0  -0.0112
  C  C488  1  0.945600  0.800190  0.698940  1.0  0.6793
  C  C489  1  0.022100  0.049010  0.344400  1.0  0.7413
  C  C490  1  0.881000  0.104500  0.270710  1.0  0.7276
  C  C491  1  0.029970  0.142810  0.200990  1.0  0.7011
  C  C492  1  0.019700  0.997110  0.353770  1.0  -0.1105
  C  C493  1  0.897100  0.076930  0.232980  1.0  -0.0994
  C  C494  1  0.979900  0.170520  0.197150  1.0  -0.0943
  C  C495  1  0.996000  0.966890  0.325530  1.0  -0.0227
  C  C496  1  0.041000  0.978200  0.389200  1.0  -0.0103
  C  C497  1  0.923200  0.097680  0.199680  1.0  -0.0047
  C  C498  1  0.886400  0.028500  0.232860  1.0  -0.0154
  C  C499  1  0.930600  0.149820  0.198310  1.0  0.0516
  C  C500  1  0.984670  0.218930  0.196210  1.0  -0.0287
  C  C501  1  0.992110  0.918900  0.333730  1.0  -0.1253
  C  C502  1  0.038300  0.931000  0.397500  1.0  -0.0644
  C  C503  1  0.939000  0.069600  0.166550  1.0  -0.064
  C  C504  1  0.903300  0.000660  0.199810  1.0  -0.1031
  C  C505  1  0.886800  0.178550  0.196590  1.0  -0.0793
  C  C506  1  0.940640  0.247510  0.196520  1.0  -0.1079
  C  C507  1  0.013400  0.900690  0.370130  1.0  0.0515
  C  C508  1  0.959100  0.890800  0.303600  1.0  0.6772
  C  C509  1  0.929900  0.022000  0.166460  1.0  -0.0334
  C  C510  1  0.894900  0.948800  0.201060  1.0  0.695
  C  C511  1  0.891500  0.226990  0.196380  1.0  -0.0112
  C  C512  1  0.945600  0.300190  0.198940  1.0  0.6793
  C  C513  1  0.522100  0.549010  0.344400  1.0  0.7413
  C  C514  1  0.381000  0.604500  0.270710  1.0  0.7276
  C  C515  1  0.529970  0.642810  0.200990  1.0  0.7011
  C  C516  1  0.519700  0.497110  0.353770  1.0  -0.1105
  C  C517  1  0.397100  0.576930  0.232980  1.0  -0.0994
  C  C518  1  0.479900  0.670520  0.197150  1.0  -0.0943
  C  C519  1  0.496000  0.466890  0.325530  1.0  -0.0227
  C  C520  1  0.541000  0.478200  0.389200  1.0  -0.0103
  C  C521  1  0.423200  0.597680  0.199680  1.0  -0.0047
  C  C522  1  0.386400  0.528500  0.232860  1.0  -0.0154
  C  C523  1  0.430600  0.649820  0.198310  1.0  0.0516
  C  C524  1  0.484670  0.718930  0.196210  1.0  -0.0287
  C  C525  1  0.492110  0.418900  0.333730  1.0  -0.1253
  C  C526  1  0.538300  0.431000  0.397500  1.0  -0.0644
  C  C527  1  0.439000  0.569600  0.166550  1.0  -0.064
  C  C528  1  0.403300  0.500660  0.199810  1.0  -0.1031
  C  C529  1  0.386800  0.678550  0.196590  1.0  -0.0793
  C  C530  1  0.440640  0.747510  0.196520  1.0  -0.1079
  C  C531  1  0.513400  0.400690  0.370130  1.0  0.0515
  C  C532  1  0.459100  0.390800  0.303600  1.0  0.6772
  C  C533  1  0.429900  0.522000  0.166460  1.0  -0.0334
  C  C534  1  0.394900  0.448800  0.201060  1.0  0.695
  C  C535  1  0.391500  0.726990  0.196380  1.0  -0.0112
  C  C536  1  0.445600  0.800190  0.198940  1.0  0.6793
  C  C537  1  0.522100  0.049010  0.844400  1.0  0.7413
  C  C538  1  0.381000  0.104500  0.770710  1.0  0.7276
  C  C539  1  0.529970  0.142810  0.700990  1.0  0.7011
  C  C540  1  0.519700  0.997110  0.853770  1.0  -0.1105
  C  C541  1  0.397100  0.076930  0.732980  1.0  -0.0994
  C  C542  1  0.479900  0.170520  0.697150  1.0  -0.0943
  C  C543  1  0.496000  0.966890  0.825530  1.0  -0.0227
  C  C544  1  0.541000  0.978200  0.889200  1.0  -0.0103
  C  C545  1  0.423200  0.097680  0.699680  1.0  -0.0047
  C  C546  1  0.386400  0.028500  0.732860  1.0  -0.0154
  C  C547  1  0.430600  0.149820  0.698310  1.0  0.0516
  C  C548  1  0.484670  0.218930  0.696210  1.0  -0.0287
  C  C549  1  0.492110  0.918900  0.833730  1.0  -0.1253
  C  C550  1  0.538300  0.931000  0.897500  1.0  -0.0644
  C  C551  1  0.439000  0.069600  0.666550  1.0  -0.064
  C  C552  1  0.403300  0.000660  0.699810  1.0  -0.1031
  C  C553  1  0.386800  0.178550  0.696590  1.0  -0.0793
  C  C554  1  0.440640  0.247510  0.696520  1.0  -0.1079
  C  C555  1  0.513400  0.900690  0.870130  1.0  0.0515
  C  C556  1  0.459100  0.890800  0.803600  1.0  0.6772
  C  C557  1  0.429900  0.022000  0.666460  1.0  -0.0334
  C  C558  1  0.394900  0.948800  0.701060  1.0  0.695
  C  C559  1  0.391500  0.226990  0.696380  1.0  -0.0112
  C  C560  1  0.445600  0.300190  0.698940  1.0  0.6793
  C  C561  1  0.022100  0.200990  0.905600  1.0  0.7396
  C  C562  1  0.881000  0.145500  0.979290  1.0  0.7282
  C  C563  1  0.029970  0.107190  0.049010  1.0  0.7013
  C  C564  1  0.019700  0.252890  0.896230  1.0  -0.114
  C  C565  1  0.897100  0.173070  0.017020  1.0  -0.0987
  C  C566  1  0.979900  0.079480  0.052850  1.0  -0.0945
  C  C567  1  0.996000  0.283110  0.924470  1.0  -0.0242
  C  C568  1  0.041000  0.271800  0.860800  1.0  -0.0127
  C  C569  1  0.923200  0.152320  0.050320  1.0  -0.0062
  C  C570  1  0.886400  0.221500  0.017140  1.0  -0.0153
  C  C571  1  0.930600  0.100180  0.051690  1.0  0.0497
  C  C572  1  0.984670  0.031070  0.053790  1.0  -0.0288
  C  C573  1  0.992110  0.331100  0.916270  1.0  -0.1241
  C  C574  1  0.038300  0.319000  0.852500  1.0  -0.0653
  C  C575  1  0.939000  0.180400  0.083450  1.0  -0.0638
  C  C576  1  0.903300  0.249340  0.050190  1.0  -0.1013
  C  C577  1  0.886800  0.071450  0.053410  1.0  -0.0795
  C  C578  1  0.940640  0.002490  0.053480  1.0  -0.1104
  C  C579  1  0.013400  0.349310  0.879870  1.0  0.052
  C  C580  1  0.959100  0.359200  0.946400  1.0  0.678
  C  C581  1  0.929900  0.228000  0.083540  1.0  -0.0322
  C  C582  1  0.894900  0.301200  0.048940  1.0  0.694
  C  C583  1  0.891500  0.023010  0.053620  1.0  -0.012
  C  C584  1  0.945600  0.949810  0.051060  1.0  0.679
  C  C585  1  0.022100  0.700990  0.405600  1.0  0.7396
  C  C586  1  0.881000  0.645500  0.479290  1.0  0.7282
  C  C587  1  0.029970  0.607190  0.549010  1.0  0.7013
  C  C588  1  0.019700  0.752890  0.396230  1.0  -0.114
  C  C589  1  0.897100  0.673070  0.517020  1.0  -0.0987
  C  C590  1  0.979900  0.579480  0.552850  1.0  -0.0945
  C  C591  1  0.996000  0.783110  0.424470  1.0  -0.0242
  C  C592  1  0.041000  0.771800  0.360800  1.0  -0.0127
  C  C593  1  0.923200  0.652320  0.550320  1.0  -0.0062
  C  C594  1  0.886400  0.721500  0.517140  1.0  -0.0153
  C  C595  1  0.930600  0.600180  0.551690  1.0  0.0497
  C  C596  1  0.984670  0.531070  0.553790  1.0  -0.0288
  C  C597  1  0.992110  0.831100  0.416270  1.0  -0.1241
  C  C598  1  0.038300  0.819000  0.352500  1.0  -0.0653
  C  C599  1  0.939000  0.680400  0.583450  1.0  -0.0638
  C  C600  1  0.903300  0.749340  0.550190  1.0  -0.1013
  C  C601  1  0.886800  0.571450  0.553410  1.0  -0.0795
  C  C602  1  0.940640  0.502490  0.553480  1.0  -0.1104
  C  C603  1  0.013400  0.849310  0.379870  1.0  0.052
  C  C604  1  0.959100  0.859200  0.446400  1.0  0.678
  C  C605  1  0.929900  0.728000  0.583540  1.0  -0.0322
  C  C606  1  0.894900  0.801200  0.548940  1.0  0.694
  C  C607  1  0.891500  0.523010  0.553620  1.0  -0.012
  C  C608  1  0.945600  0.449810  0.551060  1.0  0.679
  C  C609  1  0.522100  0.200990  0.405600  1.0  0.7396
  C  C610  1  0.381000  0.145500  0.479290  1.0  0.7282
  C  C611  1  0.529970  0.107190  0.549010  1.0  0.7013
  C  C612  1  0.519700  0.252890  0.396230  1.0  -0.114
  C  C613  1  0.397100  0.173070  0.517020  1.0  -0.0987
  C  C614  1  0.479900  0.079480  0.552850  1.0  -0.0945
  C  C615  1  0.496000  0.283110  0.424470  1.0  -0.0242
  C  C616  1  0.541000  0.271800  0.360800  1.0  -0.0127
  C  C617  1  0.423200  0.152320  0.550320  1.0  -0.0062
  C  C618  1  0.386400  0.221500  0.517140  1.0  -0.0153
  C  C619  1  0.430600  0.100180  0.551690  1.0  0.0497
  C  C620  1  0.484670  0.031070  0.553790  1.0  -0.0288
  C  C621  1  0.492110  0.331100  0.416270  1.0  -0.1241
  C  C622  1  0.538300  0.319000  0.352500  1.0  -0.0653
  C  C623  1  0.439000  0.180400  0.583450  1.0  -0.0638
  C  C624  1  0.403300  0.249340  0.550190  1.0  -0.1013
  C  C625  1  0.386800  0.071450  0.553410  1.0  -0.0795
  C  C626  1  0.440640  0.002490  0.553480  1.0  -0.1104
  C  C627  1  0.513400  0.349310  0.379870  1.0  0.052
  C  C628  1  0.459100  0.359200  0.446400  1.0  0.678
  C  C629  1  0.429900  0.228000  0.583540  1.0  -0.0322
  C  C630  1  0.394900  0.301200  0.548940  1.0  0.694
  C  C631  1  0.391500  0.023010  0.553620  1.0  -0.012
  C  C632  1  0.445600  0.949810  0.551060  1.0  0.679
  C  C633  1  0.522100  0.700990  0.905600  1.0  0.7396
  C  C634  1  0.381000  0.645500  0.979290  1.0  0.7282
  C  C635  1  0.529970  0.607190  0.049010  1.0  0.7013
  C  C636  1  0.519700  0.752890  0.896230  1.0  -0.114
  C  C637  1  0.397100  0.673070  0.017020  1.0  -0.0987
  C  C638  1  0.479900  0.579480  0.052850  1.0  -0.0945
  C  C639  1  0.496000  0.783110  0.924470  1.0  -0.0242
  C  C640  1  0.541000  0.771800  0.860800  1.0  -0.0127
  C  C641  1  0.423200  0.652320  0.050320  1.0  -0.0062
  C  C642  1  0.386400  0.721500  0.017140  1.0  -0.0153
  C  C643  1  0.430600  0.600180  0.051690  1.0  0.0497
  C  C644  1  0.484670  0.531070  0.053790  1.0  -0.0288
  C  C645  1  0.492110  0.831100  0.916270  1.0  -0.1241
  C  C646  1  0.538300  0.819000  0.852500  1.0  -0.0653
  C  C647  1  0.439000  0.680400  0.083450  1.0  -0.0638
  C  C648  1  0.403300  0.749340  0.050190  1.0  -0.1013
  C  C649  1  0.386800  0.571450  0.053410  1.0  -0.0795
  C  C650  1  0.440640  0.502490  0.053480  1.0  -0.1104
  C  C651  1  0.513400  0.849310  0.879870  1.0  0.052
  C  C652  1  0.459100  0.859200  0.946400  1.0  0.678
  C  C653  1  0.429900  0.728000  0.083540  1.0  -0.0322
  C  C654  1  0.394900  0.801200  0.048940  1.0  0.694
  C  C655  1  0.391500  0.523010  0.053620  1.0  -0.012
  C  C656  1  0.445600  0.449810  0.051060  1.0  0.679
  C  C657  1  0.727900  0.549010  0.905600  1.0  0.7413
  C  C658  1  0.869000  0.604500  0.979290  1.0  0.7235
  C  C659  1  0.720030  0.642810  0.049010  1.0  0.7012
  C  C660  1  0.730300  0.497110  0.896230  1.0  -0.1118
  C  C661  1  0.852900  0.576930  0.017020  1.0  -0.0978
  C  C662  1  0.770100  0.670520  0.052850  1.0  -0.0971
  C  C663  1  0.754000  0.466890  0.924470  1.0  -0.0248
  C  C664  1  0.709000  0.478200  0.860800  1.0  -0.0102
  C  C665  1  0.826800  0.597680  0.050320  1.0  -0.0057
  C  C666  1  0.863600  0.528500  0.017140  1.0  -0.0153
  C  C667  1  0.819400  0.649820  0.051690  1.0  0.0485
  C  C668  1  0.765330  0.718930  0.053790  1.0  -0.0284
  C  C669  1  0.757890  0.418900  0.916270  1.0  -0.1238
  C  C670  1  0.711700  0.431000  0.852500  1.0  -0.0639
  C  C671  1  0.811000  0.569600  0.083450  1.0  -0.0637
  C  C672  1  0.846700  0.500660  0.050190  1.0  -0.104
  C  C673  1  0.863200  0.678550  0.053410  1.0  -0.0812
  C  C674  1  0.809360  0.747510  0.053480  1.0  -0.1079
  C  C675  1  0.736600  0.400690  0.879870  1.0  0.0515
  C  C676  1  0.790900  0.390800  0.946400  1.0  0.6784
  C  C677  1  0.820100  0.522000  0.083540  1.0  -0.0324
  C  C678  1  0.855100  0.448800  0.048940  1.0  0.6948
  C  C679  1  0.858500  0.726990  0.053620  1.0  -0.0127
  C  C680  1  0.804400  0.800190  0.051060  1.0  0.6785
  C  C681  1  0.727900  0.049010  0.405600  1.0  0.7413
  C  C682  1  0.869000  0.104500  0.479290  1.0  0.7235
  C  C683  1  0.720030  0.142810  0.549010  1.0  0.7012
  C  C684  1  0.730300  0.997110  0.396230  1.0  -0.1118
  C  C685  1  0.852900  0.076930  0.517020  1.0  -0.0978
  C  C686  1  0.770100  0.170520  0.552850  1.0  -0.0971
  C  C687  1  0.754000  0.966890  0.424470  1.0  -0.0248
  C  C688  1  0.709000  0.978200  0.360800  1.0  -0.0102
  C  C689  1  0.826800  0.097680  0.550320  1.0  -0.0057
  C  C690  1  0.863600  0.028500  0.517140  1.0  -0.0153
  C  C691  1  0.819400  0.149820  0.551690  1.0  0.0485
  C  C692  1  0.765330  0.218930  0.553790  1.0  -0.0284
  C  C693  1  0.757890  0.918900  0.416270  1.0  -0.1238
  C  C694  1  0.711700  0.931000  0.352500  1.0  -0.0639
  C  C695  1  0.811000  0.069600  0.583450  1.0  -0.0637
  C  C696  1  0.846700  0.000660  0.550190  1.0  -0.104
  C  C697  1  0.863200  0.178550  0.553410  1.0  -0.0812
  C  C698  1  0.809360  0.247510  0.553480  1.0  -0.1079
  C  C699  1  0.736600  0.900690  0.379870  1.0  0.0515
  C  C700  1  0.790900  0.890800  0.446400  1.0  0.6784
  C  C701  1  0.820100  0.022000  0.583540  1.0  -0.0324
  C  C702  1  0.855100  0.948800  0.548940  1.0  0.6948
  C  C703  1  0.858500  0.226990  0.553620  1.0  -0.0127
  C  C704  1  0.804400  0.300190  0.551060  1.0  0.6785
  C  C705  1  0.227900  0.549010  0.405600  1.0  0.7413
  C  C706  1  0.369000  0.604500  0.479290  1.0  0.7235
  C  C707  1  0.220030  0.642810  0.549010  1.0  0.7012
  C  C708  1  0.230300  0.497110  0.396230  1.0  -0.1118
  C  C709  1  0.352900  0.576930  0.517020  1.0  -0.0978
  C  C710  1  0.270100  0.670520  0.552850  1.0  -0.0971
  C  C711  1  0.254000  0.466890  0.424470  1.0  -0.0248
  C  C712  1  0.209000  0.478200  0.360800  1.0  -0.0102
  C  C713  1  0.326800  0.597680  0.550320  1.0  -0.0057
  C  C714  1  0.363600  0.528500  0.517140  1.0  -0.0153
  C  C715  1  0.319400  0.649820  0.551690  1.0  0.0485
  C  C716  1  0.265330  0.718930  0.553790  1.0  -0.0284
  C  C717  1  0.257890  0.418900  0.416270  1.0  -0.1238
  C  C718  1  0.211700  0.431000  0.352500  1.0  -0.0639
  C  C719  1  0.311000  0.569600  0.583450  1.0  -0.0637
  C  C720  1  0.346700  0.500660  0.550190  1.0  -0.104
  C  C721  1  0.363200  0.678550  0.553410  1.0  -0.0812
  C  C722  1  0.309360  0.747510  0.553480  1.0  -0.1079
  C  C723  1  0.236600  0.400690  0.379870  1.0  0.0515
  C  C724  1  0.290900  0.390800  0.446400  1.0  0.6784
  C  C725  1  0.320100  0.522000  0.583540  1.0  -0.0324
  C  C726  1  0.355100  0.448800  0.548940  1.0  0.6948
  C  C727  1  0.358500  0.726990  0.553620  1.0  -0.0127
  C  C728  1  0.304400  0.800190  0.551060  1.0  0.6785
  C  C729  1  0.227900  0.049010  0.905600  1.0  0.7413
  C  C730  1  0.369000  0.104500  0.979290  1.0  0.7235
  C  C731  1  0.220030  0.142810  0.049010  1.0  0.7012
  C  C732  1  0.230300  0.997110  0.896230  1.0  -0.1118
  C  C733  1  0.352900  0.076930  0.017020  1.0  -0.0978
  C  C734  1  0.270100  0.170520  0.052850  1.0  -0.0971
  C  C735  1  0.254000  0.966890  0.924470  1.0  -0.0248
  C  C736  1  0.209000  0.978200  0.860800  1.0  -0.0102
  C  C737  1  0.326800  0.097680  0.050320  1.0  -0.0057
  C  C738  1  0.363600  0.028500  0.017140  1.0  -0.0153
  C  C739  1  0.319400  0.149820  0.051690  1.0  0.0485
  C  C740  1  0.265330  0.218930  0.053790  1.0  -0.0284
  C  C741  1  0.257890  0.918900  0.916270  1.0  -0.1238
  C  C742  1  0.211700  0.931000  0.852500  1.0  -0.0639
  C  C743  1  0.311000  0.069600  0.083450  1.0  -0.0637
  C  C744  1  0.346700  0.000660  0.050190  1.0  -0.104
  C  C745  1  0.363200  0.178550  0.053410  1.0  -0.0812
  C  C746  1  0.309360  0.247510  0.053480  1.0  -0.1079
  C  C747  1  0.236600  0.900690  0.879870  1.0  0.0515
  C  C748  1  0.290900  0.890800  0.946400  1.0  0.6784
  C  C749  1  0.320100  0.022000  0.083540  1.0  -0.0324
  C  C750  1  0.355100  0.948800  0.048940  1.0  0.6948
  C  C751  1  0.358500  0.226990  0.053620  1.0  -0.0127
  C  C752  1  0.304400  0.300190  0.051060  1.0  0.6785
  C  C753  1  0.272100  0.799010  0.155600  1.0  0.742
  C  C754  1  0.131000  0.854500  0.229290  1.0  0.7277
  C  C755  1  0.279970  0.892810  0.299010  1.0  0.7014
  C  C756  1  0.269700  0.747110  0.146230  1.0  -0.1107
  C  C757  1  0.147100  0.826930  0.267020  1.0  -0.0984
  C  C758  1  0.229900  0.920520  0.302850  1.0  -0.0942
  C  C759  1  0.246000  0.716890  0.174470  1.0  -0.0242
  C  C760  1  0.291000  0.728200  0.110800  1.0  -0.011
  C  C761  1  0.173200  0.847680  0.300320  1.0  -0.0053
  C  C762  1  0.136400  0.778500  0.267140  1.0  -0.0152
  C  C763  1  0.180600  0.899820  0.301690  1.0  0.0494
  C  C764  1  0.234670  0.968930  0.303790  1.0  -0.0288
  C  C765  1  0.242110  0.668900  0.166270  1.0  -0.1233
  C  C766  1  0.288300  0.681000  0.102500  1.0  -0.0649
  C  C767  1  0.189000  0.819600  0.333450  1.0  -0.0642
  C  C768  1  0.153300  0.750660  0.300190  1.0  -0.1024
  C  C769  1  0.136800  0.928550  0.303410  1.0  -0.0791
  C  C770  1  0.190640  0.997510  0.303480  1.0  -0.1079
  C  C771  1  0.263400  0.650690  0.129870  1.0  0.0515
  C  C772  1  0.209100  0.640800  0.196400  1.0  0.6786
  C  C773  1  0.179900  0.772000  0.333540  1.0  -0.0323
  C  C774  1  0.144900  0.698800  0.298940  1.0  0.6954
  C  C775  1  0.141500  0.976990  0.303620  1.0  -0.0115
  C  C776  1  0.195600  0.050190  0.301060  1.0  0.679
  C  C777  1  0.272100  0.299010  0.655600  1.0  0.742
  C  C778  1  0.131000  0.354500  0.729290  1.0  0.7277
  C  C779  1  0.279970  0.392810  0.799010  1.0  0.7014
  C  C780  1  0.269700  0.247110  0.646230  1.0  -0.1107
  C  C781  1  0.147100  0.326930  0.767020  1.0  -0.0984
  C  C782  1  0.229900  0.420520  0.802850  1.0  -0.0942
  C  C783  1  0.246000  0.216890  0.674470  1.0  -0.0242
  C  C784  1  0.291000  0.228200  0.610800  1.0  -0.011
  C  C785  1  0.173200  0.347680  0.800320  1.0  -0.0053
  C  C786  1  0.136400  0.278500  0.767140  1.0  -0.0152
  C  C787  1  0.180600  0.399820  0.801690  1.0  0.0494
  C  C788  1  0.234670  0.468930  0.803790  1.0  -0.0288
  C  C789  1  0.242110  0.168900  0.666270  1.0  -0.1233
  C  C790  1  0.288300  0.181000  0.602500  1.0  -0.0649
  C  C791  1  0.189000  0.319600  0.833450  1.0  -0.0642
  C  C792  1  0.153300  0.250660  0.800190  1.0  -0.1024
  C  C793  1  0.136800  0.428550  0.803410  1.0  -0.0791
  C  C794  1  0.190640  0.497510  0.803480  1.0  -0.1079
  C  C795  1  0.263400  0.150690  0.629870  1.0  0.0515
  C  C796  1  0.209100  0.140800  0.696400  1.0  0.6786
  C  C797  1  0.179900  0.272000  0.833540  1.0  -0.0323
  C  C798  1  0.144900  0.198800  0.798940  1.0  0.6954
  C  C799  1  0.141500  0.476990  0.803620  1.0  -0.0115
  C  C800  1  0.195600  0.550190  0.801060  1.0  0.679
  C  C801  1  0.772100  0.799010  0.655600  1.0  0.742
  C  C802  1  0.631000  0.854500  0.729290  1.0  0.7277
  C  C803  1  0.779970  0.892810  0.799010  1.0  0.7014
  C  C804  1  0.769700  0.747110  0.646230  1.0  -0.1107
  C  C805  1  0.647100  0.826930  0.767020  1.0  -0.0984
  C  C806  1  0.729900  0.920520  0.802850  1.0  -0.0942
  C  C807  1  0.746000  0.716890  0.674470  1.0  -0.0242
  C  C808  1  0.791000  0.728200  0.610800  1.0  -0.011
  C  C809  1  0.673200  0.847680  0.800320  1.0  -0.0053
  C  C810  1  0.636400  0.778500  0.767140  1.0  -0.0152
  C  C811  1  0.680600  0.899820  0.801690  1.0  0.0494
  C  C812  1  0.734670  0.968930  0.803790  1.0  -0.0288
  C  C813  1  0.742110  0.668900  0.666270  1.0  -0.1233
  C  C814  1  0.788300  0.681000  0.602500  1.0  -0.0649
  C  C815  1  0.689000  0.819600  0.833450  1.0  -0.0642
  C  C816  1  0.653300  0.750660  0.800190  1.0  -0.1024
  C  C817  1  0.636800  0.928550  0.803410  1.0  -0.0791
  C  C818  1  0.690640  0.997510  0.803480  1.0  -0.1079
  C  C819  1  0.763400  0.650690  0.629870  1.0  0.0515
  C  C820  1  0.709100  0.640800  0.696400  1.0  0.6786
  C  C821  1  0.679900  0.772000  0.833540  1.0  -0.0323
  C  C822  1  0.644900  0.698800  0.798940  1.0  0.6954
  C  C823  1  0.641500  0.976990  0.803620  1.0  -0.0115
  C  C824  1  0.695600  0.050190  0.801060  1.0  0.679
  C  C825  1  0.772100  0.299010  0.155600  1.0  0.742
  C  C826  1  0.631000  0.354500  0.229290  1.0  0.7277
  C  C827  1  0.779970  0.392810  0.299010  1.0  0.7014
  C  C828  1  0.769700  0.247110  0.146230  1.0  -0.1107
  C  C829  1  0.647100  0.326930  0.267020  1.0  -0.0984
  C  C830  1  0.729900  0.420520  0.302850  1.0  -0.0942
  C  C831  1  0.746000  0.216890  0.174470  1.0  -0.0242
  C  C832  1  0.791000  0.228200  0.110800  1.0  -0.011
  C  C833  1  0.673200  0.347680  0.300320  1.0  -0.0053
  C  C834  1  0.636400  0.278500  0.267140  1.0  -0.0152
  C  C835  1  0.680600  0.399820  0.301690  1.0  0.0494
  C  C836  1  0.734670  0.468930  0.303790  1.0  -0.0288
  C  C837  1  0.742110  0.168900  0.166270  1.0  -0.1233
  C  C838  1  0.788300  0.181000  0.102500  1.0  -0.0649
  C  C839  1  0.689000  0.319600  0.333450  1.0  -0.0642
  C  C840  1  0.653300  0.250660  0.300190  1.0  -0.1024
  C  C841  1  0.636800  0.428550  0.303410  1.0  -0.0791
  C  C842  1  0.690640  0.497510  0.303480  1.0  -0.1079
  C  C843  1  0.763400  0.150690  0.129870  1.0  0.0515
  C  C844  1  0.709100  0.140800  0.196400  1.0  0.6786
  C  C845  1  0.679900  0.272000  0.333540  1.0  -0.0323
  C  C846  1  0.644900  0.198800  0.298940  1.0  0.6954
  C  C847  1  0.641500  0.476990  0.303620  1.0  -0.0115
  C  C848  1  0.695600  0.550190  0.301060  1.0  0.679
  C  C849  1  0.977900  0.450990  0.155600  1.0  0.7402
  C  C850  1  0.119000  0.395500  0.229290  1.0  0.7246
  C  C851  1  0.970030  0.357190  0.299010  1.0  0.7009
  C  C852  1  0.980300  0.502890  0.146230  1.0  -0.1142
  C  C853  1  0.102900  0.423070  0.267020  1.0  -0.0982
  C  C854  1  0.020100  0.329480  0.302850  1.0  -0.0975
  C  C855  1  0.004000  0.533110  0.174470  1.0  -0.0244
  C  C856  1  0.959000  0.521800  0.110800  1.0  -0.0114
  C  C857  1  0.076800  0.402320  0.300320  1.0  -0.0067
  C  C858  1  0.113600  0.471500  0.267140  1.0  -0.0156
  C  C859  1  0.069400  0.350180  0.301690  1.0  0.0487
  C  C860  1  0.015330  0.281070  0.303790  1.0  -0.0284
  C  C861  1  0.007890  0.581100  0.166270  1.0  -0.1247
  C  C862  1  0.961700  0.569000  0.102500  1.0  -0.0638
  C  C863  1  0.061000  0.430400  0.333450  1.0  -0.0628
  C  C864  1  0.096700  0.499340  0.300190  1.0  -0.103
  C  C865  1  0.113200  0.321450  0.303410  1.0  -0.0817
  C  C866  1  0.059360  0.252490  0.303480  1.0  -0.1103
  C  C867  1  0.986600  0.599310  0.129870  1.0  0.0522
  C  C868  1  0.040900  0.609200  0.196400  1.0  0.6784
  C  C869  1  0.070100  0.478000  0.333540  1.0  -0.032
  C  C870  1  0.105100  0.551200  0.298940  1.0  0.6938
  C  C871  1  0.108500  0.273010  0.303620  1.0  -0.0135
  C  C872  1  0.054400  0.199810  0.301060  1.0  0.6785
  C  C873  1  0.977900  0.950990  0.655600  1.0  0.7402
  C  C874  1  0.119000  0.895500  0.729290  1.0  0.7246
  C  C875  1  0.970030  0.857190  0.799010  1.0  0.7009
  C  C876  1  0.980300  0.002890  0.646230  1.0  -0.1142
  C  C877  1  0.102900  0.923070  0.767020  1.0  -0.0982
  C  C878  1  0.020100  0.829480  0.802850  1.0  -0.0975
  C  C879  1  0.004000  0.033110  0.674470  1.0  -0.0244
  C  C880  1  0.959000  0.021800  0.610800  1.0  -0.0114
  C  C881  1  0.076800  0.902320  0.800320  1.0  -0.0067
  C  C882  1  0.113600  0.971500  0.767140  1.0  -0.0156
  C  C883  1  0.069400  0.850180  0.801690  1.0  0.0487
  C  C884  1  0.015330  0.781070  0.803790  1.0  -0.0284
  C  C885  1  0.007890  0.081100  0.666270  1.0  -0.1247
  C  C886  1  0.961700  0.069000  0.602500  1.0  -0.0638
  C  C887  1  0.061000  0.930400  0.833450  1.0  -0.0628
  C  C888  1  0.096700  0.999340  0.800190  1.0  -0.103
  C  C889  1  0.113200  0.821450  0.803410  1.0  -0.0817
  C  C890  1  0.059360  0.752490  0.803480  1.0  -0.1103
  C  C891  1  0.986600  0.099310  0.629870  1.0  0.0522
  C  C892  1  0.040900  0.109200  0.696400  1.0  0.6784
  C  C893  1  0.070100  0.978000  0.833540  1.0  -0.032
  C  C894  1  0.105100  0.051200  0.798940  1.0  0.6938
  C  C895  1  0.108500  0.773010  0.803620  1.0  -0.0135
  C  C896  1  0.054400  0.699810  0.801060  1.0  0.6785
  C  C897  1  0.477900  0.450990  0.655600  1.0  0.7402
  C  C898  1  0.619000  0.395500  0.729290  1.0  0.7246
  C  C899  1  0.470030  0.357190  0.799010  1.0  0.7009
  C  C900  1  0.480300  0.502890  0.646230  1.0  -0.1142
  C  C901  1  0.602900  0.423070  0.767020  1.0  -0.0982
  C  C902  1  0.520100  0.329480  0.802850  1.0  -0.0975
  C  C903  1  0.504000  0.533110  0.674470  1.0  -0.0244
  C  C904  1  0.459000  0.521800  0.610800  1.0  -0.0114
  C  C905  1  0.576800  0.402320  0.800320  1.0  -0.0067
  C  C906  1  0.613600  0.471500  0.767140  1.0  -0.0156
  C  C907  1  0.569400  0.350180  0.801690  1.0  0.0487
  C  C908  1  0.515330  0.281070  0.803790  1.0  -0.0284
  C  C909  1  0.507890  0.581100  0.666270  1.0  -0.1247
  C  C910  1  0.461700  0.569000  0.602500  1.0  -0.0638
  C  C911  1  0.561000  0.430400  0.833450  1.0  -0.0628
  C  C912  1  0.596700  0.499340  0.800190  1.0  -0.103
  C  C913  1  0.613200  0.321450  0.803410  1.0  -0.0817
  C  C914  1  0.559360  0.252490  0.803480  1.0  -0.1103
  C  C915  1  0.486600  0.599310  0.629870  1.0  0.0522
  C  C916  1  0.540900  0.609200  0.696400  1.0  0.6784
  C  C917  1  0.570100  0.478000  0.833540  1.0  -0.032
  C  C918  1  0.605100  0.551200  0.798940  1.0  0.6938
  C  C919  1  0.608500  0.273010  0.803620  1.0  -0.0135
  C  C920  1  0.554400  0.199810  0.801060  1.0  0.6785
  C  C921  1  0.477900  0.950990  0.155600  1.0  0.7402
  C  C922  1  0.619000  0.895500  0.229290  1.0  0.7246
  C  C923  1  0.470030  0.857190  0.299010  1.0  0.7009
  C  C924  1  0.480300  0.002890  0.146230  1.0  -0.1142
  C  C925  1  0.602900  0.923070  0.267020  1.0  -0.0982
  C  C926  1  0.520100  0.829480  0.302850  1.0  -0.0975
  C  C927  1  0.504000  0.033110  0.174470  1.0  -0.0244
  C  C928  1  0.459000  0.021800  0.110800  1.0  -0.0114
  C  C929  1  0.576800  0.902320  0.300320  1.0  -0.0067
  C  C930  1  0.613600  0.971500  0.267140  1.0  -0.0156
  C  C931  1  0.569400  0.850180  0.301690  1.0  0.0487
  C  C932  1  0.515330  0.781070  0.303790  1.0  -0.0284
  C  C933  1  0.507890  0.081100  0.166270  1.0  -0.1247
  C  C934  1  0.461700  0.069000  0.102500  1.0  -0.0638
  C  C935  1  0.561000  0.930400  0.333450  1.0  -0.0628
  C  C936  1  0.596700  0.999340  0.300190  1.0  -0.103
  C  C937  1  0.613200  0.821450  0.303410  1.0  -0.0817
  C  C938  1  0.559360  0.752490  0.303480  1.0  -0.1103
  C  C939  1  0.486600  0.099310  0.129870  1.0  0.0522
  C  C940  1  0.540900  0.109200  0.196400  1.0  0.6784
  C  C941  1  0.570100  0.978000  0.333540  1.0  -0.032
  C  C942  1  0.605100  0.051200  0.298940  1.0  0.6938
  C  C943  1  0.608500  0.773010  0.303620  1.0  -0.0135
  C  C944  1  0.554400  0.699810  0.301060  1.0  0.6785
  C  C945  1  0.977900  0.799010  0.094400  1.0  0.7406
  C  C946  1  0.119000  0.854500  0.020710  1.0  0.7269
  C  C947  1  0.970030  0.892810  0.950990  1.0  0.7007
  C  C948  1  0.980300  0.747110  0.103770  1.0  -0.1117
  C  C949  1  0.102900  0.826930  0.982980  1.0  -0.0984
  C  C950  1  0.020100  0.920520  0.947150  1.0  -0.0971
  C  C951  1  0.004000  0.716890  0.075530  1.0  -0.023
  C  C952  1  0.959000  0.728200  0.139200  1.0  -0.0086
  C  C953  1  0.076800  0.847680  0.949680  1.0  -0.0051
  C  C954  1  0.113600  0.778500  0.982860  1.0  -0.0131
  C  C955  1  0.069400  0.899820  0.948310  1.0  0.0507
  C  C956  1  0.015330  0.968930  0.946210  1.0  -0.0282
  C  C957  1  0.007890  0.668900  0.083730  1.0  -0.1254
  C  C958  1  0.961700  0.681000  0.147500  1.0  -0.0632
  C  C959  1  0.061000  0.819600  0.916550  1.0  -0.063
  C  C960  1  0.096700  0.750660  0.949810  1.0  -0.1044
  C  C961  1  0.113200  0.928550  0.946590  1.0  -0.0819
  C  C962  1  0.059360  0.997510  0.946520  1.0  -0.108
  C  C963  1  0.986600  0.650690  0.120130  1.0  0.0515
  C  C964  1  0.040900  0.640800  0.053600  1.0  0.6766
  C  C965  1  0.070100  0.772000  0.916460  1.0  -0.0331
  C  C966  1  0.105100  0.698800  0.951060  1.0  0.6944
  C  C967  1  0.108500  0.976990  0.946380  1.0  -0.0116
  C  C968  1  0.054400  0.050190  0.948940  1.0  0.6788
  C  C969  1  0.977900  0.299010  0.594400  1.0  0.7406
  C  C970  1  0.119000  0.354500  0.520710  1.0  0.7269
  C  C971  1  0.970030  0.392810  0.450990  1.0  0.7007
  C  C972  1  0.980300  0.247110  0.603770  1.0  -0.1117
  C  C973  1  0.102900  0.326930  0.482980  1.0  -0.0984
  C  C974  1  0.020100  0.420520  0.447150  1.0  -0.0971
  C  C975  1  0.004000  0.216890  0.575530  1.0  -0.023
  C  C976  1  0.959000  0.228200  0.639200  1.0  -0.0086
  C  C977  1  0.076800  0.347680  0.449680  1.0  -0.0051
  C  C978  1  0.113600  0.278500  0.482860  1.0  -0.0131
  C  C979  1  0.069400  0.399820  0.448310  1.0  0.0507
  C  C980  1  0.015330  0.468930  0.446210  1.0  -0.0282
  C  C981  1  0.007890  0.168900  0.583730  1.0  -0.1254
  C  C982  1  0.961700  0.181000  0.647500  1.0  -0.0632
  C  C983  1  0.061000  0.319600  0.416550  1.0  -0.063
  C  C984  1  0.096700  0.250660  0.449810  1.0  -0.1044
  C  C985  1  0.113200  0.428550  0.446590  1.0  -0.0819
  C  C986  1  0.059360  0.497510  0.446520  1.0  -0.108
  C  C987  1  0.986600  0.150690  0.620130  1.0  0.0515
  C  C988  1  0.040900  0.140800  0.553600  1.0  0.6766
  C  C989  1  0.070100  0.272000  0.416460  1.0  -0.0331
  C  C990  1  0.105100  0.198800  0.451060  1.0  0.6944
  C  C991  1  0.108500  0.476990  0.446380  1.0  -0.0116
  C  C992  1  0.054400  0.550190  0.448940  1.0  0.6788
  C  C993  1  0.477900  0.799010  0.594400  1.0  0.7406
  C  C994  1  0.619000  0.854500  0.520710  1.0  0.7269
  C  C995  1  0.470030  0.892810  0.450990  1.0  0.7007
  C  C996  1  0.480300  0.747110  0.603770  1.0  -0.1117
  C  C997  1  0.602900  0.826930  0.482980  1.0  -0.0984
  C  C998  1  0.520100  0.920520  0.447150  1.0  -0.0971
  C  C999  1  0.504000  0.716890  0.575530  1.0  -0.023
  C  C1000  1  0.459000  0.728200  0.639200  1.0  -0.0086
  C  C1001  1  0.576800  0.847680  0.449680  1.0  -0.0051
  C  C1002  1  0.613600  0.778500  0.482860  1.0  -0.0131
  C  C1003  1  0.569400  0.899820  0.448310  1.0  0.0507
  C  C1004  1  0.515330  0.968930  0.446210  1.0  -0.0282
  C  C1005  1  0.507890  0.668900  0.583730  1.0  -0.1254
  C  C1006  1  0.461700  0.681000  0.647500  1.0  -0.0632
  C  C1007  1  0.561000  0.819600  0.416550  1.0  -0.063
  C  C1008  1  0.596700  0.750660  0.449810  1.0  -0.1044
  C  C1009  1  0.613200  0.928550  0.446590  1.0  -0.0819
  C  C1010  1  0.559360  0.997510  0.446520  1.0  -0.108
  C  C1011  1  0.486600  0.650690  0.620130  1.0  0.0515
  C  C1012  1  0.540900  0.640800  0.553600  1.0  0.6766
  C  C1013  1  0.570100  0.772000  0.416460  1.0  -0.0331
  C  C1014  1  0.605100  0.698800  0.451060  1.0  0.6944
  C  C1015  1  0.608500  0.976990  0.446380  1.0  -0.0116
  C  C1016  1  0.554400  0.050190  0.448940  1.0  0.6788
  C  C1017  1  0.477900  0.299010  0.094400  1.0  0.7406
  C  C1018  1  0.619000  0.354500  0.020710  1.0  0.7269
  C  C1019  1  0.470030  0.392810  0.950990  1.0  0.7007
  C  C1020  1  0.480300  0.247110  0.103770  1.0  -0.1117
  C  C1021  1  0.602900  0.326930  0.982980  1.0  -0.0984
  C  C1022  1  0.520100  0.420520  0.947150  1.0  -0.0971
  C  C1023  1  0.504000  0.216890  0.075530  1.0  -0.023
  C  C1024  1  0.459000  0.228200  0.139200  1.0  -0.0086
  C  C1025  1  0.576800  0.347680  0.949680  1.0  -0.0051
  C  C1026  1  0.613600  0.278500  0.982860  1.0  -0.0131
  C  C1027  1  0.569400  0.399820  0.948310  1.0  0.0507
  C  C1028  1  0.515330  0.468930  0.946210  1.0  -0.0282
  C  C1029  1  0.507890  0.168900  0.083730  1.0  -0.1254
  C  C1030  1  0.461700  0.181000  0.147500  1.0  -0.0632
  C  C1031  1  0.561000  0.319600  0.916550  1.0  -0.063
  C  C1032  1  0.596700  0.250660  0.949810  1.0  -0.1044
  C  C1033  1  0.613200  0.428550  0.946590  1.0  -0.0819
  C  C1034  1  0.559360  0.497510  0.946520  1.0  -0.108
  C  C1035  1  0.486600  0.150690  0.120130  1.0  0.0515
  C  C1036  1  0.540900  0.140800  0.053600  1.0  0.6766
  C  C1037  1  0.570100  0.272000  0.916460  1.0  -0.0331
  C  C1038  1  0.605100  0.198800  0.951060  1.0  0.6944
  C  C1039  1  0.608500  0.476990  0.946380  1.0  -0.0116
  C  C1040  1  0.554400  0.550190  0.948940  1.0  0.6788
  C  C1041  1  0.272100  0.450990  0.094400  1.0  0.739
  C  C1042  1  0.131000  0.395500  0.020710  1.0  0.7278
  C  C1043  1  0.279970  0.357190  0.950990  1.0  0.7009
  C  C1044  1  0.269700  0.502890  0.103770  1.0  -0.1137
  C  C1045  1  0.147100  0.423070  0.982980  1.0  -0.0986
  C  C1046  1  0.229900  0.329480  0.947150  1.0  -0.0944
  C  C1047  1  0.246000  0.533110  0.075530  1.0  -0.0231
  C  C1048  1  0.291000  0.521800  0.139200  1.0  -0.0117
  C  C1049  1  0.173200  0.402320  0.949680  1.0  -0.0052
  C  C1050  1  0.136400  0.471500  0.982860  1.0  -0.016
  C  C1051  1  0.180600  0.350180  0.948310  1.0  0.0517
  C  C1052  1  0.234670  0.281070  0.946210  1.0  -0.0289
  C  C1053  1  0.242110  0.581100  0.083730  1.0  -0.1251
  C  C1054  1  0.288300  0.569000  0.147500  1.0  -0.0656
  C  C1055  1  0.189000  0.430400  0.916550  1.0  -0.0638
  C  C1056  1  0.153300  0.499340  0.949810  1.0  -0.1018
  C  C1057  1  0.136800  0.321450  0.946590  1.0  -0.0798
  C  C1058  1  0.190640  0.252490  0.946520  1.0  -0.1103
  C  C1059  1  0.263400  0.599310  0.120130  1.0  0.0519
  C  C1060  1  0.209100  0.609200  0.053600  1.0  0.6775
  C  C1061  1  0.179900  0.478000  0.916460  1.0  -0.0334
  C  C1062  1  0.144900  0.551200  0.951060  1.0  0.694
  C  C1063  1  0.141500  0.273010  0.946380  1.0  -0.0113
  C  C1064  1  0.195600  0.199810  0.948940  1.0  0.6791
  C  C1065  1  0.272100  0.950990  0.594400  1.0  0.739
  C  C1066  1  0.131000  0.895500  0.520710  1.0  0.7278
  C  C1067  1  0.279970  0.857190  0.450990  1.0  0.7009
  C  C1068  1  0.269700  0.002890  0.603770  1.0  -0.1137
  C  C1069  1  0.147100  0.923070  0.482980  1.0  -0.0986
  C  C1070  1  0.229900  0.829480  0.447150  1.0  -0.0944
  C  C1071  1  0.246000  0.033110  0.575530  1.0  -0.0231
  C  C1072  1  0.291000  0.021800  0.639200  1.0  -0.0117
  C  C1073  1  0.173200  0.902320  0.449680  1.0  -0.0052
  C  C1074  1  0.136400  0.971500  0.482860  1.0  -0.016
  C  C1075  1  0.180600  0.850180  0.448310  1.0  0.0517
  C  C1076  1  0.234670  0.781070  0.446210  1.0  -0.0289
  C  C1077  1  0.242110  0.081100  0.583730  1.0  -0.1251
  C  C1078  1  0.288300  0.069000  0.647500  1.0  -0.0656
  C  C1079  1  0.189000  0.930400  0.416550  1.0  -0.0638
  C  C1080  1  0.153300  0.999340  0.449810  1.0  -0.1018
  C  C1081  1  0.136800  0.821450  0.446590  1.0  -0.0798
  C  C1082  1  0.190640  0.752490  0.446520  1.0  -0.1103
  C  C1083  1  0.263400  0.099310  0.620130  1.0  0.0519
  C  C1084  1  0.209100  0.109200  0.553600  1.0  0.6775
  C  C1085  1  0.179900  0.978000  0.416460  1.0  -0.0334
  C  C1086  1  0.144900  0.051200  0.451060  1.0  0.694
  C  C1087  1  0.141500  0.773010  0.446380  1.0  -0.0113
  C  C1088  1  0.195600  0.699810  0.448940  1.0  0.6791
  C  C1089  1  0.772100  0.450990  0.594400  1.0  0.739
  C  C1090  1  0.631000  0.395500  0.520710  1.0  0.7278
  C  C1091  1  0.779970  0.357190  0.450990  1.0  0.7009
  C  C1092  1  0.769700  0.502890  0.603770  1.0  -0.1137
  C  C1093  1  0.647100  0.423070  0.482980  1.0  -0.0986
  C  C1094  1  0.729900  0.329480  0.447150  1.0  -0.0944
  C  C1095  1  0.746000  0.533110  0.575530  1.0  -0.0231
  C  C1096  1  0.791000  0.521800  0.639200  1.0  -0.0117
  C  C1097  1  0.673200  0.402320  0.449680  1.0  -0.0052
  C  C1098  1  0.636400  0.471500  0.482860  1.0  -0.016
  C  C1099  1  0.680600  0.350180  0.448310  1.0  0.0517
  C  C1100  1  0.734670  0.281070  0.446210  1.0  -0.0289
  C  C1101  1  0.742110  0.581100  0.583730  1.0  -0.1251
  C  C1102  1  0.788300  0.569000  0.647500  1.0  -0.0656
  C  C1103  1  0.689000  0.430400  0.416550  1.0  -0.0638
  C  C1104  1  0.653300  0.499340  0.449810  1.0  -0.1018
  C  C1105  1  0.636800  0.321450  0.446590  1.0  -0.0798
  C  C1106  1  0.690640  0.252490  0.446520  1.0  -0.1103
  C  C1107  1  0.763400  0.599310  0.620130  1.0  0.0519
  C  C1108  1  0.709100  0.609200  0.553600  1.0  0.6775
  C  C1109  1  0.679900  0.478000  0.416460  1.0  -0.0334
  C  C1110  1  0.644900  0.551200  0.451060  1.0  0.694
  C  C1111  1  0.641500  0.273010  0.446380  1.0  -0.0113
  C  C1112  1  0.695600  0.199810  0.448940  1.0  0.6791
  C  C1113  1  0.772100  0.950990  0.094400  1.0  0.739
  C  C1114  1  0.631000  0.895500  0.020710  1.0  0.7278
  C  C1115  1  0.779970  0.857190  0.950990  1.0  0.7009
  C  C1116  1  0.769700  0.002890  0.103770  1.0  -0.1137
  C  C1117  1  0.647100  0.923070  0.982980  1.0  -0.0986
  C  C1118  1  0.729900  0.829480  0.947150  1.0  -0.0944
  C  C1119  1  0.746000  0.033110  0.075530  1.0  -0.0231
  C  C1120  1  0.791000  0.021800  0.139200  1.0  -0.0117
  C  C1121  1  0.673200  0.902320  0.949680  1.0  -0.0052
  C  C1122  1  0.636400  0.971500  0.982860  1.0  -0.016
  C  C1123  1  0.680600  0.850180  0.948310  1.0  0.0517
  C  C1124  1  0.734670  0.781070  0.946210  1.0  -0.0289
  C  C1125  1  0.742110  0.081100  0.083730  1.0  -0.1251
  C  C1126  1  0.788300  0.069000  0.147500  1.0  -0.0656
  C  C1127  1  0.689000  0.930400  0.916550  1.0  -0.0638
  C  C1128  1  0.653300  0.999340  0.949810  1.0  -0.1018
  C  C1129  1  0.636800  0.821450  0.946590  1.0  -0.0798
  C  C1130  1  0.690640  0.752490  0.946520  1.0  -0.1103
  C  C1131  1  0.763400  0.099310  0.120130  1.0  0.0519
  C  C1132  1  0.709100  0.109200  0.053600  1.0  0.6775
  C  C1133  1  0.679900  0.978000  0.916460  1.0  -0.0334
  C  C1134  1  0.644900  0.051200  0.951060  1.0  0.694
  C  C1135  1  0.641500  0.773010  0.946380  1.0  -0.0113
  C  C1136  1  0.695600  0.699810  0.948940  1.0  0.6791
  O  O1137  1  0.740800  0.189950  0.808170  1.0  -0.5717
  O  O1138  1  0.832790  0.123270  0.789860  1.0  -0.5861
  O  O1139  1  0.717210  0.135780  0.731880  1.0  -0.6609
  O  O1140  1  0.757810  0.934090  0.696310  1.0  -0.5805
  O  O1141  1  0.714400  0.173740  0.872220  1.0  -0.4948
  O  O1142  1  0.915090  0.145460  0.782220  1.0  -0.4647
  O  O1143  1  0.683470  0.099960  0.677450  1.0  -0.7066
  O  O1144  1  0.843850  0.925730  0.703810  1.0  -0.669
  O  O1145  1  0.830650  0.326690  0.676370  1.0  -0.5097
  O  O1146  1  0.791100  0.351000  0.767600  1.0  -0.5619
  O  O1147  1  0.888900  0.315370  0.727280  1.0  -0.5675
  O  O1148  1  0.821700  0.387000  0.817500  1.0  -0.6373
  O  O1149  1  0.740800  0.689950  0.308170  1.0  -0.5717
  O  O1150  1  0.832790  0.623270  0.289860  1.0  -0.5861
  O  O1151  1  0.717210  0.635780  0.231880  1.0  -0.6609
  O  O1152  1  0.757810  0.434090  0.196310  1.0  -0.5805
  O  O1153  1  0.714400  0.673740  0.372220  1.0  -0.4948
  O  O1154  1  0.915090  0.645460  0.282220  1.0  -0.4647
  O  O1155  1  0.683470  0.599960  0.177450  1.0  -0.7066
  O  O1156  1  0.843850  0.425730  0.203810  1.0  -0.669
  O  O1157  1  0.830650  0.826690  0.176370  1.0  -0.5097
  O  O1158  1  0.791100  0.851000  0.267600  1.0  -0.5619
  O  O1159  1  0.888900  0.815370  0.227280  1.0  -0.5675
  O  O1160  1  0.821700  0.887000  0.317500  1.0  -0.6373
  O  O1161  1  0.240800  0.189950  0.308170  1.0  -0.5717
  O  O1162  1  0.332790  0.123270  0.289860  1.0  -0.5861
  O  O1163  1  0.217210  0.135780  0.231880  1.0  -0.6609
  O  O1164  1  0.257810  0.934090  0.196310  1.0  -0.5805
  O  O1165  1  0.214400  0.173740  0.372220  1.0  -0.4948
  O  O1166  1  0.415090  0.145460  0.282220  1.0  -0.4647
  O  O1167  1  0.183470  0.099960  0.177450  1.0  -0.7066
  O  O1168  1  0.343850  0.925730  0.203810  1.0  -0.669
  O  O1169  1  0.330650  0.326690  0.176370  1.0  -0.5097
  O  O1170  1  0.291100  0.351000  0.267600  1.0  -0.5619
  O  O1171  1  0.388900  0.315370  0.227280  1.0  -0.5675
  O  O1172  1  0.321700  0.387000  0.317500  1.0  -0.6373
  O  O1173  1  0.240800  0.689950  0.808170  1.0  -0.5717
  O  O1174  1  0.332790  0.623270  0.789860  1.0  -0.5861
  O  O1175  1  0.217210  0.635780  0.731880  1.0  -0.6609
  O  O1176  1  0.257810  0.434090  0.696310  1.0  -0.5805
  O  O1177  1  0.214400  0.673740  0.872220  1.0  -0.4948
  O  O1178  1  0.415090  0.645460  0.782220  1.0  -0.4647
  O  O1179  1  0.183470  0.599960  0.677450  1.0  -0.7066
  O  O1180  1  0.343850  0.425730  0.703810  1.0  -0.669
  O  O1181  1  0.330650  0.826690  0.676370  1.0  -0.5097
  O  O1182  1  0.291100  0.851000  0.767600  1.0  -0.5619
  O  O1183  1  0.388900  0.815370  0.727280  1.0  -0.5675
  O  O1184  1  0.321700  0.887000  0.817500  1.0  -0.6373
  O  O1185  1  0.009200  0.560050  0.808170  1.0  -0.5726
  O  O1186  1  0.917210  0.626730  0.789860  1.0  -0.5879
  O  O1187  1  0.032790  0.614220  0.731880  1.0  -0.6599
  O  O1188  1  0.992190  0.815910  0.696310  1.0  -0.5812
  O  O1189  1  0.035600  0.576260  0.872220  1.0  -0.4974
  O  O1190  1  0.834910  0.604540  0.782220  1.0  -0.4628
  O  O1191  1  0.066530  0.650040  0.677450  1.0  -0.7046
  O  O1192  1  0.906150  0.824270  0.703810  1.0  -0.67
  O  O1193  1  0.919350  0.423310  0.676370  1.0  -0.5086
  O  O1194  1  0.958900  0.399000  0.767600  1.0  -0.5615
  O  O1195  1  0.861100  0.434630  0.727280  1.0  -0.568
  O  O1196  1  0.928300  0.363000  0.817500  1.0  -0.6382
  O  O1197  1  0.009200  0.060050  0.308170  1.0  -0.5726
  O  O1198  1  0.917210  0.126730  0.289860  1.0  -0.5879
  O  O1199  1  0.032790  0.114220  0.231880  1.0  -0.6599
  O  O1200  1  0.992190  0.315910  0.196310  1.0  -0.5812
  O  O1201  1  0.035600  0.076260  0.372220  1.0  -0.4974
  O  O1202  1  0.834910  0.104540  0.282220  1.0  -0.4628
  O  O1203  1  0.066530  0.150040  0.177450  1.0  -0.7046
  O  O1204  1  0.906150  0.324270  0.203810  1.0  -0.67
  O  O1205  1  0.919350  0.923310  0.176370  1.0  -0.5086
  O  O1206  1  0.958900  0.899000  0.267600  1.0  -0.5615
  O  O1207  1  0.861100  0.934630  0.227280  1.0  -0.568
  O  O1208  1  0.928300  0.863000  0.317500  1.0  -0.6382
  O  O1209  1  0.509200  0.560050  0.308170  1.0  -0.5726
  O  O1210  1  0.417210  0.626730  0.289860  1.0  -0.5879
  O  O1211  1  0.532790  0.614220  0.231880  1.0  -0.6599
  O  O1212  1  0.492190  0.815910  0.196310  1.0  -0.5812
  O  O1213  1  0.535600  0.576260  0.372220  1.0  -0.4974
  O  O1214  1  0.334910  0.604540  0.282220  1.0  -0.4628
  O  O1215  1  0.566530  0.650040  0.177450  1.0  -0.7046
  O  O1216  1  0.406150  0.824270  0.203810  1.0  -0.67
  O  O1217  1  0.419350  0.423310  0.176370  1.0  -0.5086
  O  O1218  1  0.458900  0.399000  0.267600  1.0  -0.5615
  O  O1219  1  0.361100  0.434630  0.227280  1.0  -0.568
  O  O1220  1  0.428300  0.363000  0.317500  1.0  -0.6382
  O  O1221  1  0.509200  0.060050  0.808170  1.0  -0.5726
  O  O1222  1  0.417210  0.126730  0.789860  1.0  -0.5879
  O  O1223  1  0.532790  0.114220  0.731880  1.0  -0.6599
  O  O1224  1  0.492190  0.315910  0.696310  1.0  -0.5812
  O  O1225  1  0.535600  0.076260  0.872220  1.0  -0.4974
  O  O1226  1  0.334910  0.104540  0.782220  1.0  -0.4628
  O  O1227  1  0.566530  0.150040  0.677450  1.0  -0.7046
  O  O1228  1  0.406150  0.324270  0.703810  1.0  -0.67
  O  O1229  1  0.419350  0.923310  0.676370  1.0  -0.5086
  O  O1230  1  0.458900  0.899000  0.767600  1.0  -0.5615
  O  O1231  1  0.361100  0.934630  0.727280  1.0  -0.568
  O  O1232  1  0.428300  0.863000  0.817500  1.0  -0.6382
  O  O1233  1  0.009200  0.189950  0.941830  1.0  -0.5728
  O  O1234  1  0.917210  0.123270  0.960140  1.0  -0.5872
  O  O1235  1  0.032790  0.135780  0.018120  1.0  -0.6595
  O  O1236  1  0.992190  0.934090  0.053690  1.0  -0.58
  O  O1237  1  0.035600  0.173740  0.877780  1.0  -0.4967
  O  O1238  1  0.834910  0.145460  0.967780  1.0  -0.4645
  O  O1239  1  0.066530  0.099960  0.072550  1.0  -0.7051
  O  O1240  1  0.906150  0.925730  0.046190  1.0  -0.6697
  O  O1241  1  0.919350  0.326690  0.073630  1.0  -0.5089
  O  O1242  1  0.958900  0.351000  0.982400  1.0  -0.5628
  O  O1243  1  0.861100  0.315370  0.022720  1.0  -0.5684
  O  O1244  1  0.928300  0.387000  0.932500  1.0  -0.6381
  O  O1245  1  0.009200  0.689950  0.441830  1.0  -0.5728
  O  O1246  1  0.917210  0.623270  0.460140  1.0  -0.5872
  O  O1247  1  0.032790  0.635780  0.518120  1.0  -0.6595
  O  O1248  1  0.992190  0.434090  0.553690  1.0  -0.58
  O  O1249  1  0.035600  0.673740  0.377780  1.0  -0.4967
  O  O1250  1  0.834910  0.645460  0.467780  1.0  -0.4645
  O  O1251  1  0.066530  0.599960  0.572550  1.0  -0.7051
  O  O1252  1  0.906150  0.425730  0.546190  1.0  -0.6697
  O  O1253  1  0.919350  0.826690  0.573630  1.0  -0.5089
  O  O1254  1  0.958900  0.851000  0.482400  1.0  -0.5628
  O  O1255  1  0.861100  0.815370  0.522720  1.0  -0.5684
  O  O1256  1  0.928300  0.887000  0.432500  1.0  -0.6381
  O  O1257  1  0.509200  0.189950  0.441830  1.0  -0.5728
  O  O1258  1  0.417210  0.123270  0.460140  1.0  -0.5872
  O  O1259  1  0.532790  0.135780  0.518120  1.0  -0.6595
  O  O1260  1  0.492190  0.934090  0.553690  1.0  -0.58
  O  O1261  1  0.535600  0.173740  0.377780  1.0  -0.4967
  O  O1262  1  0.334910  0.145460  0.467780  1.0  -0.4645
  O  O1263  1  0.566530  0.099960  0.572550  1.0  -0.7051
  O  O1264  1  0.406150  0.925730  0.546190  1.0  -0.6697
  O  O1265  1  0.419350  0.326690  0.573630  1.0  -0.5089
  O  O1266  1  0.458900  0.351000  0.482400  1.0  -0.5628
  O  O1267  1  0.361100  0.315370  0.522720  1.0  -0.5684
  O  O1268  1  0.428300  0.387000  0.432500  1.0  -0.6381
  O  O1269  1  0.509200  0.689950  0.941830  1.0  -0.5728
  O  O1270  1  0.417210  0.623270  0.960140  1.0  -0.5872
  O  O1271  1  0.532790  0.635780  0.018120  1.0  -0.6595
  O  O1272  1  0.492190  0.434090  0.053690  1.0  -0.58
  O  O1273  1  0.535600  0.673740  0.877780  1.0  -0.4967
  O  O1274  1  0.334910  0.645460  0.967780  1.0  -0.4645
  O  O1275  1  0.566530  0.599960  0.072550  1.0  -0.7051
  O  O1276  1  0.406150  0.425730  0.046190  1.0  -0.6697
  O  O1277  1  0.419350  0.826690  0.073630  1.0  -0.5089
  O  O1278  1  0.458900  0.851000  0.982400  1.0  -0.5628
  O  O1279  1  0.361100  0.815370  0.022720  1.0  -0.5684
  O  O1280  1  0.428300  0.887000  0.932500  1.0  -0.6381
  O  O1281  1  0.740800  0.560050  0.941830  1.0  -0.573
  O  O1282  1  0.832790  0.626730  0.960140  1.0  -0.5868
  O  O1283  1  0.717210  0.614220  0.018120  1.0  -0.6592
  O  O1284  1  0.757810  0.815910  0.053690  1.0  -0.5812
  O  O1285  1  0.714400  0.576260  0.877780  1.0  -0.4946
  O  O1286  1  0.915090  0.604540  0.967780  1.0  -0.4646
  O  O1287  1  0.683470  0.650040  0.072550  1.0  -0.7041
  O  O1288  1  0.843850  0.824270  0.046190  1.0  -0.6688
  O  O1289  1  0.830650  0.423310  0.073630  1.0  -0.508
  O  O1290  1  0.791100  0.399000  0.982400  1.0  -0.5637
  O  O1291  1  0.888900  0.434630  0.022720  1.0  -0.5676
  O  O1292  1  0.821700  0.363000  0.932500  1.0  -0.635
  O  O1293  1  0.740800  0.060050  0.441830  1.0  -0.573
  O  O1294  1  0.832790  0.126730  0.460140  1.0  -0.5868
  O  O1295  1  0.717210  0.114220  0.518120  1.0  -0.6592
  O  O1296  1  0.757810  0.315910  0.553690  1.0  -0.5812
  O  O1297  1  0.714400  0.076260  0.377780  1.0  -0.4946
  O  O1298  1  0.915090  0.104540  0.467780  1.0  -0.4646
  O  O1299  1  0.683470  0.150040  0.572550  1.0  -0.7041
  O  O1300  1  0.843850  0.324270  0.546190  1.0  -0.6688
  O  O1301  1  0.830650  0.923310  0.573630  1.0  -0.508
  O  O1302  1  0.791100  0.899000  0.482400  1.0  -0.5637
  O  O1303  1  0.888900  0.934630  0.522720  1.0  -0.5676
  O  O1304  1  0.821700  0.863000  0.432500  1.0  -0.635
  O  O1305  1  0.240800  0.560050  0.441830  1.0  -0.573
  O  O1306  1  0.332790  0.626730  0.460140  1.0  -0.5868
  O  O1307  1  0.217210  0.614220  0.518120  1.0  -0.6592
  O  O1308  1  0.257810  0.815910  0.553690  1.0  -0.5812
  O  O1309  1  0.214400  0.576260  0.377780  1.0  -0.4946
  O  O1310  1  0.415090  0.604540  0.467780  1.0  -0.4646
  O  O1311  1  0.183470  0.650040  0.572550  1.0  -0.7041
  O  O1312  1  0.343850  0.824270  0.546190  1.0  -0.6688
  O  O1313  1  0.330650  0.423310  0.573630  1.0  -0.508
  O  O1314  1  0.291100  0.399000  0.482400  1.0  -0.5637
  O  O1315  1  0.388900  0.434630  0.522720  1.0  -0.5676
  O  O1316  1  0.321700  0.363000  0.432500  1.0  -0.635
  O  O1317  1  0.240800  0.060050  0.941830  1.0  -0.573
  O  O1318  1  0.332790  0.126730  0.960140  1.0  -0.5868
  O  O1319  1  0.217210  0.114220  0.018120  1.0  -0.6592
  O  O1320  1  0.257810  0.315910  0.053690  1.0  -0.5812
  O  O1321  1  0.214400  0.076260  0.877780  1.0  -0.4946
  O  O1322  1  0.415090  0.104540  0.967780  1.0  -0.4646
  O  O1323  1  0.183470  0.150040  0.072550  1.0  -0.7041
  O  O1324  1  0.343850  0.324270  0.046190  1.0  -0.6688
  O  O1325  1  0.330650  0.923310  0.073630  1.0  -0.508
  O  O1326  1  0.291100  0.899000  0.982400  1.0  -0.5637
  O  O1327  1  0.388900  0.934630  0.022720  1.0  -0.5676
  O  O1328  1  0.321700  0.863000  0.932500  1.0  -0.635
  O  O1329  1  0.259200  0.810050  0.191830  1.0  -0.5737
  O  O1330  1  0.167210  0.876730  0.210140  1.0  -0.588
  O  O1331  1  0.282790  0.864220  0.268120  1.0  -0.6589
  O  O1332  1  0.242190  0.065910  0.303690  1.0  -0.5806
  O  O1333  1  0.285600  0.826260  0.127780  1.0  -0.4964
  O  O1334  1  0.084910  0.854540  0.217780  1.0  -0.4655
  O  O1335  1  0.316530  0.900040  0.322550  1.0  -0.7049
  O  O1336  1  0.156150  0.074270  0.296190  1.0  -0.6699
  O  O1337  1  0.169350  0.673310  0.323630  1.0  -0.5069
  O  O1338  1  0.208900  0.649000  0.232400  1.0  -0.5633
  O  O1339  1  0.111100  0.684630  0.272720  1.0  -0.5685
  O  O1340  1  0.178300  0.613000  0.182500  1.0  -0.638
  O  O1341  1  0.259200  0.310050  0.691830  1.0  -0.5737
  O  O1342  1  0.167210  0.376730  0.710140  1.0  -0.588
  O  O1343  1  0.282790  0.364220  0.768120  1.0  -0.6589
  O  O1344  1  0.242190  0.565910  0.803690  1.0  -0.5806
  O  O1345  1  0.285600  0.326260  0.627780  1.0  -0.4964
  O  O1346  1  0.084910  0.354540  0.717780  1.0  -0.4655
  O  O1347  1  0.316530  0.400040  0.822550  1.0  -0.7049
  O  O1348  1  0.156150  0.574270  0.796190  1.0  -0.6699
  O  O1349  1  0.169350  0.173310  0.823630  1.0  -0.5069
  O  O1350  1  0.208900  0.149000  0.732400  1.0  -0.5633
  O  O1351  1  0.111100  0.184630  0.772720  1.0  -0.5685
  O  O1352  1  0.178300  0.113000  0.682500  1.0  -0.638
  O  O1353  1  0.759200  0.810050  0.691830  1.0  -0.5737
  O  O1354  1  0.667210  0.876730  0.710140  1.0  -0.588
  O  O1355  1  0.782790  0.864220  0.768120  1.0  -0.6589
  O  O1356  1  0.742190  0.065910  0.803690  1.0  -0.5806
  O  O1357  1  0.785600  0.826260  0.627780  1.0  -0.4964
  O  O1358  1  0.584910  0.854540  0.717780  1.0  -0.4655
  O  O1359  1  0.816530  0.900040  0.822550  1.0  -0.7049
  O  O1360  1  0.656150  0.074270  0.796190  1.0  -0.6699
  O  O1361  1  0.669350  0.673310  0.823630  1.0  -0.5069
  O  O1362  1  0.708900  0.649000  0.732400  1.0  -0.5633
  O  O1363  1  0.611100  0.684630  0.772720  1.0  -0.5685
  O  O1364  1  0.678300  0.613000  0.682500  1.0  -0.638
  O  O1365  1  0.759200  0.310050  0.191830  1.0  -0.5737
  O  O1366  1  0.667210  0.376730  0.210140  1.0  -0.588
  O  O1367  1  0.782790  0.364220  0.268120  1.0  -0.6589
  O  O1368  1  0.742190  0.565910  0.303690  1.0  -0.5806
  O  O1369  1  0.785600  0.326260  0.127780  1.0  -0.4964
  O  O1370  1  0.584910  0.354540  0.217780  1.0  -0.4655
  O  O1371  1  0.816530  0.400040  0.322550  1.0  -0.7049
  O  O1372  1  0.656150  0.574270  0.296190  1.0  -0.6699
  O  O1373  1  0.669350  0.173310  0.323630  1.0  -0.5069
  O  O1374  1  0.708900  0.149000  0.232400  1.0  -0.5633
  O  O1375  1  0.611100  0.184630  0.272720  1.0  -0.5685
  O  O1376  1  0.678300  0.113000  0.182500  1.0  -0.638
  O  O1377  1  0.990800  0.439950  0.191830  1.0  -0.5719
  O  O1378  1  0.082790  0.373270  0.210140  1.0  -0.5862
  O  O1379  1  0.967210  0.385780  0.268120  1.0  -0.6596
  O  O1380  1  0.007810  0.184090  0.303690  1.0  -0.5803
  O  O1381  1  0.964400  0.423740  0.127780  1.0  -0.4954
  O  O1382  1  0.165090  0.395460  0.217780  1.0  -0.4638
  O  O1383  1  0.933470  0.349960  0.322550  1.0  -0.7045
  O  O1384  1  0.093850  0.175730  0.296190  1.0  -0.669
  O  O1385  1  0.080650  0.576690  0.323630  1.0  -0.5082
  O  O1386  1  0.041100  0.601000  0.232400  1.0  -0.5633
  O  O1387  1  0.138900  0.565370  0.272720  1.0  -0.5674
  O  O1388  1  0.071700  0.637000  0.182500  1.0  -0.6359
  O  O1389  1  0.990800  0.939950  0.691830  1.0  -0.5719
  O  O1390  1  0.082790  0.873270  0.710140  1.0  -0.5862
  O  O1391  1  0.967210  0.885780  0.768120  1.0  -0.6596
  O  O1392  1  0.007810  0.684090  0.803690  1.0  -0.5803
  O  O1393  1  0.964400  0.923740  0.627780  1.0  -0.4954
  O  O1394  1  0.165090  0.895460  0.717780  1.0  -0.4638
  O  O1395  1  0.933470  0.849960  0.822550  1.0  -0.7045
  O  O1396  1  0.093850  0.675730  0.796190  1.0  -0.669
  O  O1397  1  0.080650  0.076690  0.823630  1.0  -0.5082
  O  O1398  1  0.041100  0.101000  0.732400  1.0  -0.5633
  O  O1399  1  0.138900  0.065370  0.772720  1.0  -0.5674
  O  O1400  1  0.071700  0.137000  0.682500  1.0  -0.6359
  O  O1401  1  0.490800  0.439950  0.691830  1.0  -0.5719
  O  O1402  1  0.582790  0.373270  0.710140  1.0  -0.5862
  O  O1403  1  0.467210  0.385780  0.768120  1.0  -0.6596
  O  O1404  1  0.507810  0.184090  0.803690  1.0  -0.5803
  O  O1405  1  0.464400  0.423740  0.627780  1.0  -0.4954
  O  O1406  1  0.665090  0.395460  0.717780  1.0  -0.4638
  O  O1407  1  0.433470  0.349960  0.822550  1.0  -0.7045
  O  O1408  1  0.593850  0.175730  0.796190  1.0  -0.669
  O  O1409  1  0.580650  0.576690  0.823630  1.0  -0.5082
  O  O1410  1  0.541100  0.601000  0.732400  1.0  -0.5633
  O  O1411  1  0.638900  0.565370  0.772720  1.0  -0.5674
  O  O1412  1  0.571700  0.637000  0.682500  1.0  -0.6359
  O  O1413  1  0.490800  0.939950  0.191830  1.0  -0.5719
  O  O1414  1  0.582790  0.873270  0.210140  1.0  -0.5862
  O  O1415  1  0.467210  0.885780  0.268120  1.0  -0.6596
  O  O1416  1  0.507810  0.684090  0.303690  1.0  -0.5803
  O  O1417  1  0.464400  0.923740  0.127780  1.0  -0.4954
  O  O1418  1  0.665090  0.895460  0.217780  1.0  -0.4638
  O  O1419  1  0.433470  0.849960  0.322550  1.0  -0.7045
  O  O1420  1  0.593850  0.675730  0.296190  1.0  -0.669
  O  O1421  1  0.580650  0.076690  0.323630  1.0  -0.5082
  O  O1422  1  0.541100  0.101000  0.232400  1.0  -0.5633
  O  O1423  1  0.638900  0.065370  0.272720  1.0  -0.5674
  O  O1424  1  0.571700  0.137000  0.182500  1.0  -0.6359
  O  O1425  1  0.990800  0.810050  0.058170  1.0  -0.5723
  O  O1426  1  0.082790  0.876730  0.039860  1.0  -0.5861
  O  O1427  1  0.967210  0.864220  0.981880  1.0  -0.6599
  O  O1428  1  0.007810  0.065910  0.946310  1.0  -0.5808
  O  O1429  1  0.964400  0.826260  0.122220  1.0  -0.4958
  O  O1430  1  0.165090  0.854540  0.032220  1.0  -0.4653
  O  O1431  1  0.933470  0.900040  0.927450  1.0  -0.7056
  O  O1432  1  0.093850  0.074270  0.953810  1.0  -0.6688
  O  O1433  1  0.080650  0.673310  0.926370  1.0  -0.5095
  O  O1434  1  0.041100  0.649000  0.017600  1.0  -0.5616
  O  O1435  1  0.138900  0.684630  0.977280  1.0  -0.5672
  O  O1436  1  0.071700  0.613000  0.067500  1.0  -0.6363
  O  O1437  1  0.990800  0.310050  0.558170  1.0  -0.5723
  O  O1438  1  0.082790  0.376730  0.539860  1.0  -0.5861
  O  O1439  1  0.967210  0.364220  0.481880  1.0  -0.6599
  O  O1440  1  0.007810  0.565910  0.446310  1.0  -0.5808
  O  O1441  1  0.964400  0.326260  0.622220  1.0  -0.4958
  O  O1442  1  0.165090  0.354540  0.532220  1.0  -0.4653
  O  O1443  1  0.933470  0.400040  0.427450  1.0  -0.7056
  O  O1444  1  0.093850  0.574270  0.453810  1.0  -0.6688
  O  O1445  1  0.080650  0.173310  0.426370  1.0  -0.5095
  O  O1446  1  0.041100  0.149000  0.517600  1.0  -0.5616
  O  O1447  1  0.138900  0.184630  0.477280  1.0  -0.5672
  O  O1448  1  0.071700  0.113000  0.567500  1.0  -0.6363
  O  O1449  1  0.490800  0.810050  0.558170  1.0  -0.5723
  O  O1450  1  0.582790  0.876730  0.539860  1.0  -0.5861
  O  O1451  1  0.467210  0.864220  0.481880  1.0  -0.6599
  O  O1452  1  0.507810  0.065910  0.446310  1.0  -0.5808
  O  O1453  1  0.464400  0.826260  0.622220  1.0  -0.4958
  O  O1454  1  0.665090  0.854540  0.532220  1.0  -0.4653
  O  O1455  1  0.433470  0.900040  0.427450  1.0  -0.7056
  O  O1456  1  0.593850  0.074270  0.453810  1.0  -0.6688
  O  O1457  1  0.580650  0.673310  0.426370  1.0  -0.5095
  O  O1458  1  0.541100  0.649000  0.517600  1.0  -0.5616
  O  O1459  1  0.638900  0.684630  0.477280  1.0  -0.5672
  O  O1460  1  0.571700  0.613000  0.567500  1.0  -0.6363
  O  O1461  1  0.490800  0.310050  0.058170  1.0  -0.5723
  O  O1462  1  0.582790  0.376730  0.039860  1.0  -0.5861
  O  O1463  1  0.467210  0.364220  0.981880  1.0  -0.6599
  O  O1464  1  0.507810  0.565910  0.946310  1.0  -0.5808
  O  O1465  1  0.464400  0.326260  0.122220  1.0  -0.4958
  O  O1466  1  0.665090  0.354540  0.032220  1.0  -0.4653
  O  O1467  1  0.433470  0.400040  0.927450  1.0  -0.7056
  O  O1468  1  0.593850  0.574270  0.953810  1.0  -0.6688
  O  O1469  1  0.580650  0.173310  0.926370  1.0  -0.5095
  O  O1470  1  0.541100  0.149000  0.017600  1.0  -0.5616
  O  O1471  1  0.638900  0.184630  0.977280  1.0  -0.5672
  O  O1472  1  0.571700  0.113000  0.067500  1.0  -0.6363
  O  O1473  1  0.259200  0.439950  0.058170  1.0  -0.5723
  O  O1474  1  0.167210  0.373270  0.039860  1.0  -0.5867
  O  O1475  1  0.282790  0.385780  0.981880  1.0  -0.6608
  O  O1476  1  0.242190  0.184090  0.946310  1.0  -0.5808
  O  O1477  1  0.285600  0.423740  0.122220  1.0  -0.496
  O  O1478  1  0.084910  0.395460  0.032220  1.0  -0.4618
  O  O1479  1  0.316530  0.349960  0.927450  1.0  -0.7055
  O  O1480  1  0.156150  0.175730  0.953810  1.0  -0.6697
  O  O1481  1  0.169350  0.576690  0.926370  1.0  -0.5076
  O  O1482  1  0.208900  0.601000  0.017600  1.0  -0.5616
  O  O1483  1  0.111100  0.565370  0.977280  1.0  -0.5684
  O  O1484  1  0.178300  0.637000  0.067500  1.0  -0.6384
  O  O1485  1  0.259200  0.939950  0.558170  1.0  -0.5723
  O  O1486  1  0.167210  0.873270  0.539860  1.0  -0.5867
  O  O1487  1  0.282790  0.885780  0.481880  1.0  -0.6608
  O  O1488  1  0.242190  0.684090  0.446310  1.0  -0.5808
  O  O1489  1  0.285600  0.923740  0.622220  1.0  -0.496
  O  O1490  1  0.084910  0.895460  0.532220  1.0  -0.4618
  O  O1491  1  0.316530  0.849960  0.427450  1.0  -0.7055
  O  O1492  1  0.156150  0.675730  0.453810  1.0  -0.6697
  O  O1493  1  0.169350  0.076690  0.426370  1.0  -0.5076
  O  O1494  1  0.208900  0.101000  0.517600  1.0  -0.5616
  O  O1495  1  0.111100  0.065370  0.477280  1.0  -0.5684
  O  O1496  1  0.178300  0.137000  0.567500  1.0  -0.6384
  O  O1497  1  0.759200  0.439950  0.558170  1.0  -0.5723
  O  O1498  1  0.667210  0.373270  0.539860  1.0  -0.5867
  O  O1499  1  0.782790  0.385780  0.481880  1.0  -0.6608
  O  O1500  1  0.742190  0.184090  0.446310  1.0  -0.5808
  O  O1501  1  0.785600  0.423740  0.622220  1.0  -0.496
  O  O1502  1  0.584910  0.395460  0.532220  1.0  -0.4618
  O  O1503  1  0.816530  0.349960  0.427450  1.0  -0.7055
  O  O1504  1  0.656150  0.175730  0.453810  1.0  -0.6697
  O  O1505  1  0.669350  0.576690  0.426370  1.0  -0.5076
  O  O1506  1  0.708900  0.601000  0.517600  1.0  -0.5616
  O  O1507  1  0.611100  0.565370  0.477280  1.0  -0.5684
  O  O1508  1  0.678300  0.637000  0.567500  1.0  -0.6384
  O  O1509  1  0.759200  0.939950  0.058170  1.0  -0.5723
  O  O1510  1  0.667210  0.873270  0.039860  1.0  -0.5867
  O  O1511  1  0.782790  0.885780  0.981880  1.0  -0.6608
  O  O1512  1  0.742190  0.684090  0.946310  1.0  -0.5808
  O  O1513  1  0.785600  0.923740  0.122220  1.0  -0.496
  O  O1514  1  0.584910  0.895460  0.032220  1.0  -0.4618
  O  O1515  1  0.816530  0.849960  0.927450  1.0  -0.7055
  O  O1516  1  0.656150  0.675730  0.953810  1.0  -0.6697
  O  O1517  1  0.669350  0.076690  0.926370  1.0  -0.5076
  O  O1518  1  0.708900  0.101000  0.017600  1.0  -0.5616
  O  O1519  1  0.611100  0.065370  0.977280  1.0  -0.5684
  O  O1520  1  0.678300  0.137000  0.067500  1.0  -0.6384
