# generated using pymatgen
data_CuH28C36(NO2)4
_symmetry_space_group_name_H-M   'P 1'
_cell_length_a   41.18950000
_cell_length_b   20.63340000
_cell_length_c   27.09790000
_cell_angle_alpha   90.00000000
_cell_angle_beta   129.77200000
_cell_angle_gamma   90.00000000
_symmetry_Int_Tables_number   1
_chemical_formula_structural   CuH28C36(NO2)4
_chemical_formula_sum   'Cu12 H336 C432 N48 O96'
_cell_volume   17700.73147130
_cell_formula_units_Z   12
loop_
 _symmetry_equiv_pos_site_id
 _symmetry_equiv_pos_as_xyz
  1  'x, y, z'
loop_
 _atom_site_type_symbol
 _atom_site_label
 _atom_site_symmetry_multiplicity
 _atom_site_fract_x
 _atom_site_fract_y
 _atom_site_fract_z
 _atom_site_occupancy
 _atom_site_charge
  Cu  Cu1  1  0.252880  0.990040  0.113600  1.0  0.3664
  Cu  Cu2  1  0.752880  0.490040  0.113600  1.0  0.3664
  Cu  Cu3  1  0.747120  0.990040  0.386400  1.0  0.366
  Cu  Cu4  1  0.247120  0.490040  0.386400  1.0  0.366
  Cu  Cu5  1  0.747120  0.009960  0.886400  1.0  0.366
  Cu  Cu6  1  0.247120  0.509960  0.886400  1.0  0.366
  Cu  Cu7  1  0.252880  0.009960  0.613600  1.0  0.3664
  Cu  Cu8  1  0.752880  0.509960  0.613600  1.0  0.3664
  Cu  Cu9  1  0.500000  0.749900  0.750000  1.0  0.3453
  Cu  Cu10  1  0.000000  0.249900  0.750000  1.0  0.3453
  Cu  Cu11  1  0.500000  0.250100  0.250000  1.0  0.3445
  Cu  Cu12  1  0.000000  0.750100  0.250000  1.0  0.3445
  H  H13  1  0.554600  0.637900  0.825600  1.0  0.0909
  H  H14  1  0.559600  0.552700  0.885400  1.0  0.1087
  H  H15  1  0.457800  0.620400  0.856600  1.0  0.1106
  H  H16  1  0.455200  0.704800  0.797100  1.0  0.0773
  H  H17  1  0.549300  0.450800  0.012100  1.0  0.117
  H  H18  1  0.574500  0.409200  0.996500  1.0  0.1247
  H  H19  1  0.324200  0.506900  0.897500  1.0  0.0853
  H  H20  1  0.378400  0.437800  0.929700  1.0  0.1026
  H  H21  1  0.332400  0.308200  0.980600  1.0  0.1114
  H  H22  1  0.274900  0.375100  0.936100  1.0  0.0816
  H  H23  1  0.474600  0.292900  0.028100  1.0  0.0941
  H  H24  1  0.440800  0.245900  0.969200  1.0  0.1119
  H  H25  1  0.287500  0.085200  0.563500  1.0  0.0957
  H  H26  1  0.336600  0.170100  0.597800  1.0  0.1128
  H  H27  1  0.373500  0.153400  0.773800  1.0  0.1087
  H  H28  1  0.324200  0.074500  0.737300  1.0  0.0839
  H  H29  1  0.441500  0.313700  0.764600  1.0  0.1152
  H  H30  1  0.475900  0.256800  0.802700  1.0  0.1172
  H  H31  1  0.505800  0.366900  0.864000  1.0  0.0968
  H  H32  1  0.508400  0.377900  0.013600  1.0  0.0908
  H  H33  1  0.428700  0.253900  0.868600  1.0  0.1056
  H  H34  1  0.455700  0.784600  0.612200  1.0  0.08
  H  H35  1  0.455800  0.865200  0.554100  1.0  0.1137
  H  H36  1  0.548800  0.954900  0.720200  1.0  0.1128
  H  H37  1  0.549000  0.868900  0.775300  1.0  0.0976
  H  H38  1  0.534800  0.052400  0.567100  1.0  0.1143
  H  H39  1  0.559500  0.095400  0.631000  1.0  0.1152
  H  H40  1  0.322300  0.478600  0.521600  1.0  0.0788
  H  H41  1  0.378900  0.409500  0.592300  1.0  0.1156
  H  H42  1  0.327200  0.283500  0.449000  1.0  0.1057
  H  H43  1  0.268800  0.355600  0.383100  1.0  0.0897
  H  H44  1  0.407800  0.146700  0.586400  1.0  0.1013
  H  H45  1  0.439700  0.203600  0.633300  1.0  0.1043
  H  H46  1  0.326200  0.054200  0.139500  1.0  0.0929
  H  H47  1  0.380900  0.124100  0.214800  1.0  0.092
  H  H48  1  0.328700  0.143000  0.297600  1.0  0.1053
  H  H49  1  0.274400  0.076800  0.219800  1.0  0.0967
  H  H50  1  0.429000  0.268800  0.414900  1.0  0.0962
  H  H51  1  0.461000  0.222800  0.416300  1.0  0.0806
  H  H52  1  0.484000  0.113300  0.626400  1.0  0.094
  H  H53  1  0.408700  0.240500  0.481200  1.0  0.1145
  H  H54  1  0.497200  0.138700  0.493000  1.0  0.0883
  H  H55  1  0.054600  0.137900  0.825600  1.0  0.0909
  H  H56  1  0.059600  0.052700  0.885400  1.0  0.1087
  H  H57  1  0.957800  0.120400  0.856600  1.0  0.1106
  H  H58  1  0.955200  0.204800  0.797100  1.0  0.0773
  H  H59  1  0.049300  0.950800  0.012100  1.0  0.117
  H  H60  1  0.074500  0.909200  0.996500  1.0  0.1247
  H  H61  1  0.824200  0.006900  0.897500  1.0  0.0853
  H  H62  1  0.878400  0.937800  0.929700  1.0  0.1026
  H  H63  1  0.832400  0.808200  0.980600  1.0  0.1114
  H  H64  1  0.774900  0.875100  0.936100  1.0  0.0816
  H  H65  1  0.974600  0.792900  0.028100  1.0  0.0941
  H  H66  1  0.940800  0.745900  0.969200  1.0  0.1119
  H  H67  1  0.787500  0.585200  0.563500  1.0  0.0957
  H  H68  1  0.836600  0.670100  0.597800  1.0  0.1128
  H  H69  1  0.873500  0.653400  0.773800  1.0  0.1087
  H  H70  1  0.824200  0.574500  0.737300  1.0  0.0839
  H  H71  1  0.941500  0.813700  0.764600  1.0  0.1152
  H  H72  1  0.975900  0.756800  0.802700  1.0  0.1172
  H  H73  1  0.005800  0.866900  0.864000  1.0  0.0968
  H  H74  1  0.008400  0.877900  0.013600  1.0  0.0908
  H  H75  1  0.928700  0.753900  0.868600  1.0  0.1056
  H  H76  1  0.955700  0.284600  0.612200  1.0  0.08
  H  H77  1  0.955800  0.365200  0.554100  1.0  0.1137
  H  H78  1  0.048800  0.454900  0.720200  1.0  0.1128
  H  H79  1  0.049000  0.368900  0.775300  1.0  0.0976
  H  H80  1  0.034800  0.552400  0.567100  1.0  0.1143
  H  H81  1  0.059500  0.595400  0.631000  1.0  0.1152
  H  H82  1  0.822300  0.978600  0.521600  1.0  0.0788
  H  H83  1  0.878900  0.909500  0.592300  1.0  0.1156
  H  H84  1  0.827200  0.783500  0.449000  1.0  0.1057
  H  H85  1  0.768800  0.855600  0.383100  1.0  0.0897
  H  H86  1  0.907800  0.646700  0.586400  1.0  0.1013
  H  H87  1  0.939700  0.703600  0.633300  1.0  0.1043
  H  H88  1  0.826200  0.554200  0.139500  1.0  0.0929
  H  H89  1  0.880900  0.624100  0.214800  1.0  0.092
  H  H90  1  0.828700  0.643000  0.297600  1.0  0.1053
  H  H91  1  0.774400  0.576800  0.219800  1.0  0.0967
  H  H92  1  0.929000  0.768800  0.414900  1.0  0.0962
  H  H93  1  0.961000  0.722800  0.416300  1.0  0.0806
  H  H94  1  0.984000  0.613300  0.626400  1.0  0.094
  H  H95  1  0.908700  0.740500  0.481200  1.0  0.1145
  H  H96  1  0.997200  0.638700  0.493000  1.0  0.0883
  H  H97  1  0.445400  0.637900  0.674400  1.0  0.0915
  H  H98  1  0.440400  0.552700  0.614600  1.0  0.1087
  H  H99  1  0.542200  0.620400  0.643400  1.0  0.1106
  H  H100  1  0.544800  0.704800  0.702900  1.0  0.0739
  H  H101  1  0.450700  0.450800  0.487900  1.0  0.1186
  H  H102  1  0.425500  0.409200  0.503500  1.0  0.1246
  H  H103  1  0.675800  0.506900  0.602500  1.0  0.0865
  H  H104  1  0.621600  0.437800  0.570300  1.0  0.1029
  H  H105  1  0.667600  0.308200  0.519400  1.0  0.1114
  H  H106  1  0.725100  0.375100  0.563900  1.0  0.0811
  H  H107  1  0.525400  0.292900  0.471900  1.0  0.0948
  H  H108  1  0.559200  0.245900  0.530800  1.0  0.1116
  H  H109  1  0.712500  0.085200  0.936500  1.0  0.0969
  H  H110  1  0.663400  0.170100  0.902200  1.0  0.1127
  H  H111  1  0.626500  0.153400  0.726200  1.0  0.1085
  H  H112  1  0.675800  0.074500  0.762700  1.0  0.0841
  H  H113  1  0.558500  0.313700  0.735400  1.0  0.1137
  H  H114  1  0.524100  0.256800  0.697300  1.0  0.1174
  H  H115  1  0.494200  0.366900  0.636000  1.0  0.0959
  H  H116  1  0.491600  0.377900  0.486400  1.0  0.0916
  H  H117  1  0.571300  0.253900  0.631400  1.0  0.1076
  H  H118  1  0.544300  0.784600  0.887800  1.0  0.0816
  H  H119  1  0.544200  0.865200  0.945900  1.0  0.113
  H  H120  1  0.451200  0.954900  0.779800  1.0  0.1128
  H  H121  1  0.451000  0.868900  0.724700  1.0  0.0981
  H  H122  1  0.465200  0.052400  0.932900  1.0  0.1146
  H  H123  1  0.440500  0.095400  0.869000  1.0  0.1152
  H  H124  1  0.677700  0.478600  0.978400  1.0  0.0788
  H  H125  1  0.621100  0.409500  0.907700  1.0  0.1148
  H  H126  1  0.672800  0.283500  0.051000  1.0  0.1057
  H  H127  1  0.731200  0.355600  0.116900  1.0  0.0893
  H  H128  1  0.592200  0.146700  0.913600  1.0  0.1019
  H  H129  1  0.560300  0.203600  0.866700  1.0  0.1052
  H  H130  1  0.673800  0.054200  0.360500  1.0  0.0924
  H  H131  1  0.619100  0.124100  0.285200  1.0  0.0918
  H  H132  1  0.671300  0.143000  0.202400  1.0  0.1058
  H  H133  1  0.725600  0.076800  0.280200  1.0  0.0967
  H  H134  1  0.571000  0.268800  0.085100  1.0  0.0954
  H  H135  1  0.539000  0.222800  0.083700  1.0  0.0799
  H  H136  1  0.516000  0.113300  0.873600  1.0  0.0944
  H  H137  1  0.591300  0.240500  0.018800  1.0  0.1143
  H  H138  1  0.502800  0.138700  0.007000  1.0  0.0885
  H  H139  1  0.945400  0.137900  0.674400  1.0  0.0915
  H  H140  1  0.940400  0.052700  0.614600  1.0  0.1087
  H  H141  1  0.042200  0.120400  0.643400  1.0  0.1106
  H  H142  1  0.044800  0.204800  0.702900  1.0  0.0739
  H  H143  1  0.950700  0.950800  0.487900  1.0  0.1186
  H  H144  1  0.925500  0.909200  0.503500  1.0  0.1246
  H  H145  1  0.175800  0.006900  0.602500  1.0  0.0865
  H  H146  1  0.121600  0.937800  0.570300  1.0  0.1029
  H  H147  1  0.167600  0.808200  0.519400  1.0  0.1114
  H  H148  1  0.225100  0.875100  0.563900  1.0  0.0811
  H  H149  1  0.025400  0.792900  0.471900  1.0  0.0948
  H  H150  1  0.059200  0.745900  0.530800  1.0  0.1116
  H  H151  1  0.212500  0.585200  0.936500  1.0  0.0969
  H  H152  1  0.163400  0.670100  0.902200  1.0  0.1127
  H  H153  1  0.126500  0.653400  0.726200  1.0  0.1085
  H  H154  1  0.175800  0.574500  0.762700  1.0  0.0841
  H  H155  1  0.058500  0.813700  0.735400  1.0  0.1137
  H  H156  1  0.024100  0.756800  0.697300  1.0  0.1174
  H  H157  1  0.994200  0.866900  0.636000  1.0  0.0959
  H  H158  1  0.991600  0.877900  0.486400  1.0  0.0916
  H  H159  1  0.071300  0.753900  0.631400  1.0  0.1076
  H  H160  1  0.044300  0.284600  0.887800  1.0  0.0816
  H  H161  1  0.044200  0.365200  0.945900  1.0  0.113
  H  H162  1  0.951200  0.454900  0.779800  1.0  0.1128
  H  H163  1  0.951000  0.368900  0.724700  1.0  0.0981
  H  H164  1  0.965200  0.552400  0.932900  1.0  0.1146
  H  H165  1  0.940500  0.595400  0.869000  1.0  0.1152
  H  H166  1  0.177700  0.978600  0.978400  1.0  0.0788
  H  H167  1  0.121100  0.909500  0.907700  1.0  0.1148
  H  H168  1  0.172800  0.783500  0.051000  1.0  0.1057
  H  H169  1  0.231200  0.855600  0.116900  1.0  0.0893
  H  H170  1  0.092200  0.646700  0.913600  1.0  0.1019
  H  H171  1  0.060300  0.703600  0.866700  1.0  0.1052
  H  H172  1  0.173800  0.554200  0.360500  1.0  0.0924
  H  H173  1  0.119100  0.624100  0.285200  1.0  0.0918
  H  H174  1  0.171300  0.643000  0.202400  1.0  0.1058
  H  H175  1  0.225600  0.576800  0.280200  1.0  0.0967
  H  H176  1  0.071000  0.768800  0.085100  1.0  0.0954
  H  H177  1  0.039000  0.722800  0.083700  1.0  0.0799
  H  H178  1  0.016000  0.613300  0.873600  1.0  0.0944
  H  H179  1  0.091300  0.740500  0.018800  1.0  0.1143
  H  H180  1  0.002800  0.638700  0.007000  1.0  0.0885
  H  H181  1  0.445400  0.362100  0.174400  1.0  0.0914
  H  H182  1  0.440400  0.447300  0.114600  1.0  0.109
  H  H183  1  0.542200  0.379600  0.143400  1.0  0.1104
  H  H184  1  0.544800  0.295200  0.202900  1.0  0.0741
  H  H185  1  0.450700  0.549200  0.987900  1.0  0.1187
  H  H186  1  0.425500  0.590800  0.003500  1.0  0.124
  H  H187  1  0.675800  0.493100  0.102500  1.0  0.0864
  H  H188  1  0.621600  0.562200  0.070300  1.0  0.1031
  H  H189  1  0.667600  0.691800  0.019400  1.0  0.1123
  H  H190  1  0.725100  0.624900  0.063900  1.0  0.0815
  H  H191  1  0.525400  0.707100  0.971900  1.0  0.095
  H  H192  1  0.559200  0.754100  0.030800  1.0  0.1111
  H  H193  1  0.712500  0.914800  0.436500  1.0  0.0967
  H  H194  1  0.663400  0.829900  0.402200  1.0  0.1129
  H  H195  1  0.626500  0.846600  0.226200  1.0  0.1085
  H  H196  1  0.675800  0.925500  0.262700  1.0  0.0833
  H  H197  1  0.558500  0.686300  0.235400  1.0  0.1158
  H  H198  1  0.524100  0.743200  0.197300  1.0  0.1168
  H  H199  1  0.494200  0.633100  0.136000  1.0  0.0957
  H  H200  1  0.491600  0.622100  0.986400  1.0  0.0912
  H  H201  1  0.571300  0.746100  0.131400  1.0  0.1076
  H  H202  1  0.544300  0.215400  0.387800  1.0  0.081
  H  H203  1  0.544200  0.134800  0.445900  1.0  0.1134
  H  H204  1  0.451200  0.045100  0.279800  1.0  0.1125
  H  H205  1  0.451000  0.131100  0.224700  1.0  0.0979
  H  H206  1  0.465200  0.947600  0.432900  1.0  0.1141
  H  H207  1  0.440500  0.904600  0.369000  1.0  0.1161
  H  H208  1  0.677700  0.521400  0.478400  1.0  0.078
  H  H209  1  0.621100  0.590500  0.407700  1.0  0.1145
  H  H210  1  0.672800  0.716500  0.551000  1.0  0.1059
  H  H211  1  0.731200  0.644400  0.616900  1.0  0.0891
  H  H212  1  0.592200  0.853300  0.413600  1.0  0.1004
  H  H213  1  0.560300  0.796400  0.366700  1.0  0.1057
  H  H214  1  0.673800  0.945800  0.860500  1.0  0.0928
  H  H215  1  0.619100  0.875900  0.785200  1.0  0.0922
  H  H216  1  0.671300  0.857000  0.702400  1.0  0.1053
  H  H217  1  0.725600  0.923200  0.780200  1.0  0.0968
  H  H218  1  0.571000  0.731200  0.585100  1.0  0.0951
  H  H219  1  0.539000  0.777200  0.583700  1.0  0.0797
  H  H220  1  0.516000  0.886700  0.373600  1.0  0.0945
  H  H221  1  0.591300  0.759500  0.518800  1.0  0.1143
  H  H222  1  0.502800  0.861300  0.507000  1.0  0.0885
  H  H223  1  0.945400  0.862100  0.174400  1.0  0.0914
  H  H224  1  0.940400  0.947300  0.114600  1.0  0.109
  H  H225  1  0.042200  0.879600  0.143400  1.0  0.1104
  H  H226  1  0.044800  0.795200  0.202900  1.0  0.0741
  H  H227  1  0.950700  0.049200  0.987900  1.0  0.1187
  H  H228  1  0.925500  0.090800  0.003500  1.0  0.124
  H  H229  1  0.175800  0.993100  0.102500  1.0  0.0864
  H  H230  1  0.121600  0.062200  0.070300  1.0  0.1031
  H  H231  1  0.167600  0.191800  0.019400  1.0  0.1123
  H  H232  1  0.225100  0.124900  0.063900  1.0  0.0815
  H  H233  1  0.025400  0.207100  0.971900  1.0  0.095
  H  H234  1  0.059200  0.254100  0.030800  1.0  0.1111
  H  H235  1  0.212500  0.414800  0.436500  1.0  0.0967
  H  H236  1  0.163400  0.329900  0.402200  1.0  0.1129
  H  H237  1  0.126500  0.346600  0.226200  1.0  0.1085
  H  H238  1  0.175800  0.425500  0.262700  1.0  0.0833
  H  H239  1  0.058500  0.186300  0.235400  1.0  0.1158
  H  H240  1  0.024100  0.243200  0.197300  1.0  0.1168
  H  H241  1  0.994200  0.133100  0.136000  1.0  0.0957
  H  H242  1  0.991600  0.122100  0.986400  1.0  0.0912
  H  H243  1  0.071300  0.246100  0.131400  1.0  0.1076
  H  H244  1  0.044300  0.715400  0.387800  1.0  0.081
  H  H245  1  0.044200  0.634800  0.445900  1.0  0.1134
  H  H246  1  0.951200  0.545100  0.279800  1.0  0.1125
  H  H247  1  0.951000  0.631100  0.224700  1.0  0.0979
  H  H248  1  0.965200  0.447600  0.432900  1.0  0.1141
  H  H249  1  0.940500  0.404600  0.369000  1.0  0.1161
  H  H250  1  0.177700  0.021400  0.478400  1.0  0.078
  H  H251  1  0.121100  0.090500  0.407700  1.0  0.1145
  H  H252  1  0.172800  0.216500  0.551000  1.0  0.1059
  H  H253  1  0.231200  0.144400  0.616900  1.0  0.0891
  H  H254  1  0.092200  0.353300  0.413600  1.0  0.1004
  H  H255  1  0.060300  0.296400  0.366700  1.0  0.1057
  H  H256  1  0.173800  0.445800  0.860500  1.0  0.0928
  H  H257  1  0.119100  0.375900  0.785200  1.0  0.0922
  H  H258  1  0.171300  0.357000  0.702400  1.0  0.1053
  H  H259  1  0.225600  0.423200  0.780200  1.0  0.0968
  H  H260  1  0.071000  0.231200  0.585100  1.0  0.0951
  H  H261  1  0.039000  0.277200  0.583700  1.0  0.0797
  H  H262  1  0.016000  0.386700  0.373600  1.0  0.0945
  H  H263  1  0.091300  0.259500  0.518800  1.0  0.1143
  H  H264  1  0.002800  0.361300  0.507000  1.0  0.0885
  H  H265  1  0.554600  0.362100  0.325600  1.0  0.0908
  H  H266  1  0.559600  0.447300  0.385400  1.0  0.1088
  H  H267  1  0.457800  0.379600  0.356600  1.0  0.1103
  H  H268  1  0.455200  0.295200  0.297100  1.0  0.077
  H  H269  1  0.549300  0.549200  0.512100  1.0  0.1175
  H  H270  1  0.574500  0.590800  0.496500  1.0  0.1244
  H  H271  1  0.324200  0.493100  0.397500  1.0  0.085
  H  H272  1  0.378400  0.562200  0.429700  1.0  0.1025
  H  H273  1  0.332400  0.691800  0.480600  1.0  0.1116
  H  H274  1  0.274900  0.624900  0.436100  1.0  0.0814
  H  H275  1  0.474600  0.707100  0.528100  1.0  0.094
  H  H276  1  0.440800  0.754100  0.469200  1.0  0.1119
  H  H277  1  0.287500  0.914800  0.063500  1.0  0.0959
  H  H278  1  0.336600  0.829900  0.097800  1.0  0.1128
  H  H279  1  0.373500  0.846600  0.273800  1.0  0.1088
  H  H280  1  0.324200  0.925500  0.237300  1.0  0.0832
  H  H281  1  0.441500  0.686300  0.264600  1.0  0.1152
  H  H282  1  0.475900  0.743200  0.302700  1.0  0.1167
  H  H283  1  0.505800  0.633100  0.364000  1.0  0.0968
  H  H284  1  0.508400  0.622100  0.513600  1.0  0.0908
  H  H285  1  0.428700  0.746100  0.368600  1.0  0.1062
  H  H286  1  0.455700  0.215400  0.112200  1.0  0.0805
  H  H287  1  0.455800  0.134800  0.054100  1.0  0.1137
  H  H288  1  0.548800  0.045100  0.220200  1.0  0.1128
  H  H289  1  0.549000  0.131100  0.275300  1.0  0.0976
  H  H290  1  0.534800  0.947600  0.067100  1.0  0.1143
  H  H291  1  0.559500  0.904600  0.131000  1.0  0.1158
  H  H292  1  0.322300  0.521400  0.021600  1.0  0.079
  H  H293  1  0.378900  0.590500  0.092300  1.0  0.1155
  H  H294  1  0.327200  0.716500  0.949000  1.0  0.1062
  H  H295  1  0.268800  0.644400  0.883100  1.0  0.09
  H  H296  1  0.407800  0.853300  0.086400  1.0  0.1012
  H  H297  1  0.439700  0.796400  0.133300  1.0  0.1036
  H  H298  1  0.326200  0.945800  0.639500  1.0  0.0927
  H  H299  1  0.380900  0.875900  0.714800  1.0  0.0919
  H  H300  1  0.328700  0.857000  0.797600  1.0  0.1054
  H  H301  1  0.274400  0.923200  0.719800  1.0  0.0967
  H  H302  1  0.429000  0.731200  0.914900  1.0  0.0942
  H  H303  1  0.461000  0.777200  0.916300  1.0  0.0806
  H  H304  1  0.484000  0.886700  0.126400  1.0  0.094
  H  H305  1  0.408700  0.759500  0.981200  1.0  0.1142
  H  H306  1  0.497200  0.861300  0.993000  1.0  0.0886
  H  H307  1  0.054600  0.862100  0.325600  1.0  0.0908
  H  H308  1  0.059600  0.947300  0.385400  1.0  0.1088
  H  H309  1  0.957800  0.879600  0.356600  1.0  0.1103
  H  H310  1  0.955200  0.795200  0.297100  1.0  0.077
  H  H311  1  0.049300  0.049200  0.512100  1.0  0.1175
  H  H312  1  0.074500  0.090800  0.496500  1.0  0.1244
  H  H313  1  0.824200  0.993100  0.397500  1.0  0.085
  H  H314  1  0.878400  0.062200  0.429700  1.0  0.1025
  H  H315  1  0.832400  0.191800  0.480600  1.0  0.1116
  H  H316  1  0.774900  0.124900  0.436100  1.0  0.0814
  H  H317  1  0.974600  0.207100  0.528100  1.0  0.094
  H  H318  1  0.940800  0.254100  0.469200  1.0  0.1119
  H  H319  1  0.787500  0.414800  0.063500  1.0  0.0959
  H  H320  1  0.836600  0.329900  0.097800  1.0  0.1128
  H  H321  1  0.873500  0.346600  0.273800  1.0  0.1088
  H  H322  1  0.824200  0.425500  0.237300  1.0  0.0832
  H  H323  1  0.941500  0.186300  0.264600  1.0  0.1152
  H  H324  1  0.975900  0.243200  0.302700  1.0  0.1167
  H  H325  1  0.005800  0.133100  0.364000  1.0  0.0968
  H  H326  1  0.008400  0.122100  0.513600  1.0  0.0908
  H  H327  1  0.928700  0.246100  0.368600  1.0  0.1062
  H  H328  1  0.955700  0.715400  0.112200  1.0  0.0805
  H  H329  1  0.955800  0.634800  0.054100  1.0  0.1137
  H  H330  1  0.048800  0.545100  0.220200  1.0  0.1128
  H  H331  1  0.049000  0.631100  0.275300  1.0  0.0976
  H  H332  1  0.034800  0.447600  0.067100  1.0  0.1143
  H  H333  1  0.059500  0.404600  0.131000  1.0  0.1158
  H  H334  1  0.822300  0.021400  0.021600  1.0  0.079
  H  H335  1  0.878900  0.090500  0.092300  1.0  0.1155
  H  H336  1  0.827200  0.216500  0.949000  1.0  0.1062
  H  H337  1  0.768800  0.144400  0.883100  1.0  0.09
  H  H338  1  0.907800  0.353300  0.086400  1.0  0.1012
  H  H339  1  0.939700  0.296400  0.133300  1.0  0.1036
  H  H340  1  0.826200  0.445800  0.639500  1.0  0.0927
  H  H341  1  0.880900  0.375900  0.714800  1.0  0.0919
  H  H342  1  0.828700  0.357000  0.797600  1.0  0.1054
  H  H343  1  0.774400  0.423200  0.719800  1.0  0.0967
  H  H344  1  0.929000  0.231200  0.914900  1.0  0.0942
  H  H345  1  0.961000  0.277200  0.916300  1.0  0.0806
  H  H346  1  0.984000  0.386700  0.126400  1.0  0.094
  H  H347  1  0.908700  0.259500  0.981200  1.0  0.1142
  H  H348  1  0.997200  0.361300  0.993000  1.0  0.0886
  C  C349  1  0.534400  0.634300  0.831800  1.0  0.1429
  C  C350  1  0.537500  0.583700  0.867400  1.0  -0.1298
  C  C351  1  0.509000  0.577800  0.877100  1.0  -0.1274
  C  C352  1  0.478200  0.622900  0.850900  1.0  -0.168
  C  C353  1  0.476900  0.673200  0.815200  1.0  0.1446
  C  C354  1  0.511500  0.524000  0.915600  1.0  0.6517
  C  C355  1  0.547200  0.430500  0.977000  1.0  -0.0438
  C  C356  1  0.325000  0.465100  0.913000  1.0  0.124
  C  C357  1  0.357900  0.424500  0.933300  1.0  -0.1465
  C  C358  1  0.361400  0.365800  0.958600  1.0  -0.0953
  C  C359  1  0.330600  0.348200  0.961600  1.0  -0.1601
  C  C360  1  0.297200  0.389400  0.937000  1.0  0.1407
  C  C361  1  0.396400  0.320200  0.982700  1.0  0.6589
  C  C362  1  0.451400  0.291000  0.981100  1.0  -0.0014
  C  C363  1  0.304600  0.100000  0.606600  1.0  0.107
  C  C364  1  0.334800  0.149000  0.627000  1.0  -0.1191
  C  C365  1  0.361000  0.165000  0.690000  1.0  -0.0893
  C  C366  1  0.356300  0.139600  0.730300  1.0  -0.159
  C  C367  1  0.326500  0.094000  0.707900  1.0  0.1494
  C  C368  1  0.393000  0.220000  0.712000  1.0  0.6244
  C  C369  1  0.452000  0.278000  0.796000  1.0  -0.0153
  C  C370  1  0.466100  0.305200  0.857600  1.0  0.0637
  C  C371  1  0.495900  0.352200  0.885500  1.0  -0.2217
  C  C372  1  0.512700  0.379900  0.944300  1.0  0.1027
  C  C373  1  0.497500  0.359200  0.973600  1.0  -0.2009
  C  C374  1  0.466600  0.311600  0.947200  1.0  0.0691
  C  C375  1  0.450500  0.285500  0.888300  1.0  -0.1317
  C  C376  1  0.474900  0.819600  0.634300  1.0  0.1626
  C  C377  1  0.474600  0.867300  0.599600  1.0  -0.1699
  C  C378  1  0.502600  0.919700  0.632100  1.0  -0.1399
  C  C379  1  0.529600  0.919900  0.697200  1.0  -0.089
  C  C380  1  0.529200  0.869400  0.729700  1.0  0.1124
  C  C381  1  0.500500  0.972800  0.593000  1.0  0.6424
  C  C382  1  0.532900  0.071700  0.598600  1.0  -0.0511
  C  C383  1  0.322900  0.437600  0.506200  1.0  0.1563
  C  C384  1  0.357200  0.397000  0.549000  1.0  -0.1913
  C  C385  1  0.358500  0.340000  0.527000  1.0  -0.0754
  C  C386  1  0.326800  0.324000  0.466000  1.0  -0.1057
  C  C387  1  0.292000  0.368000  0.426000  1.0  0.0956
  C  C388  1  0.394000  0.293000  0.569000  1.0  0.6484
  C  C389  1  0.420000  0.189000  0.588000  1.0  -0.123
  C  C390  1  0.326700  0.072100  0.172300  1.0  0.118
  C  C391  1  0.359400  0.114600  0.217200  1.0  -0.1043
  C  C392  1  0.361000  0.142500  0.264400  1.0  -0.0878
  C  C393  1  0.328800  0.125900  0.265100  1.0  -0.1019
  C  C394  1  0.297000  0.085200  0.219700  1.0  0.1238
  C  C395  1  0.395600  0.183800  0.311500  1.0  0.7127
  C  C396  1  0.437700  0.223300  0.418000  1.0  0.0141
  C  C397  1  0.496400  0.118000  0.564900  1.0  0.0749
  C  C398  1  0.476100  0.134600  0.589100  1.0  -0.1423
  C  C399  1  0.445200  0.180400  0.560500  1.0  -0.0151
  C  C400  1  0.431400  0.210300  0.502800  1.0  -0.0888
  C  C401  1  0.451800  0.194400  0.478300  1.0  0.0775
  C  C402  1  0.483500  0.149200  0.509800  1.0  -0.2133
  C  C403  1  0.034400  0.134300  0.831800  1.0  0.1429
  C  C404  1  0.037500  0.083700  0.867400  1.0  -0.1298
  C  C405  1  0.009000  0.077800  0.877100  1.0  -0.1274
  C  C406  1  0.978200  0.122900  0.850900  1.0  -0.168
  C  C407  1  0.976900  0.173200  0.815200  1.0  0.1446
  C  C408  1  0.011500  0.024000  0.915600  1.0  0.6517
  C  C409  1  0.047200  0.930500  0.977000  1.0  -0.0438
  C  C410  1  0.825000  0.965100  0.913000  1.0  0.124
  C  C411  1  0.857900  0.924500  0.933300  1.0  -0.1465
  C  C412  1  0.861400  0.865800  0.958600  1.0  -0.0953
  C  C413  1  0.830600  0.848200  0.961600  1.0  -0.1601
  C  C414  1  0.797200  0.889400  0.937000  1.0  0.1407
  C  C415  1  0.896400  0.820200  0.982700  1.0  0.6589
  C  C416  1  0.951400  0.791000  0.981100  1.0  -0.0014
  C  C417  1  0.804600  0.600000  0.606600  1.0  0.107
  C  C418  1  0.834800  0.649000  0.627000  1.0  -0.1191
  C  C419  1  0.861000  0.665000  0.690000  1.0  -0.0893
  C  C420  1  0.856300  0.639600  0.730300  1.0  -0.159
  C  C421  1  0.826500  0.594000  0.707900  1.0  0.1494
  C  C422  1  0.893000  0.720000  0.712000  1.0  0.6244
  C  C423  1  0.952000  0.778000  0.796000  1.0  -0.0153
  C  C424  1  0.966100  0.805200  0.857600  1.0  0.0637
  C  C425  1  0.995900  0.852200  0.885500  1.0  -0.2217
  C  C426  1  0.012700  0.879900  0.944300  1.0  0.1027
  C  C427  1  0.997500  0.859200  0.973600  1.0  -0.2009
  C  C428  1  0.966600  0.811600  0.947200  1.0  0.0691
  C  C429  1  0.950500  0.785500  0.888300  1.0  -0.1317
  C  C430  1  0.974900  0.319600  0.634300  1.0  0.1626
  C  C431  1  0.974600  0.367300  0.599600  1.0  -0.1699
  C  C432  1  0.002600  0.419700  0.632100  1.0  -0.1399
  C  C433  1  0.029600  0.419900  0.697200  1.0  -0.089
  C  C434  1  0.029200  0.369400  0.729700  1.0  0.1124
  C  C435  1  0.000500  0.472800  0.593000  1.0  0.6424
  C  C436  1  0.032900  0.571700  0.598600  1.0  -0.0511
  C  C437  1  0.822900  0.937600  0.506200  1.0  0.1563
  C  C438  1  0.857200  0.897000  0.549000  1.0  -0.1913
  C  C439  1  0.858500  0.840000  0.527000  1.0  -0.0754
  C  C440  1  0.826800  0.824000  0.466000  1.0  -0.1057
  C  C441  1  0.792000  0.868000  0.426000  1.0  0.0956
  C  C442  1  0.894000  0.793000  0.569000  1.0  0.6484
  C  C443  1  0.920000  0.689000  0.588000  1.0  -0.123
  C  C444  1  0.826700  0.572100  0.172300  1.0  0.118
  C  C445  1  0.859400  0.614600  0.217200  1.0  -0.1043
  C  C446  1  0.861000  0.642500  0.264400  1.0  -0.0878
  C  C447  1  0.828800  0.625900  0.265100  1.0  -0.1019
  C  C448  1  0.797000  0.585200  0.219700  1.0  0.1238
  C  C449  1  0.895600  0.683800  0.311500  1.0  0.7127
  C  C450  1  0.937700  0.723300  0.418000  1.0  0.0141
  C  C451  1  0.996400  0.618000  0.564900  1.0  0.0749
  C  C452  1  0.976100  0.634600  0.589100  1.0  -0.1423
  C  C453  1  0.945200  0.680400  0.560500  1.0  -0.0151
  C  C454  1  0.931400  0.710300  0.502800  1.0  -0.0888
  C  C455  1  0.951800  0.694400  0.478300  1.0  0.0775
  C  C456  1  0.983500  0.649200  0.509800  1.0  -0.2133
  C  C457  1  0.465600  0.634300  0.668200  1.0  0.1423
  C  C458  1  0.462500  0.583700  0.632600  1.0  -0.1293
  C  C459  1  0.491000  0.577800  0.622900  1.0  -0.1277
  C  C460  1  0.521800  0.622900  0.649100  1.0  -0.1671
  C  C461  1  0.523100  0.673200  0.684800  1.0  0.1462
  C  C462  1  0.488500  0.524000  0.584400  1.0  0.6524
  C  C463  1  0.452800  0.430500  0.523000  1.0  -0.0441
  C  C464  1  0.675000  0.465100  0.587000  1.0  0.123
  C  C465  1  0.642100  0.424500  0.566700  1.0  -0.1466
  C  C466  1  0.638600  0.365800  0.541400  1.0  -0.0968
  C  C467  1  0.669400  0.348200  0.538400  1.0  -0.1598
  C  C468  1  0.702800  0.389400  0.563000  1.0  0.1386
  C  C469  1  0.603600  0.320200  0.517300  1.0  0.6611
  C  C470  1  0.548600  0.291000  0.518900  1.0  -0.0002
  C  C471  1  0.695400  0.100000  0.893400  1.0  0.1058
  C  C472  1  0.665200  0.149000  0.873000  1.0  -0.1202
  C  C473  1  0.639000  0.165000  0.810000  1.0  -0.0904
  C  C474  1  0.643700  0.139600  0.769700  1.0  -0.1599
  C  C475  1  0.673500  0.094000  0.792100  1.0  0.1478
  C  C476  1  0.607000  0.220000  0.788000  1.0  0.6239
  C  C477  1  0.548000  0.278000  0.704000  1.0  -0.0179
  C  C478  1  0.533900  0.305200  0.642400  1.0  0.0614
  C  C479  1  0.504100  0.352200  0.614500  1.0  -0.2222
  C  C480  1  0.487300  0.379900  0.555700  1.0  0.1028
  C  C481  1  0.502500  0.359200  0.526400  1.0  -0.206
  C  C482  1  0.533400  0.311600  0.552800  1.0  0.0701
  C  C483  1  0.549500  0.285500  0.611700  1.0  -0.1332
  C  C484  1  0.525100  0.819600  0.865700  1.0  0.1615
  C  C485  1  0.525400  0.867300  0.900400  1.0  -0.1691
  C  C486  1  0.497400  0.919700  0.867900  1.0  -0.1394
  C  C487  1  0.470400  0.919900  0.802800  1.0  -0.0898
  C  C488  1  0.470800  0.869400  0.770300  1.0  0.1135
  C  C489  1  0.499500  0.972800  0.907000  1.0  0.6412
  C  C490  1  0.467100  0.071700  0.901400  1.0  -0.0489
  C  C491  1  0.677100  0.437600  0.993800  1.0  0.1597
  C  C492  1  0.642800  0.397000  0.951000  1.0  -0.1908
  C  C493  1  0.641500  0.340000  0.973000  1.0  -0.0761
  C  C494  1  0.673200  0.324000  0.034000  1.0  -0.1057
  C  C495  1  0.708000  0.368000  0.074000  1.0  0.0971
  C  C496  1  0.606000  0.293000  0.931000  1.0  0.6472
  C  C497  1  0.580000  0.189000  0.912000  1.0  -0.1243
  C  C498  1  0.673300  0.072100  0.327700  1.0  0.1179
  C  C499  1  0.640600  0.114600  0.282800  1.0  -0.1045
  C  C500  1  0.639000  0.142500  0.235600  1.0  -0.0886
  C  C501  1  0.671200  0.125900  0.234900  1.0  -0.1005
  C  C502  1  0.703000  0.085200  0.280300  1.0  0.122
  C  C503  1  0.604400  0.183800  0.188500  1.0  0.7161
  C  C504  1  0.562300  0.223300  0.082000  1.0  0.015
  C  C505  1  0.503600  0.118000  0.935100  1.0  0.0743
  C  C506  1  0.523900  0.134600  0.910900  1.0  -0.1411
  C  C507  1  0.554800  0.180400  0.939500  1.0  -0.016
  C  C508  1  0.568600  0.210300  0.997200  1.0  -0.09
  C  C509  1  0.548200  0.194400  0.021700  1.0  0.0766
  C  C510  1  0.516500  0.149200  0.990200  1.0  -0.2176
  C  C511  1  0.965600  0.134300  0.668200  1.0  0.1423
  C  C512  1  0.962500  0.083700  0.632600  1.0  -0.1293
  C  C513  1  0.991000  0.077800  0.622900  1.0  -0.1277
  C  C514  1  0.021800  0.122900  0.649100  1.0  -0.1671
  C  C515  1  0.023100  0.173200  0.684800  1.0  0.1462
  C  C516  1  0.988500  0.024000  0.584400  1.0  0.6524
  C  C517  1  0.952800  0.930500  0.523000  1.0  -0.0441
  C  C518  1  0.175000  0.965100  0.587000  1.0  0.123
  C  C519  1  0.142100  0.924500  0.566700  1.0  -0.1466
  C  C520  1  0.138600  0.865800  0.541400  1.0  -0.0968
  C  C521  1  0.169400  0.848200  0.538400  1.0  -0.1598
  C  C522  1  0.202800  0.889400  0.563000  1.0  0.1386
  C  C523  1  0.103600  0.820200  0.517300  1.0  0.6611
  C  C524  1  0.048600  0.791000  0.518900  1.0  -0.0002
  C  C525  1  0.195400  0.600000  0.893400  1.0  0.1058
  C  C526  1  0.165200  0.649000  0.873000  1.0  -0.1202
  C  C527  1  0.139000  0.665000  0.810000  1.0  -0.0904
  C  C528  1  0.143700  0.639600  0.769700  1.0  -0.1599
  C  C529  1  0.173500  0.594000  0.792100  1.0  0.1478
  C  C530  1  0.107000  0.720000  0.788000  1.0  0.6239
  C  C531  1  0.048000  0.778000  0.704000  1.0  -0.0179
  C  C532  1  0.033900  0.805200  0.642400  1.0  0.0614
  C  C533  1  0.004100  0.852200  0.614500  1.0  -0.2222
  C  C534  1  0.987300  0.879900  0.555700  1.0  0.1028
  C  C535  1  0.002500  0.859200  0.526400  1.0  -0.206
  C  C536  1  0.033400  0.811600  0.552800  1.0  0.0701
  C  C537  1  0.049500  0.785500  0.611700  1.0  -0.1332
  C  C538  1  0.025100  0.319600  0.865700  1.0  0.1615
  C  C539  1  0.025400  0.367300  0.900400  1.0  -0.1691
  C  C540  1  0.997400  0.419700  0.867900  1.0  -0.1394
  C  C541  1  0.970400  0.419900  0.802800  1.0  -0.0898
  C  C542  1  0.970800  0.369400  0.770300  1.0  0.1135
  C  C543  1  0.999500  0.472800  0.907000  1.0  0.6412
  C  C544  1  0.967100  0.571700  0.901400  1.0  -0.0489
  C  C545  1  0.177100  0.937600  0.993800  1.0  0.1597
  C  C546  1  0.142800  0.897000  0.951000  1.0  -0.1908
  C  C547  1  0.141500  0.840000  0.973000  1.0  -0.0761
  C  C548  1  0.173200  0.824000  0.034000  1.0  -0.1057
  C  C549  1  0.208000  0.868000  0.074000  1.0  0.0971
  C  C550  1  0.106000  0.793000  0.931000  1.0  0.6472
  C  C551  1  0.080000  0.689000  0.912000  1.0  -0.1243
  C  C552  1  0.173300  0.572100  0.327700  1.0  0.1179
  C  C553  1  0.140600  0.614600  0.282800  1.0  -0.1045
  C  C554  1  0.139000  0.642500  0.235600  1.0  -0.0886
  C  C555  1  0.171200  0.625900  0.234900  1.0  -0.1005
  C  C556  1  0.203000  0.585200  0.280300  1.0  0.122
  C  C557  1  0.104400  0.683800  0.188500  1.0  0.7161
  C  C558  1  0.062300  0.723300  0.082000  1.0  0.015
  C  C559  1  0.003600  0.618000  0.935100  1.0  0.0743
  C  C560  1  0.023900  0.634600  0.910900  1.0  -0.1411
  C  C561  1  0.054800  0.680400  0.939500  1.0  -0.016
  C  C562  1  0.068600  0.710300  0.997200  1.0  -0.09
  C  C563  1  0.048200  0.694400  0.021700  1.0  0.0766
  C  C564  1  0.016500  0.649200  0.990200  1.0  -0.2176
  C  C565  1  0.465600  0.365700  0.168200  1.0  0.1421
  C  C566  1  0.462500  0.416300  0.132600  1.0  -0.1306
  C  C567  1  0.491000  0.422200  0.122900  1.0  -0.127
  C  C568  1  0.521800  0.377100  0.149100  1.0  -0.1663
  C  C569  1  0.523100  0.326800  0.184800  1.0  0.1464
  C  C570  1  0.488500  0.476000  0.084400  1.0  0.6519
  C  C571  1  0.452800  0.569500  0.023000  1.0  -0.0437
  C  C572  1  0.675000  0.534900  0.087000  1.0  0.1234
  C  C573  1  0.642100  0.575500  0.066700  1.0  -0.1465
  C  C574  1  0.638600  0.634200  0.041400  1.0  -0.0968
  C  C575  1  0.669400  0.651800  0.038400  1.0  -0.1587
  C  C576  1  0.702800  0.610600  0.063000  1.0  0.1389
  C  C577  1  0.603600  0.679800  0.017300  1.0  0.6608
  C  C578  1  0.548600  0.709000  0.018900  1.0  -1e-04
  C  C579  1  0.695400  0.900000  0.393400  1.0  0.1053
  C  C580  1  0.665200  0.851000  0.373000  1.0  -0.1203
  C  C581  1  0.639000  0.835000  0.310000  1.0  -0.0912
  C  C582  1  0.643700  0.860400  0.269700  1.0  -0.16
  C  C583  1  0.673500  0.906000  0.292100  1.0  0.1481
  C  C584  1  0.607000  0.780000  0.288000  1.0  0.6247
  C  C585  1  0.548000  0.722000  0.204000  1.0  -0.0184
  C  C586  1  0.533900  0.694800  0.142400  1.0  0.0614
  C  C587  1  0.504100  0.647800  0.114500  1.0  -0.2236
  C  C588  1  0.487300  0.620100  0.055700  1.0  0.1018
  C  C589  1  0.502500  0.640800  0.026400  1.0  -0.2062
  C  C590  1  0.533400  0.688400  0.052800  1.0  0.0701
  C  C591  1  0.549500  0.714500  0.111700  1.0  -0.1332
  C  C592  1  0.525100  0.180400  0.365700  1.0  0.1616
  C  C593  1  0.525400  0.132700  0.400400  1.0  -0.1688
  C  C594  1  0.497400  0.080300  0.367900  1.0  -0.139
  C  C595  1  0.470400  0.080100  0.302800  1.0  -0.0903
  C  C596  1  0.470800  0.130600  0.270300  1.0  0.1132
  C  C597  1  0.499500  0.027200  0.407000  1.0  0.6417
  C  C598  1  0.467100  0.928300  0.401400  1.0  -0.0489
  C  C599  1  0.677100  0.562400  0.493800  1.0  0.1584
  C  C600  1  0.642800  0.603000  0.451000  1.0  -0.1907
  C  C601  1  0.641500  0.660000  0.473000  1.0  -0.0764
  C  C602  1  0.673200  0.676000  0.534000  1.0  -0.1025
  C  C603  1  0.708000  0.632000  0.574000  1.0  0.096
  C  C604  1  0.606000  0.707000  0.431000  1.0  0.6473
  C  C605  1  0.580000  0.811000  0.412000  1.0  -0.1233
  C  C606  1  0.673300  0.927900  0.827700  1.0  0.1169
  C  C607  1  0.640600  0.885400  0.782800  1.0  -0.1045
  C  C608  1  0.639000  0.857500  0.735600  1.0  -0.0894
  C  C609  1  0.671200  0.874100  0.734900  1.0  -0.1005
  C  C610  1  0.703000  0.914800  0.780300  1.0  0.1219
  C  C611  1  0.604400  0.816200  0.688500  1.0  0.716
  C  C612  1  0.562300  0.776700  0.582000  1.0  0.015
  C  C613  1  0.503600  0.882000  0.435100  1.0  0.0751
  C  C614  1  0.523900  0.865400  0.410900  1.0  -0.1409
  C  C615  1  0.554800  0.819600  0.439500  1.0  -0.0161
  C  C616  1  0.568600  0.789700  0.497200  1.0  -0.0894
  C  C617  1  0.548200  0.805600  0.521700  1.0  0.0769
  C  C618  1  0.516500  0.850800  0.490200  1.0  -0.2176
  C  C619  1  0.965600  0.865700  0.168200  1.0  0.1421
  C  C620  1  0.962500  0.916300  0.132600  1.0  -0.1306
  C  C621  1  0.991000  0.922200  0.122900  1.0  -0.127
  C  C622  1  0.021800  0.877100  0.149100  1.0  -0.1663
  C  C623  1  0.023100  0.826800  0.184800  1.0  0.1464
  C  C624  1  0.988500  0.976000  0.084400  1.0  0.6519
  C  C625  1  0.952800  0.069500  0.023000  1.0  -0.0437
  C  C626  1  0.175000  0.034900  0.087000  1.0  0.1234
  C  C627  1  0.142100  0.075500  0.066700  1.0  -0.1465
  C  C628  1  0.138600  0.134200  0.041400  1.0  -0.0968
  C  C629  1  0.169400  0.151800  0.038400  1.0  -0.1587
  C  C630  1  0.202800  0.110600  0.063000  1.0  0.1389
  C  C631  1  0.103600  0.179800  0.017300  1.0  0.6608
  C  C632  1  0.048600  0.209000  0.018900  1.0  -1e-04
  C  C633  1  0.195400  0.400000  0.393400  1.0  0.1053
  C  C634  1  0.165200  0.351000  0.373000  1.0  -0.1203
  C  C635  1  0.139000  0.335000  0.310000  1.0  -0.0912
  C  C636  1  0.143700  0.360400  0.269700  1.0  -0.16
  C  C637  1  0.173500  0.406000  0.292100  1.0  0.1481
  C  C638  1  0.107000  0.280000  0.288000  1.0  0.6247
  C  C639  1  0.048000  0.222000  0.204000  1.0  -0.0184
  C  C640  1  0.033900  0.194800  0.142400  1.0  0.0614
  C  C641  1  0.004100  0.147800  0.114500  1.0  -0.2236
  C  C642  1  0.987300  0.120100  0.055700  1.0  0.1018
  C  C643  1  0.002500  0.140800  0.026400  1.0  -0.2062
  C  C644  1  0.033400  0.188400  0.052800  1.0  0.0701
  C  C645  1  0.049500  0.214500  0.111700  1.0  -0.1332
  C  C646  1  0.025100  0.680400  0.365700  1.0  0.1616
  C  C647  1  0.025400  0.632700  0.400400  1.0  -0.1688
  C  C648  1  0.997400  0.580300  0.367900  1.0  -0.139
  C  C649  1  0.970400  0.580100  0.302800  1.0  -0.0903
  C  C650  1  0.970800  0.630600  0.270300  1.0  0.1132
  C  C651  1  0.999500  0.527200  0.407000  1.0  0.6417
  C  C652  1  0.967100  0.428300  0.401400  1.0  -0.0489
  C  C653  1  0.177100  0.062400  0.493800  1.0  0.1584
  C  C654  1  0.142800  0.103000  0.451000  1.0  -0.1907
  C  C655  1  0.141500  0.160000  0.473000  1.0  -0.0764
  C  C656  1  0.173200  0.176000  0.534000  1.0  -0.1025
  C  C657  1  0.208000  0.132000  0.574000  1.0  0.096
  C  C658  1  0.106000  0.207000  0.431000  1.0  0.6473
  C  C659  1  0.080000  0.311000  0.412000  1.0  -0.1233
  C  C660  1  0.173300  0.427900  0.827700  1.0  0.1169
  C  C661  1  0.140600  0.385400  0.782800  1.0  -0.1045
  C  C662  1  0.139000  0.357500  0.735600  1.0  -0.0894
  C  C663  1  0.171200  0.374100  0.734900  1.0  -0.1005
  C  C664  1  0.203000  0.414800  0.780300  1.0  0.1219
  C  C665  1  0.104400  0.316200  0.688500  1.0  0.716
  C  C666  1  0.062300  0.276700  0.582000  1.0  0.015
  C  C667  1  0.003600  0.382000  0.435100  1.0  0.0751
  C  C668  1  0.023900  0.365400  0.410900  1.0  -0.1409
  C  C669  1  0.054800  0.319600  0.439500  1.0  -0.0161
  C  C670  1  0.068600  0.289700  0.497200  1.0  -0.0894
  C  C671  1  0.048200  0.305600  0.521700  1.0  0.0769
  C  C672  1  0.016500  0.350800  0.490200  1.0  -0.2176
  C  C673  1  0.534400  0.365700  0.331800  1.0  0.1427
  C  C674  1  0.537500  0.416300  0.367400  1.0  -0.129
  C  C675  1  0.509000  0.422200  0.377100  1.0  -0.1269
  C  C676  1  0.478200  0.377100  0.350900  1.0  -0.1668
  C  C677  1  0.476900  0.326800  0.315200  1.0  0.1448
  C  C678  1  0.511500  0.476000  0.415600  1.0  0.6516
  C  C679  1  0.547200  0.569500  0.477000  1.0  -0.0433
  C  C680  1  0.325000  0.534900  0.413000  1.0  0.1239
  C  C681  1  0.357900  0.575500  0.433300  1.0  -0.1466
  C  C682  1  0.361400  0.634200  0.458600  1.0  -0.0949
  C  C683  1  0.330600  0.651800  0.461600  1.0  -0.1595
  C  C684  1  0.297200  0.610600  0.437000  1.0  0.1387
  C  C685  1  0.396400  0.679800  0.482700  1.0  0.6594
  C  C686  1  0.451400  0.709000  0.481100  1.0  -0.001
  C  C687  1  0.304600  0.900000  0.106600  1.0  0.1069
  C  C688  1  0.334800  0.851000  0.127000  1.0  -0.1195
  C  C689  1  0.361000  0.835000  0.190000  1.0  -0.0894
  C  C690  1  0.356300  0.860400  0.230300  1.0  -0.159
  C  C691  1  0.326500  0.906000  0.207900  1.0  0.1493
  C  C692  1  0.393000  0.780000  0.212000  1.0  0.6247
  C  C693  1  0.452000  0.722000  0.296000  1.0  -0.0146
  C  C694  1  0.466100  0.694800  0.357600  1.0  0.0635
  C  C695  1  0.495900  0.647800  0.385500  1.0  -0.2221
  C  C696  1  0.512700  0.620100  0.444300  1.0  0.1015
  C  C697  1  0.497500  0.640800  0.473600  1.0  -0.2016
  C  C698  1  0.466600  0.688400  0.447200  1.0  0.0703
  C  C699  1  0.450500  0.714500  0.388300  1.0  -0.1323
  C  C700  1  0.474900  0.180400  0.134300  1.0  0.1621
  C  C701  1  0.474600  0.132700  0.099600  1.0  -0.1696
  C  C702  1  0.502600  0.080300  0.132100  1.0  -0.1403
  C  C703  1  0.529600  0.080100  0.197200  1.0  -0.0894
  C  C704  1  0.529200  0.130600  0.229700  1.0  0.1121
  C  C705  1  0.500500  0.027200  0.093000  1.0  0.6424
  C  C706  1  0.532900  0.928300  0.098600  1.0  -0.0504
  C  C707  1  0.322900  0.562400  0.006200  1.0  0.1566
  C  C708  1  0.357200  0.603000  0.049000  1.0  -0.191
  C  C709  1  0.358500  0.660000  0.027000  1.0  -0.0763
  C  C710  1  0.326800  0.676000  0.966000  1.0  -0.1034
  C  C711  1  0.292000  0.632000  0.926000  1.0  0.0959
  C  C712  1  0.394000  0.707000  0.069000  1.0  0.6485
  C  C713  1  0.420000  0.811000  0.088000  1.0  -0.1241
  C  C714  1  0.326700  0.927900  0.672300  1.0  0.1176
  C  C715  1  0.359400  0.885400  0.717200  1.0  -0.1047
  C  C716  1  0.361000  0.857500  0.764400  1.0  -0.0881
  C  C717  1  0.328800  0.874100  0.765100  1.0  -0.1009
  C  C718  1  0.297000  0.914800  0.719700  1.0  0.1228
  C  C719  1  0.395600  0.816200  0.811500  1.0  0.712
  C  C720  1  0.437700  0.776700  0.918000  1.0  0.0137
  C  C721  1  0.496400  0.882000  0.064900  1.0  0.0754
  C  C722  1  0.476100  0.865400  0.089100  1.0  -0.1429
  C  C723  1  0.445200  0.819600  0.060500  1.0  -0.0151
  C  C724  1  0.431400  0.789700  0.002800  1.0  -0.0883
  C  C725  1  0.451800  0.805600  0.978300  1.0  0.0767
  C  C726  1  0.483500  0.850800  0.009800  1.0  -0.2133
  C  C727  1  0.034400  0.865700  0.331800  1.0  0.1427
  C  C728  1  0.037500  0.916300  0.367400  1.0  -0.129
  C  C729  1  0.009000  0.922200  0.377100  1.0  -0.1269
  C  C730  1  0.978200  0.877100  0.350900  1.0  -0.1668
  C  C731  1  0.976900  0.826800  0.315200  1.0  0.1448
  C  C732  1  0.011500  0.976000  0.415600  1.0  0.6516
  C  C733  1  0.047200  0.069500  0.477000  1.0  -0.0433
  C  C734  1  0.825000  0.034900  0.413000  1.0  0.1239
  C  C735  1  0.857900  0.075500  0.433300  1.0  -0.1466
  C  C736  1  0.861400  0.134200  0.458600  1.0  -0.0949
  C  C737  1  0.830600  0.151800  0.461600  1.0  -0.1595
  C  C738  1  0.797200  0.110600  0.437000  1.0  0.1387
  C  C739  1  0.896400  0.179800  0.482700  1.0  0.6594
  C  C740  1  0.951400  0.209000  0.481100  1.0  -0.001
  C  C741  1  0.804600  0.400000  0.106600  1.0  0.1069
  C  C742  1  0.834800  0.351000  0.127000  1.0  -0.1195
  C  C743  1  0.861000  0.335000  0.190000  1.0  -0.0894
  C  C744  1  0.856300  0.360400  0.230300  1.0  -0.159
  C  C745  1  0.826500  0.406000  0.207900  1.0  0.1493
  C  C746  1  0.893000  0.280000  0.212000  1.0  0.6247
  C  C747  1  0.952000  0.222000  0.296000  1.0  -0.0146
  C  C748  1  0.966100  0.194800  0.357600  1.0  0.0635
  C  C749  1  0.995900  0.147800  0.385500  1.0  -0.2221
  C  C750  1  0.012700  0.120100  0.444300  1.0  0.1015
  C  C751  1  0.997500  0.140800  0.473600  1.0  -0.2016
  C  C752  1  0.966600  0.188400  0.447200  1.0  0.0703
  C  C753  1  0.950500  0.214500  0.388300  1.0  -0.1323
  C  C754  1  0.974900  0.680400  0.134300  1.0  0.1621
  C  C755  1  0.974600  0.632700  0.099600  1.0  -0.1696
  C  C756  1  0.002600  0.580300  0.132100  1.0  -0.1403
  C  C757  1  0.029600  0.580100  0.197200  1.0  -0.0894
  C  C758  1  0.029200  0.630600  0.229700  1.0  0.1121
  C  C759  1  0.000500  0.527200  0.093000  1.0  0.6424
  C  C760  1  0.032900  0.428300  0.098600  1.0  -0.0504
  C  C761  1  0.822900  0.062400  0.006200  1.0  0.1566
  C  C762  1  0.857200  0.103000  0.049000  1.0  -0.191
  C  C763  1  0.858500  0.160000  0.027000  1.0  -0.0763
  C  C764  1  0.826800  0.176000  0.966000  1.0  -0.1034
  C  C765  1  0.792000  0.132000  0.926000  1.0  0.0959
  C  C766  1  0.894000  0.207000  0.069000  1.0  0.6485
  C  C767  1  0.920000  0.311000  0.088000  1.0  -0.1241
  C  C768  1  0.826700  0.427900  0.672300  1.0  0.1176
  C  C769  1  0.859400  0.385400  0.717200  1.0  -0.1047
  C  C770  1  0.861000  0.357500  0.764400  1.0  -0.0881
  C  C771  1  0.828800  0.374100  0.765100  1.0  -0.1009
  C  C772  1  0.797000  0.414800  0.719700  1.0  0.1228
  C  C773  1  0.895600  0.316200  0.811500  1.0  0.712
  C  C774  1  0.937700  0.276700  0.918000  1.0  0.0137
  C  C775  1  0.996400  0.382000  0.064900  1.0  0.0754
  C  C776  1  0.976100  0.365400  0.089100  1.0  -0.1429
  C  C777  1  0.945200  0.319600  0.060500  1.0  -0.0151
  C  C778  1  0.931400  0.289700  0.002800  1.0  -0.0883
  C  C779  1  0.951800  0.305600  0.978300  1.0  0.0767
  C  C780  1  0.983500  0.350800  0.009800  1.0  -0.2133
  N  N781  1  0.503900  0.678800  0.805400  1.0  -0.3041
  N  N782  1  0.294300  0.448100  0.914100  1.0  -0.3176
  N  N783  1  0.299800  0.074400  0.646600  1.0  -0.3117
  N  N784  1  0.501000  0.820100  0.698200  1.0  -0.3213
  N  N785  1  0.291700  0.422800  0.446600  1.0  -0.2689
  N  N786  1  0.296900  0.056700  0.174700  1.0  -0.3004
  N  N787  1  0.003900  0.178800  0.805400  1.0  -0.3041
  N  N788  1  0.794300  0.948100  0.914100  1.0  -0.3176
  N  N789  1  0.799800  0.574400  0.646600  1.0  -0.3117
  N  N790  1  0.001000  0.320100  0.698200  1.0  -0.3213
  N  N791  1  0.791700  0.922800  0.446600  1.0  -0.2689
  N  N792  1  0.796900  0.556700  0.174700  1.0  -0.3004
  N  N793  1  0.496100  0.678800  0.694600  1.0  -0.3038
  N  N794  1  0.705700  0.448100  0.585900  1.0  -0.3158
  N  N795  1  0.700200  0.074400  0.853400  1.0  -0.311
  N  N796  1  0.499000  0.820100  0.801800  1.0  -0.3225
  N  N797  1  0.708300  0.422800  0.053400  1.0  -0.2695
  N  N798  1  0.703100  0.056700  0.325300  1.0  -0.2994
  N  N799  1  0.996100  0.178800  0.694600  1.0  -0.3038
  N  N800  1  0.205700  0.948100  0.585900  1.0  -0.3158
  N  N801  1  0.200200  0.574400  0.853400  1.0  -0.311
  N  N802  1  0.999000  0.320100  0.801800  1.0  -0.3225
  N  N803  1  0.208300  0.922800  0.053400  1.0  -0.2695
  N  N804  1  0.203100  0.556700  0.325300  1.0  -0.2994
  N  N805  1  0.496100  0.321200  0.194600  1.0  -0.3045
  N  N806  1  0.705700  0.551900  0.085900  1.0  -0.3156
  N  N807  1  0.700200  0.925600  0.353400  1.0  -0.3113
  N  N808  1  0.499000  0.179900  0.301800  1.0  -0.3211
  N  N809  1  0.708300  0.577200  0.553400  1.0  -0.2702
  N  N810  1  0.703100  0.943300  0.825300  1.0  -0.2991
  N  N811  1  0.996100  0.821200  0.194600  1.0  -0.3045
  N  N812  1  0.205700  0.051900  0.085900  1.0  -0.3156
  N  N813  1  0.200200  0.425600  0.353400  1.0  -0.3113
  N  N814  1  0.999000  0.679900  0.301800  1.0  -0.3211
  N  N815  1  0.208300  0.077200  0.553400  1.0  -0.2702
  N  N816  1  0.203100  0.443300  0.825300  1.0  -0.2991
  N  N817  1  0.503900  0.321200  0.305400  1.0  -0.305
  N  N818  1  0.294300  0.551900  0.414100  1.0  -0.3173
  N  N819  1  0.299800  0.925600  0.146600  1.0  -0.3117
  N  N820  1  0.501000  0.179900  0.198200  1.0  -0.3208
  N  N821  1  0.291700  0.577200  0.946600  1.0  -0.2703
  N  N822  1  0.296900  0.943300  0.674700  1.0  -0.2999
  N  N823  1  0.003900  0.821200  0.305400  1.0  -0.305
  N  N824  1  0.794300  0.051900  0.414100  1.0  -0.3173
  N  N825  1  0.799800  0.425600  0.146600  1.0  -0.3117
  N  N826  1  0.001000  0.679900  0.198200  1.0  -0.3208
  N  N827  1  0.791700  0.077200  0.946600  1.0  -0.2703
  N  N828  1  0.796900  0.443300  0.674700  1.0  -0.2999
  O  O829  1  0.487600  0.522000  0.929600  1.0  -0.5947
  O  O830  1  0.539500  0.481000  0.932600  1.0  -0.3575
  O  O831  1  0.404400  0.274900  0.017000  1.0  -0.533
  O  O832  1  0.417000  0.335400  0.962300  1.0  -0.3625
  O  O833  1  0.393000  0.247000  0.672000  1.0  -0.5263
  O  O834  1  0.418200  0.231700  0.773000  1.0  -0.3504
  O  O835  1  0.479600  0.970700  0.535800  1.0  -0.5157
  O  O836  1  0.527400  0.019800  0.630300  1.0  -0.3266
  O  O837  1  0.427200  0.314000  0.615000  1.0  -0.4971
  O  O838  1  0.387000  0.236100  0.548400  1.0  -0.3578
  O  O839  1  0.417000  0.212700  0.302500  1.0  -0.5427
  O  O840  1  0.402500  0.185900  0.365600  1.0  -0.3879
  O  O841  1  0.987600  0.022000  0.929600  1.0  -0.5947
  O  O842  1  0.039500  0.981000  0.932600  1.0  -0.3575
  O  O843  1  0.904400  0.774900  0.017000  1.0  -0.533
  O  O844  1  0.917000  0.835400  0.962300  1.0  -0.3625
  O  O845  1  0.893000  0.747000  0.672000  1.0  -0.5263
  O  O846  1  0.918200  0.731700  0.773000  1.0  -0.3504
  O  O847  1  0.979600  0.470700  0.535800  1.0  -0.5157
  O  O848  1  0.027400  0.519800  0.630300  1.0  -0.3266
  O  O849  1  0.927200  0.814000  0.615000  1.0  -0.4971
  O  O850  1  0.887000  0.736100  0.548400  1.0  -0.3578
  O  O851  1  0.917000  0.712700  0.302500  1.0  -0.5427
  O  O852  1  0.902500  0.685900  0.365600  1.0  -0.3879
  O  O853  1  0.512400  0.522000  0.570400  1.0  -0.595
  O  O854  1  0.460500  0.481000  0.567400  1.0  -0.3584
  O  O855  1  0.595600  0.274900  0.483000  1.0  -0.5335
  O  O856  1  0.583000  0.335400  0.537700  1.0  -0.3607
  O  O857  1  0.607000  0.247000  0.828000  1.0  -0.527
  O  O858  1  0.581800  0.231700  0.727000  1.0  -0.3499
  O  O859  1  0.520400  0.970700  0.964200  1.0  -0.5156
  O  O860  1  0.472600  0.019800  0.869700  1.0  -0.3274
  O  O861  1  0.572800  0.314000  0.885000  1.0  -0.4963
  O  O862  1  0.613000  0.236100  0.951600  1.0  -0.3572
  O  O863  1  0.583000  0.212700  0.197500  1.0  -0.543
  O  O864  1  0.597500  0.185900  0.134400  1.0  -0.3834
  O  O865  1  0.012400  0.022000  0.570400  1.0  -0.595
  O  O866  1  0.960500  0.981000  0.567400  1.0  -0.3584
  O  O867  1  0.095600  0.774900  0.483000  1.0  -0.5335
  O  O868  1  0.083000  0.835400  0.537700  1.0  -0.3607
  O  O869  1  0.107000  0.747000  0.828000  1.0  -0.527
  O  O870  1  0.081800  0.731700  0.727000  1.0  -0.3499
  O  O871  1  0.020400  0.470700  0.964200  1.0  -0.5156
  O  O872  1  0.972600  0.519800  0.869700  1.0  -0.3274
  O  O873  1  0.072800  0.814000  0.885000  1.0  -0.4963
  O  O874  1  0.113000  0.736100  0.951600  1.0  -0.3572
  O  O875  1  0.083000  0.712700  0.197500  1.0  -0.543
  O  O876  1  0.097500  0.685900  0.134400  1.0  -0.3834
  O  O877  1  0.512400  0.478000  0.070400  1.0  -0.5947
  O  O878  1  0.460500  0.519000  0.067400  1.0  -0.3586
  O  O879  1  0.595600  0.725100  0.983000  1.0  -0.5326
  O  O880  1  0.583000  0.664600  0.037700  1.0  -0.3597
  O  O881  1  0.607000  0.753000  0.328000  1.0  -0.5275
  O  O882  1  0.581800  0.768300  0.227000  1.0  -0.3494
  O  O883  1  0.520400  0.029300  0.464200  1.0  -0.5157
  O  O884  1  0.472600  0.980200  0.369700  1.0  -0.3274
  O  O885  1  0.572800  0.686000  0.385000  1.0  -0.4972
  O  O886  1  0.613000  0.763900  0.451600  1.0  -0.3568
  O  O887  1  0.583000  0.787300  0.697500  1.0  -0.5439
  O  O888  1  0.597500  0.814100  0.634400  1.0  -0.3832
  O  O889  1  0.012400  0.978000  0.070400  1.0  -0.5947
  O  O890  1  0.960500  0.019000  0.067400  1.0  -0.3586
  O  O891  1  0.095600  0.225100  0.983000  1.0  -0.5326
  O  O892  1  0.083000  0.164600  0.037700  1.0  -0.3597
  O  O893  1  0.107000  0.253000  0.328000  1.0  -0.5275
  O  O894  1  0.081800  0.268300  0.227000  1.0  -0.3494
  O  O895  1  0.020400  0.529300  0.464200  1.0  -0.5157
  O  O896  1  0.972600  0.480200  0.369700  1.0  -0.3274
  O  O897  1  0.072800  0.186000  0.385000  1.0  -0.4972
  O  O898  1  0.113000  0.263900  0.451600  1.0  -0.3568
  O  O899  1  0.083000  0.287300  0.697500  1.0  -0.5439
  O  O900  1  0.097500  0.314100  0.634400  1.0  -0.3832
  O  O901  1  0.487600  0.478000  0.429600  1.0  -0.5946
  O  O902  1  0.539500  0.519000  0.432600  1.0  -0.3575
  O  O903  1  0.404400  0.725100  0.517000  1.0  -0.5334
  O  O904  1  0.417000  0.664600  0.462300  1.0  -0.3617
  O  O905  1  0.393000  0.753000  0.172000  1.0  -0.5271
  O  O906  1  0.418200  0.768300  0.273000  1.0  -0.3507
  O  O907  1  0.479600  0.029300  0.035800  1.0  -0.5157
  O  O908  1  0.527400  0.980200  0.130300  1.0  -0.3265
  O  O909  1  0.427200  0.686000  0.115000  1.0  -0.4974
  O  O910  1  0.387000  0.763900  0.048400  1.0  -0.3564
  O  O911  1  0.417000  0.787300  0.802500  1.0  -0.5435
  O  O912  1  0.402500  0.814100  0.865600  1.0  -0.3876
  O  O913  1  0.987600  0.978000  0.429600  1.0  -0.5946
  O  O914  1  0.039500  0.019000  0.432600  1.0  -0.3575
  O  O915  1  0.904400  0.225100  0.517000  1.0  -0.5334
  O  O916  1  0.917000  0.164600  0.462300  1.0  -0.3617
  O  O917  1  0.893000  0.253000  0.172000  1.0  -0.5271
  O  O918  1  0.918200  0.268300  0.273000  1.0  -0.3507
  O  O919  1  0.979600  0.529300  0.035800  1.0  -0.5157
  O  O920  1  0.027400  0.480200  0.130300  1.0  -0.3265
  O  O921  1  0.927200  0.186000  0.115000  1.0  -0.4974
  O  O922  1  0.887000  0.263900  0.048400  1.0  -0.3564
  O  O923  1  0.917000  0.287300  0.802500  1.0  -0.5435
  O  O924  1  0.902500  0.314100  0.865600  1.0  -0.3876
