# generated using pymatgen
data_Ni15P4H96W30C34(N9O52)2
_symmetry_space_group_name_H-M   'P 1'
_cell_length_a   28.55200000
_cell_length_b   27.84540000
_cell_length_c   27.88700000
_cell_angle_alpha   90.00000000
_cell_angle_beta   120.61000000
_cell_angle_gamma   90.00000000
_symmetry_Int_Tables_number   1
_chemical_formula_structural   Ni15P4H96W30C34(N9O52)2
_chemical_formula_sum   'Ni60 P16 H384 W120 C136 N72 O416'
_cell_volume   19081.82747605
_cell_formula_units_Z   4
loop_
 _symmetry_equiv_pos_site_id
 _symmetry_equiv_pos_as_xyz
  1  'x, y, z'
loop_
 _atom_site_type_symbol
 _atom_site_label
 _atom_site_symmetry_multiplicity
 _atom_site_fract_x
 _atom_site_fract_y
 _atom_site_fract_z
 _atom_site_occupancy
 _atom_site_charge
  Ni  Ni1  1  0.421110  0.626100  0.454750  1.0  0.705
  Ni  Ni2  1  0.193180  0.704650  0.323150  1.0  0.8729
  Ni  Ni3  1  0.349770  0.531220  0.555840  1.0  0.6602
  Ni  Ni4  1  0.262930  0.700840  0.264810  1.0  1.0058
  Ni  Ni5  1  0.380180  0.661700  0.334460  1.0  1.0439
  Ni  Ni6  1  0.303310  0.661680  0.383330  1.0  1.0059
  Ni  Ni7  1  0.346200  0.704890  0.223190  1.0  0.863
  Ni  Ni8  1  0.921110  0.126100  0.454750  1.0  0.705
  Ni  Ni9  1  0.693180  0.204650  0.323150  1.0  0.8729
  Ni  Ni10  1  0.849770  0.031220  0.555840  1.0  0.6602
  Ni  Ni11  1  0.762930  0.200840  0.264810  1.0  1.0058
  Ni  Ni12  1  0.880180  0.161700  0.334460  1.0  1.0439
  Ni  Ni13  1  0.803310  0.161680  0.383330  1.0  1.0059
  Ni  Ni14  1  0.846200  0.204890  0.223190  1.0  0.863
  Ni  Ni15  1  0.578890  0.626100  0.045250  1.0  0.7056
  Ni  Ni16  1  0.806820  0.704650  0.176850  1.0  0.8716
  Ni  Ni17  1  0.650230  0.531220  0.944160  1.0  0.6589
  Ni  Ni18  1  0.737070  0.700840  0.235190  1.0  1.0047
  Ni  Ni19  1  0.619820  0.661700  0.165540  1.0  1.0469
  Ni  Ni20  1  0.696690  0.661680  0.116670  1.0  1.0075
  Ni  Ni21  1  0.653800  0.704890  0.276810  1.0  0.8632
  Ni  Ni22  1  0.078890  0.126100  0.045250  1.0  0.7056
  Ni  Ni23  1  0.306820  0.204650  0.176850  1.0  0.8716
  Ni  Ni24  1  0.150230  0.031220  0.944160  1.0  0.6589
  Ni  Ni25  1  0.237070  0.200840  0.235190  1.0  1.0047
  Ni  Ni26  1  0.119820  0.161700  0.165540  1.0  1.0469
  Ni  Ni27  1  0.196690  0.161680  0.116670  1.0  1.0075
  Ni  Ni28  1  0.153800  0.204890  0.276810  1.0  0.8632
  Ni  Ni29  1  0.578890  0.373900  0.545250  1.0  0.7034
  Ni  Ni30  1  0.806820  0.295350  0.676850  1.0  0.8723
  Ni  Ni31  1  0.650230  0.468780  0.444160  1.0  0.6491
  Ni  Ni32  1  0.737070  0.299160  0.735190  1.0  1.0043
  Ni  Ni33  1  0.619820  0.338300  0.665540  1.0  1.0482
  Ni  Ni34  1  0.696690  0.338320  0.616670  1.0  1.0072
  Ni  Ni35  1  0.653800  0.295110  0.776810  1.0  0.8637
  Ni  Ni36  1  0.078890  0.873900  0.545250  1.0  0.7034
  Ni  Ni37  1  0.306820  0.795350  0.676850  1.0  0.8723
  Ni  Ni38  1  0.150230  0.968780  0.444160  1.0  0.6489
  Ni  Ni39  1  0.237070  0.799160  0.735190  1.0  1.0043
  Ni  Ni40  1  0.119820  0.838300  0.665540  1.0  1.0482
  Ni  Ni41  1  0.196690  0.838320  0.616670  1.0  1.0072
  Ni  Ni42  1  0.153800  0.795110  0.776810  1.0  0.8637
  Ni  Ni43  1  0.421110  0.373900  0.954750  1.0  0.7041
  Ni  Ni44  1  0.193180  0.295350  0.823150  1.0  0.8735
  Ni  Ni45  1  0.349770  0.468780  0.055840  1.0  0.6483
  Ni  Ni46  1  0.262930  0.299160  0.764810  1.0  1.0056
  Ni  Ni47  1  0.380180  0.338300  0.834460  1.0  1.045
  Ni  Ni48  1  0.303310  0.338320  0.883330  1.0  1.0043
  Ni  Ni49  1  0.346200  0.295110  0.723190  1.0  0.8631
  Ni  Ni50  1  0.921110  0.873900  0.954750  1.0  0.7041
  Ni  Ni51  1  0.693180  0.795350  0.823150  1.0  0.8735
  Ni  Ni52  1  0.849770  0.968780  0.055840  1.0  0.6483
  Ni  Ni53  1  0.762930  0.799160  0.764810  1.0  1.0056
  Ni  Ni54  1  0.880180  0.838300  0.834460  1.0  1.045
  Ni  Ni55  1  0.803310  0.838320  0.883330  1.0  1.0043
  Ni  Ni56  1  0.846200  0.795110  0.723190  1.0  0.8631
  Ni  Ni57  1  0.000000  0.449800  0.250000  1.0  0.6551
  Ni  Ni58  1  0.500000  0.949800  0.250000  1.0  0.6551
  Ni  Ni59  1  0.000000  0.550200  0.750000  1.0  0.6592
  Ni  Ni60  1  0.500000  0.050200  0.750000  1.0  0.6592
  P  P61  1  0.278890  0.585520  0.283210  1.0  1.652
  P  P62  1  0.222920  0.451270  0.215840  1.0  1.6711
  P  P63  1  0.778890  0.085520  0.283210  1.0  1.652
  P  P64  1  0.722920  0.951270  0.215840  1.0  1.6711
  P  P65  1  0.721110  0.585520  0.216790  1.0  1.652
  P  P66  1  0.777080  0.451270  0.284160  1.0  1.6717
  P  P67  1  0.221110  0.085520  0.216790  1.0  1.652
  P  P68  1  0.277080  0.951270  0.284160  1.0  1.6717
  P  P69  1  0.721110  0.414480  0.716790  1.0  1.6522
  P  P70  1  0.777080  0.548730  0.784160  1.0  1.6718
  P  P71  1  0.221110  0.914480  0.716790  1.0  1.6522
  P  P72  1  0.277080  0.048730  0.784160  1.0  1.6718
  P  P73  1  0.278890  0.414480  0.783210  1.0  1.6522
  P  P74  1  0.222920  0.548730  0.715840  1.0  1.6714
  P  P75  1  0.778890  0.914480  0.783210  1.0  1.6522
  P  P76  1  0.722920  0.048730  0.715840  1.0  1.6714
  H  H77  1  0.378200  0.678500  0.159600  1.0  0.2755
  H  H78  1  0.321500  0.663800  0.134300  1.0  0.2951
  H  H79  1  0.983200  0.502000  0.314800  1.0  0.3079
  H  H80  1  0.040500  0.508100  0.331900  1.0  0.3125
  H  H81  1  0.291000  0.779700  0.183200  1.0  0.3142
  H  H82  1  0.347400  0.792500  0.203200  1.0  0.3197
  H  H83  1  0.398500  0.451800  0.571500  1.0  0.3112
  H  H84  1  0.391400  0.459500  0.619300  1.0  0.3255
  H  H85  1  0.453700  0.560200  0.526400  1.0  0.3189
  H  H86  1  0.462200  0.543500  0.481800  1.0  0.2339
  H  H87  1  0.495900  0.670000  0.450000  1.0  0.3061
  H  H88  1  0.504700  0.678100  0.505800  1.0  0.2932
  H  H89  1  0.101200  0.666500  0.274900  1.0  0.2802
  H  H90  1  0.117600  0.671400  0.333500  1.0  0.3179
  H  H91  1  0.174700  0.790900  0.322900  1.0  0.303
  H  H92  1  0.165400  0.779100  0.268000  1.0  0.3217
  H  H93  1  0.252900  0.511400  0.528700  1.0  0.2537
  H  H94  1  0.255700  0.508300  0.478000  1.0  0.2819
  H  H95  1  0.302600  0.761600  0.512300  1.0  0.1348
  H  H96  1  0.287300  0.713600  0.530000  1.0  0.1364
  H  H97  1  0.271500  0.773000  0.101200  1.0  0.0948
  H  H98  1  0.327500  0.798100  0.121000  1.0  0.0768
  H  H99  1  0.544500  0.555300  0.546700  1.0  0.0836
  H  H100  1  0.527400  0.600400  0.568000  1.0  0.0795
  H  H101  1  0.088400  0.800300  0.283400  1.0  0.0777
  H  H102  1  0.079100  0.770600  0.231200  1.0  0.0903
  H  H103  1  0.047100  0.723300  0.264400  1.0  0.0878
  H  H104  1  0.085300  0.741000  0.325300  1.0  0.0877
  H  H105  1  0.278900  0.710300  0.028600  1.0  0.1066
  H  H106  1  0.340900  0.701700  0.050700  1.0  0.1037
  H  H107  1  0.316700  0.753700  0.035200  1.0  0.1072
  H  H108  1  0.953000  0.547000  0.245000  1.0  0.081
  H  H109  1  0.036000  0.608700  0.310800  1.0  0.0962
  H  H110  1  0.971300  0.616800  0.278900  1.0  0.1229
  H  H111  1  0.270000  0.454000  0.550000  1.0  0.0743
  H  H112  1  0.249600  0.385200  0.495600  1.0  0.1108
  H  H113  1  0.215500  0.424400  0.450900  1.0  0.11
  H  H114  1  0.209600  0.418200  0.503500  1.0  0.1263
  H  H115  1  0.334100  0.407200  0.537100  1.0  0.0769
  H  H116  1  0.324500  0.418000  0.586300  1.0  0.1165
  H  H117  1  0.365000  0.743000  0.126000  1.0  0.0986
  H  H118  1  0.520000  0.596000  0.467000  1.0  0.1077
  H  H119  1  0.586800  0.645300  0.488300  1.0  0.1123
  H  H120  1  0.592900  0.589400  0.495800  1.0  0.1145
  H  H121  1  0.610500  0.622700  0.547700  1.0  0.0913
  H  H122  1  0.518900  0.757600  0.319300  1.0  0.1339
  H  H123  1  0.532200  0.703300  0.316700  1.0  0.133
  H  H124  1  0.541700  0.725400  0.372700  1.0  0.1335
  H  H125  1  0.878200  0.178500  0.159600  1.0  0.2755
  H  H126  1  0.821500  0.163800  0.134300  1.0  0.2951
  H  H127  1  0.483200  0.002000  0.314800  1.0  0.3079
  H  H128  1  0.540500  0.008100  0.331900  1.0  0.3125
  H  H129  1  0.791000  0.279700  0.183200  1.0  0.3142
  H  H130  1  0.847400  0.292500  0.203200  1.0  0.3197
  H  H131  1  0.898500  0.951800  0.571500  1.0  0.3112
  H  H132  1  0.891400  0.959500  0.619300  1.0  0.3255
  H  H133  1  0.953700  0.060200  0.526400  1.0  0.3187
  H  H134  1  0.962200  0.043500  0.481800  1.0  0.2341
  H  H135  1  0.995900  0.170000  0.450000  1.0  0.3063
  H  H136  1  0.004700  0.178100  0.505800  1.0  0.2932
  H  H137  1  0.601200  0.166500  0.274900  1.0  0.2802
  H  H138  1  0.617600  0.171400  0.333500  1.0  0.3179
  H  H139  1  0.674700  0.290900  0.322900  1.0  0.303
  H  H140  1  0.665400  0.279100  0.268000  1.0  0.3217
  H  H141  1  0.752900  0.011400  0.528700  1.0  0.2537
  H  H142  1  0.755700  0.008300  0.478000  1.0  0.2819
  H  H143  1  0.802600  0.261600  0.512300  1.0  0.1348
  H  H144  1  0.787300  0.213600  0.530000  1.0  0.1364
  H  H145  1  0.771500  0.273000  0.101200  1.0  0.0948
  H  H146  1  0.827500  0.298100  0.121000  1.0  0.0768
  H  H147  1  0.044500  0.055300  0.546700  1.0  0.0836
  H  H148  1  0.027400  0.100400  0.568000  1.0  0.0795
  H  H149  1  0.588400  0.300300  0.283400  1.0  0.0777
  H  H150  1  0.579100  0.270600  0.231200  1.0  0.0903
  H  H151  1  0.547100  0.223300  0.264400  1.0  0.0878
  H  H152  1  0.585300  0.241000  0.325300  1.0  0.0877
  H  H153  1  0.778900  0.210300  0.028600  1.0  0.1066
  H  H154  1  0.840900  0.201700  0.050700  1.0  0.1037
  H  H155  1  0.816700  0.253700  0.035200  1.0  0.1072
  H  H156  1  0.453000  0.047000  0.245000  1.0  0.081
  H  H157  1  0.536000  0.108700  0.310800  1.0  0.0962
  H  H158  1  0.471300  0.116800  0.278900  1.0  0.1229
  H  H159  1  0.770000  0.954000  0.550000  1.0  0.0743
  H  H160  1  0.749600  0.885200  0.495600  1.0  0.1108
  H  H161  1  0.715500  0.924400  0.450900  1.0  0.1107
  H  H162  1  0.709600  0.918200  0.503500  1.0  0.1263
  H  H163  1  0.834100  0.907200  0.537100  1.0  0.0769
  H  H164  1  0.824500  0.918000  0.586300  1.0  0.1165
  H  H165  1  0.865000  0.243000  0.126000  1.0  0.0986
  H  H166  1  0.020000  0.096000  0.467000  1.0  0.1077
  H  H167  1  0.086800  0.145300  0.488300  1.0  0.1123
  H  H168  1  0.092900  0.089400  0.495800  1.0  0.1145
  H  H169  1  0.110500  0.122700  0.547700  1.0  0.0913
  H  H170  1  0.018900  0.257600  0.319300  1.0  0.1339
  H  H171  1  0.032200  0.203300  0.316700  1.0  0.133
  H  H172  1  0.041700  0.225400  0.372700  1.0  0.1335
  H  H173  1  0.621800  0.678500  0.340400  1.0  0.2752
  H  H174  1  0.678500  0.663800  0.365700  1.0  0.296
  H  H175  1  0.016800  0.502000  0.185200  1.0  0.3076
  H  H176  1  0.959500  0.508100  0.168100  1.0  0.3103
  H  H177  1  0.709000  0.779700  0.316800  1.0  0.3139
  H  H178  1  0.652600  0.792500  0.296800  1.0  0.322
  H  H179  1  0.601500  0.451800  0.928500  1.0  0.309
  H  H180  1  0.608600  0.459500  0.880700  1.0  0.3265
  H  H181  1  0.546300  0.560200  0.973600  1.0  0.3196
  H  H182  1  0.537800  0.543500  0.018200  1.0  0.2346
  H  H183  1  0.504100  0.670000  0.050000  1.0  0.3074
  H  H184  1  0.495300  0.678100  0.994200  1.0  0.2941
  H  H185  1  0.898800  0.666500  0.225100  1.0  0.2803
  H  H186  1  0.882400  0.671400  0.166500  1.0  0.3168
  H  H187  1  0.825300  0.790900  0.177100  1.0  0.3042
  H  H188  1  0.834600  0.779100  0.232000  1.0  0.3194
  H  H189  1  0.747100  0.511400  0.971300  1.0  0.2544
  H  H190  1  0.744300  0.508300  0.022000  1.0  0.2797
  H  H191  1  0.697400  0.761600  0.987700  1.0  0.1331
  H  H192  1  0.712700  0.713600  0.970000  1.0  0.1368
  H  H193  1  0.728500  0.773000  0.398800  1.0  0.0956
  H  H194  1  0.672500  0.798100  0.379000  1.0  0.0752
  H  H195  1  0.455500  0.555300  0.953300  1.0  0.0829
  H  H196  1  0.472600  0.600400  0.932000  1.0  0.0811
  H  H197  1  0.911600  0.800300  0.216600  1.0  0.0798
  H  H198  1  0.920900  0.770600  0.268800  1.0  0.092
  H  H199  1  0.952900  0.723300  0.235600  1.0  0.0838
  H  H200  1  0.914700  0.741000  0.174700  1.0  0.0888
  H  H201  1  0.721100  0.710300  0.471400  1.0  0.1053
  H  H202  1  0.659100  0.701700  0.449300  1.0  0.1047
  H  H203  1  0.683300  0.753700  0.464800  1.0  0.1061
  H  H204  1  0.047000  0.547000  0.255000  1.0  0.0842
  H  H205  1  0.964000  0.608700  0.189200  1.0  0.0968
  H  H206  1  0.028700  0.616800  0.221100  1.0  0.1223
  H  H207  1  0.730000  0.454000  0.950000  1.0  0.076
  H  H208  1  0.750400  0.385200  0.004400  1.0  0.1113
  H  H209  1  0.784500  0.424400  0.049100  1.0  0.1111
  H  H210  1  0.790400  0.418200  0.996500  1.0  0.131
  H  H211  1  0.665900  0.407200  0.962900  1.0  0.0773
  H  H212  1  0.675500  0.418000  0.913700  1.0  0.1168
  H  H213  1  0.635000  0.743000  0.374000  1.0  0.0996
  H  H214  1  0.480000  0.596000  0.033000  1.0  0.1097
  H  H215  1  0.413200  0.645300  0.011700  1.0  0.1116
  H  H216  1  0.407100  0.589400  0.004200  1.0  0.1157
  H  H217  1  0.389500  0.622700  0.952300  1.0  0.0936
  H  H218  1  0.481100  0.757600  0.180700  1.0  0.1335
  H  H219  1  0.467800  0.703300  0.183300  1.0  0.1328
  H  H220  1  0.458300  0.725400  0.127300  1.0  0.1325
  H  H221  1  0.121800  0.178500  0.340400  1.0  0.2752
  H  H222  1  0.178500  0.163800  0.365700  1.0  0.296
  H  H223  1  0.516800  0.002000  0.185200  1.0  0.3076
  H  H224  1  0.459500  0.008100  0.168100  1.0  0.3103
  H  H225  1  0.209000  0.279700  0.316800  1.0  0.3139
  H  H226  1  0.152600  0.292500  0.296800  1.0  0.322
  H  H227  1  0.101500  0.951800  0.928500  1.0  0.309
  H  H228  1  0.108600  0.959500  0.880700  1.0  0.3265
  H  H229  1  0.046300  0.060200  0.973600  1.0  0.3196
  H  H230  1  0.037800  0.043500  0.018200  1.0  0.2346
  H  H231  1  0.004100  0.170000  0.050000  1.0  0.3074
  H  H232  1  0.995300  0.178100  0.994200  1.0  0.2941
  H  H233  1  0.398800  0.166500  0.225100  1.0  0.2803
  H  H234  1  0.382400  0.171400  0.166500  1.0  0.3168
  H  H235  1  0.325300  0.290900  0.177100  1.0  0.3042
  H  H236  1  0.334600  0.279100  0.232000  1.0  0.3194
  H  H237  1  0.247100  0.011400  0.971300  1.0  0.2544
  H  H238  1  0.244300  0.008300  0.022000  1.0  0.2797
  H  H239  1  0.197400  0.261600  0.987700  1.0  0.1331
  H  H240  1  0.212700  0.213600  0.970000  1.0  0.1368
  H  H241  1  0.228500  0.273000  0.398800  1.0  0.0956
  H  H242  1  0.172500  0.298100  0.379000  1.0  0.0752
  H  H243  1  0.955500  0.055300  0.953300  1.0  0.0829
  H  H244  1  0.972600  0.100400  0.932000  1.0  0.0811
  H  H245  1  0.411600  0.300300  0.216600  1.0  0.0798
  H  H246  1  0.420900  0.270600  0.268800  1.0  0.092
  H  H247  1  0.452900  0.223300  0.235600  1.0  0.0838
  H  H248  1  0.414700  0.241000  0.174700  1.0  0.0888
  H  H249  1  0.221100  0.210300  0.471400  1.0  0.1053
  H  H250  1  0.159100  0.201700  0.449300  1.0  0.1047
  H  H251  1  0.183300  0.253700  0.464800  1.0  0.1061
  H  H252  1  0.547000  0.047000  0.255000  1.0  0.0842
  H  H253  1  0.464000  0.108700  0.189200  1.0  0.0968
  H  H254  1  0.528700  0.116800  0.221100  1.0  0.1223
  H  H255  1  0.230000  0.954000  0.950000  1.0  0.076
  H  H256  1  0.250400  0.885200  0.004400  1.0  0.1113
  H  H257  1  0.284500  0.924400  0.049100  1.0  0.1111
  H  H258  1  0.290400  0.918200  0.996500  1.0  0.1307
  H  H259  1  0.165900  0.907200  0.962900  1.0  0.0773
  H  H260  1  0.175500  0.918000  0.913700  1.0  0.1168
  H  H261  1  0.135000  0.243000  0.374000  1.0  0.0996
  H  H262  1  0.980000  0.096000  0.033000  1.0  0.1097
  H  H263  1  0.913200  0.145300  0.011700  1.0  0.1116
  H  H264  1  0.907100  0.089400  0.004200  1.0  0.1157
  H  H265  1  0.889500  0.122700  0.952300  1.0  0.0936
  H  H266  1  0.981100  0.257600  0.180700  1.0  0.1335
  H  H267  1  0.967800  0.203300  0.183300  1.0  0.1328
  H  H268  1  0.958300  0.225400  0.127300  1.0  0.1325
  H  H269  1  0.621800  0.321500  0.840400  1.0  0.2757
  H  H270  1  0.678500  0.336200  0.865700  1.0  0.2966
  H  H271  1  0.016800  0.498000  0.685200  1.0  0.3076
  H  H272  1  0.959500  0.491900  0.668100  1.0  0.31
  H  H273  1  0.709000  0.220300  0.816800  1.0  0.3123
  H  H274  1  0.652600  0.207500  0.796800  1.0  0.3226
  H  H275  1  0.601500  0.548200  0.428500  1.0  0.3093
  H  H276  1  0.608600  0.540500  0.380700  1.0  0.3256
  H  H277  1  0.546300  0.439800  0.473600  1.0  0.3198
  H  H278  1  0.537800  0.456500  0.518200  1.0  0.2336
  H  H279  1  0.504100  0.330000  0.550000  1.0  0.3075
  H  H280  1  0.495300  0.321900  0.494200  1.0  0.2936
  H  H281  1  0.898800  0.333500  0.725100  1.0  0.2801
  H  H282  1  0.882400  0.328600  0.666500  1.0  0.3178
  H  H283  1  0.825300  0.209100  0.677100  1.0  0.3046
  H  H284  1  0.834600  0.220900  0.732000  1.0  0.3201
  H  H285  1  0.747100  0.488600  0.471300  1.0  0.2546
  H  H286  1  0.744300  0.491700  0.522000  1.0  0.2798
  H  H287  1  0.697400  0.238400  0.487700  1.0  0.1329
  H  H288  1  0.712700  0.286400  0.470000  1.0  0.1366
  H  H289  1  0.728500  0.227000  0.898800  1.0  0.0955
  H  H290  1  0.672500  0.201900  0.879000  1.0  0.075
  H  H291  1  0.455500  0.444700  0.453300  1.0  0.0836
  H  H292  1  0.472600  0.399600  0.432000  1.0  0.0807
  H  H293  1  0.911600  0.199700  0.716600  1.0  0.0776
  H  H294  1  0.920900  0.229400  0.768800  1.0  0.0922
  H  H295  1  0.952900  0.276700  0.735600  1.0  0.0836
  H  H296  1  0.914700  0.259000  0.674700  1.0  0.0883
  H  H297  1  0.721100  0.289700  0.971400  1.0  0.105
  H  H298  1  0.659100  0.298300  0.949300  1.0  0.1039
  H  H299  1  0.683300  0.246300  0.964800  1.0  0.1074
  H  H300  1  0.047000  0.453000  0.755000  1.0  0.084
  H  H301  1  0.964000  0.391300  0.689200  1.0  0.0973
  H  H302  1  0.028700  0.383200  0.721100  1.0  0.1228
  H  H303  1  0.730000  0.546000  0.450000  1.0  0.0763
  H  H304  1  0.750400  0.614800  0.504400  1.0  0.1098
  H  H305  1  0.784500  0.575600  0.549100  1.0  0.1116
  H  H306  1  0.790400  0.581800  0.496500  1.0  0.131
  H  H307  1  0.665900  0.592800  0.462900  1.0  0.0783
  H  H308  1  0.675500  0.582000  0.413700  1.0  0.1176
  H  H309  1  0.635000  0.257000  0.874000  1.0  0.0992
  H  H310  1  0.480000  0.404000  0.533000  1.0  0.1096
  H  H311  1  0.413200  0.354700  0.511700  1.0  0.113
  H  H312  1  0.407100  0.410600  0.504200  1.0  0.1164
  H  H313  1  0.389500  0.377300  0.452300  1.0  0.0943
  H  H314  1  0.481100  0.242400  0.680700  1.0  0.1326
  H  H315  1  0.467800  0.296700  0.683300  1.0  0.133
  H  H316  1  0.458300  0.274600  0.627300  1.0  0.1323
  H  H317  1  0.121800  0.821500  0.840400  1.0  0.2757
  H  H318  1  0.178500  0.836200  0.865700  1.0  0.2966
  H  H319  1  0.516800  0.998000  0.685200  1.0  0.3076
  H  H320  1  0.459500  0.991900  0.668100  1.0  0.31
  H  H321  1  0.209000  0.720300  0.816800  1.0  0.3123
  H  H322  1  0.152600  0.707500  0.796800  1.0  0.3226
  H  H323  1  0.101500  0.048200  0.428500  1.0  0.3093
  H  H324  1  0.108600  0.040500  0.380700  1.0  0.3256
  H  H325  1  0.046300  0.939800  0.473600  1.0  0.3198
  H  H326  1  0.037800  0.956500  0.518200  1.0  0.2336
  H  H327  1  0.004100  0.830000  0.550000  1.0  0.3075
  H  H328  1  0.995300  0.821900  0.494200  1.0  0.2936
  H  H329  1  0.398800  0.833500  0.725100  1.0  0.2801
  H  H330  1  0.382400  0.828600  0.666500  1.0  0.3178
  H  H331  1  0.325300  0.709100  0.677100  1.0  0.3046
  H  H332  1  0.334600  0.720900  0.732000  1.0  0.3201
  H  H333  1  0.247100  0.988600  0.471300  1.0  0.2546
  H  H334  1  0.244300  0.991700  0.522000  1.0  0.2794
  H  H335  1  0.197400  0.738400  0.487700  1.0  0.1329
  H  H336  1  0.212700  0.786400  0.470000  1.0  0.1366
  H  H337  1  0.228500  0.727000  0.898800  1.0  0.0955
  H  H338  1  0.172500  0.701900  0.879000  1.0  0.075
  H  H339  1  0.955500  0.944700  0.453300  1.0  0.0836
  H  H340  1  0.972600  0.899600  0.432000  1.0  0.0807
  H  H341  1  0.411600  0.699700  0.716600  1.0  0.0776
  H  H342  1  0.420900  0.729400  0.768800  1.0  0.0922
  H  H343  1  0.452900  0.776700  0.735600  1.0  0.0836
  H  H344  1  0.414700  0.759000  0.674700  1.0  0.0883
  H  H345  1  0.221100  0.789700  0.971400  1.0  0.105
  H  H346  1  0.159100  0.798300  0.949300  1.0  0.1039
  H  H347  1  0.183300  0.746300  0.964800  1.0  0.1074
  H  H348  1  0.547000  0.953000  0.755000  1.0  0.084
  H  H349  1  0.464000  0.891300  0.689200  1.0  0.0973
  H  H350  1  0.528700  0.883200  0.721100  1.0  0.1228
  H  H351  1  0.230000  0.046000  0.450000  1.0  0.0763
  H  H352  1  0.250400  0.114800  0.504400  1.0  0.1098
  H  H353  1  0.284500  0.075600  0.549100  1.0  0.111
  H  H354  1  0.290400  0.081800  0.496500  1.0  0.1309
  H  H355  1  0.165900  0.092800  0.462900  1.0  0.0783
  H  H356  1  0.175500  0.082000  0.413700  1.0  0.1176
  H  H357  1  0.135000  0.757000  0.874000  1.0  0.0992
  H  H358  1  0.980000  0.904000  0.533000  1.0  0.1096
  H  H359  1  0.913200  0.854700  0.511700  1.0  0.113
  H  H360  1  0.907100  0.910600  0.504200  1.0  0.1164
  H  H361  1  0.889500  0.877300  0.452300  1.0  0.0943
  H  H362  1  0.981100  0.742400  0.680700  1.0  0.1326
  H  H363  1  0.967800  0.796700  0.683300  1.0  0.133
  H  H364  1  0.958300  0.774600  0.627300  1.0  0.1323
  H  H365  1  0.378200  0.321500  0.659600  1.0  0.2752
  H  H366  1  0.321500  0.336200  0.634300  1.0  0.2968
  H  H367  1  0.983200  0.498000  0.814800  1.0  0.3079
  H  H368  1  0.040500  0.491900  0.831900  1.0  0.3133
  H  H369  1  0.291000  0.220300  0.683200  1.0  0.3136
  H  H370  1  0.347400  0.207500  0.703200  1.0  0.3203
  H  H371  1  0.398500  0.548200  0.071500  1.0  0.3107
  H  H372  1  0.391400  0.540500  0.119300  1.0  0.325
  H  H373  1  0.453700  0.439800  0.026400  1.0  0.3186
  H  H374  1  0.462200  0.456500  0.981800  1.0  0.234
  H  H375  1  0.495900  0.330000  0.950000  1.0  0.3052
  H  H376  1  0.504700  0.321900  0.005800  1.0  0.2943
  H  H377  1  0.101200  0.333500  0.774900  1.0  0.2806
  H  H378  1  0.117600  0.328600  0.833500  1.0  0.318
  H  H379  1  0.174700  0.209100  0.822900  1.0  0.304
  H  H380  1  0.165400  0.220900  0.768000  1.0  0.3214
  H  H381  1  0.252900  0.488600  0.028700  1.0  0.2535
  H  H382  1  0.255700  0.491700  0.978000  1.0  0.2825
  H  H383  1  0.302600  0.238400  0.012300  1.0  0.134
  H  H384  1  0.287300  0.286400  0.030000  1.0  0.1353
  H  H385  1  0.271500  0.227000  0.601200  1.0  0.0952
  H  H386  1  0.327500  0.201900  0.621000  1.0  0.0755
  H  H387  1  0.544500  0.444700  0.046700  1.0  0.0823
  H  H388  1  0.527400  0.399600  0.068000  1.0  0.08
  H  H389  1  0.088400  0.199700  0.783400  1.0  0.0761
  H  H390  1  0.079100  0.229400  0.731200  1.0  0.0919
  H  H391  1  0.047100  0.276700  0.764400  1.0  0.0878
  H  H392  1  0.085300  0.259000  0.825300  1.0  0.0878
  H  H393  1  0.278900  0.289700  0.528600  1.0  0.1066
  H  H394  1  0.340900  0.298300  0.550700  1.0  0.1034
  H  H395  1  0.316700  0.246300  0.535200  1.0  0.1074
  H  H396  1  0.953000  0.453000  0.745000  1.0  0.0808
  H  H397  1  0.036000  0.391300  0.810800  1.0  0.0962
  H  H398  1  0.971300  0.383200  0.778900  1.0  0.124
  H  H399  1  0.270000  0.546000  0.050000  1.0  0.0743
  H  H400  1  0.249600  0.614800  0.995600  1.0  0.1104
  H  H401  1  0.215500  0.575600  0.950900  1.0  0.1107
  H  H402  1  0.209600  0.581800  0.003500  1.0  0.1275
  H  H403  1  0.334100  0.592800  0.037100  1.0  0.0791
  H  H404  1  0.324500  0.582000  0.086300  1.0  0.1169
  H  H405  1  0.365000  0.257000  0.626000  1.0  0.0993
  H  H406  1  0.520000  0.404000  0.967000  1.0  0.1093
  H  H407  1  0.586800  0.354700  0.988300  1.0  0.112
  H  H408  1  0.592900  0.410600  0.995800  1.0  0.1146
  H  H409  1  0.610500  0.377300  0.047700  1.0  0.0923
  H  H410  1  0.518900  0.242400  0.819300  1.0  0.1325
  H  H411  1  0.532200  0.296700  0.816700  1.0  0.1333
  H  H412  1  0.541700  0.274600  0.872700  1.0  0.1333
  H  H413  1  0.878200  0.821500  0.659600  1.0  0.2752
  H  H414  1  0.821500  0.836200  0.634300  1.0  0.2968
  H  H415  1  0.483200  0.998000  0.814800  1.0  0.3079
  H  H416  1  0.540500  0.991900  0.831900  1.0  0.3133
  H  H417  1  0.791000  0.720300  0.683200  1.0  0.3136
  H  H418  1  0.847400  0.707500  0.703200  1.0  0.3203
  H  H419  1  0.898500  0.048200  0.071500  1.0  0.3107
  H  H420  1  0.891400  0.040500  0.119300  1.0  0.325
  H  H421  1  0.953700  0.939800  0.026400  1.0  0.3187
  H  H422  1  0.962200  0.956500  0.981800  1.0  0.2343
  H  H423  1  0.995900  0.830000  0.950000  1.0  0.3052
  H  H424  1  0.004700  0.821900  0.005800  1.0  0.2943
  H  H425  1  0.601200  0.833500  0.774900  1.0  0.2806
  H  H426  1  0.617600  0.828600  0.833500  1.0  0.318
  H  H427  1  0.674700  0.709100  0.822900  1.0  0.304
  H  H428  1  0.665400  0.720900  0.768000  1.0  0.3214
  H  H429  1  0.752900  0.988600  0.028700  1.0  0.2535
  H  H430  1  0.755700  0.991700  0.978000  1.0  0.2829
  H  H431  1  0.802600  0.738400  0.012300  1.0  0.134
  H  H432  1  0.787300  0.786400  0.030000  1.0  0.1353
  H  H433  1  0.771500  0.727000  0.601200  1.0  0.0952
  H  H434  1  0.827500  0.701900  0.621000  1.0  0.0755
  H  H435  1  0.044500  0.944700  0.046700  1.0  0.0823
  H  H436  1  0.027400  0.899600  0.068000  1.0  0.08
  H  H437  1  0.588400  0.699700  0.783400  1.0  0.0761
  H  H438  1  0.579100  0.729400  0.731200  1.0  0.0919
  H  H439  1  0.547100  0.776700  0.764400  1.0  0.0878
  H  H440  1  0.585300  0.759000  0.825300  1.0  0.0878
  H  H441  1  0.778900  0.789700  0.528600  1.0  0.1066
  H  H442  1  0.840900  0.798300  0.550700  1.0  0.1034
  H  H443  1  0.816700  0.746300  0.535200  1.0  0.1074
  H  H444  1  0.453000  0.953000  0.745000  1.0  0.0808
  H  H445  1  0.536000  0.891300  0.810800  1.0  0.0962
  H  H446  1  0.471300  0.883200  0.778900  1.0  0.124
  H  H447  1  0.770000  0.046000  0.050000  1.0  0.0743
  H  H448  1  0.749600  0.114800  0.995600  1.0  0.1104
  H  H449  1  0.715500  0.075600  0.950900  1.0  0.1105
  H  H450  1  0.709600  0.081800  0.003500  1.0  0.1268
  H  H451  1  0.834100  0.092800  0.037100  1.0  0.0791
  H  H452  1  0.824500  0.082000  0.086300  1.0  0.1169
  H  H453  1  0.865000  0.757000  0.626000  1.0  0.0993
  H  H454  1  0.020000  0.904000  0.967000  1.0  0.1093
  H  H455  1  0.086800  0.854700  0.988300  1.0  0.112
  H  H456  1  0.092900  0.910600  0.995800  1.0  0.1146
  H  H457  1  0.110500  0.877300  0.047700  1.0  0.0923
  H  H458  1  0.018900  0.742400  0.819300  1.0  0.1325
  H  H459  1  0.032200  0.796700  0.816700  1.0  0.1333
  H  H460  1  0.041700  0.774600  0.872700  1.0  0.1333
  W  W461  1  0.144930  0.627930  0.199920  1.0  1.3863
  W  W462  1  0.227640  0.628040  0.146880  1.0  1.438
  W  W463  1  0.193430  0.578420  0.338500  1.0  1.461
  W  W464  1  0.267630  0.411350  0.353640  1.0  1.4116
  W  W465  1  0.364850  0.579680  0.228540  1.0  1.4456
  W  W466  1  0.358950  0.411940  0.295470  1.0  1.4274
  W  W467  1  0.410430  0.536480  0.356850  1.0  1.4254
  W  W468  1  0.141410  0.454500  0.277000  1.0  2.4224
  W  W469  1  0.320450  0.535700  0.414080  1.0  2.3186
  W  W470  1  0.315510  0.455450  0.167460  1.0  2.5201
  W  W471  1  0.093270  0.504170  0.136200  1.0  1.4497
  W  W472  1  0.112300  0.371550  0.160000  1.0  1.3593
  W  W473  1  0.197900  0.371270  0.108030  1.0  1.2984
  W  W474  1  0.175640  0.503410  0.084200  1.0  1.5543
  W  W475  1  0.241360  0.328620  0.238430  1.0  2.0633
  W  W476  1  0.644930  0.127930  0.199920  1.0  1.3863
  W  W477  1  0.727640  0.128040  0.146880  1.0  1.438
  W  W478  1  0.693430  0.078420  0.338500  1.0  1.461
  W  W479  1  0.767630  0.911350  0.353640  1.0  1.4116
  W  W480  1  0.864850  0.079680  0.228540  1.0  1.4456
  W  W481  1  0.858950  0.911940  0.295470  1.0  1.4274
  W  W482  1  0.910430  0.036480  0.356850  1.0  1.4254
  W  W483  1  0.641410  0.954500  0.277000  1.0  2.4224
  W  W484  1  0.820450  0.035700  0.414080  1.0  2.3186
  W  W485  1  0.815510  0.955450  0.167460  1.0  2.5201
  W  W486  1  0.593270  0.004170  0.136200  1.0  1.4497
  W  W487  1  0.612300  0.871550  0.160000  1.0  1.3593
  W  W488  1  0.697900  0.871270  0.108030  1.0  1.2984
  W  W489  1  0.675640  0.003410  0.084200  1.0  1.5543
  W  W490  1  0.741360  0.828620  0.238430  1.0  2.0633
  W  W491  1  0.855070  0.627930  0.300080  1.0  1.387
  W  W492  1  0.772360  0.628040  0.353120  1.0  1.4361
  W  W493  1  0.806570  0.578420  0.161500  1.0  1.4584
  W  W494  1  0.732370  0.411350  0.146360  1.0  1.4108
  W  W495  1  0.635150  0.579680  0.271460  1.0  1.4472
  W  W496  1  0.641050  0.411940  0.204530  1.0  1.4265
  W  W497  1  0.589570  0.536480  0.143150  1.0  1.427
  W  W498  1  0.858590  0.454500  0.223000  1.0  2.419
  W  W499  1  0.679550  0.535700  0.085920  1.0  2.3038
  W  W500  1  0.684490  0.455450  0.332540  1.0  2.521
  W  W501  1  0.906730  0.504170  0.363800  1.0  1.4555
  W  W502  1  0.887700  0.371550  0.340000  1.0  1.3596
  W  W503  1  0.802100  0.371270  0.391970  1.0  1.2947
  W  W504  1  0.824360  0.503410  0.415800  1.0  1.5536
  W  W505  1  0.758640  0.328620  0.261570  1.0  2.0654
  W  W506  1  0.355070  0.127930  0.300080  1.0  1.387
  W  W507  1  0.272360  0.128040  0.353120  1.0  1.4361
  W  W508  1  0.306570  0.078420  0.161500  1.0  1.4584
  W  W509  1  0.232370  0.911350  0.146360  1.0  1.4108
  W  W510  1  0.135150  0.079680  0.271460  1.0  1.4472
  W  W511  1  0.141050  0.911940  0.204530  1.0  1.4265
  W  W512  1  0.089570  0.036480  0.143150  1.0  1.427
  W  W513  1  0.358590  0.954500  0.223000  1.0  2.419
  W  W514  1  0.179550  0.035700  0.085920  1.0  2.3038
  W  W515  1  0.184490  0.955450  0.332540  1.0  2.521
  W  W516  1  0.406730  0.004170  0.363800  1.0  1.4555
  W  W517  1  0.387700  0.871550  0.340000  1.0  1.3596
  W  W518  1  0.302100  0.871270  0.391970  1.0  1.2947
  W  W519  1  0.324360  0.003410  0.415800  1.0  1.5536
  W  W520  1  0.258640  0.828620  0.261570  1.0  2.0654
  W  W521  1  0.855070  0.372070  0.800080  1.0  1.3862
  W  W522  1  0.772360  0.371960  0.853120  1.0  1.4347
  W  W523  1  0.806570  0.421580  0.661500  1.0  1.458
  W  W524  1  0.732370  0.588650  0.646360  1.0  1.4113
  W  W525  1  0.635150  0.420320  0.771460  1.0  1.4473
  W  W526  1  0.641050  0.588060  0.704530  1.0  1.4253
  W  W527  1  0.589570  0.463520  0.643150  1.0  1.4275
  W  W528  1  0.858590  0.545500  0.723000  1.0  2.4187
  W  W529  1  0.679550  0.464300  0.585920  1.0  2.3027
  W  W530  1  0.684490  0.544550  0.832540  1.0  2.5188
  W  W531  1  0.906730  0.495830  0.863800  1.0  1.4563
  W  W532  1  0.887700  0.628450  0.840000  1.0  1.3619
  W  W533  1  0.802100  0.628730  0.891970  1.0  1.2949
  W  W534  1  0.824360  0.496590  0.915800  1.0  1.5537
  W  W535  1  0.758640  0.671380  0.761570  1.0  2.052
  W  W536  1  0.355070  0.872070  0.800080  1.0  1.3862
  W  W537  1  0.272360  0.871960  0.853120  1.0  1.4347
  W  W538  1  0.306570  0.921580  0.661500  1.0  1.458
  W  W539  1  0.232370  0.088650  0.646360  1.0  1.4113
  W  W540  1  0.135150  0.920320  0.771460  1.0  1.4473
  W  W541  1  0.141050  0.088060  0.704530  1.0  1.4253
  W  W542  1  0.089570  0.963520  0.643150  1.0  1.4275
  W  W543  1  0.358590  0.045500  0.723000  1.0  2.4187
  W  W544  1  0.179550  0.964300  0.585920  1.0  2.3027
  W  W545  1  0.184490  0.044550  0.832540  1.0  2.5188
  W  W546  1  0.406730  0.995830  0.863800  1.0  1.4563
  W  W547  1  0.387700  0.128450  0.840000  1.0  1.3619
  W  W548  1  0.302100  0.128730  0.891970  1.0  1.2949
  W  W549  1  0.324360  0.996590  0.915800  1.0  1.5537
  W  W550  1  0.258640  0.171380  0.761570  1.0  2.052
  W  W551  1  0.144930  0.372070  0.699920  1.0  1.3857
  W  W552  1  0.227640  0.371960  0.646880  1.0  1.4364
  W  W553  1  0.193430  0.421580  0.838500  1.0  1.4607
  W  W554  1  0.267630  0.588650  0.853640  1.0  1.4101
  W  W555  1  0.364850  0.420320  0.728540  1.0  1.4479
  W  W556  1  0.358950  0.588060  0.795470  1.0  1.4256
  W  W557  1  0.410430  0.463520  0.856850  1.0  1.4284
  W  W558  1  0.141410  0.545500  0.777000  1.0  2.4219
  W  W559  1  0.320450  0.464300  0.914080  1.0  2.3052
  W  W560  1  0.315510  0.544550  0.667460  1.0  2.5182
  W  W561  1  0.093270  0.495830  0.636200  1.0  1.4499
  W  W562  1  0.112300  0.628450  0.660000  1.0  1.3606
  W  W563  1  0.197900  0.628730  0.608030  1.0  1.2999
  W  W564  1  0.175640  0.496590  0.584200  1.0  1.5528
  W  W565  1  0.241360  0.671380  0.738430  1.0  2.0496
  W  W566  1  0.644930  0.872070  0.699920  1.0  1.3857
  W  W567  1  0.727640  0.871960  0.646880  1.0  1.4364
  W  W568  1  0.693430  0.921580  0.838500  1.0  1.4607
  W  W569  1  0.767630  0.088650  0.853640  1.0  1.4101
  W  W570  1  0.864850  0.920320  0.728540  1.0  1.4479
  W  W571  1  0.858950  0.088060  0.795470  1.0  1.4256
  W  W572  1  0.910430  0.963520  0.856850  1.0  1.4284
  W  W573  1  0.641410  0.045500  0.777000  1.0  2.4219
  W  W574  1  0.820450  0.964300  0.914080  1.0  2.3052
  W  W575  1  0.815510  0.044550  0.667460  1.0  2.5182
  W  W576  1  0.593270  0.995830  0.636200  1.0  1.4499
  W  W577  1  0.612300  0.128450  0.660000  1.0  1.3606
  W  W578  1  0.697900  0.128730  0.608030  1.0  1.2999
  W  W579  1  0.675640  0.996590  0.584200  1.0  1.5528
  W  W580  1  0.741360  0.171380  0.738430  1.0  2.0496
  C  C581  1  0.264700  0.714600  0.448700  1.0  0.755
  C  C582  1  0.274000  0.737900  0.501100  1.0  -0.3292
  C  C583  1  0.310400  0.770100  0.126400  1.0  -0.0119
  C  C584  1  0.521200  0.583400  0.534900  1.0  0.0083
  C  C585  1  0.460600  0.712300  0.316800  1.0  0.5087
  C  C586  1  0.098300  0.771200  0.271600  1.0  0.0597
  C  C587  1  0.084600  0.731300  0.291500  1.0  0.0529
  C  C588  1  0.315000  0.723500  0.050700  1.0  -0.3137
  C  C589  1  0.993000  0.549600  0.268000  1.0  0.0497
  C  C590  1  0.001000  0.599900  0.279000  1.0  -0.1367
  C  C591  1  0.279000  0.452200  0.521000  1.0  0.0971
  C  C592  1  0.234500  0.416900  0.490000  1.0  -0.3486
  C  C593  1  0.327700  0.432800  0.556600  1.0  -0.0175
  C  C594  1  0.327700  0.731200  0.112300  1.0  0.1019
  C  C595  1  0.536200  0.615800  0.501100  1.0  0.1212
  C  C596  1  0.584700  0.618500  0.509000  1.0  -0.3491
  C  C597  1  0.519000  0.725900  0.333000  1.0  -0.401
  C  C598  1  0.764700  0.214600  0.448700  1.0  0.755
  C  C599  1  0.774000  0.237900  0.501100  1.0  -0.3292
  C  C600  1  0.810400  0.270100  0.126400  1.0  -0.0119
  C  C601  1  0.021200  0.083400  0.534900  1.0  0.0083
  C  C602  1  0.960600  0.212300  0.316800  1.0  0.5087
  C  C603  1  0.598300  0.271200  0.271600  1.0  0.0597
  C  C604  1  0.584600  0.231300  0.291500  1.0  0.0529
  C  C605  1  0.815000  0.223500  0.050700  1.0  -0.3137
  C  C606  1  0.493000  0.049600  0.268000  1.0  0.0495
  C  C607  1  0.501000  0.099900  0.279000  1.0  -0.1367
  C  C608  1  0.779000  0.952200  0.521000  1.0  0.0971
  C  C609  1  0.734500  0.916900  0.490000  1.0  -0.3486
  C  C610  1  0.827700  0.932800  0.556600  1.0  -0.0175
  C  C611  1  0.827700  0.231200  0.112300  1.0  0.1019
  C  C612  1  0.036200  0.115800  0.501100  1.0  0.1212
  C  C613  1  0.084700  0.118500  0.509000  1.0  -0.3491
  C  C614  1  0.019000  0.225900  0.333000  1.0  -0.401
  C  C615  1  0.735300  0.714600  0.051300  1.0  0.7745
  C  C616  1  0.726000  0.737900  0.998900  1.0  -0.3284
  C  C617  1  0.689600  0.770100  0.373600  1.0  -0.0116
  C  C618  1  0.478800  0.583400  0.965100  1.0  0.008
  C  C619  1  0.539400  0.712300  0.183200  1.0  0.5095
  C  C620  1  0.901700  0.771200  0.228400  1.0  0.0594
  C  C621  1  0.915400  0.731300  0.208500  1.0  0.0483
  C  C622  1  0.685000  0.723500  0.449300  1.0  -0.3145
  C  C623  1  0.007000  0.549600  0.232000  1.0  0.0486
  C  C624  1  0.999000  0.599900  0.221000  1.0  -0.1354
  C  C625  1  0.721000  0.452200  0.979000  1.0  0.0886
  C  C626  1  0.765500  0.416900  0.010000  1.0  -0.3474
  C  C627  1  0.672300  0.432800  0.943400  1.0  -0.0182
  C  C628  1  0.672300  0.731200  0.387700  1.0  0.1038
  C  C629  1  0.463800  0.615800  0.998900  1.0  0.1198
  C  C630  1  0.415300  0.618500  0.991000  1.0  -0.3462
  C  C631  1  0.481000  0.725900  0.167000  1.0  -0.4025
  C  C632  1  0.235300  0.214600  0.051300  1.0  0.7745
  C  C633  1  0.226000  0.237900  0.998900  1.0  -0.3284
  C  C634  1  0.189600  0.270100  0.373600  1.0  -0.0116
  C  C635  1  0.978800  0.083400  0.965100  1.0  0.008
  C  C636  1  0.039400  0.212300  0.183200  1.0  0.5095
  C  C637  1  0.401700  0.271200  0.228400  1.0  0.0594
  C  C638  1  0.415400  0.231300  0.208500  1.0  0.0483
  C  C639  1  0.185000  0.223500  0.449300  1.0  -0.3145
  C  C640  1  0.507000  0.049600  0.232000  1.0  0.0486
  C  C641  1  0.499000  0.099900  0.221000  1.0  -0.1354
  C  C642  1  0.221000  0.952200  0.979000  1.0  0.0886
  C  C643  1  0.265500  0.916900  0.010000  1.0  -0.3474
  C  C644  1  0.172300  0.932800  0.943400  1.0  -0.0182
  C  C645  1  0.172300  0.231200  0.387700  1.0  0.1038
  C  C646  1  0.963800  0.115800  0.998900  1.0  0.1198
  C  C647  1  0.915300  0.118500  0.991000  1.0  -0.3462
  C  C648  1  0.981000  0.225900  0.167000  1.0  -0.4025
  C  C649  1  0.735300  0.285400  0.551300  1.0  0.7744
  C  C650  1  0.726000  0.262100  0.498900  1.0  -0.3287
  C  C651  1  0.689600  0.229900  0.873600  1.0  -0.0099
  C  C652  1  0.478800  0.416600  0.465100  1.0  0.0082
  C  C653  1  0.539400  0.287700  0.683200  1.0  0.5143
  C  C654  1  0.901700  0.228800  0.728400  1.0  0.0596
  C  C655  1  0.915400  0.268700  0.708500  1.0  0.0485
  C  C656  1  0.685000  0.276500  0.949300  1.0  -0.3148
  C  C657  1  0.007000  0.450400  0.732000  1.0  0.0509
  C  C658  1  0.999000  0.400100  0.721000  1.0  -0.1371
  C  C659  1  0.721000  0.547800  0.479000  1.0  0.0888
  C  C660  1  0.765500  0.583100  0.510000  1.0  -0.3466
  C  C661  1  0.672300  0.567200  0.443400  1.0  -0.0148
  C  C662  1  0.672300  0.268800  0.887700  1.0  0.1038
  C  C663  1  0.463800  0.384200  0.498900  1.0  0.1206
  C  C664  1  0.415300  0.381500  0.491000  1.0  -0.3468
  C  C665  1  0.481000  0.274100  0.667000  1.0  -0.4019
  C  C666  1  0.235300  0.785400  0.551300  1.0  0.7744
  C  C667  1  0.226000  0.762100  0.498900  1.0  -0.3287
  C  C668  1  0.189600  0.729900  0.873600  1.0  -0.0099
  C  C669  1  0.978800  0.916600  0.465100  1.0  0.0082
  C  C670  1  0.039400  0.787700  0.683200  1.0  0.5143
  C  C671  1  0.401700  0.728800  0.728400  1.0  0.0596
  C  C672  1  0.415400  0.768700  0.708500  1.0  0.0485
  C  C673  1  0.185000  0.776500  0.949300  1.0  -0.3148
  C  C674  1  0.507000  0.950400  0.732000  1.0  0.0509
  C  C675  1  0.499000  0.900100  0.721000  1.0  -0.1371
  C  C676  1  0.221000  0.047800  0.479000  1.0  0.0888
  C  C677  1  0.265500  0.083100  0.510000  1.0  -0.3466
  C  C678  1  0.172300  0.067200  0.443400  1.0  -0.0148
  C  C679  1  0.172300  0.768800  0.887700  1.0  0.1038
  C  C680  1  0.963800  0.884200  0.498900  1.0  0.1206
  C  C681  1  0.915300  0.881500  0.491000  1.0  -0.3468
  C  C682  1  0.981000  0.774100  0.667000  1.0  -0.4019
  C  C683  1  0.264700  0.285400  0.948700  1.0  0.7572
  C  C684  1  0.274000  0.262100  0.001100  1.0  -0.3298
  C  C685  1  0.310400  0.229900  0.626400  1.0  -0.0125
  C  C686  1  0.521200  0.416600  0.034900  1.0  0.0085
  C  C687  1  0.460600  0.287700  0.816800  1.0  0.5089
  C  C688  1  0.098300  0.228800  0.771600  1.0  0.0604
  C  C689  1  0.084600  0.268700  0.791500  1.0  0.0508
  C  C690  1  0.315000  0.276500  0.550700  1.0  -0.3143
  C  C691  1  0.993000  0.450400  0.768000  1.0  0.0511
  C  C692  1  0.001000  0.400100  0.779000  1.0  -0.1376
  C  C693  1  0.279000  0.547800  0.021000  1.0  0.0969
  C  C694  1  0.234500  0.583100  0.990000  1.0  -0.3479
  C  C695  1  0.327700  0.567200  0.056600  1.0  -0.0161
  C  C696  1  0.327700  0.268800  0.612300  1.0  0.1018
  C  C697  1  0.536200  0.384200  0.001100  1.0  0.1231
  C  C698  1  0.584700  0.381500  0.009000  1.0  -0.3493
  C  C699  1  0.519000  0.274100  0.833000  1.0  -0.4011
  C  C700  1  0.764700  0.785400  0.948700  1.0  0.7572
  C  C701  1  0.774000  0.762100  0.001100  1.0  -0.3298
  C  C702  1  0.810400  0.729900  0.626400  1.0  -0.0125
  C  C703  1  0.021200  0.916600  0.034900  1.0  0.0085
  C  C704  1  0.960600  0.787700  0.816800  1.0  0.5089
  C  C705  1  0.598300  0.728800  0.771600  1.0  0.0604
  C  C706  1  0.584600  0.768700  0.791500  1.0  0.0508
  C  C707  1  0.815000  0.776500  0.550700  1.0  -0.3143
  C  C708  1  0.493000  0.950400  0.768000  1.0  0.0511
  C  C709  1  0.501000  0.900100  0.779000  1.0  -0.1376
  C  C710  1  0.779000  0.047800  0.021000  1.0  0.0969
  C  C711  1  0.734500  0.083100  0.990000  1.0  -0.3479
  C  C712  1  0.827700  0.067200  0.056600  1.0  -0.0161
  C  C713  1  0.827700  0.768800  0.612300  1.0  0.1018
  C  C714  1  0.036200  0.884200  0.001100  1.0  0.1231
  C  C715  1  0.084700  0.881500  0.009000  1.0  -0.3493
  C  C716  1  0.019000  0.774100  0.833000  1.0  -0.4011
  N  N717  1  0.344900  0.688200  0.151500  1.0  -0.6382
  N  N718  1  0.006400  0.506200  0.302400  1.0  -0.6043
  N  N719  1  0.321400  0.770600  0.183500  1.0  -0.6357
  N  N720  1  0.374900  0.461500  0.582000  1.0  -0.6123
  N  N721  1  0.465700  0.568800  0.503400  1.0  -0.61
  N  N722  1  0.496100  0.655900  0.479200  1.0  -0.6121
  N  N723  1  0.116500  0.686400  0.304400  1.0  -0.6419
  N  N724  1  0.158700  0.769600  0.294800  1.0  -0.5985
  N  N725  1  0.272900  0.500600  0.514400  1.0  -0.653
  N  N726  1  0.844900  0.188200  0.151500  1.0  -0.6382
  N  N727  1  0.506400  0.006200  0.302400  1.0  -0.6043
  N  N728  1  0.821400  0.270600  0.183500  1.0  -0.6357
  N  N729  1  0.874900  0.961500  0.582000  1.0  -0.6123
  N  N730  1  0.965700  0.068800  0.503400  1.0  -0.61
  N  N731  1  0.996100  0.155900  0.479200  1.0  -0.6121
  N  N732  1  0.616500  0.186400  0.304400  1.0  -0.6419
  N  N733  1  0.658700  0.269600  0.294800  1.0  -0.5985
  N  N734  1  0.772900  0.000600  0.514400  1.0  -0.653
  N  N735  1  0.655100  0.688200  0.348500  1.0  -0.6402
  N  N736  1  0.993600  0.506200  0.197600  1.0  -0.6031
  N  N737  1  0.678600  0.770600  0.316500  1.0  -0.6335
  N  N738  1  0.625100  0.461500  0.918000  1.0  -0.6162
  N  N739  1  0.534300  0.568800  0.996600  1.0  -0.6091
  N  N740  1  0.503900  0.655900  0.020800  1.0  -0.6157
  N  N741  1  0.883500  0.686400  0.195600  1.0  -0.6424
  N  N742  1  0.841300  0.769600  0.205200  1.0  -0.5991
  N  N743  1  0.727100  0.500600  0.985600  1.0  -0.6531
  N  N744  1  0.155100  0.188200  0.348500  1.0  -0.6402
  N  N745  1  0.493600  0.006200  0.197600  1.0  -0.6028
  N  N746  1  0.178600  0.270600  0.316500  1.0  -0.6335
  N  N747  1  0.125100  0.961500  0.918000  1.0  -0.6162
  N  N748  1  0.034300  0.068800  0.996600  1.0  -0.6091
  N  N749  1  0.003900  0.155900  0.020800  1.0  -0.6157
  N  N750  1  0.383500  0.186400  0.195600  1.0  -0.6424
  N  N751  1  0.341300  0.269600  0.205200  1.0  -0.5991
  N  N752  1  0.227100  0.000600  0.985600  1.0  -0.6531
  N  N753  1  0.655100  0.311800  0.848500  1.0  -0.6435
  N  N754  1  0.993600  0.493800  0.697600  1.0  -0.6005
  N  N755  1  0.678600  0.229400  0.816500  1.0  -0.6345
  N  N756  1  0.625100  0.538500  0.418000  1.0  -0.6153
  N  N757  1  0.534300  0.431200  0.496600  1.0  -0.6101
  N  N758  1  0.503900  0.344100  0.520800  1.0  -0.6124
  N  N759  1  0.883500  0.313600  0.695600  1.0  -0.6437
  N  N760  1  0.841300  0.230400  0.705200  1.0  -0.5999
  N  N761  1  0.727100  0.499400  0.485600  1.0  -0.6533
  N  N762  1  0.155100  0.811800  0.848500  1.0  -0.6435
  N  N763  1  0.493600  0.993800  0.697600  1.0  -0.6005
  N  N764  1  0.178600  0.729400  0.816500  1.0  -0.6345
  N  N765  1  0.125100  0.038500  0.418000  1.0  -0.6153
  N  N766  1  0.034300  0.931200  0.496600  1.0  -0.6101
  N  N767  1  0.003900  0.844100  0.520800  1.0  -0.6124
  N  N768  1  0.383500  0.813600  0.695600  1.0  -0.6437
  N  N769  1  0.341300  0.730400  0.705200  1.0  -0.5999
  N  N770  1  0.227100  0.999400  0.485600  1.0  -0.6533
  N  N771  1  0.344900  0.311800  0.651500  1.0  -0.641
  N  N772  1  0.006400  0.493800  0.802400  1.0  -0.6042
  N  N773  1  0.321400  0.229400  0.683500  1.0  -0.6356
  N  N774  1  0.374900  0.538500  0.082000  1.0  -0.6134
  N  N775  1  0.465700  0.431200  0.003400  1.0  -0.6088
  N  N776  1  0.496100  0.344100  0.979200  1.0  -0.6106
  N  N777  1  0.116500  0.313600  0.804400  1.0  -0.6433
  N  N778  1  0.158700  0.230400  0.794800  1.0  -0.5981
  N  N779  1  0.272900  0.499400  0.014400  1.0  -0.6526
  N  N780  1  0.844900  0.811800  0.651500  1.0  -0.641
  N  N781  1  0.506400  0.993800  0.802400  1.0  -0.6042
  N  N782  1  0.821400  0.729400  0.683500  1.0  -0.6356
  N  N783  1  0.874900  0.038500  0.082000  1.0  -0.6134
  N  N784  1  0.965700  0.931200  0.003400  1.0  -0.6088
  N  N785  1  0.996100  0.844100  0.979200  1.0  -0.6106
  N  N786  1  0.616500  0.813600  0.804400  1.0  -0.6433
  N  N787  1  0.658700  0.730400  0.794800  1.0  -0.5981
  N  N788  1  0.772900  0.999400  0.014400  1.0  -0.6526
  O  O789  1  0.339800  0.598100  0.422900  1.0  -0.7771
  O  O790  1  0.347200  0.510900  0.203300  1.0  -0.7524
  O  O791  1  0.169800  0.510100  0.315000  1.0  -0.7717
  O  O792  1  0.168600  0.432000  0.079500  1.0  -0.6979
  O  O793  1  0.379700  0.680000  0.404000  1.0  -0.7625
  O  O794  1  0.263100  0.676200  0.194700  1.0  -0.745
  O  O795  1  0.300000  0.636200  0.309500  1.0  -0.7943
  O  O796  1  0.163200  0.321200  0.203400  1.0  -0.6887
  O  O797  1  0.124100  0.398200  0.227400  1.0  -0.6788
  O  O798  1  0.262800  0.270600  0.264400  1.0  -0.7061
  O  O799  1  0.219300  0.455700  0.268100  1.0  -0.7585
  O  O800  1  0.151100  0.591200  0.260000  1.0  -0.715
  O  O801  1  0.185300  0.489000  0.170700  1.0  -0.7926
  O  O802  1  0.340400  0.719500  0.290200  1.0  -0.7395
  O  O803  1  0.202100  0.400600  0.191300  1.0  -0.7642
  O  O804  1  0.228700  0.321200  0.163300  1.0  -0.6947
  O  O805  1  0.263200  0.557600  0.321300  1.0  -0.8187
  O  O806  1  0.225400  0.635900  0.351900  1.0  -0.8494
  O  O807  1  0.159300  0.643000  0.141200  1.0  -0.6793
  O  O808  1  0.324600  0.558500  0.280000  1.0  -0.8368
  O  O809  1  0.368700  0.517200  0.391300  1.0  -0.6596
  O  O810  1  0.326100  0.413300  0.339700  1.0  -0.6792
  O  O811  1  0.363800  0.417000  0.229000  1.0  -0.6696
  O  O812  1  0.303200  0.691600  0.449800  1.0  -0.5881
  O  O813  1  0.292300  0.590500  0.171200  1.0  -0.6643
  O  O814  1  0.285300  0.470100  0.384800  1.0  -0.7475
  O  O815  1  0.355000  0.517100  0.483600  1.0  -0.7289
  O  O816  1  0.185300  0.676100  0.243000  1.0  -0.7578
  O  O817  1  0.229300  0.592100  0.224500  1.0  -0.8081
  O  O818  1  0.108500  0.488900  0.208900  1.0  -0.7489
  O  O819  1  0.281100  0.455700  0.228900  1.0  -0.7706
  O  O820  1  0.267000  0.399300  0.138500  1.0  -0.694
  O  O821  1  0.306800  0.358800  0.257400  1.0  -0.7153
  O  O822  1  0.242400  0.358200  0.297800  1.0  -0.7143
  O  O823  1  0.091600  0.432500  0.128500  1.0  -0.716
  O  O824  1  0.188900  0.564800  0.109800  1.0  -0.6765
  O  O825  1  0.116000  0.565400  0.155800  1.0  -0.7222
  O  O826  1  0.387400  0.470600  0.318600  1.0  -0.7009
  O  O827  1  0.422900  0.552400  0.297200  1.0  -0.6477
  O  O828  1  0.250700  0.551300  0.405800  1.0  -0.7075
  O  O829  1  0.369900  0.637500  0.260200  1.0  -0.7753
  O  O830  1  0.085300  0.448000  0.284700  1.0  -0.8239
  O  O831  1  0.267000  0.719100  0.335700  1.0  -0.7146
  O  O832  1  0.128900  0.354100  0.102900  1.0  -0.6933
  O  O833  1  0.104100  0.505100  0.073800  1.0  -0.6648
  O  O834  1  0.342500  0.449800  0.124600  1.0  -0.7526
  O  O835  1  0.219000  0.722400  0.405200  1.0  -0.6107
  O  O836  1  0.427100  0.722000  0.265700  1.0  -0.5931
  O  O837  1  0.451800  0.691200  0.353800  1.0  -0.5747
  O  O838  1  0.249700  0.489400  0.118600  1.0  -0.6921
  O  O839  1  0.413300  0.598300  0.378700  1.0  -0.779
  O  O840  1  0.192800  0.415200  0.335700  1.0  -0.6706
  O  O841  1  0.839800  0.098100  0.422900  1.0  -0.7771
  O  O842  1  0.847200  0.010900  0.203300  1.0  -0.7524
  O  O843  1  0.669800  0.010100  0.315000  1.0  -0.7717
  O  O844  1  0.668600  0.932000  0.079500  1.0  -0.6979
  O  O845  1  0.879700  0.180000  0.404000  1.0  -0.7625
  O  O846  1  0.763100  0.176200  0.194700  1.0  -0.745
  O  O847  1  0.800000  0.136200  0.309500  1.0  -0.7943
  O  O848  1  0.663200  0.821200  0.203400  1.0  -0.6887
  O  O849  1  0.624100  0.898200  0.227400  1.0  -0.6788
  O  O850  1  0.762800  0.770600  0.264400  1.0  -0.7061
  O  O851  1  0.719300  0.955700  0.268100  1.0  -0.7585
  O  O852  1  0.651100  0.091200  0.260000  1.0  -0.715
  O  O853  1  0.685300  0.989000  0.170700  1.0  -0.7926
  O  O854  1  0.840400  0.219500  0.290200  1.0  -0.7395
  O  O855  1  0.702100  0.900600  0.191300  1.0  -0.7642
  O  O856  1  0.728700  0.821200  0.163300  1.0  -0.6947
  O  O857  1  0.763200  0.057600  0.321300  1.0  -0.8187
  O  O858  1  0.725400  0.135900  0.351900  1.0  -0.8494
  O  O859  1  0.659300  0.143000  0.141200  1.0  -0.6793
  O  O860  1  0.824600  0.058500  0.280000  1.0  -0.8368
  O  O861  1  0.868700  0.017200  0.391300  1.0  -0.6596
  O  O862  1  0.826100  0.913300  0.339700  1.0  -0.6792
  O  O863  1  0.863800  0.917000  0.229000  1.0  -0.6696
  O  O864  1  0.803200  0.191600  0.449800  1.0  -0.5881
  O  O865  1  0.792300  0.090500  0.171200  1.0  -0.6643
  O  O866  1  0.785300  0.970100  0.384800  1.0  -0.7475
  O  O867  1  0.855000  0.017100  0.483600  1.0  -0.7289
  O  O868  1  0.685300  0.176100  0.243000  1.0  -0.7578
  O  O869  1  0.729300  0.092100  0.224500  1.0  -0.8081
  O  O870  1  0.608500  0.988900  0.208900  1.0  -0.7489
  O  O871  1  0.781100  0.955700  0.228900  1.0  -0.7706
  O  O872  1  0.767000  0.899300  0.138500  1.0  -0.694
  O  O873  1  0.806800  0.858800  0.257400  1.0  -0.7153
  O  O874  1  0.742400  0.858200  0.297800  1.0  -0.7143
  O  O875  1  0.591600  0.932500  0.128500  1.0  -0.716
  O  O876  1  0.688900  0.064800  0.109800  1.0  -0.6765
  O  O877  1  0.616000  0.065400  0.155800  1.0  -0.7222
  O  O878  1  0.887400  0.970600  0.318600  1.0  -0.7009
  O  O879  1  0.922900  0.052400  0.297200  1.0  -0.6477
  O  O880  1  0.750700  0.051300  0.405800  1.0  -0.7075
  O  O881  1  0.869900  0.137500  0.260200  1.0  -0.7753
  O  O882  1  0.585300  0.948000  0.284700  1.0  -0.8239
  O  O883  1  0.767000  0.219100  0.335700  1.0  -0.7146
  O  O884  1  0.628900  0.854100  0.102900  1.0  -0.6933
  O  O885  1  0.604100  0.005100  0.073800  1.0  -0.6648
  O  O886  1  0.842500  0.949800  0.124600  1.0  -0.7526
  O  O887  1  0.719000  0.222400  0.405200  1.0  -0.6107
  O  O888  1  0.927100  0.222000  0.265700  1.0  -0.5931
  O  O889  1  0.951800  0.191200  0.353800  1.0  -0.5745
  O  O890  1  0.749700  0.989400  0.118600  1.0  -0.6921
  O  O891  1  0.913300  0.098300  0.378700  1.0  -0.779
  O  O892  1  0.692800  0.915200  0.335700  1.0  -0.6706
  O  O893  1  0.660200  0.598100  0.077100  1.0  -0.7795
  O  O894  1  0.652800  0.510900  0.296700  1.0  -0.7521
  O  O895  1  0.830200  0.510100  0.185000  1.0  -0.7744
  O  O896  1  0.831400  0.432000  0.420500  1.0  -0.6995
  O  O897  1  0.620300  0.680000  0.096000  1.0  -0.7632
  O  O898  1  0.736900  0.676200  0.305300  1.0  -0.7455
  O  O899  1  0.700000  0.636200  0.190500  1.0  -0.7942
  O  O900  1  0.836800  0.321200  0.296600  1.0  -0.6897
  O  O901  1  0.875900  0.398200  0.272600  1.0  -0.6792
  O  O902  1  0.737200  0.270600  0.235600  1.0  -0.7091
  O  O903  1  0.780700  0.455700  0.231900  1.0  -0.7561
  O  O904  1  0.848900  0.591200  0.240000  1.0  -0.7144
  O  O905  1  0.814700  0.489000  0.329300  1.0  -0.7929
  O  O906  1  0.659600  0.719500  0.209800  1.0  -0.7386
  O  O907  1  0.797900  0.400600  0.308700  1.0  -0.7649
  O  O908  1  0.771300  0.321200  0.336700  1.0  -0.6923
  O  O909  1  0.736800  0.557600  0.178700  1.0  -0.8186
  O  O910  1  0.774600  0.635900  0.148100  1.0  -0.8489
  O  O911  1  0.840700  0.643000  0.358800  1.0  -0.6822
  O  O912  1  0.675400  0.558500  0.220000  1.0  -0.8373
  O  O913  1  0.631300  0.517200  0.108700  1.0  -0.6595
  O  O914  1  0.673900  0.413300  0.160300  1.0  -0.6785
  O  O915  1  0.636200  0.417000  0.271000  1.0  -0.6715
  O  O916  1  0.696800  0.691600  0.050200  1.0  -0.5902
  O  O917  1  0.707700  0.590500  0.328800  1.0  -0.6633
  O  O918  1  0.714700  0.470100  0.115200  1.0  -0.7487
  O  O919  1  0.645000  0.517100  0.016400  1.0  -0.7303
  O  O920  1  0.814700  0.676100  0.257000  1.0  -0.7556
  O  O921  1  0.770700  0.592100  0.275500  1.0  -0.8083
  O  O922  1  0.891500  0.488900  0.291100  1.0  -0.7456
  O  O923  1  0.718900  0.455700  0.271100  1.0  -0.769
  O  O924  1  0.733000  0.399300  0.361500  1.0  -0.6978
  O  O925  1  0.693200  0.358800  0.242600  1.0  -0.7168
  O  O926  1  0.757600  0.358200  0.202200  1.0  -0.7154
  O  O927  1  0.908400  0.432500  0.371500  1.0  -0.7126
  O  O928  1  0.811100  0.564800  0.390200  1.0  -0.6735
  O  O929  1  0.884000  0.565400  0.344200  1.0  -0.7242
  O  O930  1  0.612600  0.470600  0.181400  1.0  -0.6998
  O  O931  1  0.577100  0.552400  0.202800  1.0  -0.648
  O  O932  1  0.749300  0.551300  0.094200  1.0  -0.7076
  O  O933  1  0.630100  0.637500  0.239800  1.0  -0.775
  O  O934  1  0.914700  0.448000  0.215300  1.0  -0.8241
  O  O935  1  0.733000  0.719100  0.164300  1.0  -0.7144
  O  O936  1  0.871100  0.354100  0.397100  1.0  -0.6969
  O  O937  1  0.895900  0.505100  0.426200  1.0  -0.6681
  O  O938  1  0.657500  0.449800  0.375400  1.0  -0.7523
  O  O939  1  0.781000  0.722400  0.094800  1.0  -0.6108
  O  O940  1  0.572900  0.722000  0.234300  1.0  -0.5924
  O  O941  1  0.548200  0.691200  0.146200  1.0  -0.5733
  O  O942  1  0.750300  0.489400  0.381400  1.0  -0.6925
  O  O943  1  0.586700  0.598300  0.121300  1.0  -0.7803
  O  O944  1  0.807200  0.415200  0.164300  1.0  -0.6715
  O  O945  1  0.160200  0.098100  0.077100  1.0  -0.7795
  O  O946  1  0.152800  0.010900  0.296700  1.0  -0.7521
  O  O947  1  0.330200  0.010100  0.185000  1.0  -0.7744
  O  O948  1  0.331400  0.932000  0.420500  1.0  -0.6995
  O  O949  1  0.120300  0.180000  0.096000  1.0  -0.7632
  O  O950  1  0.236900  0.176200  0.305300  1.0  -0.7455
  O  O951  1  0.200000  0.136200  0.190500  1.0  -0.7942
  O  O952  1  0.336800  0.821200  0.296600  1.0  -0.6897
  O  O953  1  0.375900  0.898200  0.272600  1.0  -0.6792
  O  O954  1  0.237200  0.770600  0.235600  1.0  -0.7091
  O  O955  1  0.280700  0.955700  0.231900  1.0  -0.7561
  O  O956  1  0.348900  0.091200  0.240000  1.0  -0.7144
  O  O957  1  0.314700  0.989000  0.329300  1.0  -0.7929
  O  O958  1  0.159600  0.219500  0.209800  1.0  -0.7386
  O  O959  1  0.297900  0.900600  0.308700  1.0  -0.7649
  O  O960  1  0.271300  0.821200  0.336700  1.0  -0.6923
  O  O961  1  0.236800  0.057600  0.178700  1.0  -0.8186
  O  O962  1  0.274600  0.135900  0.148100  1.0  -0.8489
  O  O963  1  0.340700  0.143000  0.358800  1.0  -0.6822
  O  O964  1  0.175400  0.058500  0.220000  1.0  -0.8373
  O  O965  1  0.131300  0.017200  0.108700  1.0  -0.6595
  O  O966  1  0.173900  0.913300  0.160300  1.0  -0.6785
  O  O967  1  0.136200  0.917000  0.271000  1.0  -0.6715
  O  O968  1  0.196800  0.191600  0.050200  1.0  -0.5902
  O  O969  1  0.207700  0.090500  0.328800  1.0  -0.6633
  O  O970  1  0.214700  0.970100  0.115200  1.0  -0.7487
  O  O971  1  0.145000  0.017100  0.016400  1.0  -0.7303
  O  O972  1  0.314700  0.176100  0.257000  1.0  -0.7556
  O  O973  1  0.270700  0.092100  0.275500  1.0  -0.8083
  O  O974  1  0.391500  0.988900  0.291100  1.0  -0.7456
  O  O975  1  0.218900  0.955700  0.271100  1.0  -0.769
  O  O976  1  0.233000  0.899300  0.361500  1.0  -0.6978
  O  O977  1  0.193200  0.858800  0.242600  1.0  -0.7168
  O  O978  1  0.257600  0.858200  0.202200  1.0  -0.7154
  O  O979  1  0.408400  0.932500  0.371500  1.0  -0.7126
  O  O980  1  0.311100  0.064800  0.390200  1.0  -0.6735
  O  O981  1  0.384000  0.065400  0.344200  1.0  -0.7242
  O  O982  1  0.112600  0.970600  0.181400  1.0  -0.6998
  O  O983  1  0.077100  0.052400  0.202800  1.0  -0.648
  O  O984  1  0.249300  0.051300  0.094200  1.0  -0.7076
  O  O985  1  0.130100  0.137500  0.239800  1.0  -0.775
  O  O986  1  0.414700  0.948000  0.215300  1.0  -0.8241
  O  O987  1  0.233000  0.219100  0.164300  1.0  -0.7144
  O  O988  1  0.371100  0.854100  0.397100  1.0  -0.6969
  O  O989  1  0.395900  0.005100  0.426200  1.0  -0.6681
  O  O990  1  0.157500  0.949800  0.375400  1.0  -0.7523
  O  O991  1  0.281000  0.222400  0.094800  1.0  -0.6108
  O  O992  1  0.072900  0.222000  0.234300  1.0  -0.5924
  O  O993  1  0.048200  0.191200  0.146200  1.0  -0.5733
  O  O994  1  0.250300  0.989400  0.381400  1.0  -0.6925
  O  O995  1  0.086700  0.098300  0.121300  1.0  -0.7803
  O  O996  1  0.307200  0.915200  0.164300  1.0  -0.6715
  O  O997  1  0.660200  0.401900  0.577100  1.0  -0.7778
  O  O998  1  0.652800  0.489100  0.796700  1.0  -0.7547
  O  O999  1  0.830200  0.489900  0.685000  1.0  -0.7727
  O  O1000  1  0.831400  0.568000  0.920500  1.0  -0.6996
  O  O1001  1  0.620300  0.320000  0.596000  1.0  -0.7599
  O  O1002  1  0.736900  0.323800  0.805300  1.0  -0.7452
  O  O1003  1  0.700000  0.363800  0.690500  1.0  -0.7945
  O  O1004  1  0.836800  0.678800  0.796600  1.0  -0.6905
  O  O1005  1  0.875900  0.601800  0.772600  1.0  -0.6798
  O  O1006  1  0.737200  0.729400  0.735600  1.0  -0.709
  O  O1007  1  0.780700  0.544300  0.731900  1.0  -0.756
  O  O1008  1  0.848900  0.408800  0.740000  1.0  -0.7153
  O  O1009  1  0.814700  0.511000  0.829300  1.0  -0.7946
  O  O1010  1  0.659600  0.280500  0.709800  1.0  -0.7402
  O  O1011  1  0.797900  0.599400  0.808700  1.0  -0.7653
  O  O1012  1  0.771300  0.678800  0.836700  1.0  -0.6911
  O  O1013  1  0.736800  0.442400  0.678700  1.0  -0.8187
  O  O1014  1  0.774600  0.364100  0.648100  1.0  -0.8487
  O  O1015  1  0.840700  0.357000  0.858800  1.0  -0.6821
  O  O1016  1  0.675400  0.441500  0.720000  1.0  -0.8368
  O  O1017  1  0.631300  0.482800  0.608700  1.0  -0.6611
  O  O1018  1  0.673900  0.586700  0.660300  1.0  -0.6779
  O  O1019  1  0.636200  0.583000  0.771000  1.0  -0.6718
  O  O1020  1  0.696800  0.308400  0.550200  1.0  -0.5901
  O  O1021  1  0.707700  0.409500  0.828800  1.0  -0.6639
  O  O1022  1  0.714700  0.529900  0.615200  1.0  -0.7489
  O  O1023  1  0.645000  0.482900  0.516400  1.0  -0.7301
  O  O1024  1  0.814700  0.323900  0.757000  1.0  -0.7562
  O  O1025  1  0.770700  0.407900  0.775500  1.0  -0.8081
  O  O1026  1  0.891500  0.511100  0.791100  1.0  -0.7471
  O  O1027  1  0.718900  0.544300  0.771100  1.0  -0.7694
  O  O1028  1  0.733000  0.600700  0.861500  1.0  -0.6966
  O  O1029  1  0.693200  0.641200  0.742600  1.0  -0.7176
  O  O1030  1  0.757600  0.641800  0.702200  1.0  -0.7159
  O  O1031  1  0.908400  0.567500  0.871500  1.0  -0.7128
  O  O1032  1  0.811100  0.435200  0.890200  1.0  -0.6741
  O  O1033  1  0.884000  0.434600  0.844200  1.0  -0.724
  O  O1034  1  0.612600  0.529400  0.681400  1.0  -0.7001
  O  O1035  1  0.577100  0.447600  0.702800  1.0  -0.6475
  O  O1036  1  0.749300  0.448700  0.594200  1.0  -0.7073
  O  O1037  1  0.630100  0.362500  0.739800  1.0  -0.7752
  O  O1038  1  0.914700  0.552000  0.715300  1.0  -0.8253
  O  O1039  1  0.733000  0.280900  0.664300  1.0  -0.7161
  O  O1040  1  0.871100  0.645900  0.897100  1.0  -0.6957
  O  O1041  1  0.895900  0.494900  0.926200  1.0  -0.6676
  O  O1042  1  0.657500  0.550200  0.875400  1.0  -0.7537
  O  O1043  1  0.781000  0.277600  0.594800  1.0  -0.6112
  O  O1044  1  0.572900  0.278000  0.734300  1.0  -0.5929
  O  O1045  1  0.548200  0.308800  0.646200  1.0  -0.5739
  O  O1046  1  0.750300  0.510600  0.881400  1.0  -0.6957
  O  O1047  1  0.586700  0.401700  0.621300  1.0  -0.7801
  O  O1048  1  0.807200  0.584800  0.664300  1.0  -0.6718
  O  O1049  1  0.160200  0.901900  0.577100  1.0  -0.7778
  O  O1050  1  0.152800  0.989100  0.796700  1.0  -0.7547
  O  O1051  1  0.330200  0.989900  0.685000  1.0  -0.7727
  O  O1052  1  0.331400  0.068000  0.920500  1.0  -0.6996
  O  O1053  1  0.120300  0.820000  0.596000  1.0  -0.7599
  O  O1054  1  0.236900  0.823800  0.805300  1.0  -0.7452
  O  O1055  1  0.200000  0.863800  0.690500  1.0  -0.7945
  O  O1056  1  0.336800  0.178800  0.796600  1.0  -0.6905
  O  O1057  1  0.375900  0.101800  0.772600  1.0  -0.6798
  O  O1058  1  0.237200  0.229400  0.735600  1.0  -0.709
  O  O1059  1  0.280700  0.044300  0.731900  1.0  -0.756
  O  O1060  1  0.348900  0.908800  0.740000  1.0  -0.7153
  O  O1061  1  0.314700  0.011000  0.829300  1.0  -0.7946
  O  O1062  1  0.159600  0.780500  0.709800  1.0  -0.7402
  O  O1063  1  0.297900  0.099400  0.808700  1.0  -0.7653
  O  O1064  1  0.271300  0.178800  0.836700  1.0  -0.6911
  O  O1065  1  0.236800  0.942400  0.678700  1.0  -0.8187
  O  O1066  1  0.274600  0.864100  0.648100  1.0  -0.8487
  O  O1067  1  0.340700  0.857000  0.858800  1.0  -0.6821
  O  O1068  1  0.175400  0.941500  0.720000  1.0  -0.8368
  O  O1069  1  0.131300  0.982800  0.608700  1.0  -0.6611
  O  O1070  1  0.173900  0.086700  0.660300  1.0  -0.6779
  O  O1071  1  0.136200  0.083000  0.771000  1.0  -0.6718
  O  O1072  1  0.196800  0.808400  0.550200  1.0  -0.5901
  O  O1073  1  0.207700  0.909500  0.828800  1.0  -0.6639
  O  O1074  1  0.214700  0.029900  0.615200  1.0  -0.7489
  O  O1075  1  0.145000  0.982900  0.516400  1.0  -0.7301
  O  O1076  1  0.314700  0.823900  0.757000  1.0  -0.7562
  O  O1077  1  0.270700  0.907900  0.775500  1.0  -0.8081
  O  O1078  1  0.391500  0.011100  0.791100  1.0  -0.7471
  O  O1079  1  0.218900  0.044300  0.771100  1.0  -0.7694
  O  O1080  1  0.233000  0.100700  0.861500  1.0  -0.6966
  O  O1081  1  0.193200  0.141200  0.742600  1.0  -0.7176
  O  O1082  1  0.257600  0.141800  0.702200  1.0  -0.7159
  O  O1083  1  0.408400  0.067500  0.871500  1.0  -0.7128
  O  O1084  1  0.311100  0.935200  0.890200  1.0  -0.6741
  O  O1085  1  0.384000  0.934600  0.844200  1.0  -0.724
  O  O1086  1  0.112600  0.029400  0.681400  1.0  -0.7001
  O  O1087  1  0.077100  0.947600  0.702800  1.0  -0.6475
  O  O1088  1  0.249300  0.948700  0.594200  1.0  -0.7073
  O  O1089  1  0.130100  0.862500  0.739800  1.0  -0.7752
  O  O1090  1  0.414700  0.052000  0.715300  1.0  -0.8253
  O  O1091  1  0.233000  0.780900  0.664300  1.0  -0.7161
  O  O1092  1  0.371100  0.145900  0.897100  1.0  -0.6957
  O  O1093  1  0.395900  0.994900  0.926200  1.0  -0.6676
  O  O1094  1  0.157500  0.050200  0.875400  1.0  -0.7537
  O  O1095  1  0.281000  0.777600  0.594800  1.0  -0.6112
  O  O1096  1  0.072900  0.778000  0.734300  1.0  -0.5929
  O  O1097  1  0.048200  0.808800  0.646200  1.0  -0.5738
  O  O1098  1  0.250300  0.010600  0.881400  1.0  -0.6957
  O  O1099  1  0.086700  0.901700  0.621300  1.0  -0.7801
  O  O1100  1  0.307200  0.084800  0.664300  1.0  -0.6718
  O  O1101  1  0.339800  0.401900  0.922900  1.0  -0.7767
  O  O1102  1  0.347200  0.489100  0.703300  1.0  -0.7543
  O  O1103  1  0.169800  0.489900  0.815000  1.0  -0.7714
  O  O1104  1  0.168600  0.568000  0.579500  1.0  -0.6994
  O  O1105  1  0.379700  0.320000  0.904000  1.0  -0.7612
  O  O1106  1  0.263100  0.323800  0.694700  1.0  -0.7445
  O  O1107  1  0.300000  0.363800  0.809500  1.0  -0.7943
  O  O1108  1  0.163200  0.678800  0.703400  1.0  -0.6882
  O  O1109  1  0.124100  0.601800  0.727400  1.0  -0.6793
  O  O1110  1  0.262800  0.729400  0.764400  1.0  -0.7056
  O  O1111  1  0.219300  0.544300  0.768100  1.0  -0.7578
  O  O1112  1  0.151100  0.408800  0.760000  1.0  -0.7156
  O  O1113  1  0.185300  0.511000  0.670700  1.0  -0.7937
  O  O1114  1  0.340400  0.280500  0.790200  1.0  -0.741
  O  O1115  1  0.202100  0.599400  0.691300  1.0  -0.7639
  O  O1116  1  0.228700  0.678800  0.663300  1.0  -0.6936
  O  O1117  1  0.263200  0.442400  0.821300  1.0  -0.8187
  O  O1118  1  0.225400  0.364100  0.851900  1.0  -0.849
  O  O1119  1  0.159300  0.357000  0.641200  1.0  -0.678
  O  O1120  1  0.324600  0.441500  0.780000  1.0  -0.8358
  O  O1121  1  0.368700  0.482800  0.891300  1.0  -0.6614
  O  O1122  1  0.326100  0.586700  0.839700  1.0  -0.6794
  O  O1123  1  0.363800  0.583000  0.729000  1.0  -0.6704
  O  O1124  1  0.303200  0.308400  0.949800  1.0  -0.5877
  O  O1125  1  0.292300  0.409500  0.671200  1.0  -0.6652
  O  O1126  1  0.285300  0.529900  0.884800  1.0  -0.7477
  O  O1127  1  0.355000  0.482900  0.983600  1.0  -0.7287
  O  O1128  1  0.185300  0.323900  0.743000  1.0  -0.7586
  O  O1129  1  0.229300  0.407900  0.724500  1.0  -0.8081
  O  O1130  1  0.108500  0.511100  0.708900  1.0  -0.7495
  O  O1131  1  0.281100  0.544300  0.728900  1.0  -0.7709
  O  O1132  1  0.267000  0.600700  0.638500  1.0  -0.694
  O  O1133  1  0.306800  0.641200  0.757400  1.0  -0.7161
  O  O1134  1  0.242400  0.641800  0.797800  1.0  -0.7146
  O  O1135  1  0.091600  0.567500  0.628500  1.0  -0.7163
  O  O1136  1  0.188900  0.435200  0.609800  1.0  -0.677
  O  O1137  1  0.116000  0.434600  0.655800  1.0  -0.7204
  O  O1138  1  0.387400  0.529400  0.818600  1.0  -0.7032
  O  O1139  1  0.422900  0.447600  0.797200  1.0  -0.6484
  O  O1140  1  0.250700  0.448700  0.905800  1.0  -0.7076
  O  O1141  1  0.369900  0.362500  0.760200  1.0  -0.7755
  O  O1142  1  0.085300  0.552000  0.784700  1.0  -0.8239
  O  O1143  1  0.267000  0.280900  0.835700  1.0  -0.7165
  O  O1144  1  0.128900  0.645900  0.602900  1.0  -0.6936
  O  O1145  1  0.104100  0.494900  0.573800  1.0  -0.6643
  O  O1146  1  0.342500  0.550200  0.624600  1.0  -0.7523
  O  O1147  1  0.219000  0.277600  0.905200  1.0  -0.6109
  O  O1148  1  0.427100  0.278000  0.765700  1.0  -0.5932
  O  O1149  1  0.451800  0.308800  0.853800  1.0  -0.5751
  O  O1150  1  0.249700  0.510600  0.618600  1.0  -0.696
  O  O1151  1  0.413300  0.401700  0.878700  1.0  -0.7796
  O  O1152  1  0.192800  0.584800  0.835700  1.0  -0.6701
  O  O1153  1  0.839800  0.901900  0.922900  1.0  -0.7767
  O  O1154  1  0.847200  0.989100  0.703300  1.0  -0.7543
  O  O1155  1  0.669800  0.989900  0.815000  1.0  -0.7714
  O  O1156  1  0.668600  0.068000  0.579500  1.0  -0.6994
  O  O1157  1  0.879700  0.820000  0.904000  1.0  -0.7612
  O  O1158  1  0.763100  0.823800  0.694700  1.0  -0.7445
  O  O1159  1  0.800000  0.863800  0.809500  1.0  -0.7943
  O  O1160  1  0.663200  0.178800  0.703400  1.0  -0.6882
  O  O1161  1  0.624100  0.101800  0.727400  1.0  -0.6793
  O  O1162  1  0.762800  0.229400  0.764400  1.0  -0.7056
  O  O1163  1  0.719300  0.044300  0.768100  1.0  -0.7578
  O  O1164  1  0.651100  0.908800  0.760000  1.0  -0.7156
  O  O1165  1  0.685300  0.011000  0.670700  1.0  -0.7937
  O  O1166  1  0.840400  0.780500  0.790200  1.0  -0.741
  O  O1167  1  0.702100  0.099400  0.691300  1.0  -0.7639
  O  O1168  1  0.728700  0.178800  0.663300  1.0  -0.6936
  O  O1169  1  0.763200  0.942400  0.821300  1.0  -0.8187
  O  O1170  1  0.725400  0.864100  0.851900  1.0  -0.849
  O  O1171  1  0.659300  0.857000  0.641200  1.0  -0.678
  O  O1172  1  0.824600  0.941500  0.780000  1.0  -0.8358
  O  O1173  1  0.868700  0.982800  0.891300  1.0  -0.6614
  O  O1174  1  0.826100  0.086700  0.839700  1.0  -0.6794
  O  O1175  1  0.863800  0.083000  0.729000  1.0  -0.6704
  O  O1176  1  0.803200  0.808400  0.949800  1.0  -0.5877
  O  O1177  1  0.792300  0.909500  0.671200  1.0  -0.6652
  O  O1178  1  0.785300  0.029900  0.884800  1.0  -0.7477
  O  O1179  1  0.855000  0.982900  0.983600  1.0  -0.7287
  O  O1180  1  0.685300  0.823900  0.743000  1.0  -0.7586
  O  O1181  1  0.729300  0.907900  0.724500  1.0  -0.8081
  O  O1182  1  0.608500  0.011100  0.708900  1.0  -0.7495
  O  O1183  1  0.781100  0.044300  0.728900  1.0  -0.7709
  O  O1184  1  0.767000  0.100700  0.638500  1.0  -0.694
  O  O1185  1  0.806800  0.141200  0.757400  1.0  -0.7161
  O  O1186  1  0.742400  0.141800  0.797800  1.0  -0.7146
  O  O1187  1  0.591600  0.067500  0.628500  1.0  -0.7163
  O  O1188  1  0.688900  0.935200  0.609800  1.0  -0.677
  O  O1189  1  0.616000  0.934600  0.655800  1.0  -0.7204
  O  O1190  1  0.887400  0.029400  0.818600  1.0  -0.7032
  O  O1191  1  0.922900  0.947600  0.797200  1.0  -0.6484
  O  O1192  1  0.750700  0.948700  0.905800  1.0  -0.7076
  O  O1193  1  0.869900  0.862500  0.760200  1.0  -0.7755
  O  O1194  1  0.585300  0.052000  0.784700  1.0  -0.8239
  O  O1195  1  0.767000  0.780900  0.835700  1.0  -0.7165
  O  O1196  1  0.628900  0.145900  0.602900  1.0  -0.6936
  O  O1197  1  0.604100  0.994900  0.573800  1.0  -0.6643
  O  O1198  1  0.842500  0.050200  0.624600  1.0  -0.7523
  O  O1199  1  0.719000  0.777600  0.905200  1.0  -0.6109
  O  O1200  1  0.927100  0.778000  0.765700  1.0  -0.5932
  O  O1201  1  0.951800  0.808800  0.853800  1.0  -0.5746
  O  O1202  1  0.749700  0.010600  0.618600  1.0  -0.696
  O  O1203  1  0.913300  0.901700  0.878700  1.0  -0.7796
  O  O1204  1  0.692800  0.084800  0.835700  1.0  -0.6701
