# generated using pymatgen
data_Ce4H45C81O19
_symmetry_space_group_name_H-M   'P 1'
_cell_length_a   46.07200000
_cell_length_b   35.83100000
_cell_length_c   28.60800000
_cell_angle_alpha   90.00000000
_cell_angle_beta   90.00000000
_cell_angle_gamma   90.00000000
_symmetry_Int_Tables_number   1
_chemical_formula_structural   Ce4H45C81O19
_chemical_formula_sum   'Ce32 H360 C648 O152'
_cell_volume   47226.25324186
_cell_formula_units_Z   8
loop_
 _symmetry_equiv_pos_site_id
 _symmetry_equiv_pos_as_xyz
  1  'x, y, z'
loop_
 _atom_site_type_symbol
 _atom_site_label
 _atom_site_symmetry_multiplicity
 _atom_site_fract_x
 _atom_site_fract_y
 _atom_site_fract_z
 _atom_site_occupancy
 _atom_site_charge
  Ce  Ce1  1  0.169350  0.115220  0.235850  1.0  2.0435
  Ce  Ce2  1  0.669350  0.615220  0.235850  1.0  2.0435
  Ce  Ce3  1  0.830650  0.384780  0.735850  1.0  2.0469
  Ce  Ce4  1  0.330650  0.884780  0.735850  1.0  2.0469
  Ce  Ce5  1  0.830650  0.615220  0.264150  1.0  2.047
  Ce  Ce6  1  0.330650  0.115220  0.264150  1.0  2.047
  Ce  Ce7  1  0.169350  0.884780  0.764150  1.0  2.0437
  Ce  Ce8  1  0.669350  0.384780  0.764150  1.0  2.0437
  Ce  Ce9  1  0.830650  0.884780  0.764150  1.0  2.0468
  Ce  Ce10  1  0.330650  0.384780  0.764150  1.0  2.0468
  Ce  Ce11  1  0.169350  0.615220  0.264150  1.0  2.0438
  Ce  Ce12  1  0.669350  0.115220  0.264150  1.0  2.0438
  Ce  Ce13  1  0.169350  0.384780  0.735850  1.0  2.0437
  Ce  Ce14  1  0.669350  0.884780  0.735850  1.0  2.0437
  Ce  Ce15  1  0.830650  0.115220  0.235850  1.0  2.0469
  Ce  Ce16  1  0.330650  0.615220  0.235850  1.0  2.0469
  Ce  Ce17  1  0.250000  0.154030  0.250000  1.0  2.21
  Ce  Ce18  1  0.750000  0.345970  0.750000  1.0  2.2101
  Ce  Ce19  1  0.750000  0.654030  0.250000  1.0  2.21
  Ce  Ce20  1  0.250000  0.845970  0.750000  1.0  2.2101
  Ce  Ce21  1  0.750000  0.845970  0.750000  1.0  2.2101
  Ce  Ce22  1  0.250000  0.654030  0.250000  1.0  2.21
  Ce  Ce23  1  0.250000  0.345970  0.750000  1.0  2.2101
  Ce  Ce24  1  0.750000  0.154030  0.250000  1.0  2.21
  Ce  Ce25  1  0.500000  0.944900  0.529400  1.0  1.5238
  Ce  Ce26  1  0.000000  0.444900  0.529400  1.0  1.5132
  Ce  Ce27  1  0.500000  0.555100  0.029400  1.0  1.5249
  Ce  Ce28  1  0.000000  0.055100  0.029400  1.0  1.5295
  Ce  Ce29  1  0.500000  0.444900  0.970600  1.0  1.5223
  Ce  Ce30  1  0.000000  0.944900  0.970600  1.0  1.5276
  Ce  Ce31  1  0.500000  0.055100  0.470600  1.0  1.524
  Ce  Ce32  1  0.000000  0.555100  0.470600  1.0  1.5143
  H  H33  1  0.196800  0.194600  0.946400  1.0  0.111
  H  H34  1  0.172500  0.136800  0.832300  1.0  0.1135
  H  H35  1  0.186700  0.084400  0.953000  1.0  0.0949
  H  H36  1  0.234500  0.177100  0.001700  1.0  0.1057
  H  H37  1  0.247500  0.178200  0.080300  1.0  0.1043
  H  H38  1  0.185600  0.106000  0.110600  1.0  0.0881
  H  H39  1  0.170100  0.105600  0.033500  1.0  0.0987
  H  H40  1  0.220900  0.228500  0.879500  1.0  0.1227
  H  H41  1  0.216800  0.284400  0.838800  1.0  0.0904
  H  H42  1  0.141300  0.253500  0.786800  1.0  0.1068
  H  H43  1  0.146000  0.196800  0.824500  1.0  0.1056
  H  H44  1  0.193900  0.080800  0.808000  1.0  0.1095
  H  H45  1  0.189500  0.022800  0.770600  1.0  0.1108
  H  H46  1  0.145500  0.986600  0.882900  1.0  0.0982
  H  H47  1  0.150700  0.043700  0.917400  1.0  0.0794
  H  H48  1  0.258400  0.060400  0.316500  1.0  0.0904
  H  H49  1  0.283800  0.029200  0.375600  1.0  0.1117
  H  H50  1  0.218400  0.052000  0.462900  1.0  0.1083
  H  H51  1  0.193800  0.082700  0.405000  1.0  0.1191
  H  H52  1  0.309800  0.030500  0.442300  1.0  0.0963
  H  H53  1  0.352400  0.049500  0.469300  1.0  0.0919
  H  H54  1  0.400400  0.050400  0.469900  1.0  0.1017
  H  H55  1  0.696800  0.694600  0.946400  1.0  0.111
  H  H56  1  0.672500  0.636800  0.832300  1.0  0.1135
  H  H57  1  0.686700  0.584400  0.953000  1.0  0.0949
  H  H58  1  0.734500  0.677100  0.001700  1.0  0.1057
  H  H59  1  0.747500  0.678200  0.080300  1.0  0.1043
  H  H60  1  0.685600  0.606000  0.110600  1.0  0.0881
  H  H61  1  0.670100  0.605600  0.033500  1.0  0.0987
  H  H62  1  0.720900  0.728500  0.879500  1.0  0.1227
  H  H63  1  0.716800  0.784400  0.838800  1.0  0.0904
  H  H64  1  0.641300  0.753500  0.786800  1.0  0.1073
  H  H65  1  0.646000  0.696800  0.824500  1.0  0.1056
  H  H66  1  0.693900  0.580800  0.808000  1.0  0.1095
  H  H67  1  0.689500  0.522800  0.770600  1.0  0.1108
  H  H68  1  0.645500  0.486600  0.882900  1.0  0.0982
  H  H69  1  0.650700  0.543700  0.917400  1.0  0.0794
  H  H70  1  0.758400  0.560400  0.316500  1.0  0.0904
  H  H71  1  0.783800  0.529200  0.375600  1.0  0.1117
  H  H72  1  0.718400  0.552000  0.462900  1.0  0.1083
  H  H73  1  0.693800  0.582700  0.405000  1.0  0.1213
  H  H74  1  0.809800  0.530500  0.442300  1.0  0.0963
  H  H75  1  0.852400  0.549500  0.469300  1.0  0.0919
  H  H76  1  0.900400  0.550400  0.469900  1.0  0.1017
  H  H77  1  0.803200  0.305400  0.446400  1.0  0.111
  H  H78  1  0.827500  0.363200  0.332300  1.0  0.1138
  H  H79  1  0.813300  0.415600  0.453000  1.0  0.0949
  H  H80  1  0.765500  0.322900  0.501700  1.0  0.1045
  H  H81  1  0.752500  0.321800  0.580300  1.0  0.1039
  H  H82  1  0.814400  0.394000  0.610600  1.0  0.0875
  H  H83  1  0.829900  0.394400  0.533500  1.0  0.0994
  H  H84  1  0.779100  0.271500  0.379500  1.0  0.1229
  H  H85  1  0.783200  0.215600  0.338800  1.0  0.0905
  H  H86  1  0.858700  0.246500  0.286800  1.0  0.1079
  H  H87  1  0.854000  0.303200  0.324500  1.0  0.1059
  H  H88  1  0.806100  0.419200  0.308000  1.0  0.1089
  H  H89  1  0.810500  0.477200  0.270600  1.0  0.1112
  H  H90  1  0.854500  0.513400  0.382900  1.0  0.0994
  H  H91  1  0.849300  0.456300  0.417400  1.0  0.0791
  H  H92  1  0.741600  0.439600  0.816500  1.0  0.0905
  H  H93  1  0.716200  0.470800  0.875600  1.0  0.1126
  H  H94  1  0.781600  0.448000  0.962900  1.0  0.1013
  H  H95  1  0.806200  0.417300  0.905000  1.0  0.1198
  H  H96  1  0.690200  0.469500  0.942300  1.0  0.096
  H  H97  1  0.647600  0.450500  0.969300  1.0  0.0923
  H  H98  1  0.599600  0.449600  0.969900  1.0  0.1012
  H  H99  1  0.303200  0.805400  0.446400  1.0  0.111
  H  H100  1  0.327500  0.863200  0.332300  1.0  0.1138
  H  H101  1  0.313300  0.915600  0.453000  1.0  0.0949
  H  H102  1  0.265500  0.822900  0.501700  1.0  0.1045
  H  H103  1  0.252500  0.821800  0.580300  1.0  0.1039
  H  H104  1  0.314400  0.894000  0.610600  1.0  0.0875
  H  H105  1  0.329900  0.894400  0.533500  1.0  0.0994
  H  H106  1  0.279100  0.771500  0.379500  1.0  0.1229
  H  H107  1  0.283200  0.715600  0.338800  1.0  0.0905
  H  H108  1  0.358700  0.746500  0.286800  1.0  0.1078
  H  H109  1  0.354000  0.803200  0.324500  1.0  0.1066
  H  H110  1  0.306100  0.919200  0.308000  1.0  0.1089
  H  H111  1  0.310500  0.977200  0.270600  1.0  0.1112
  H  H112  1  0.354500  0.013400  0.382900  1.0  0.0994
  H  H113  1  0.349300  0.956300  0.417400  1.0  0.0791
  H  H114  1  0.241600  0.939600  0.816500  1.0  0.0905
  H  H115  1  0.216200  0.970800  0.875600  1.0  0.1126
  H  H116  1  0.281600  0.948000  0.962900  1.0  0.1013
  H  H117  1  0.306200  0.917300  0.905000  1.0  0.1204
  H  H118  1  0.190200  0.969500  0.942300  1.0  0.096
  H  H119  1  0.147600  0.950500  0.969300  1.0  0.0923
  H  H120  1  0.099600  0.949600  0.969900  1.0  0.1012
  H  H121  1  0.803200  0.694600  0.553600  1.0  0.1107
  H  H122  1  0.827500  0.636800  0.667700  1.0  0.114
  H  H123  1  0.813300  0.584400  0.547000  1.0  0.0951
  H  H124  1  0.765500  0.677100  0.498300  1.0  0.1047
  H  H125  1  0.752500  0.678200  0.419700  1.0  0.1043
  H  H126  1  0.814400  0.606000  0.389400  1.0  0.0877
  H  H127  1  0.829900  0.605600  0.466500  1.0  0.0989
  H  H128  1  0.779100  0.728500  0.620500  1.0  0.1231
  H  H129  1  0.783200  0.784400  0.661200  1.0  0.0906
  H  H130  1  0.858700  0.753500  0.713200  1.0  0.1076
  H  H131  1  0.854000  0.696800  0.675500  1.0  0.1059
  H  H132  1  0.806100  0.580800  0.692000  1.0  0.1104
  H  H133  1  0.810500  0.522800  0.729400  1.0  0.1117
  H  H134  1  0.854500  0.486600  0.617100  1.0  0.0998
  H  H135  1  0.849300  0.543700  0.582600  1.0  0.0806
  H  H136  1  0.741600  0.560400  0.183500  1.0  0.09
  H  H137  1  0.716200  0.529200  0.124400  1.0  0.1125
  H  H138  1  0.781600  0.552000  0.037100  1.0  0.1017
  H  H139  1  0.806200  0.582700  0.095000  1.0  0.1204
  H  H140  1  0.690200  0.530500  0.057700  1.0  0.0949
  H  H141  1  0.647600  0.549500  0.030700  1.0  0.0921
  H  H142  1  0.599600  0.550400  0.030100  1.0  0.1021
  H  H143  1  0.303200  0.194600  0.553600  1.0  0.1107
  H  H144  1  0.327500  0.136800  0.667700  1.0  0.114
  H  H145  1  0.313300  0.084400  0.547000  1.0  0.0951
  H  H146  1  0.265500  0.177100  0.498300  1.0  0.1047
  H  H147  1  0.252500  0.178200  0.419700  1.0  0.1043
  H  H148  1  0.314400  0.106000  0.389400  1.0  0.0877
  H  H149  1  0.329900  0.105600  0.466500  1.0  0.0989
  H  H150  1  0.279100  0.228500  0.620500  1.0  0.1231
  H  H151  1  0.283200  0.284400  0.661200  1.0  0.0906
  H  H152  1  0.358700  0.253500  0.713200  1.0  0.1075
  H  H153  1  0.354000  0.196800  0.675500  1.0  0.1065
  H  H154  1  0.306100  0.080800  0.692000  1.0  0.1104
  H  H155  1  0.310500  0.022800  0.729400  1.0  0.1117
  H  H156  1  0.354500  0.986600  0.617100  1.0  0.0998
  H  H157  1  0.349300  0.043700  0.582600  1.0  0.0806
  H  H158  1  0.241600  0.060400  0.183500  1.0  0.09
  H  H159  1  0.216200  0.029200  0.124400  1.0  0.1125
  H  H160  1  0.281600  0.052000  0.037100  1.0  0.1017
  H  H161  1  0.306200  0.082700  0.095000  1.0  0.1205
  H  H162  1  0.190200  0.030500  0.057700  1.0  0.0949
  H  H163  1  0.147600  0.049500  0.030700  1.0  0.0921
  H  H164  1  0.099600  0.050400  0.030100  1.0  0.1021
  H  H165  1  0.196800  0.805400  0.053600  1.0  0.1113
  H  H166  1  0.172500  0.863200  0.167700  1.0  0.1142
  H  H167  1  0.186700  0.915600  0.047000  1.0  0.095
  H  H168  1  0.234500  0.822900  0.998300  1.0  0.1056
  H  H169  1  0.247500  0.821800  0.919700  1.0  0.1044
  H  H170  1  0.185600  0.894000  0.889400  1.0  0.0874
  H  H171  1  0.170100  0.894400  0.966500  1.0  0.0993
  H  H172  1  0.220900  0.771500  0.120500  1.0  0.1229
  H  H173  1  0.216800  0.715600  0.161200  1.0  0.0908
  H  H174  1  0.141300  0.746500  0.213200  1.0  0.1068
  H  H175  1  0.146000  0.803200  0.175500  1.0  0.1055
  H  H176  1  0.193900  0.919200  0.192000  1.0  0.1106
  H  H177  1  0.189500  0.977200  0.229400  1.0  0.112
  H  H178  1  0.145500  0.013400  0.117100  1.0  0.0992
  H  H179  1  0.150700  0.956300  0.082600  1.0  0.0804
  H  H180  1  0.258400  0.939600  0.683500  1.0  0.0898
  H  H181  1  0.283800  0.970800  0.624400  1.0  0.111
  H  H182  1  0.218400  0.948000  0.537100  1.0  0.1086
  H  H183  1  0.193800  0.917300  0.595000  1.0  0.1195
  H  H184  1  0.309800  0.969500  0.557700  1.0  0.0955
  H  H185  1  0.352400  0.950500  0.530700  1.0  0.0923
  H  H186  1  0.400400  0.949600  0.530100  1.0  0.1022
  H  H187  1  0.696800  0.305400  0.053600  1.0  0.1113
  H  H188  1  0.672500  0.363200  0.167700  1.0  0.1142
  H  H189  1  0.686700  0.415600  0.047000  1.0  0.095
  H  H190  1  0.734500  0.322900  0.998300  1.0  0.1056
  H  H191  1  0.747500  0.321800  0.919700  1.0  0.1044
  H  H192  1  0.685600  0.394000  0.889400  1.0  0.0874
  H  H193  1  0.670100  0.394400  0.966500  1.0  0.0993
  H  H194  1  0.720900  0.271500  0.120500  1.0  0.1229
  H  H195  1  0.716800  0.215600  0.161200  1.0  0.0908
  H  H196  1  0.641300  0.246500  0.213200  1.0  0.1072
  H  H197  1  0.646000  0.303200  0.175500  1.0  0.1055
  H  H198  1  0.693900  0.419200  0.192000  1.0  0.1106
  H  H199  1  0.689500  0.477200  0.229400  1.0  0.112
  H  H200  1  0.645500  0.513400  0.117100  1.0  0.0992
  H  H201  1  0.650700  0.456300  0.082600  1.0  0.0804
  H  H202  1  0.758400  0.439600  0.683500  1.0  0.0898
  H  H203  1  0.783800  0.470800  0.624400  1.0  0.111
  H  H204  1  0.718400  0.448000  0.537100  1.0  0.1086
  H  H205  1  0.693800  0.417300  0.595000  1.0  0.1215
  H  H206  1  0.809800  0.469500  0.557700  1.0  0.0955
  H  H207  1  0.852400  0.450500  0.530700  1.0  0.0923
  H  H208  1  0.900400  0.449600  0.530100  1.0  0.1022
  H  H209  1  0.803200  0.805400  0.053600  1.0  0.1113
  H  H210  1  0.827500  0.863200  0.167700  1.0  0.1142
  H  H211  1  0.813300  0.915600  0.047000  1.0  0.0948
  H  H212  1  0.765500  0.822900  0.998300  1.0  0.106
  H  H213  1  0.752500  0.821800  0.919700  1.0  0.1041
  H  H214  1  0.814400  0.894000  0.889400  1.0  0.0874
  H  H215  1  0.829900  0.894400  0.966500  1.0  0.0993
  H  H216  1  0.779100  0.771500  0.120500  1.0  0.1231
  H  H217  1  0.783200  0.715600  0.161200  1.0  0.0904
  H  H218  1  0.858700  0.746500  0.213200  1.0  0.1044
  H  H219  1  0.854000  0.803200  0.175500  1.0  0.1055
  H  H220  1  0.806100  0.919200  0.192000  1.0  0.1101
  H  H221  1  0.810500  0.977200  0.229400  1.0  0.1121
  H  H222  1  0.854500  0.013400  0.117100  1.0  0.0996
  H  H223  1  0.849300  0.956300  0.082600  1.0  0.0803
  H  H224  1  0.741600  0.939600  0.683500  1.0  0.0898
  H  H225  1  0.716200  0.970800  0.624400  1.0  0.1123
  H  H226  1  0.781600  0.948000  0.537100  1.0  0.1049
  H  H227  1  0.806200  0.917300  0.595000  1.0  0.1174
  H  H228  1  0.690200  0.969500  0.557700  1.0  0.0951
  H  H229  1  0.647600  0.950500  0.530700  1.0  0.093
  H  H230  1  0.599600  0.949600  0.530100  1.0  0.1017
  H  H231  1  0.303200  0.305400  0.053600  1.0  0.1113
  H  H232  1  0.327500  0.363200  0.167700  1.0  0.1142
  H  H233  1  0.313300  0.415600  0.047000  1.0  0.0948
  H  H234  1  0.265500  0.322900  0.998300  1.0  0.106
  H  H235  1  0.252500  0.321800  0.919700  1.0  0.1041
  H  H236  1  0.314400  0.394000  0.889400  1.0  0.0874
  H  H237  1  0.329900  0.394400  0.966500  1.0  0.0993
  H  H238  1  0.279100  0.271500  0.120500  1.0  0.1231
  H  H239  1  0.283200  0.215600  0.161200  1.0  0.0904
  H  H240  1  0.358700  0.246500  0.213200  1.0  0.1073
  H  H241  1  0.354000  0.303200  0.175500  1.0  0.1056
  H  H242  1  0.306100  0.419200  0.192000  1.0  0.1101
  H  H243  1  0.310500  0.477200  0.229400  1.0  0.1121
  H  H244  1  0.354500  0.513400  0.117100  1.0  0.0996
  H  H245  1  0.349300  0.456300  0.082600  1.0  0.0803
  H  H246  1  0.241600  0.439600  0.683500  1.0  0.0898
  H  H247  1  0.216200  0.470800  0.624400  1.0  0.1123
  H  H248  1  0.281600  0.448000  0.537100  1.0  0.1049
  H  H249  1  0.306200  0.417300  0.595000  1.0  0.1168
  H  H250  1  0.190200  0.469500  0.557700  1.0  0.0951
  H  H251  1  0.147600  0.450500  0.530700  1.0  0.093
  H  H252  1  0.099600  0.449600  0.530100  1.0  0.1017
  H  H253  1  0.196800  0.694600  0.553600  1.0  0.1105
  H  H254  1  0.172500  0.636800  0.667700  1.0  0.1141
  H  H255  1  0.186700  0.584400  0.547000  1.0  0.0952
  H  H256  1  0.234500  0.677100  0.498300  1.0  0.1047
  H  H257  1  0.247500  0.678200  0.419700  1.0  0.1045
  H  H258  1  0.185600  0.606000  0.389400  1.0  0.0874
  H  H259  1  0.170100  0.605600  0.466500  1.0  0.0985
  H  H260  1  0.220900  0.728500  0.620500  1.0  0.1229
  H  H261  1  0.216800  0.784400  0.661200  1.0  0.0904
  H  H262  1  0.141300  0.753500  0.713200  1.0  0.1076
  H  H263  1  0.146000  0.696800  0.675500  1.0  0.1065
  H  H264  1  0.193900  0.580800  0.692000  1.0  0.1108
  H  H265  1  0.189500  0.522800  0.729400  1.0  0.1115
  H  H266  1  0.145500  0.486600  0.617100  1.0  0.0988
  H  H267  1  0.150700  0.543700  0.582600  1.0  0.0805
  H  H268  1  0.258400  0.560400  0.183500  1.0  0.09
  H  H269  1  0.283800  0.529200  0.124400  1.0  0.1116
  H  H270  1  0.218400  0.552000  0.037100  1.0  0.1016
  H  H271  1  0.193800  0.582700  0.095000  1.0  0.1206
  H  H272  1  0.309800  0.530500  0.057700  1.0  0.0951
  H  H273  1  0.352400  0.549500  0.030700  1.0  0.0913
  H  H274  1  0.400400  0.550400  0.030100  1.0  0.1017
  H  H275  1  0.696800  0.194600  0.553600  1.0  0.1105
  H  H276  1  0.672500  0.136800  0.667700  1.0  0.1141
  H  H277  1  0.686700  0.084400  0.547000  1.0  0.0952
  H  H278  1  0.734500  0.177100  0.498300  1.0  0.1047
  H  H279  1  0.747500  0.178200  0.419700  1.0  0.1045
  H  H280  1  0.685600  0.106000  0.389400  1.0  0.0874
  H  H281  1  0.670100  0.105600  0.466500  1.0  0.0985
  H  H282  1  0.720900  0.228500  0.620500  1.0  0.1229
  H  H283  1  0.716800  0.284400  0.661200  1.0  0.0904
  H  H284  1  0.641300  0.253500  0.713200  1.0  0.1075
  H  H285  1  0.646000  0.196800  0.675500  1.0  0.1065
  H  H286  1  0.693900  0.080800  0.692000  1.0  0.1108
  H  H287  1  0.689500  0.022800  0.729400  1.0  0.1115
  H  H288  1  0.645500  0.986600  0.617100  1.0  0.0988
  H  H289  1  0.650700  0.043700  0.582600  1.0  0.0805
  H  H290  1  0.758400  0.060400  0.183500  1.0  0.09
  H  H291  1  0.783800  0.029200  0.124400  1.0  0.1116
  H  H292  1  0.718400  0.052000  0.037100  1.0  0.1016
  H  H293  1  0.693800  0.082700  0.095000  1.0  0.1209
  H  H294  1  0.809800  0.030500  0.057700  1.0  0.0951
  H  H295  1  0.852400  0.049500  0.030700  1.0  0.0913
  H  H296  1  0.900400  0.050400  0.030100  1.0  0.1017
  H  H297  1  0.196800  0.305400  0.446400  1.0  0.111
  H  H298  1  0.172500  0.363200  0.332300  1.0  0.1136
  H  H299  1  0.186700  0.415600  0.453000  1.0  0.0953
  H  H300  1  0.234500  0.322900  0.501700  1.0  0.1046
  H  H301  1  0.247500  0.321800  0.580300  1.0  0.1039
  H  H302  1  0.185600  0.394000  0.610600  1.0  0.0879
  H  H303  1  0.170100  0.394400  0.533500  1.0  0.0995
  H  H304  1  0.220900  0.271500  0.379500  1.0  0.1227
  H  H305  1  0.216800  0.215600  0.338800  1.0  0.0908
  H  H306  1  0.141300  0.246500  0.286800  1.0  0.1075
  H  H307  1  0.146000  0.303200  0.324500  1.0  0.1065
  H  H308  1  0.193900  0.419200  0.308000  1.0  0.1095
  H  H309  1  0.189500  0.477200  0.270600  1.0  0.1111
  H  H310  1  0.145500  0.513400  0.382900  1.0  0.0988
  H  H311  1  0.150700  0.456300  0.417400  1.0  0.0792
  H  H312  1  0.258400  0.439600  0.816500  1.0  0.0902
  H  H313  1  0.283800  0.470800  0.875600  1.0  0.1116
  H  H314  1  0.218400  0.448000  0.962900  1.0  0.1017
  H  H315  1  0.193800  0.417300  0.905000  1.0  0.121
  H  H316  1  0.309800  0.469500  0.942300  1.0  0.0963
  H  H317  1  0.352400  0.450500  0.969300  1.0  0.0921
  H  H318  1  0.400400  0.449600  0.969900  1.0  0.102
  H  H319  1  0.696800  0.805400  0.446400  1.0  0.111
  H  H320  1  0.672500  0.863200  0.332300  1.0  0.1136
  H  H321  1  0.686700  0.915600  0.453000  1.0  0.0953
  H  H322  1  0.734500  0.822900  0.501700  1.0  0.1046
  H  H323  1  0.747500  0.821800  0.580300  1.0  0.1039
  H  H324  1  0.685600  0.894000  0.610600  1.0  0.0879
  H  H325  1  0.670100  0.894400  0.533500  1.0  0.0995
  H  H326  1  0.720900  0.771500  0.379500  1.0  0.1227
  H  H327  1  0.716800  0.715600  0.338800  1.0  0.0908
  H  H328  1  0.641300  0.746500  0.286800  1.0  0.1074
  H  H329  1  0.646000  0.803200  0.324500  1.0  0.1065
  H  H330  1  0.693900  0.919200  0.308000  1.0  0.1095
  H  H331  1  0.689500  0.977200  0.270600  1.0  0.1111
  H  H332  1  0.645500  0.013400  0.382900  1.0  0.0988
  H  H333  1  0.650700  0.956300  0.417400  1.0  0.0792
  H  H334  1  0.758400  0.939600  0.816500  1.0  0.0902
  H  H335  1  0.783800  0.970800  0.875600  1.0  0.1116
  H  H336  1  0.718400  0.948000  0.962900  1.0  0.1017
  H  H337  1  0.693800  0.917300  0.905000  1.0  0.1213
  H  H338  1  0.809800  0.969500  0.942300  1.0  0.0963
  H  H339  1  0.852400  0.950500  0.969300  1.0  0.0921
  H  H340  1  0.900400  0.949600  0.969900  1.0  0.102
  H  H341  1  0.803200  0.194600  0.946400  1.0  0.1111
  H  H342  1  0.827500  0.136800  0.832300  1.0  0.1137
  H  H343  1  0.813300  0.084400  0.953000  1.0  0.0948
  H  H344  1  0.765500  0.177100  0.001700  1.0  0.1057
  H  H345  1  0.752500  0.178200  0.080300  1.0  0.1041
  H  H346  1  0.814400  0.106000  0.110600  1.0  0.0878
  H  H347  1  0.829900  0.105600  0.033500  1.0  0.0988
  H  H348  1  0.779100  0.228500  0.879500  1.0  0.123
  H  H349  1  0.783200  0.284400  0.838800  1.0  0.0907
  H  H350  1  0.858700  0.253500  0.786800  1.0  0.1051
  H  H351  1  0.854000  0.196800  0.824500  1.0  0.1059
  H  H352  1  0.806100  0.080800  0.808000  1.0  0.1093
  H  H353  1  0.810500  0.022800  0.770600  1.0  0.111
  H  H354  1  0.854500  0.986600  0.882900  1.0  0.0992
  H  H355  1  0.849300  0.043700  0.917400  1.0  0.0795
  H  H356  1  0.741600  0.060400  0.316500  1.0  0.0904
  H  H357  1  0.716200  0.029200  0.375600  1.0  0.1125
  H  H358  1  0.781600  0.052000  0.462900  1.0  0.1039
  H  H359  1  0.806200  0.082700  0.405000  1.0  0.1171
  H  H360  1  0.690200  0.030500  0.442300  1.0  0.0963
  H  H361  1  0.647600  0.049500  0.469300  1.0  0.0921
  H  H362  1  0.599600  0.050400  0.469900  1.0  0.1018
  H  H363  1  0.303200  0.694600  0.946400  1.0  0.1111
  H  H364  1  0.327500  0.636800  0.832300  1.0  0.1137
  H  H365  1  0.313300  0.584400  0.953000  1.0  0.0948
  H  H366  1  0.265500  0.677100  0.001700  1.0  0.1057
  H  H367  1  0.252500  0.678200  0.080300  1.0  0.1041
  H  H368  1  0.314400  0.606000  0.110600  1.0  0.0878
  H  H369  1  0.329900  0.605600  0.033500  1.0  0.0988
  H  H370  1  0.279100  0.728500  0.879500  1.0  0.123
  H  H371  1  0.283200  0.784400  0.838800  1.0  0.0907
  H  H372  1  0.358700  0.753500  0.786800  1.0  0.1078
  H  H373  1  0.354000  0.696800  0.824500  1.0  0.1059
  H  H374  1  0.306100  0.580800  0.808000  1.0  0.1093
  H  H375  1  0.310500  0.522800  0.770600  1.0  0.111
  H  H376  1  0.354500  0.486600  0.882900  1.0  0.0992
  H  H377  1  0.349300  0.543700  0.917400  1.0  0.0795
  H  H378  1  0.241600  0.560400  0.316500  1.0  0.0904
  H  H379  1  0.216200  0.529200  0.375600  1.0  0.1125
  H  H380  1  0.281600  0.552000  0.462900  1.0  0.1039
  H  H381  1  0.306200  0.582700  0.405000  1.0  0.1165
  H  H382  1  0.190200  0.530500  0.442300  1.0  0.0963
  H  H383  1  0.147600  0.549500  0.469300  1.0  0.0921
  H  H384  1  0.099600  0.550400  0.469900  1.0  0.1018
  H  H385  1  0.235000  0.000000  0.500000  1.0  0.1164
  H  H386  1  0.735000  0.500000  0.500000  1.0  0.1164
  H  H387  1  0.765000  0.500000  0.000000  1.0  0.1124
  H  H388  1  0.265000  0.000000  0.000000  1.0  0.1124
  H  H389  1  0.765000  0.000000  0.500000  1.0  0.1124
  H  H390  1  0.265000  0.500000  0.500000  1.0  0.1124
  H  H391  1  0.235000  0.500000  0.000000  1.0  0.1164
  H  H392  1  0.735000  0.000000  0.000000  1.0  0.1164
  C  C393  1  0.192800  0.140000  0.958300  1.0  0.0161
  C  C394  1  0.192300  0.172000  0.932200  1.0  -0.1519
  C  C395  1  0.184900  0.171500  0.884500  1.0  0.0353
  C  C396  1  0.177600  0.137600  0.863700  1.0  -0.1004
  C  C397  1  0.178000  0.105000  0.890100  1.0  -0.0413
  C  C398  1  0.185900  0.106500  0.936000  1.0  -0.1048
  C  C399  1  0.201100  0.140800  0.007700  1.0  0.061
  C  C400  1  0.224100  0.162800  0.023100  1.0  -0.1317
  C  C401  1  0.231900  0.163700  0.070700  1.0  -0.0598
  C  C402  1  0.216700  0.143600  0.102800  1.0  -0.1204
  C  C403  1  0.194900  0.121100  0.088800  1.0  -0.0645
  C  C404  1  0.186000  0.120000  0.042000  1.0  -0.101
  C  C405  1  0.183200  0.207900  0.857300  1.0  0.0346
  C  C406  1  0.204800  0.233100  0.860900  1.0  -0.1639
  C  C407  1  0.202200  0.266700  0.835800  1.0  -0.0432
  C  C408  1  0.179100  0.274400  0.807000  1.0  -0.058
  C  C409  1  0.157800  0.248700  0.804600  1.0  -0.1043
  C  C410  1  0.160300  0.214900  0.828400  1.0  -0.1394
  C  C411  1  0.172700  0.067700  0.867000  1.0  0.0562
  C  C412  1  0.184300  0.061500  0.823200  1.0  -0.1292
  C  C413  1  0.181900  0.026400  0.800400  1.0  -0.0871
  C  C414  1  0.168200  0.997700  0.823700  1.0  -0.1463
  C  C415  1  0.155800  0.005200  0.867500  1.0  -0.1016
  C  C416  1  0.158700  0.039700  0.888000  1.0  -0.1395
  C  C417  1  0.224800  0.146200  0.152700  1.0  0.6978
  C  C418  1  0.178600  0.310800  0.781400  1.0  0.6944
  C  C419  1  0.168500  0.959600  0.803600  1.0  0.6731
  C  C420  1  0.223600  0.073700  0.353900  1.0  -0.147
  C  C421  1  0.250200  0.058500  0.346100  1.0  -0.0247
  C  C422  1  0.265800  0.039900  0.381600  1.0  -0.1593
  C  C423  1  0.253500  0.038100  0.425300  1.0  0.0296
  C  C424  1  0.226600  0.053800  0.433300  1.0  -0.1244
  C  C425  1  0.211700  0.071800  0.398800  1.0  -0.0901
  C  C426  1  0.270400  0.018400  0.464100  1.0  0.039
  C  C427  1  0.299500  0.018000  0.465500  1.0  -0.1297
  C  C428  1  0.362300  0.029300  0.482000  1.0  -0.1401
  C  C429  1  0.390900  0.029700  0.482100  1.0  -0.1101
  C  C430  1  0.206500  0.092700  0.316300  1.0  0.6796
  C  C431  1  0.692800  0.640000  0.958300  1.0  0.0161
  C  C432  1  0.692300  0.672000  0.932200  1.0  -0.1519
  C  C433  1  0.684900  0.671500  0.884500  1.0  0.0353
  C  C434  1  0.677600  0.637600  0.863700  1.0  -0.1004
  C  C435  1  0.678000  0.605000  0.890100  1.0  -0.0413
  C  C436  1  0.685900  0.606500  0.936000  1.0  -0.1048
  C  C437  1  0.701100  0.640800  0.007700  1.0  0.061
  C  C438  1  0.724100  0.662800  0.023100  1.0  -0.1317
  C  C439  1  0.731900  0.663700  0.070700  1.0  -0.0598
  C  C440  1  0.716700  0.643600  0.102800  1.0  -0.1204
  C  C441  1  0.694900  0.621100  0.088800  1.0  -0.0645
  C  C442  1  0.686000  0.620000  0.042000  1.0  -0.101
  C  C443  1  0.683200  0.707900  0.857300  1.0  0.0346
  C  C444  1  0.704800  0.733100  0.860900  1.0  -0.1639
  C  C445  1  0.702200  0.766700  0.835800  1.0  -0.0432
  C  C446  1  0.679100  0.774400  0.807000  1.0  -0.058
  C  C447  1  0.657800  0.748700  0.804600  1.0  -0.1043
  C  C448  1  0.660300  0.714900  0.828400  1.0  -0.1394
  C  C449  1  0.672700  0.567700  0.867000  1.0  0.0562
  C  C450  1  0.684300  0.561500  0.823200  1.0  -0.1292
  C  C451  1  0.681900  0.526400  0.800400  1.0  -0.0871
  C  C452  1  0.668200  0.497700  0.823700  1.0  -0.1463
  C  C453  1  0.655800  0.505200  0.867500  1.0  -0.1016
  C  C454  1  0.658700  0.539700  0.888000  1.0  -0.1395
  C  C455  1  0.724800  0.646200  0.152700  1.0  0.6978
  C  C456  1  0.678600  0.810800  0.781400  1.0  0.6944
  C  C457  1  0.668500  0.459600  0.803600  1.0  0.6731
  C  C458  1  0.723600  0.573700  0.353900  1.0  -0.147
  C  C459  1  0.750200  0.558500  0.346100  1.0  -0.0247
  C  C460  1  0.765800  0.539900  0.381600  1.0  -0.1593
  C  C461  1  0.753500  0.538100  0.425300  1.0  0.0296
  C  C462  1  0.726600  0.553800  0.433300  1.0  -0.1244
  C  C463  1  0.711700  0.571800  0.398800  1.0  -0.0901
  C  C464  1  0.770400  0.518400  0.464100  1.0  0.039
  C  C465  1  0.799500  0.518000  0.465500  1.0  -0.1297
  C  C466  1  0.862300  0.529300  0.482000  1.0  -0.1401
  C  C467  1  0.890900  0.529700  0.482100  1.0  -0.1101
  C  C468  1  0.706500  0.592700  0.316300  1.0  0.6796
  C  C469  1  0.807200  0.360000  0.458300  1.0  0.0159
  C  C470  1  0.807700  0.328000  0.432200  1.0  -0.1494
  C  C471  1  0.815100  0.328500  0.384500  1.0  0.0347
  C  C472  1  0.822400  0.362400  0.363700  1.0  -0.0997
  C  C473  1  0.822000  0.395000  0.390100  1.0  -0.0415
  C  C474  1  0.814100  0.393500  0.436000  1.0  -0.1059
  C  C475  1  0.798900  0.359200  0.507700  1.0  0.0611
  C  C476  1  0.775900  0.337200  0.523100  1.0  -0.1317
  C  C477  1  0.768100  0.336300  0.570700  1.0  -0.0606
  C  C478  1  0.783300  0.356400  0.602800  1.0  -0.1196
  C  C479  1  0.805100  0.378900  0.588800  1.0  -0.064
  C  C480  1  0.814000  0.380000  0.542000  1.0  -0.0988
  C  C481  1  0.816800  0.292100  0.357300  1.0  0.0341
  C  C482  1  0.795200  0.266900  0.360900  1.0  -0.165
  C  C483  1  0.797800  0.233300  0.335800  1.0  -0.0411
  C  C484  1  0.820900  0.225600  0.307000  1.0  -0.0587
  C  C485  1  0.842200  0.251300  0.304600  1.0  -0.1055
  C  C486  1  0.839700  0.285100  0.328400  1.0  -0.14
  C  C487  1  0.827300  0.432300  0.367000  1.0  0.0555
  C  C488  1  0.815700  0.438500  0.323200  1.0  -0.1276
  C  C489  1  0.818100  0.473600  0.300400  1.0  -0.0876
  C  C490  1  0.831800  0.502300  0.323700  1.0  -0.1455
  C  C491  1  0.844200  0.494800  0.367500  1.0  -0.0998
  C  C492  1  0.841300  0.460300  0.388000  1.0  -0.1389
  C  C493  1  0.775200  0.353800  0.652700  1.0  0.6984
  C  C494  1  0.821400  0.189200  0.281400  1.0  0.6951
  C  C495  1  0.831500  0.540400  0.303600  1.0  0.6709
  C  C496  1  0.776400  0.426300  0.853900  1.0  -0.1452
  C  C497  1  0.749800  0.441500  0.846100  1.0  -0.0228
  C  C498  1  0.734200  0.460100  0.881600  1.0  -0.1585
  C  C499  1  0.746500  0.461900  0.925300  1.0  0.0288
  C  C500  1  0.773400  0.446200  0.933300  1.0  -0.1246
  C  C501  1  0.788300  0.428200  0.898800  1.0  -0.0907
  C  C502  1  0.729600  0.481600  0.964100  1.0  0.0401
  C  C503  1  0.700500  0.482000  0.965500  1.0  -0.1286
  C  C504  1  0.637700  0.470700  0.982000  1.0  -0.1417
  C  C505  1  0.609100  0.470300  0.982100  1.0  -0.1124
  C  C506  1  0.793500  0.407300  0.816300  1.0  0.6788
  C  C507  1  0.307200  0.860000  0.458300  1.0  0.0159
  C  C508  1  0.307700  0.828000  0.432200  1.0  -0.1494
  C  C509  1  0.315100  0.828500  0.384500  1.0  0.0347
  C  C510  1  0.322400  0.862400  0.363700  1.0  -0.0997
  C  C511  1  0.322000  0.895000  0.390100  1.0  -0.0415
  C  C512  1  0.314100  0.893500  0.436000  1.0  -0.1059
  C  C513  1  0.298900  0.859200  0.507700  1.0  0.0611
  C  C514  1  0.275900  0.837200  0.523100  1.0  -0.1317
  C  C515  1  0.268100  0.836300  0.570700  1.0  -0.0606
  C  C516  1  0.283300  0.856400  0.602800  1.0  -0.1196
  C  C517  1  0.305100  0.878900  0.588800  1.0  -0.064
  C  C518  1  0.314000  0.880000  0.542000  1.0  -0.0988
  C  C519  1  0.316800  0.792100  0.357300  1.0  0.0341
  C  C520  1  0.295200  0.766900  0.360900  1.0  -0.165
  C  C521  1  0.297800  0.733300  0.335800  1.0  -0.0411
  C  C522  1  0.320900  0.725600  0.307000  1.0  -0.0587
  C  C523  1  0.342200  0.751300  0.304600  1.0  -0.1055
  C  C524  1  0.339700  0.785100  0.328400  1.0  -0.14
  C  C525  1  0.327300  0.932300  0.367000  1.0  0.0555
  C  C526  1  0.315700  0.938500  0.323200  1.0  -0.1276
  C  C527  1  0.318100  0.973600  0.300400  1.0  -0.0876
  C  C528  1  0.331800  0.002300  0.323700  1.0  -0.1455
  C  C529  1  0.344200  0.994800  0.367500  1.0  -0.0998
  C  C530  1  0.341300  0.960300  0.388000  1.0  -0.1389
  C  C531  1  0.275200  0.853800  0.652700  1.0  0.6984
  C  C532  1  0.321400  0.689200  0.281400  1.0  0.6951
  C  C533  1  0.331500  0.040400  0.303600  1.0  0.6709
  C  C534  1  0.276400  0.926300  0.853900  1.0  -0.1452
  C  C535  1  0.249800  0.941500  0.846100  1.0  -0.0228
  C  C536  1  0.234200  0.960100  0.881600  1.0  -0.1585
  C  C537  1  0.246500  0.961900  0.925300  1.0  0.0288
  C  C538  1  0.273400  0.946200  0.933300  1.0  -0.1246
  C  C539  1  0.288300  0.928200  0.898800  1.0  -0.0907
  C  C540  1  0.229600  0.981600  0.964100  1.0  0.0401
  C  C541  1  0.200500  0.982000  0.965500  1.0  -0.1286
  C  C542  1  0.137700  0.970700  0.982000  1.0  -0.1417
  C  C543  1  0.109100  0.970300  0.982100  1.0  -0.1124
  C  C544  1  0.293500  0.907300  0.816300  1.0  0.6788
  C  C545  1  0.807200  0.640000  0.541700  1.0  0.0158
  C  C546  1  0.807700  0.672000  0.567800  1.0  -0.1514
  C  C547  1  0.815100  0.671500  0.615500  1.0  0.0347
  C  C548  1  0.822400  0.637600  0.636300  1.0  -0.0988
  C  C549  1  0.822000  0.605000  0.609900  1.0  -0.0414
  C  C550  1  0.814100  0.606500  0.564000  1.0  -0.1057
  C  C551  1  0.798900  0.640800  0.492300  1.0  0.0612
  C  C552  1  0.775900  0.662800  0.476900  1.0  -0.1322
  C  C553  1  0.768100  0.663700  0.429300  1.0  -0.0609
  C  C554  1  0.783300  0.643600  0.397200  1.0  -0.1199
  C  C555  1  0.805100  0.621100  0.411200  1.0  -0.0629
  C  C556  1  0.814000  0.620000  0.458000  1.0  -0.0994
  C  C557  1  0.816800  0.707900  0.642700  1.0  0.0339
  C  C558  1  0.795200  0.733100  0.639100  1.0  -0.1652
  C  C559  1  0.797800  0.766700  0.664200  1.0  -0.0418
  C  C560  1  0.820900  0.774400  0.693000  1.0  -0.0596
  C  C561  1  0.842200  0.748700  0.695400  1.0  -0.1046
  C  C562  1  0.839700  0.714900  0.671600  1.0  -0.1401
  C  C563  1  0.827300  0.567700  0.633000  1.0  0.0565
  C  C564  1  0.815700  0.561500  0.676800  1.0  -0.13
  C  C565  1  0.818100  0.526400  0.699600  1.0  -0.0877
  C  C566  1  0.831800  0.497700  0.676300  1.0  -0.1431
  C  C567  1  0.844200  0.505200  0.632500  1.0  -0.1021
  C  C568  1  0.841300  0.539700  0.612000  1.0  -0.14
  C  C569  1  0.775200  0.646200  0.347300  1.0  0.7003
  C  C570  1  0.821400  0.810800  0.718600  1.0  0.6954
  C  C571  1  0.831500  0.459600  0.696400  1.0  0.673
  C  C572  1  0.776400  0.573700  0.146100  1.0  -0.1457
  C  C573  1  0.749800  0.558500  0.153900  1.0  -0.024
  C  C574  1  0.734200  0.539900  0.118400  1.0  -0.1564
  C  C575  1  0.746500  0.538100  0.074700  1.0  0.0291
  C  C576  1  0.773400  0.553800  0.066700  1.0  -0.1256
  C  C577  1  0.788300  0.571800  0.101200  1.0  -0.0909
  C  C578  1  0.729600  0.518400  0.035900  1.0  0.04
  C  C579  1  0.700500  0.518000  0.034500  1.0  -0.1294
  C  C580  1  0.637700  0.529300  0.018000  1.0  -0.1412
  C  C581  1  0.609100  0.529700  0.017900  1.0  -0.1065
  C  C582  1  0.793500  0.592700  0.183700  1.0  0.6793
  C  C583  1  0.307200  0.140000  0.541700  1.0  0.0158
  C  C584  1  0.307700  0.172000  0.567800  1.0  -0.1514
  C  C585  1  0.315100  0.171500  0.615500  1.0  0.0347
  C  C586  1  0.322400  0.137600  0.636300  1.0  -0.0988
  C  C587  1  0.322000  0.105000  0.609900  1.0  -0.0414
  C  C588  1  0.314100  0.106500  0.564000  1.0  -0.1057
  C  C589  1  0.298900  0.140800  0.492300  1.0  0.0612
  C  C590  1  0.275900  0.162800  0.476900  1.0  -0.1322
  C  C591  1  0.268100  0.163700  0.429300  1.0  -0.0609
  C  C592  1  0.283300  0.143600  0.397200  1.0  -0.1199
  C  C593  1  0.305100  0.121100  0.411200  1.0  -0.0629
  C  C594  1  0.314000  0.120000  0.458000  1.0  -0.0994
  C  C595  1  0.316800  0.207900  0.642700  1.0  0.0339
  C  C596  1  0.295200  0.233100  0.639100  1.0  -0.1652
  C  C597  1  0.297800  0.266700  0.664200  1.0  -0.0418
  C  C598  1  0.320900  0.274400  0.693000  1.0  -0.0596
  C  C599  1  0.342200  0.248700  0.695400  1.0  -0.1046
  C  C600  1  0.339700  0.214900  0.671600  1.0  -0.1401
  C  C601  1  0.327300  0.067700  0.633000  1.0  0.0565
  C  C602  1  0.315700  0.061500  0.676800  1.0  -0.13
  C  C603  1  0.318100  0.026400  0.699600  1.0  -0.0877
  C  C604  1  0.331800  0.997700  0.676300  1.0  -0.1431
  C  C605  1  0.344200  0.005200  0.632500  1.0  -0.1021
  C  C606  1  0.341300  0.039700  0.612000  1.0  -0.14
  C  C607  1  0.275200  0.146200  0.347300  1.0  0.7003
  C  C608  1  0.321400  0.310800  0.718600  1.0  0.6954
  C  C609  1  0.331500  0.959600  0.696400  1.0  0.673
  C  C610  1  0.276400  0.073700  0.146100  1.0  -0.1457
  C  C611  1  0.249800  0.058500  0.153900  1.0  -0.024
  C  C612  1  0.234200  0.039900  0.118400  1.0  -0.1564
  C  C613  1  0.246500  0.038100  0.074700  1.0  0.0291
  C  C614  1  0.273400  0.053800  0.066700  1.0  -0.1256
  C  C615  1  0.288300  0.071800  0.101200  1.0  -0.0909
  C  C616  1  0.229600  0.018400  0.035900  1.0  0.04
  C  C617  1  0.200500  0.018000  0.034500  1.0  -0.1294
  C  C618  1  0.137700  0.029300  0.018000  1.0  -0.1412
  C  C619  1  0.109100  0.029700  0.017900  1.0  -0.1065
  C  C620  1  0.293500  0.092700  0.183700  1.0  0.6793
  C  C621  1  0.192800  0.860000  0.041700  1.0  0.016
  C  C622  1  0.192300  0.828000  0.067800  1.0  -0.1491
  C  C623  1  0.184900  0.828500  0.115500  1.0  0.0342
  C  C624  1  0.177600  0.862400  0.136300  1.0  -0.0999
  C  C625  1  0.178000  0.895000  0.109900  1.0  -0.0417
  C  C626  1  0.185900  0.893500  0.064000  1.0  -0.1056
  C  C627  1  0.201100  0.859200  0.992300  1.0  0.0602
  C  C628  1  0.224100  0.837200  0.976900  1.0  -0.1319
  C  C629  1  0.231900  0.836300  0.929300  1.0  -0.0605
  C  C630  1  0.216700  0.856400  0.897200  1.0  -0.1201
  C  C631  1  0.194900  0.878900  0.911200  1.0  -0.0631
  C  C632  1  0.186000  0.880000  0.958000  1.0  -0.101
  C  C633  1  0.183200  0.792100  0.142700  1.0  0.0341
  C  C634  1  0.204800  0.766900  0.139100  1.0  -0.1651
  C  C635  1  0.202200  0.733300  0.164200  1.0  -0.0431
  C  C636  1  0.179100  0.725600  0.193000  1.0  -0.0598
  C  C637  1  0.157800  0.751300  0.195400  1.0  -0.1046
  C  C638  1  0.160300  0.785100  0.171600  1.0  -0.1398
  C  C639  1  0.172700  0.932300  0.133000  1.0  0.0554
  C  C640  1  0.184300  0.938500  0.176800  1.0  -0.1298
  C  C641  1  0.181900  0.973600  0.199600  1.0  -0.0863
  C  C642  1  0.168200  0.002300  0.176300  1.0  -0.1445
  C  C643  1  0.155800  0.994800  0.132500  1.0  -0.1008
  C  C644  1  0.158700  0.960300  0.112000  1.0  -0.1406
  C  C645  1  0.224800  0.853800  0.847300  1.0  0.6993
  C  C646  1  0.178600  0.689200  0.218600  1.0  0.6941
  C  C647  1  0.168500  0.040400  0.196400  1.0  0.6727
  C  C648  1  0.223600  0.926300  0.646100  1.0  -0.1456
  C  C649  1  0.250200  0.941500  0.653900  1.0  -0.0235
  C  C650  1  0.265800  0.960100  0.618400  1.0  -0.1593
  C  C651  1  0.253500  0.961900  0.574700  1.0  0.0294
  C  C652  1  0.226600  0.946200  0.566700  1.0  -0.1233
  C  C653  1  0.211700  0.928200  0.601200  1.0  -0.0888
  C  C654  1  0.270400  0.981600  0.535900  1.0  0.0383
  C  C655  1  0.299500  0.982000  0.534500  1.0  -0.1295
  C  C656  1  0.362300  0.970700  0.518000  1.0  -0.1397
  C  C657  1  0.390900  0.970300  0.517900  1.0  -0.1054
  C  C658  1  0.206500  0.907300  0.683700  1.0  0.6793
  C  C659  1  0.692800  0.360000  0.041700  1.0  0.016
  C  C660  1  0.692300  0.328000  0.067800  1.0  -0.1491
  C  C661  1  0.684900  0.328500  0.115500  1.0  0.0342
  C  C662  1  0.677600  0.362400  0.136300  1.0  -0.0999
  C  C663  1  0.678000  0.395000  0.109900  1.0  -0.0417
  C  C664  1  0.685900  0.393500  0.064000  1.0  -0.1056
  C  C665  1  0.701100  0.359200  0.992300  1.0  0.0602
  C  C666  1  0.724100  0.337200  0.976900  1.0  -0.1319
  C  C667  1  0.731900  0.336300  0.929300  1.0  -0.0605
  C  C668  1  0.716700  0.356400  0.897200  1.0  -0.1201
  C  C669  1  0.694900  0.378900  0.911200  1.0  -0.0631
  C  C670  1  0.686000  0.380000  0.958000  1.0  -0.101
  C  C671  1  0.683200  0.292100  0.142700  1.0  0.0341
  C  C672  1  0.704800  0.266900  0.139100  1.0  -0.1651
  C  C673  1  0.702200  0.233300  0.164200  1.0  -0.0431
  C  C674  1  0.679100  0.225600  0.193000  1.0  -0.0598
  C  C675  1  0.657800  0.251300  0.195400  1.0  -0.1046
  C  C676  1  0.660300  0.285100  0.171600  1.0  -0.1398
  C  C677  1  0.672700  0.432300  0.133000  1.0  0.0554
  C  C678  1  0.684300  0.438500  0.176800  1.0  -0.1298
  C  C679  1  0.681900  0.473600  0.199600  1.0  -0.0863
  C  C680  1  0.668200  0.502300  0.176300  1.0  -0.1445
  C  C681  1  0.655800  0.494800  0.132500  1.0  -0.1008
  C  C682  1  0.658700  0.460300  0.112000  1.0  -0.1406
  C  C683  1  0.724800  0.353800  0.847300  1.0  0.6993
  C  C684  1  0.678600  0.189200  0.218600  1.0  0.6941
  C  C685  1  0.668500  0.540400  0.196400  1.0  0.6727
  C  C686  1  0.723600  0.426300  0.646100  1.0  -0.1456
  C  C687  1  0.750200  0.441500  0.653900  1.0  -0.0235
  C  C688  1  0.765800  0.460100  0.618400  1.0  -0.1593
  C  C689  1  0.753500  0.461900  0.574700  1.0  0.0294
  C  C690  1  0.726600  0.446200  0.566700  1.0  -0.1233
  C  C691  1  0.711700  0.428200  0.601200  1.0  -0.0888
  C  C692  1  0.770400  0.481600  0.535900  1.0  0.0383
  C  C693  1  0.799500  0.482000  0.534500  1.0  -0.1295
  C  C694  1  0.862300  0.470700  0.518000  1.0  -0.1397
  C  C695  1  0.890900  0.470300  0.517900  1.0  -0.1054
  C  C696  1  0.706500  0.407300  0.683700  1.0  0.6793
  C  C697  1  0.807200  0.860000  0.041700  1.0  0.0158
  C  C698  1  0.807700  0.828000  0.067800  1.0  -0.1487
  C  C699  1  0.815100  0.828500  0.115500  1.0  0.0342
  C  C700  1  0.822400  0.862400  0.136300  1.0  -0.0989
  C  C701  1  0.822000  0.895000  0.109900  1.0  -0.0418
  C  C702  1  0.814100  0.893500  0.064000  1.0  -0.1062
  C  C703  1  0.798900  0.859200  0.992300  1.0  0.0609
  C  C704  1  0.775900  0.837200  0.976900  1.0  -0.1319
  C  C705  1  0.768100  0.836300  0.929300  1.0  -0.0599
  C  C706  1  0.783300  0.856400  0.897200  1.0  -0.1197
  C  C707  1  0.805100  0.878900  0.911200  1.0  -0.0628
  C  C708  1  0.814000  0.880000  0.958000  1.0  -0.0991
  C  C709  1  0.816800  0.792100  0.142700  1.0  0.0339
  C  C710  1  0.795200  0.766900  0.139100  1.0  -0.1654
  C  C711  1  0.797800  0.733300  0.164200  1.0  -0.0414
  C  C712  1  0.820900  0.725600  0.193000  1.0  -0.0594
  C  C713  1  0.842200  0.751300  0.195400  1.0  -0.1043
  C  C714  1  0.839700  0.785100  0.171600  1.0  -0.1396
  C  C715  1  0.827300  0.932300  0.133000  1.0  0.0558
  C  C716  1  0.815700  0.938500  0.176800  1.0  -0.1308
  C  C717  1  0.818100  0.973600  0.199600  1.0  -0.0881
  C  C718  1  0.831800  0.002300  0.176300  1.0  -0.1437
  C  C719  1  0.844200  0.994800  0.132500  1.0  -0.1008
  C  C720  1  0.841300  0.960300  0.112000  1.0  -0.1395
  C  C721  1  0.775200  0.853800  0.847300  1.0  0.6995
  C  C722  1  0.821400  0.689200  0.218600  1.0  0.6957
  C  C723  1  0.831500  0.040400  0.196400  1.0  0.6721
  C  C724  1  0.776400  0.926300  0.646100  1.0  -0.1455
  C  C725  1  0.749800  0.941500  0.653900  1.0  -0.0229
  C  C726  1  0.734200  0.960100  0.618400  1.0  -0.1582
  C  C727  1  0.746500  0.961900  0.574700  1.0  0.0294
  C  C728  1  0.773400  0.946200  0.566700  1.0  -0.1251
  C  C729  1  0.788300  0.928200  0.601200  1.0  -0.0907
  C  C730  1  0.729600  0.981600  0.535900  1.0  0.0397
  C  C731  1  0.700500  0.982000  0.534500  1.0  -0.1291
  C  C732  1  0.637700  0.970700  0.518000  1.0  -0.1419
  C  C733  1  0.609100  0.970300  0.517900  1.0  -0.1127
  C  C734  1  0.793500  0.907300  0.683700  1.0  0.6793
  C  C735  1  0.307200  0.360000  0.041700  1.0  0.0158
  C  C736  1  0.307700  0.328000  0.067800  1.0  -0.1487
  C  C737  1  0.315100  0.328500  0.115500  1.0  0.0342
  C  C738  1  0.322400  0.362400  0.136300  1.0  -0.0989
  C  C739  1  0.322000  0.395000  0.109900  1.0  -0.0418
  C  C740  1  0.314100  0.393500  0.064000  1.0  -0.1062
  C  C741  1  0.298900  0.359200  0.992300  1.0  0.0609
  C  C742  1  0.275900  0.337200  0.976900  1.0  -0.1319
  C  C743  1  0.268100  0.336300  0.929300  1.0  -0.0599
  C  C744  1  0.283300  0.356400  0.897200  1.0  -0.1197
  C  C745  1  0.305100  0.378900  0.911200  1.0  -0.0628
  C  C746  1  0.314000  0.380000  0.958000  1.0  -0.0991
  C  C747  1  0.316800  0.292100  0.142700  1.0  0.0339
  C  C748  1  0.295200  0.266900  0.139100  1.0  -0.1654
  C  C749  1  0.297800  0.233300  0.164200  1.0  -0.0414
  C  C750  1  0.320900  0.225600  0.193000  1.0  -0.0594
  C  C751  1  0.342200  0.251300  0.195400  1.0  -0.1043
  C  C752  1  0.339700  0.285100  0.171600  1.0  -0.1396
  C  C753  1  0.327300  0.432300  0.133000  1.0  0.0558
  C  C754  1  0.315700  0.438500  0.176800  1.0  -0.1308
  C  C755  1  0.318100  0.473600  0.199600  1.0  -0.0881
  C  C756  1  0.331800  0.502300  0.176300  1.0  -0.1437
  C  C757  1  0.344200  0.494800  0.132500  1.0  -0.1008
  C  C758  1  0.341300  0.460300  0.112000  1.0  -0.1395
  C  C759  1  0.275200  0.353800  0.847300  1.0  0.6995
  C  C760  1  0.321400  0.189200  0.218600  1.0  0.6957
  C  C761  1  0.331500  0.540400  0.196400  1.0  0.6721
  C  C762  1  0.276400  0.426300  0.646100  1.0  -0.1455
  C  C763  1  0.249800  0.441500  0.653900  1.0  -0.0229
  C  C764  1  0.234200  0.460100  0.618400  1.0  -0.1582
  C  C765  1  0.246500  0.461900  0.574700  1.0  0.0294
  C  C766  1  0.273400  0.446200  0.566700  1.0  -0.1251
  C  C767  1  0.288300  0.428200  0.601200  1.0  -0.0907
  C  C768  1  0.229600  0.481600  0.535900  1.0  0.0397
  C  C769  1  0.200500  0.482000  0.534500  1.0  -0.1291
  C  C770  1  0.137700  0.470700  0.518000  1.0  -0.1419
  C  C771  1  0.109100  0.470300  0.517900  1.0  -0.1127
  C  C772  1  0.293500  0.407300  0.683700  1.0  0.6793
  C  C773  1  0.192800  0.640000  0.541700  1.0  0.016
  C  C774  1  0.192300  0.672000  0.567800  1.0  -0.1517
  C  C775  1  0.184900  0.671500  0.615500  1.0  0.0348
  C  C776  1  0.177600  0.637600  0.636300  1.0  -0.0998
  C  C777  1  0.178000  0.605000  0.609900  1.0  -0.0412
  C  C778  1  0.185900  0.606500  0.564000  1.0  -0.1053
  C  C779  1  0.201100  0.640800  0.492300  1.0  0.0608
  C  C780  1  0.224100  0.662800  0.476900  1.0  -0.1317
  C  C781  1  0.231900  0.663700  0.429300  1.0  -0.0598
  C  C782  1  0.216700  0.643600  0.397200  1.0  -0.1206
  C  C783  1  0.194900  0.621100  0.411200  1.0  -0.0635
  C  C784  1  0.186000  0.620000  0.458000  1.0  -0.1014
  C  C785  1  0.183200  0.707900  0.642700  1.0  0.0343
  C  C786  1  0.204800  0.733100  0.639100  1.0  -0.1643
  C  C787  1  0.202200  0.766700  0.664200  1.0  -0.0433
  C  C788  1  0.179100  0.774400  0.693000  1.0  -0.0598
  C  C789  1  0.157800  0.748700  0.695400  1.0  -0.1051
  C  C790  1  0.160300  0.714900  0.671600  1.0  -0.1403
  C  C791  1  0.172700  0.567700  0.633000  1.0  0.0558
  C  C792  1  0.184300  0.561500  0.676800  1.0  -0.1288
  C  C793  1  0.181900  0.526400  0.699600  1.0  -0.0863
  C  C794  1  0.168200  0.497700  0.676300  1.0  -0.1439
  C  C795  1  0.155800  0.505200  0.632500  1.0  -0.1014
  C  C796  1  0.158700  0.539700  0.612000  1.0  -0.1409
  C  C797  1  0.224800  0.646200  0.347300  1.0  0.6994
  C  C798  1  0.178600  0.810800  0.718600  1.0  0.6946
  C  C799  1  0.168500  0.459600  0.696400  1.0  0.6726
  C  C800  1  0.223600  0.573700  0.146100  1.0  -0.1458
  C  C801  1  0.250200  0.558500  0.153900  1.0  -0.0247
  C  C802  1  0.265800  0.539900  0.118400  1.0  -0.1584
  C  C803  1  0.253500  0.538100  0.074700  1.0  0.0294
  C  C804  1  0.226600  0.553800  0.066700  1.0  -0.1235
  C  C805  1  0.211700  0.571800  0.101200  1.0  -0.0894
  C  C806  1  0.270400  0.518400  0.035900  1.0  0.0389
  C  C807  1  0.299500  0.518000  0.034500  1.0  -0.1297
  C  C808  1  0.362300  0.529300  0.018000  1.0  -0.14
  C  C809  1  0.390900  0.529700  0.017900  1.0  -0.1104
  C  C810  1  0.206500  0.592700  0.183700  1.0  0.6796
  C  C811  1  0.692800  0.140000  0.541700  1.0  0.016
  C  C812  1  0.692300  0.172000  0.567800  1.0  -0.1517
  C  C813  1  0.684900  0.171500  0.615500  1.0  0.0348
  C  C814  1  0.677600  0.137600  0.636300  1.0  -0.0998
  C  C815  1  0.678000  0.105000  0.609900  1.0  -0.0412
  C  C816  1  0.685900  0.106500  0.564000  1.0  -0.1053
  C  C817  1  0.701100  0.140800  0.492300  1.0  0.0608
  C  C818  1  0.724100  0.162800  0.476900  1.0  -0.1317
  C  C819  1  0.731900  0.163700  0.429300  1.0  -0.0598
  C  C820  1  0.716700  0.143600  0.397200  1.0  -0.1206
  C  C821  1  0.694900  0.121100  0.411200  1.0  -0.0635
  C  C822  1  0.686000  0.120000  0.458000  1.0  -0.1014
  C  C823  1  0.683200  0.207900  0.642700  1.0  0.0343
  C  C824  1  0.704800  0.233100  0.639100  1.0  -0.1643
  C  C825  1  0.702200  0.266700  0.664200  1.0  -0.0433
  C  C826  1  0.679100  0.274400  0.693000  1.0  -0.0598
  C  C827  1  0.657800  0.248700  0.695400  1.0  -0.1051
  C  C828  1  0.660300  0.214900  0.671600  1.0  -0.1403
  C  C829  1  0.672700  0.067700  0.633000  1.0  0.0558
  C  C830  1  0.684300  0.061500  0.676800  1.0  -0.1288
  C  C831  1  0.681900  0.026400  0.699600  1.0  -0.0863
  C  C832  1  0.668200  0.997700  0.676300  1.0  -0.1439
  C  C833  1  0.655800  0.005200  0.632500  1.0  -0.1014
  C  C834  1  0.658700  0.039700  0.612000  1.0  -0.1409
  C  C835  1  0.724800  0.146200  0.347300  1.0  0.6994
  C  C836  1  0.678600  0.310800  0.718600  1.0  0.6946
  C  C837  1  0.668500  0.959600  0.696400  1.0  0.6726
  C  C838  1  0.723600  0.073700  0.146100  1.0  -0.1458
  C  C839  1  0.750200  0.058500  0.153900  1.0  -0.0247
  C  C840  1  0.765800  0.039900  0.118400  1.0  -0.1584
  C  C841  1  0.753500  0.038100  0.074700  1.0  0.0294
  C  C842  1  0.726600  0.053800  0.066700  1.0  -0.1235
  C  C843  1  0.711700  0.071800  0.101200  1.0  -0.0894
  C  C844  1  0.770400  0.018400  0.035900  1.0  0.0389
  C  C845  1  0.799500  0.018000  0.034500  1.0  -0.1297
  C  C846  1  0.862300  0.029300  0.018000  1.0  -0.14
  C  C847  1  0.890900  0.029700  0.017900  1.0  -0.1104
  C  C848  1  0.706500  0.092700  0.183700  1.0  0.6796
  C  C849  1  0.192800  0.360000  0.458300  1.0  0.016
  C  C850  1  0.192300  0.328000  0.432200  1.0  -0.1494
  C  C851  1  0.184900  0.328500  0.384500  1.0  0.0347
  C  C852  1  0.177600  0.362400  0.363700  1.0  -0.1001
  C  C853  1  0.178000  0.395000  0.390100  1.0  -0.0415
  C  C854  1  0.185900  0.393500  0.436000  1.0  -0.1053
  C  C855  1  0.201100  0.359200  0.507700  1.0  0.0604
  C  C856  1  0.224100  0.337200  0.523100  1.0  -0.1316
  C  C857  1  0.231900  0.336300  0.570700  1.0  -0.0612
  C  C858  1  0.216700  0.356400  0.602800  1.0  -0.1203
  C  C859  1  0.194900  0.378900  0.588800  1.0  -0.0644
  C  C860  1  0.186000  0.380000  0.542000  1.0  -0.1001
  C  C861  1  0.183200  0.292100  0.357300  1.0  0.0345
  C  C862  1  0.204800  0.266900  0.360900  1.0  -0.1647
  C  C863  1  0.202200  0.233300  0.335800  1.0  -0.0429
  C  C864  1  0.179100  0.225600  0.307000  1.0  -0.0592
  C  C865  1  0.157800  0.251300  0.304600  1.0  -0.1041
  C  C866  1  0.160300  0.285100  0.328400  1.0  -0.1396
  C  C867  1  0.172700  0.432300  0.367000  1.0  0.0553
  C  C868  1  0.184300  0.438500  0.323200  1.0  -0.1285
  C  C869  1  0.181900  0.473600  0.300400  1.0  -0.0867
  C  C870  1  0.168200  0.502300  0.323700  1.0  -0.1442
  C  C871  1  0.155800  0.494800  0.367500  1.0  -0.1008
  C  C872  1  0.158700  0.460300  0.388000  1.0  -0.1395
  C  C873  1  0.224800  0.353800  0.652700  1.0  0.6982
  C  C874  1  0.178600  0.189200  0.281400  1.0  0.6938
  C  C875  1  0.168500  0.540400  0.303600  1.0  0.6737
  C  C876  1  0.223600  0.426300  0.853900  1.0  -0.1469
  C  C877  1  0.250200  0.441500  0.846100  1.0  -0.0237
  C  C878  1  0.265800  0.460100  0.881600  1.0  -0.1594
  C  C879  1  0.253500  0.461900  0.925300  1.0  0.0297
  C  C880  1  0.226600  0.446200  0.933300  1.0  -0.1241
  C  C881  1  0.211700  0.428200  0.898800  1.0  -0.0893
  C  C882  1  0.270400  0.481600  0.964100  1.0  0.0384
  C  C883  1  0.299500  0.482000  0.965500  1.0  -0.1296
  C  C884  1  0.362300  0.470700  0.982000  1.0  -0.1395
  C  C885  1  0.390900  0.470300  0.982100  1.0  -0.1054
  C  C886  1  0.206500  0.407300  0.816300  1.0  0.6792
  C  C887  1  0.692800  0.860000  0.458300  1.0  0.016
  C  C888  1  0.692300  0.828000  0.432200  1.0  -0.1494
  C  C889  1  0.684900  0.828500  0.384500  1.0  0.0347
  C  C890  1  0.677600  0.862400  0.363700  1.0  -0.1001
  C  C891  1  0.678000  0.895000  0.390100  1.0  -0.0415
  C  C892  1  0.685900  0.893500  0.436000  1.0  -0.1053
  C  C893  1  0.701100  0.859200  0.507700  1.0  0.0604
  C  C894  1  0.724100  0.837200  0.523100  1.0  -0.1316
  C  C895  1  0.731900  0.836300  0.570700  1.0  -0.0612
  C  C896  1  0.716700  0.856400  0.602800  1.0  -0.1203
  C  C897  1  0.694900  0.878900  0.588800  1.0  -0.0644
  C  C898  1  0.686000  0.880000  0.542000  1.0  -0.1001
  C  C899  1  0.683200  0.792100  0.357300  1.0  0.0345
  C  C900  1  0.704800  0.766900  0.360900  1.0  -0.1647
  C  C901  1  0.702200  0.733300  0.335800  1.0  -0.0429
  C  C902  1  0.679100  0.725600  0.307000  1.0  -0.0592
  C  C903  1  0.657800  0.751300  0.304600  1.0  -0.1041
  C  C904  1  0.660300  0.785100  0.328400  1.0  -0.1396
  C  C905  1  0.672700  0.932300  0.367000  1.0  0.0553
  C  C906  1  0.684300  0.938500  0.323200  1.0  -0.1285
  C  C907  1  0.681900  0.973600  0.300400  1.0  -0.0867
  C  C908  1  0.668200  0.002300  0.323700  1.0  -0.1442
  C  C909  1  0.655800  0.994800  0.367500  1.0  -0.1008
  C  C910  1  0.658700  0.960300  0.388000  1.0  -0.1395
  C  C911  1  0.724800  0.853800  0.652700  1.0  0.6982
  C  C912  1  0.678600  0.689200  0.281400  1.0  0.6938
  C  C913  1  0.668500  0.040400  0.303600  1.0  0.6737
  C  C914  1  0.723600  0.926300  0.853900  1.0  -0.1469
  C  C915  1  0.750200  0.941500  0.846100  1.0  -0.0237
  C  C916  1  0.765800  0.960100  0.881600  1.0  -0.1594
  C  C917  1  0.753500  0.961900  0.925300  1.0  0.0297
  C  C918  1  0.726600  0.946200  0.933300  1.0  -0.1241
  C  C919  1  0.711700  0.928200  0.898800  1.0  -0.0893
  C  C920  1  0.770400  0.981600  0.964100  1.0  0.0384
  C  C921  1  0.799500  0.982000  0.965500  1.0  -0.1296
  C  C922  1  0.862300  0.970700  0.982000  1.0  -0.1395
  C  C923  1  0.890900  0.970300  0.982100  1.0  -0.1054
  C  C924  1  0.706500  0.907300  0.816300  1.0  0.6792
  C  C925  1  0.807200  0.140000  0.958300  1.0  0.016
  C  C926  1  0.807700  0.172000  0.932200  1.0  -0.1517
  C  C927  1  0.815100  0.171500  0.884500  1.0  0.0353
  C  C928  1  0.822400  0.137600  0.863700  1.0  -0.1
  C  C929  1  0.822000  0.105000  0.890100  1.0  -0.0414
  C  C930  1  0.814100  0.106500  0.936000  1.0  -0.1052
  C  C931  1  0.798900  0.140800  0.007700  1.0  0.0613
  C  C932  1  0.775900  0.162800  0.023100  1.0  -0.1322
  C  C933  1  0.768100  0.163700  0.070700  1.0  -0.0611
  C  C934  1  0.783300  0.143600  0.102800  1.0  -0.1196
  C  C935  1  0.805100  0.121100  0.088800  1.0  -0.0642
  C  C936  1  0.814000  0.120000  0.042000  1.0  -0.0995
  C  C937  1  0.816800  0.207900  0.857300  1.0  0.0342
  C  C938  1  0.795200  0.233100  0.860900  1.0  -0.1649
  C  C939  1  0.797800  0.266700  0.835800  1.0  -0.0416
  C  C940  1  0.820900  0.274400  0.807000  1.0  -0.058
  C  C941  1  0.842200  0.248700  0.804600  1.0  -0.1054
  C  C942  1  0.839700  0.214900  0.828400  1.0  -0.1397
  C  C943  1  0.827300  0.067700  0.867000  1.0  0.0563
  C  C944  1  0.815700  0.061500  0.823200  1.0  -0.1282
  C  C945  1  0.818100  0.026400  0.800400  1.0  -0.0874
  C  C946  1  0.831800  0.997700  0.823700  1.0  -0.1468
  C  C947  1  0.844200  0.005200  0.867500  1.0  -0.1017
  C  C948  1  0.841300  0.039700  0.888000  1.0  -0.1387
  C  C949  1  0.775200  0.146200  0.152700  1.0  0.6983
  C  C950  1  0.821400  0.310800  0.781400  1.0  0.6948
  C  C951  1  0.831500  0.959600  0.803600  1.0  0.6705
  C  C952  1  0.776400  0.073700  0.353900  1.0  -0.1452
  C  C953  1  0.749800  0.058500  0.346100  1.0  -0.0239
  C  C954  1  0.734200  0.039900  0.381600  1.0  -0.1576
  C  C955  1  0.746500  0.038100  0.425300  1.0  0.0285
  C  C956  1  0.773400  0.053800  0.433300  1.0  -0.1248
  C  C957  1  0.788300  0.071800  0.398800  1.0  -0.0907
  C  C958  1  0.729600  0.018400  0.464100  1.0  0.0405
  C  C959  1  0.700500  0.018000  0.465500  1.0  -0.1288
  C  C960  1  0.637700  0.029300  0.482000  1.0  -0.141
  C  C961  1  0.609100  0.029700  0.482100  1.0  -0.1057
  C  C962  1  0.793500  0.092700  0.316300  1.0  0.6788
  C  C963  1  0.307200  0.640000  0.958300  1.0  0.016
  C  C964  1  0.307700  0.672000  0.932200  1.0  -0.1517
  C  C965  1  0.315100  0.671500  0.884500  1.0  0.0353
  C  C966  1  0.322400  0.637600  0.863700  1.0  -0.1
  C  C967  1  0.322000  0.605000  0.890100  1.0  -0.0414
  C  C968  1  0.314100  0.606500  0.936000  1.0  -0.1052
  C  C969  1  0.298900  0.640800  0.007700  1.0  0.0613
  C  C970  1  0.275900  0.662800  0.023100  1.0  -0.1322
  C  C971  1  0.268100  0.663700  0.070700  1.0  -0.0611
  C  C972  1  0.283300  0.643600  0.102800  1.0  -0.1196
  C  C973  1  0.305100  0.621100  0.088800  1.0  -0.0642
  C  C974  1  0.314000  0.620000  0.042000  1.0  -0.0995
  C  C975  1  0.316800  0.707900  0.857300  1.0  0.0342
  C  C976  1  0.295200  0.733100  0.860900  1.0  -0.1649
  C  C977  1  0.297800  0.766700  0.835800  1.0  -0.0416
  C  C978  1  0.320900  0.774400  0.807000  1.0  -0.058
  C  C979  1  0.342200  0.748700  0.804600  1.0  -0.1054
  C  C980  1  0.339700  0.714900  0.828400  1.0  -0.1397
  C  C981  1  0.327300  0.567700  0.867000  1.0  0.0563
  C  C982  1  0.315700  0.561500  0.823200  1.0  -0.1282
  C  C983  1  0.318100  0.526400  0.800400  1.0  -0.0874
  C  C984  1  0.331800  0.497700  0.823700  1.0  -0.1468
  C  C985  1  0.344200  0.505200  0.867500  1.0  -0.1017
  C  C986  1  0.341300  0.539700  0.888000  1.0  -0.1387
  C  C987  1  0.275200  0.646200  0.152700  1.0  0.6983
  C  C988  1  0.321400  0.810800  0.781400  1.0  0.6948
  C  C989  1  0.331500  0.459600  0.803600  1.0  0.6705
  C  C990  1  0.276400  0.573700  0.353900  1.0  -0.1452
  C  C991  1  0.249800  0.558500  0.346100  1.0  -0.0239
  C  C992  1  0.234200  0.539900  0.381600  1.0  -0.1576
  C  C993  1  0.246500  0.538100  0.425300  1.0  0.0285
  C  C994  1  0.273400  0.553800  0.433300  1.0  -0.1248
  C  C995  1  0.288300  0.571800  0.398800  1.0  -0.0907
  C  C996  1  0.229600  0.518400  0.464100  1.0  0.0405
  C  C997  1  0.200500  0.518000  0.465500  1.0  -0.1288
  C  C998  1  0.137700  0.529300  0.482000  1.0  -0.141
  C  C999  1  0.109100  0.529700  0.482100  1.0  -0.1057
  C  C1000  1  0.293500  0.592700  0.316300  1.0  0.6788
  C  C1001  1  0.255200  0.000000  0.500000  1.0  -0.0906
  C  C1002  1  0.314700  0.000000  0.500000  1.0  0.0373
  C  C1003  1  0.346600  0.000000  0.500000  1.0  0.071
  C  C1004  1  0.407500  0.000000  0.500000  1.0  -0.0553
  C  C1005  1  0.440600  0.000000  0.500000  1.0  0.7015
  C  C1006  1  0.755200  0.500000  0.500000  1.0  -0.0906
  C  C1007  1  0.814700  0.500000  0.500000  1.0  0.0373
  C  C1008  1  0.846600  0.500000  0.500000  1.0  0.071
  C  C1009  1  0.907500  0.500000  0.500000  1.0  -0.0553
  C  C1010  1  0.940600  0.500000  0.500000  1.0  0.7015
  C  C1011  1  0.744800  0.500000  0.000000  1.0  -0.0838
  C  C1012  1  0.685300  0.500000  0.000000  1.0  0.0371
  C  C1013  1  0.653400  0.500000  0.000000  1.0  0.0714
  C  C1014  1  0.592500  0.500000  0.000000  1.0  -0.0563
  C  C1015  1  0.559400  0.500000  0.000000  1.0  0.7023
  C  C1016  1  0.244800  0.000000  0.000000  1.0  -0.0838
  C  C1017  1  0.185300  0.000000  0.000000  1.0  0.0371
  C  C1018  1  0.153400  0.000000  0.000000  1.0  0.0714
  C  C1019  1  0.092500  0.000000  0.000000  1.0  -0.0563
  C  C1020  1  0.059400  0.000000  0.000000  1.0  0.7023
  C  C1021  1  0.744800  0.000000  0.500000  1.0  -0.0838
  C  C1022  1  0.685300  0.000000  0.500000  1.0  0.0371
  C  C1023  1  0.653400  0.000000  0.500000  1.0  0.0714
  C  C1024  1  0.592500  0.000000  0.500000  1.0  -0.0563
  C  C1025  1  0.559400  0.000000  0.500000  1.0  0.7023
  C  C1026  1  0.244800  0.500000  0.500000  1.0  -0.0838
  C  C1027  1  0.185300  0.500000  0.500000  1.0  0.0371
  C  C1028  1  0.153400  0.500000  0.500000  1.0  0.0714
  C  C1029  1  0.092500  0.500000  0.500000  1.0  -0.0563
  C  C1030  1  0.059400  0.500000  0.500000  1.0  0.7023
  C  C1031  1  0.255200  0.500000  0.000000  1.0  -0.0906
  C  C1032  1  0.314700  0.500000  0.000000  1.0  0.0373
  C  C1033  1  0.346600  0.500000  0.000000  1.0  0.071
  C  C1034  1  0.407500  0.500000  0.000000  1.0  -0.0553
  C  C1035  1  0.440600  0.500000  0.000000  1.0  0.7015
  C  C1036  1  0.755200  0.000000  0.000000  1.0  -0.0906
  C  C1037  1  0.814700  0.000000  0.000000  1.0  0.0373
  C  C1038  1  0.846600  0.000000  0.000000  1.0  0.071
  C  C1039  1  0.907500  0.000000  0.000000  1.0  -0.0553
  C  C1040  1  0.940600  0.000000  0.000000  1.0  0.7015
  O  O1041  1  0.211300  0.129000  0.185000  1.0  -0.8031
  O  O1042  1  0.246800  0.165400  0.163000  1.0  -0.6313
  O  O1043  1  0.157900  0.933200  0.827200  1.0  -0.6611
  O  O1044  1  0.178100  0.954200  0.762800  1.0  -0.6979
  O  O1045  1  0.152200  0.324300  0.776800  1.0  -0.675
  O  O1046  1  0.199400  0.327200  0.768000  1.0  -0.7236
  O  O1047  1  0.220900  0.100300  0.277300  1.0  -0.7447
  O  O1048  1  0.180600  0.098900  0.320200  1.0  -0.6468
  O  O1049  1  0.453300  0.972000  0.516900  1.0  -0.7563
  O  O1050  1  0.711300  0.629000  0.185000  1.0  -0.8031
  O  O1051  1  0.746800  0.665400  0.163000  1.0  -0.6313
  O  O1052  1  0.657900  0.433200  0.827200  1.0  -0.6611
  O  O1053  1  0.678100  0.454200  0.762800  1.0  -0.6979
  O  O1054  1  0.652200  0.824300  0.776800  1.0  -0.6739
  O  O1055  1  0.699400  0.827200  0.768000  1.0  -0.7236
  O  O1056  1  0.720900  0.600300  0.277300  1.0  -0.7447
  O  O1057  1  0.680600  0.598900  0.320200  1.0  -0.6422
  O  O1058  1  0.953300  0.472000  0.516900  1.0  -0.7563
  O  O1059  1  0.788700  0.371000  0.685000  1.0  -0.801
  O  O1060  1  0.753200  0.334600  0.663000  1.0  -0.6331
  O  O1061  1  0.842100  0.566800  0.327200  1.0  -0.6577
  O  O1062  1  0.821900  0.545800  0.262800  1.0  -0.6956
  O  O1063  1  0.847800  0.175700  0.276800  1.0  -0.673
  O  O1064  1  0.800600  0.172800  0.268000  1.0  -0.7234
  O  O1065  1  0.779100  0.399700  0.777300  1.0  -0.7432
  O  O1066  1  0.819400  0.401100  0.820200  1.0  -0.6468
  O  O1067  1  0.546700  0.528000  0.016900  1.0  -0.7574
  O  O1068  1  0.288700  0.871000  0.685000  1.0  -0.801
  O  O1069  1  0.253200  0.834600  0.663000  1.0  -0.6331
  O  O1070  1  0.342100  0.066800  0.327200  1.0  -0.6577
  O  O1071  1  0.321900  0.045800  0.262800  1.0  -0.6956
  O  O1072  1  0.347800  0.675700  0.276800  1.0  -0.6723
  O  O1073  1  0.300600  0.672800  0.268000  1.0  -0.7234
  O  O1074  1  0.279100  0.899700  0.777300  1.0  -0.7432
  O  O1075  1  0.319400  0.901100  0.820200  1.0  -0.6398
  O  O1076  1  0.046700  0.028000  0.016900  1.0  -0.7574
  O  O1077  1  0.788700  0.629000  0.315000  1.0  -0.802
  O  O1078  1  0.753200  0.665400  0.337000  1.0  -0.6317
  O  O1079  1  0.842100  0.433200  0.672800  1.0  -0.6606
  O  O1080  1  0.821900  0.454200  0.737200  1.0  -0.6968
  O  O1081  1  0.847800  0.824300  0.723200  1.0  -0.672
  O  O1082  1  0.800600  0.827200  0.732000  1.0  -0.723
  O  O1083  1  0.779100  0.600300  0.222700  1.0  -0.7442
  O  O1084  1  0.819400  0.598900  0.179800  1.0  -0.6463
  O  O1085  1  0.546700  0.472000  0.983100  1.0  -0.7571
  O  O1086  1  0.288700  0.129000  0.315000  1.0  -0.802
  O  O1087  1  0.253200  0.165400  0.337000  1.0  -0.6317
  O  O1088  1  0.342100  0.933200  0.672800  1.0  -0.6606
  O  O1089  1  0.321900  0.954200  0.737200  1.0  -0.6968
  O  O1090  1  0.347800  0.324300  0.723200  1.0  -0.6722
  O  O1091  1  0.300600  0.327200  0.732000  1.0  -0.723
  O  O1092  1  0.279100  0.100300  0.222700  1.0  -0.7442
  O  O1093  1  0.319400  0.098900  0.179800  1.0  -0.64
  O  O1094  1  0.046700  0.972000  0.983100  1.0  -0.7571
  O  O1095  1  0.211300  0.871000  0.815000  1.0  -0.8027
  O  O1096  1  0.246800  0.834600  0.837000  1.0  -0.6324
  O  O1097  1  0.157900  0.066800  0.172800  1.0  -0.6624
  O  O1098  1  0.178100  0.045800  0.237200  1.0  -0.6973
  O  O1099  1  0.152200  0.675700  0.223200  1.0  -0.6749
  O  O1100  1  0.199400  0.672800  0.232000  1.0  -0.7241
  O  O1101  1  0.220900  0.899700  0.722700  1.0  -0.7435
  O  O1102  1  0.180600  0.901100  0.679800  1.0  -0.6471
  O  O1103  1  0.453300  0.028000  0.483100  1.0  -0.7578
  O  O1104  1  0.711300  0.371000  0.815000  1.0  -0.8027
  O  O1105  1  0.746800  0.334600  0.837000  1.0  -0.6324
  O  O1106  1  0.657900  0.566800  0.172800  1.0  -0.6624
  O  O1107  1  0.678100  0.545800  0.237200  1.0  -0.6973
  O  O1108  1  0.652200  0.175700  0.223200  1.0  -0.6737
  O  O1109  1  0.699400  0.172800  0.232000  1.0  -0.7241
  O  O1110  1  0.720900  0.399700  0.722700  1.0  -0.7435
  O  O1111  1  0.680600  0.401100  0.679800  1.0  -0.6419
  O  O1112  1  0.953300  0.528000  0.483100  1.0  -0.7578
  O  O1113  1  0.788700  0.871000  0.815000  1.0  -0.8017
  O  O1114  1  0.753200  0.834600  0.837000  1.0  -0.6334
  O  O1115  1  0.842100  0.066800  0.172800  1.0  -0.6572
  O  O1116  1  0.821900  0.045800  0.237200  1.0  -0.6965
  O  O1117  1  0.847800  0.675700  0.223200  1.0  -0.6738
  O  O1118  1  0.800600  0.672800  0.232000  1.0  -0.7236
  O  O1119  1  0.779100  0.899700  0.722700  1.0  -0.7435
  O  O1120  1  0.819400  0.901100  0.679800  1.0  -0.6475
  O  O1121  1  0.546700  0.028000  0.483100  1.0  -0.7579
  O  O1122  1  0.288700  0.371000  0.815000  1.0  -0.8017
  O  O1123  1  0.253200  0.334600  0.837000  1.0  -0.6334
  O  O1124  1  0.342100  0.566800  0.172800  1.0  -0.6572
  O  O1125  1  0.321900  0.545800  0.237200  1.0  -0.6965
  O  O1126  1  0.347800  0.175700  0.223200  1.0  -0.6744
  O  O1127  1  0.300600  0.172800  0.232000  1.0  -0.7236
  O  O1128  1  0.279100  0.399700  0.722700  1.0  -0.7435
  O  O1129  1  0.319400  0.401100  0.679800  1.0  -0.6408
  O  O1130  1  0.046700  0.528000  0.483100  1.0  -0.7579
  O  O1131  1  0.211300  0.629000  0.315000  1.0  -0.8034
  O  O1132  1  0.246800  0.665400  0.337000  1.0  -0.6312
  O  O1133  1  0.157900  0.433200  0.672800  1.0  -0.6619
  O  O1134  1  0.178100  0.454200  0.737200  1.0  -0.6974
  O  O1135  1  0.152200  0.824300  0.723200  1.0  -0.6746
  O  O1136  1  0.199400  0.827200  0.732000  1.0  -0.7234
  O  O1137  1  0.220900  0.600300  0.222700  1.0  -0.7445
  O  O1138  1  0.180600  0.598900  0.179800  1.0  -0.6421
  O  O1139  1  0.453300  0.472000  0.983100  1.0  -0.757
  O  O1140  1  0.711300  0.129000  0.315000  1.0  -0.8034
  O  O1141  1  0.746800  0.165400  0.337000  1.0  -0.6312
  O  O1142  1  0.657900  0.933200  0.672800  1.0  -0.6619
  O  O1143  1  0.678100  0.954200  0.737200  1.0  -0.6974
  O  O1144  1  0.652200  0.324300  0.723200  1.0  -0.676
  O  O1145  1  0.699400  0.327200  0.732000  1.0  -0.7234
  O  O1146  1  0.720900  0.100300  0.222700  1.0  -0.7445
  O  O1147  1  0.680600  0.098900  0.179800  1.0  -0.6419
  O  O1148  1  0.953300  0.972000  0.983100  1.0  -0.757
  O  O1149  1  0.211300  0.371000  0.685000  1.0  -0.8014
  O  O1150  1  0.246800  0.334600  0.663000  1.0  -0.6322
  O  O1151  1  0.157900  0.566800  0.327200  1.0  -0.662
  O  O1152  1  0.178100  0.545800  0.262800  1.0  -0.6979
  O  O1153  1  0.152200  0.175700  0.276800  1.0  -0.6745
  O  O1154  1  0.199400  0.172800  0.268000  1.0  -0.7239
  O  O1155  1  0.220900  0.399700  0.777300  1.0  -0.744
  O  O1156  1  0.180600  0.401100  0.820200  1.0  -0.6439
  O  O1157  1  0.453300  0.528000  0.016900  1.0  -0.757
  O  O1158  1  0.711300  0.871000  0.685000  1.0  -0.8014
  O  O1159  1  0.746800  0.834600  0.663000  1.0  -0.6322
  O  O1160  1  0.657900  0.066800  0.327200  1.0  -0.662
  O  O1161  1  0.678100  0.045800  0.262800  1.0  -0.6979
  O  O1162  1  0.652200  0.675700  0.276800  1.0  -0.6753
  O  O1163  1  0.699400  0.672800  0.268000  1.0  -0.7239
  O  O1164  1  0.720900  0.899700  0.777300  1.0  -0.744
  O  O1165  1  0.680600  0.901100  0.820200  1.0  -0.6438
  O  O1166  1  0.953300  0.028000  0.016900  1.0  -0.757
  O  O1167  1  0.788700  0.129000  0.185000  1.0  -0.8025
  O  O1168  1  0.753200  0.165400  0.163000  1.0  -0.6317
  O  O1169  1  0.842100  0.933200  0.827200  1.0  -0.6605
  O  O1170  1  0.821900  0.954200  0.762800  1.0  -0.6958
  O  O1171  1  0.847800  0.324300  0.776800  1.0  -0.6726
  O  O1172  1  0.800600  0.327200  0.768000  1.0  -0.7234
  O  O1173  1  0.779100  0.100300  0.277300  1.0  -0.7436
  O  O1174  1  0.819400  0.098900  0.320200  1.0  -0.6472
  O  O1175  1  0.546700  0.972000  0.516900  1.0  -0.7565
  O  O1176  1  0.288700  0.629000  0.185000  1.0  -0.8025
  O  O1177  1  0.253200  0.665400  0.163000  1.0  -0.6317
  O  O1178  1  0.342100  0.433200  0.827200  1.0  -0.6605
  O  O1179  1  0.321900  0.454200  0.762800  1.0  -0.6958
  O  O1180  1  0.347800  0.824300  0.776800  1.0  -0.6735
  O  O1181  1  0.300600  0.827200  0.768000  1.0  -0.7234
  O  O1182  1  0.279100  0.600300  0.277300  1.0  -0.7436
  O  O1183  1  0.319400  0.598900  0.320200  1.0  -0.6408
  O  O1184  1  0.046700  0.472000  0.516900  1.0  -0.7565
  O  O1185  1  0.500000  0.017300  0.560000  1.0  -0.6721
  O  O1186  1  0.000000  0.517300  0.560000  1.0  -0.6714
  O  O1187  1  0.500000  0.482700  0.060000  1.0  -0.6726
  O  O1188  1  0.000000  0.982700  0.060000  1.0  -0.6722
  O  O1189  1  0.500000  0.517300  0.940000  1.0  -0.6695
  O  O1190  1  0.000000  0.017300  0.940000  1.0  -0.6697
  O  O1191  1  0.500000  0.982700  0.440000  1.0  -0.6698
  O  O1192  1  0.000000  0.482700  0.440000  1.0  -0.67
