# generated using pymatgen
data_Cu3H26C41NO15
_symmetry_space_group_name_H-M   'P 1'
_cell_length_a   29.53500000
_cell_length_b   29.53500000
_cell_length_c   28.09930000
_cell_angle_alpha   90.00000000
_cell_angle_beta   90.00000000
_cell_angle_gamma   90.00000000
_symmetry_Int_Tables_number   1
_chemical_formula_structural   Cu3H26C41NO15
_chemical_formula_sum   'Cu48 H416 C656 N16 O240'
_cell_volume   24511.47530114
_cell_formula_units_Z   16
loop_
 _symmetry_equiv_pos_site_id
 _symmetry_equiv_pos_as_xyz
  1  'x, y, z'
loop_
 _atom_site_type_symbol
 _atom_site_label
 _atom_site_symmetry_multiplicity
 _atom_site_fract_x
 _atom_site_fract_y
 _atom_site_fract_z
 _atom_site_occupancy
 _atom_site_charge
  Cu  Cu1  1  0.187870  0.173810  0.234790  1.0  0.8767
  Cu  Cu2  1  0.141910  0.131180  0.302000  1.0  0.9047
  Cu  Cu3  1  0.812130  0.826190  0.234790  1.0  0.8775
  Cu  Cu4  1  0.858090  0.868820  0.302000  1.0  0.9075
  Cu  Cu5  1  0.826190  0.187870  0.234790  1.0  0.8763
  Cu  Cu6  1  0.868820  0.141910  0.302000  1.0  0.9037
  Cu  Cu7  1  0.173810  0.812130  0.234790  1.0  0.875
  Cu  Cu8  1  0.131180  0.858090  0.302000  1.0  0.9056
  Cu  Cu9  1  0.812130  0.826190  0.765210  1.0  0.8781
  Cu  Cu10  1  0.858090  0.868820  0.698000  1.0  0.9065
  Cu  Cu11  1  0.187870  0.173810  0.765210  1.0  0.8774
  Cu  Cu12  1  0.141910  0.131180  0.698000  1.0  0.9061
  Cu  Cu13  1  0.173810  0.812130  0.765210  1.0  0.8756
  Cu  Cu14  1  0.131180  0.858090  0.698000  1.0  0.9059
  Cu  Cu15  1  0.826190  0.187870  0.765210  1.0  0.877
  Cu  Cu16  1  0.868820  0.141910  0.698000  1.0  0.9044
  Cu  Cu17  1  0.012310  0.361760  0.500000  1.0  0.9139
  Cu  Cu18  1  0.009250  0.273160  0.500000  1.0  0.9112
  Cu  Cu19  1  0.987690  0.638240  0.500000  1.0  0.9146
  Cu  Cu20  1  0.990750  0.726840  0.500000  1.0  0.9109
  Cu  Cu21  1  0.638240  0.012310  0.500000  1.0  0.9149
  Cu  Cu22  1  0.726840  0.009250  0.500000  1.0  0.9121
  Cu  Cu23  1  0.361760  0.987690  0.500000  1.0  0.9169
  Cu  Cu24  1  0.273160  0.990750  0.500000  1.0  0.9107
  Cu  Cu25  1  0.687870  0.673810  0.734790  1.0  0.8767
  Cu  Cu26  1  0.641910  0.631180  0.802000  1.0  0.9047
  Cu  Cu27  1  0.312130  0.326190  0.734790  1.0  0.8775
  Cu  Cu28  1  0.358090  0.368820  0.802000  1.0  0.9075
  Cu  Cu29  1  0.326190  0.687870  0.734790  1.0  0.8763
  Cu  Cu30  1  0.368820  0.641910  0.802000  1.0  0.9037
  Cu  Cu31  1  0.673810  0.312130  0.734790  1.0  0.875
  Cu  Cu32  1  0.631180  0.358090  0.802000  1.0  0.9056
  Cu  Cu33  1  0.312130  0.326190  0.265210  1.0  0.8781
  Cu  Cu34  1  0.358090  0.368820  0.198000  1.0  0.9065
  Cu  Cu35  1  0.687870  0.673810  0.265210  1.0  0.8774
  Cu  Cu36  1  0.641910  0.631180  0.198000  1.0  0.9061
  Cu  Cu37  1  0.673810  0.312130  0.265210  1.0  0.8756
  Cu  Cu38  1  0.631180  0.358090  0.198000  1.0  0.9059
  Cu  Cu39  1  0.326190  0.687870  0.265210  1.0  0.877
  Cu  Cu40  1  0.368820  0.641910  0.198000  1.0  0.9044
  Cu  Cu41  1  0.512310  0.861760  0.000000  1.0  0.9139
  Cu  Cu42  1  0.509250  0.773160  0.000000  1.0  0.9112
  Cu  Cu43  1  0.487690  0.138240  0.000000  1.0  0.9146
  Cu  Cu44  1  0.490750  0.226840  0.000000  1.0  0.9109
  Cu  Cu45  1  0.138240  0.512310  0.000000  1.0  0.9149
  Cu  Cu46  1  0.226840  0.509250  0.000000  1.0  0.9121
  Cu  Cu47  1  0.861760  0.487690  0.000000  1.0  0.9169
  Cu  Cu48  1  0.773160  0.490750  0.000000  1.0  0.9107
  H  H49  1  0.101300  0.244900  0.385700  1.0  0.1101
  H  H50  1  0.181200  0.309900  0.291300  1.0  0.1106
  H  H51  1  0.111300  0.381100  0.390000  1.0  0.1158
  H  H52  1  0.166700  0.434100  0.362700  1.0  0.1066
  H  H53  1  0.121000  0.430200  0.332200  1.0  0.0944
  H  H54  1  0.198700  0.424200  0.249300  1.0  0.0943
  H  H55  1  0.232900  0.480000  0.202500  1.0  0.1166
  H  H56  1  0.215700  0.555600  0.216700  1.0  0.1064
  H  H57  1  0.147500  0.518600  0.332700  1.0  0.0999
  H  H58  1  0.201400  0.610200  0.291300  1.0  0.0934
  H  H59  1  0.154600  0.609300  0.262200  1.0  0.0867
  H  H60  1  0.166300  0.678600  0.296700  1.0  0.1215
  H  H61  1  0.083900  0.747500  0.385300  1.0  0.115
  H  H62  1  0.092300  0.610500  0.395200  1.0  0.1301
  H  H63  1  0.223400  0.058600  0.149000  1.0  0.1186
  H  H64  1  0.216300  0.922100  0.149900  1.0  0.1218
  H  H65  1  0.151500  0.993800  0.250800  1.0  0.1177
  H  H66  1  0.246900  0.930700  0.081200  1.0  0.0802
  H  H67  1  0.292300  0.940700  0.111100  1.0  0.0885
  H  H68  1  0.356800  0.967600  0.072000  1.0  0.1028
  H  H69  1  0.225900  0.141800  0.146100  1.0  0.1159
  H  H70  1  0.258500  0.165400  0.074400  1.0  0.1107
  H  H71  1  0.273400  0.242300  0.061500  1.0  0.1086
  H  H72  1  0.255600  0.295500  0.120400  1.0  0.1069
  H  H73  1  0.223000  0.271800  0.192000  1.0  0.1062
  H  H74  1  0.898700  0.755100  0.385700  1.0  0.1097
  H  H75  1  0.818800  0.690100  0.291300  1.0  0.1108
  H  H76  1  0.888700  0.618900  0.390000  1.0  0.1162
  H  H77  1  0.833300  0.565900  0.362700  1.0  0.1072
  H  H78  1  0.879000  0.569800  0.332200  1.0  0.0902
  H  H79  1  0.801300  0.575800  0.249300  1.0  0.0942
  H  H80  1  0.767100  0.520000  0.202500  1.0  0.1165
  H  H81  1  0.784300  0.444400  0.216700  1.0  0.1065
  H  H82  1  0.852500  0.481400  0.332700  1.0  0.099
  H  H83  1  0.798600  0.389800  0.291300  1.0  0.0931
  H  H84  1  0.845400  0.390700  0.262200  1.0  0.0873
  H  H85  1  0.833700  0.321400  0.296700  1.0  0.1213
  H  H86  1  0.916100  0.252500  0.385300  1.0  0.115
  H  H87  1  0.907700  0.389500  0.395200  1.0  0.13
  H  H88  1  0.776600  0.941400  0.149000  1.0  0.1192
  H  H89  1  0.783700  0.077900  0.149900  1.0  0.1218
  H  H90  1  0.848500  0.006200  0.250800  1.0  0.1171
  H  H91  1  0.753100  0.069300  0.081200  1.0  0.0804
  H  H92  1  0.707700  0.059300  0.111100  1.0  0.089
  H  H93  1  0.643200  0.032400  0.072000  1.0  0.1033
  H  H94  1  0.774100  0.858200  0.146100  1.0  0.1161
  H  H95  1  0.741500  0.834600  0.074400  1.0  0.1117
  H  H96  1  0.726600  0.757700  0.061500  1.0  0.1079
  H  H97  1  0.744400  0.704500  0.120400  1.0  0.106
  H  H98  1  0.777000  0.728200  0.192000  1.0  0.1063
  H  H99  1  0.755100  0.101300  0.385700  1.0  0.108
  H  H100  1  0.690100  0.181200  0.291300  1.0  0.1107
  H  H101  1  0.618900  0.111300  0.390000  1.0  0.1167
  H  H102  1  0.565900  0.166700  0.362700  1.0  0.1067
  H  H103  1  0.569800  0.121000  0.332200  1.0  0.0888
  H  H104  1  0.575800  0.198700  0.249300  1.0  0.0939
  H  H105  1  0.520000  0.232900  0.202500  1.0  0.1162
  H  H106  1  0.444400  0.215700  0.216700  1.0  0.1062
  H  H107  1  0.481400  0.147500  0.332700  1.0  0.0992
  H  H108  1  0.389800  0.201400  0.291300  1.0  0.0935
  H  H109  1  0.390700  0.154600  0.262200  1.0  0.0868
  H  H110  1  0.321400  0.166300  0.296700  1.0  0.1214
  H  H111  1  0.252500  0.083900  0.385300  1.0  0.1137
  H  H112  1  0.389500  0.092300  0.395200  1.0  0.1307
  H  H113  1  0.941400  0.223400  0.149000  1.0  0.1195
  H  H114  1  0.077900  0.216300  0.149900  1.0  0.1224
  H  H115  1  0.006200  0.151500  0.250800  1.0  0.1186
  H  H116  1  0.069300  0.246900  0.081200  1.0  0.08
  H  H117  1  0.059300  0.292300  0.111100  1.0  0.088
  H  H118  1  0.032400  0.356800  0.072000  1.0  0.1041
  H  H119  1  0.858200  0.225900  0.146100  1.0  0.115
  H  H120  1  0.834600  0.258500  0.074400  1.0  0.1111
  H  H121  1  0.757700  0.273400  0.061500  1.0  0.1084
  H  H122  1  0.704500  0.255600  0.120400  1.0  0.1056
  H  H123  1  0.728200  0.223000  0.192000  1.0  0.1065
  H  H124  1  0.244900  0.898700  0.385700  1.0  0.1082
  H  H125  1  0.309900  0.818800  0.291300  1.0  0.1112
  H  H126  1  0.381100  0.888700  0.390000  1.0  0.1158
  H  H127  1  0.434100  0.833300  0.362700  1.0  0.1056
  H  H128  1  0.430200  0.879000  0.332200  1.0  0.0912
  H  H129  1  0.424200  0.801300  0.249300  1.0  0.0937
  H  H130  1  0.480000  0.767100  0.202500  1.0  0.1166
  H  H131  1  0.555600  0.784300  0.216700  1.0  0.1061
  H  H132  1  0.518600  0.852500  0.332700  1.0  0.0986
  H  H133  1  0.610200  0.798600  0.291300  1.0  0.0936
  H  H134  1  0.609300  0.845400  0.262200  1.0  0.0868
  H  H135  1  0.678600  0.833700  0.296700  1.0  0.1217
  H  H136  1  0.747500  0.916100  0.385300  1.0  0.1137
  H  H137  1  0.610500  0.907700  0.395200  1.0  0.1307
  H  H138  1  0.058600  0.776600  0.149000  1.0  0.1189
  H  H139  1  0.922100  0.783700  0.149900  1.0  0.1223
  H  H140  1  0.993800  0.848500  0.250800  1.0  0.1194
  H  H141  1  0.930700  0.753100  0.081200  1.0  0.0798
  H  H142  1  0.940700  0.707700  0.111100  1.0  0.0881
  H  H143  1  0.967600  0.643200  0.072000  1.0  0.1041
  H  H144  1  0.141800  0.774100  0.146100  1.0  0.1152
  H  H145  1  0.165400  0.741500  0.074400  1.0  0.1111
  H  H146  1  0.242300  0.726600  0.061500  1.0  0.109
  H  H147  1  0.295500  0.744400  0.120400  1.0  0.1064
  H  H148  1  0.271800  0.777000  0.192000  1.0  0.1068
  H  H149  1  0.898700  0.755100  0.614300  1.0  0.1094
  H  H150  1  0.818800  0.690100  0.708700  1.0  0.1108
  H  H151  1  0.888700  0.618900  0.610000  1.0  0.116
  H  H152  1  0.833300  0.565900  0.637300  1.0  0.1074
  H  H153  1  0.879000  0.569800  0.667800  1.0  0.0899
  H  H154  1  0.801300  0.575800  0.750700  1.0  0.0942
  H  H155  1  0.767100  0.520000  0.797500  1.0  0.1172
  H  H156  1  0.784300  0.444400  0.783300  1.0  0.1061
  H  H157  1  0.852500  0.481400  0.667300  1.0  0.0996
  H  H158  1  0.798600  0.389800  0.708700  1.0  0.0931
  H  H159  1  0.845400  0.390700  0.737800  1.0  0.0872
  H  H160  1  0.833700  0.321400  0.703300  1.0  0.1211
  H  H161  1  0.916100  0.252500  0.614700  1.0  0.1154
  H  H162  1  0.907700  0.389500  0.604800  1.0  0.1299
  H  H163  1  0.776600  0.941400  0.851000  1.0  0.1184
  H  H164  1  0.783700  0.077900  0.850100  1.0  0.1212
  H  H165  1  0.848500  0.006200  0.749200  1.0  0.1172
  H  H166  1  0.753100  0.069300  0.918800  1.0  0.0799
  H  H167  1  0.707700  0.059300  0.888900  1.0  0.0893
  H  H168  1  0.643200  0.032400  0.928000  1.0  0.1029
  H  H169  1  0.774100  0.858200  0.853900  1.0  0.1176
  H  H170  1  0.741500  0.834600  0.925600  1.0  0.1122
  H  H171  1  0.726600  0.757700  0.938500  1.0  0.1089
  H  H172  1  0.744400  0.704500  0.879600  1.0  0.1056
  H  H173  1  0.777000  0.728200  0.808000  1.0  0.1064
  H  H174  1  0.101300  0.244900  0.614300  1.0  0.1099
  H  H175  1  0.181200  0.309900  0.708700  1.0  0.1106
  H  H176  1  0.111300  0.381100  0.610000  1.0  0.1162
  H  H177  1  0.166700  0.434100  0.637300  1.0  0.1065
  H  H178  1  0.121000  0.430200  0.667800  1.0  0.094
  H  H179  1  0.198700  0.424200  0.750700  1.0  0.0944
  H  H180  1  0.232900  0.480000  0.797500  1.0  0.1175
  H  H181  1  0.215700  0.555600  0.783300  1.0  0.1063
  H  H182  1  0.147500  0.518600  0.667300  1.0  0.1
  H  H183  1  0.201400  0.610200  0.708700  1.0  0.0932
  H  H184  1  0.154600  0.609300  0.737800  1.0  0.0878
  H  H185  1  0.166300  0.678600  0.703300  1.0  0.1212
  H  H186  1  0.083900  0.747500  0.614700  1.0  0.1152
  H  H187  1  0.092300  0.610500  0.604800  1.0  0.1295
  H  H188  1  0.223400  0.058600  0.851000  1.0  0.1188
  H  H189  1  0.216300  0.922100  0.850100  1.0  0.1218
  H  H190  1  0.151500  0.993800  0.749200  1.0  0.1174
  H  H191  1  0.246900  0.930700  0.918800  1.0  0.0808
  H  H192  1  0.292300  0.940700  0.888900  1.0  0.0879
  H  H193  1  0.356800  0.967600  0.928000  1.0  0.103
  H  H194  1  0.225900  0.141800  0.853900  1.0  0.117
  H  H195  1  0.258500  0.165400  0.925600  1.0  0.1128
  H  H196  1  0.273400  0.242300  0.938500  1.0  0.1091
  H  H197  1  0.255600  0.295500  0.879600  1.0  0.1059
  H  H198  1  0.223000  0.271800  0.808000  1.0  0.1066
  H  H199  1  0.244900  0.898700  0.614300  1.0  0.108
  H  H200  1  0.309900  0.818800  0.708700  1.0  0.1112
  H  H201  1  0.381100  0.888700  0.610000  1.0  0.1163
  H  H202  1  0.434100  0.833300  0.637300  1.0  0.1064
  H  H203  1  0.430200  0.879000  0.667800  1.0  0.0916
  H  H204  1  0.424200  0.801300  0.750700  1.0  0.0938
  H  H205  1  0.480000  0.767100  0.797500  1.0  0.1174
  H  H206  1  0.555600  0.784300  0.783300  1.0  0.1058
  H  H207  1  0.518600  0.852500  0.667300  1.0  0.099
  H  H208  1  0.610200  0.798600  0.708700  1.0  0.0936
  H  H209  1  0.609300  0.845400  0.737800  1.0  0.0875
  H  H210  1  0.678600  0.833700  0.703300  1.0  0.1214
  H  H211  1  0.747500  0.916100  0.614700  1.0  0.114
  H  H212  1  0.610500  0.907700  0.604800  1.0  0.1304
  H  H213  1  0.058600  0.776600  0.851000  1.0  0.1187
  H  H214  1  0.922100  0.783700  0.850100  1.0  0.1219
  H  H215  1  0.993800  0.848500  0.749200  1.0  0.1193
  H  H216  1  0.930700  0.753100  0.918800  1.0  0.0794
  H  H217  1  0.940700  0.707700  0.888900  1.0  0.0876
  H  H218  1  0.967600  0.643200  0.928000  1.0  0.1042
  H  H219  1  0.141800  0.774100  0.853900  1.0  0.1152
  H  H220  1  0.165400  0.741500  0.925600  1.0  0.1125
  H  H221  1  0.242300  0.726600  0.938500  1.0  0.1095
  H  H222  1  0.295500  0.744400  0.879600  1.0  0.1056
  H  H223  1  0.271800  0.777000  0.808000  1.0  0.107
  H  H224  1  0.755100  0.101300  0.614300  1.0  0.108
  H  H225  1  0.690100  0.181200  0.708700  1.0  0.1106
  H  H226  1  0.618900  0.111300  0.610000  1.0  0.1163
  H  H227  1  0.565900  0.166700  0.637300  1.0  0.1065
  H  H228  1  0.569800  0.121000  0.667800  1.0  0.0887
  H  H229  1  0.575800  0.198700  0.750700  1.0  0.0943
  H  H230  1  0.520000  0.232900  0.797500  1.0  0.1167
  H  H231  1  0.444400  0.215700  0.783300  1.0  0.106
  H  H232  1  0.481400  0.147500  0.667300  1.0  0.0991
  H  H233  1  0.389800  0.201400  0.708700  1.0  0.0937
  H  H234  1  0.390700  0.154600  0.737800  1.0  0.0879
  H  H235  1  0.321400  0.166300  0.703300  1.0  0.1212
  H  H236  1  0.252500  0.083900  0.614700  1.0  0.1137
  H  H237  1  0.389500  0.092300  0.604800  1.0  0.1302
  H  H238  1  0.941400  0.223400  0.851000  1.0  0.1192
  H  H239  1  0.077900  0.216300  0.850100  1.0  0.1224
  H  H240  1  0.006200  0.151500  0.749200  1.0  0.1181
  H  H241  1  0.069300  0.246900  0.918800  1.0  0.0806
  H  H242  1  0.059300  0.292300  0.888900  1.0  0.0876
  H  H243  1  0.032400  0.356800  0.928000  1.0  0.1046
  H  H244  1  0.858200  0.225900  0.853900  1.0  0.1169
  H  H245  1  0.834600  0.258500  0.925600  1.0  0.1125
  H  H246  1  0.757700  0.273400  0.938500  1.0  0.1091
  H  H247  1  0.704500  0.255600  0.879600  1.0  0.1049
  H  H248  1  0.728200  0.223000  0.808000  1.0  0.1065
  H  H249  1  0.394400  0.976000  0.000000  1.0  0.103
  H  H250  1  0.239300  0.971300  0.000000  1.0  0.1102
  H  H251  1  0.605600  0.024000  0.000000  1.0  0.1041
  H  H252  1  0.760700  0.028700  0.000000  1.0  0.1095
  H  H253  1  0.024000  0.394400  0.000000  1.0  0.1059
  H  H254  1  0.028700  0.239300  0.000000  1.0  0.1119
  H  H255  1  0.976000  0.605600  0.000000  1.0  0.1077
  H  H256  1  0.971300  0.760700  0.000000  1.0  0.1105
  H  H257  1  0.601300  0.744900  0.885700  1.0  0.1101
  H  H258  1  0.681200  0.809900  0.791300  1.0  0.1106
  H  H259  1  0.611300  0.881100  0.890000  1.0  0.1158
  H  H260  1  0.666667  0.934100  0.862700  1.0  0.1074
  H  H261  1  0.621000  0.930200  0.832200  1.0  0.0944
  H  H262  1  0.698700  0.924200  0.749300  1.0  0.0943
  H  H263  1  0.732900  0.980000  0.702500  1.0  0.1166
  H  H264  1  0.715700  0.055600  0.716700  1.0  0.1064
  H  H265  1  0.647500  0.018600  0.832700  1.0  0.1
  H  H266  1  0.701400  0.110200  0.791300  1.0  0.0934
  H  H267  1  0.654600  0.109300  0.762200  1.0  0.0867
  H  H268  1  0.666300  0.178600  0.796700  1.0  0.1217
  H  H269  1  0.583900  0.247500  0.885300  1.0  0.115
  H  H270  1  0.592300  0.110500  0.895200  1.0  0.1301
  H  H271  1  0.723400  0.558600  0.649000  1.0  0.1186
  H  H272  1  0.716300  0.422100  0.649900  1.0  0.1218
  H  H273  1  0.651500  0.493800  0.750800  1.0  0.1177
  H  H274  1  0.746900  0.430700  0.581200  1.0  0.0802
  H  H275  1  0.792300  0.440700  0.611100  1.0  0.0885
  H  H276  1  0.856800  0.467600  0.572000  1.0  0.1025
  H  H277  1  0.725900  0.641800  0.646100  1.0  0.1159
  H  H278  1  0.758500  0.665400  0.574400  1.0  0.1107
  H  H279  1  0.773400  0.742300  0.561500  1.0  0.1086
  H  H280  1  0.755600  0.795500  0.620400  1.0  0.1085
  H  H281  1  0.723000  0.771800  0.692000  1.0  0.1062
  H  H282  1  0.398700  0.255100  0.885700  1.0  0.1097
  H  H283  1  0.318800  0.190100  0.791300  1.0  0.1108
  H  H284  1  0.388700  0.118900  0.890000  1.0  0.1162
  H  H285  1  0.333333  0.065900  0.862700  1.0  0.108
  H  H286  1  0.379000  0.069800  0.832200  1.0  0.0902
  H  H287  1  0.301300  0.075800  0.749300  1.0  0.0942
  H  H288  1  0.267100  0.020000  0.702500  1.0  0.1165
  H  H289  1  0.284300  0.944400  0.716700  1.0  0.1065
  H  H290  1  0.352500  0.981400  0.832700  1.0  0.099
  H  H291  1  0.298600  0.889800  0.791300  1.0  0.0931
  H  H292  1  0.345400  0.890700  0.762200  1.0  0.0873
  H  H293  1  0.333700  0.821400  0.796700  1.0  0.1215
  H  H294  1  0.416100  0.752500  0.885300  1.0  0.115
  H  H295  1  0.407700  0.889500  0.895200  1.0  0.13
  H  H296  1  0.276600  0.441400  0.649000  1.0  0.1191
  H  H297  1  0.283700  0.577900  0.649900  1.0  0.1218
  H  H298  1  0.348500  0.506200  0.750800  1.0  0.1171
  H  H299  1  0.253100  0.569300  0.581200  1.0  0.0804
  H  H300  1  0.207700  0.559300  0.611100  1.0  0.089
  H  H301  1  0.143200  0.532400  0.572000  1.0  0.1032
  H  H302  1  0.274100  0.358200  0.646100  1.0  0.1161
  H  H303  1  0.241500  0.334600  0.574400  1.0  0.1117
  H  H304  1  0.226600  0.257700  0.561500  1.0  0.1079
  H  H305  1  0.244400  0.204500  0.620400  1.0  0.1075
  H  H306  1  0.277000  0.228200  0.692000  1.0  0.1063
  H  H307  1  0.255100  0.601300  0.885700  1.0  0.108
  H  H308  1  0.190100  0.681200  0.791300  1.0  0.1107
  H  H309  1  0.118900  0.611300  0.890000  1.0  0.1167
  H  H310  1  0.065900  0.666667  0.862700  1.0  0.1075
  H  H311  1  0.069800  0.621000  0.832200  1.0  0.0889
  H  H312  1  0.075800  0.698700  0.749300  1.0  0.0939
  H  H313  1  0.020000  0.732900  0.702500  1.0  0.1162
  H  H314  1  0.944400  0.715700  0.716700  1.0  0.1062
  H  H315  1  0.981400  0.647500  0.832700  1.0  0.0992
  H  H316  1  0.889800  0.701400  0.791300  1.0  0.0935
  H  H317  1  0.890700  0.654600  0.762200  1.0  0.0868
  H  H318  1  0.821400  0.666300  0.796700  1.0  0.1217
  H  H319  1  0.752500  0.583900  0.885300  1.0  0.1137
  H  H320  1  0.889500  0.592300  0.895200  1.0  0.1307
  H  H321  1  0.441400  0.723400  0.649000  1.0  0.1195
  H  H322  1  0.577900  0.716300  0.649900  1.0  0.1224
  H  H323  1  0.506200  0.651500  0.750800  1.0  0.1186
  H  H324  1  0.569300  0.746900  0.581200  1.0  0.08
  H  H325  1  0.559300  0.792300  0.611100  1.0  0.088
  H  H326  1  0.532400  0.856800  0.572000  1.0  0.104
  H  H327  1  0.358200  0.725900  0.646100  1.0  0.1151
  H  H328  1  0.334600  0.758500  0.574400  1.0  0.1111
  H  H329  1  0.257700  0.773400  0.561500  1.0  0.1084
  H  H330  1  0.204500  0.755600  0.620400  1.0  0.1071
  H  H331  1  0.228200  0.723000  0.692000  1.0  0.1065
  H  H332  1  0.744900  0.398700  0.885700  1.0  0.1082
  H  H333  1  0.809900  0.318800  0.791300  1.0  0.1112
  H  H334  1  0.881100  0.388700  0.890000  1.0  0.1158
  H  H335  1  0.934100  0.333333  0.862700  1.0  0.1064
  H  H336  1  0.930200  0.379000  0.832200  1.0  0.0913
  H  H337  1  0.924200  0.301300  0.749300  1.0  0.0937
  H  H338  1  0.980000  0.267100  0.702500  1.0  0.1166
  H  H339  1  0.055600  0.284300  0.716700  1.0  0.1061
  H  H340  1  0.018600  0.352500  0.832700  1.0  0.0987
  H  H341  1  0.110200  0.298600  0.791300  1.0  0.0936
  H  H342  1  0.109300  0.345400  0.762200  1.0  0.0868
  H  H343  1  0.178600  0.333700  0.796700  1.0  0.1219
  H  H344  1  0.247500  0.416100  0.885300  1.0  0.1137
  H  H345  1  0.110500  0.407700  0.895200  1.0  0.1307
  H  H346  1  0.558600  0.276600  0.649000  1.0  0.1189
  H  H347  1  0.422100  0.283700  0.649900  1.0  0.1223
  H  H348  1  0.493800  0.348500  0.750800  1.0  0.1194
  H  H349  1  0.430700  0.253100  0.581200  1.0  0.0798
  H  H350  1  0.440700  0.207700  0.611100  1.0  0.0881
  H  H351  1  0.467600  0.143200  0.572000  1.0  0.1039
  H  H352  1  0.641800  0.274100  0.646100  1.0  0.1152
  H  H353  1  0.665400  0.241500  0.574400  1.0  0.1111
  H  H354  1  0.742300  0.226600  0.561500  1.0  0.109
  H  H355  1  0.795500  0.244400  0.620400  1.0  0.1079
  H  H356  1  0.771800  0.277000  0.692000  1.0  0.1068
  H  H357  1  0.398700  0.255100  0.114300  1.0  0.1094
  H  H358  1  0.318800  0.190100  0.208700  1.0  0.1108
  H  H359  1  0.388700  0.118900  0.110000  1.0  0.116
  H  H360  1  0.333333  0.065900  0.137300  1.0  0.1082
  H  H361  1  0.379000  0.069800  0.167800  1.0  0.0898
  H  H362  1  0.301300  0.075800  0.250700  1.0  0.0942
  H  H363  1  0.267100  0.020000  0.297500  1.0  0.1172
  H  H364  1  0.284300  0.944400  0.283300  1.0  0.1061
  H  H365  1  0.352500  0.981400  0.167300  1.0  0.0997
  H  H366  1  0.298600  0.889800  0.208700  1.0  0.0931
  H  H367  1  0.345400  0.890700  0.237800  1.0  0.0872
  H  H368  1  0.333700  0.821400  0.203300  1.0  0.1213
  H  H369  1  0.416100  0.752500  0.114700  1.0  0.1154
  H  H370  1  0.407700  0.889500  0.104800  1.0  0.1299
  H  H371  1  0.276600  0.441400  0.351000  1.0  0.1184
  H  H372  1  0.283700  0.577900  0.350100  1.0  0.1212
  H  H373  1  0.348500  0.506200  0.249200  1.0  0.1172
  H  H374  1  0.253100  0.569300  0.418800  1.0  0.0799
  H  H375  1  0.207700  0.559300  0.388900  1.0  0.0893
  H  H376  1  0.143200  0.532400  0.428000  1.0  0.1029
  H  H377  1  0.274100  0.358200  0.353900  1.0  0.1176
  H  H378  1  0.241500  0.334600  0.425600  1.0  0.1122
  H  H379  1  0.226600  0.257700  0.438500  1.0  0.1089
  H  H380  1  0.244400  0.204500  0.379600  1.0  0.1072
  H  H381  1  0.277000  0.228200  0.308000  1.0  0.1064
  H  H382  1  0.601300  0.744900  0.114300  1.0  0.1099
  H  H383  1  0.681200  0.809900  0.208700  1.0  0.1106
  H  H384  1  0.611300  0.881100  0.110000  1.0  0.1162
  H  H385  1  0.666667  0.934100  0.137300  1.0  0.1073
  H  H386  1  0.621000  0.930200  0.167800  1.0  0.094
  H  H387  1  0.698700  0.924200  0.250700  1.0  0.0944
  H  H388  1  0.732900  0.980000  0.297500  1.0  0.1175
  H  H389  1  0.715700  0.055600  0.283300  1.0  0.1063
  H  H390  1  0.647500  0.018600  0.167300  1.0  0.1001
  H  H391  1  0.701400  0.110200  0.208700  1.0  0.0932
  H  H392  1  0.654600  0.109300  0.237800  1.0  0.0878
  H  H393  1  0.666300  0.178600  0.203300  1.0  0.1214
  H  H394  1  0.583900  0.247500  0.114700  1.0  0.1152
  H  H395  1  0.592300  0.110500  0.104800  1.0  0.1295
  H  H396  1  0.723400  0.558600  0.351000  1.0  0.1188
  H  H397  1  0.716300  0.422100  0.350100  1.0  0.1218
  H  H398  1  0.651500  0.493800  0.249200  1.0  0.1174
  H  H399  1  0.746900  0.430700  0.418800  1.0  0.0808
  H  H400  1  0.792300  0.440700  0.388900  1.0  0.0879
  H  H401  1  0.856800  0.467600  0.428000  1.0  0.1027
  H  H402  1  0.725900  0.641800  0.353900  1.0  0.117
  H  H403  1  0.758500  0.665400  0.425600  1.0  0.1128
  H  H404  1  0.773400  0.742300  0.438500  1.0  0.1091
  H  H405  1  0.755600  0.795500  0.379600  1.0  0.1074
  H  H406  1  0.723000  0.771800  0.308000  1.0  0.1066
  H  H407  1  0.744900  0.398700  0.114300  1.0  0.108
  H  H408  1  0.809900  0.318800  0.208700  1.0  0.1112
  H  H409  1  0.881100  0.388700  0.110000  1.0  0.1163
  H  H410  1  0.934100  0.333333  0.137300  1.0  0.1072
  H  H411  1  0.930200  0.379000  0.167800  1.0  0.0916
  H  H412  1  0.924200  0.301300  0.250700  1.0  0.0938
  H  H413  1  0.980000  0.267100  0.297500  1.0  0.1174
  H  H414  1  0.055600  0.284300  0.283300  1.0  0.1058
  H  H415  1  0.018600  0.352500  0.167300  1.0  0.0991
  H  H416  1  0.110200  0.298600  0.208700  1.0  0.0936
  H  H417  1  0.109300  0.345400  0.237800  1.0  0.0875
  H  H418  1  0.178600  0.333700  0.203300  1.0  0.1216
  H  H419  1  0.247500  0.416100  0.114700  1.0  0.114
  H  H420  1  0.110500  0.407700  0.104800  1.0  0.1304
  H  H421  1  0.558600  0.276600  0.351000  1.0  0.1186
  H  H422  1  0.422100  0.283700  0.350100  1.0  0.1219
  H  H423  1  0.493800  0.348500  0.249200  1.0  0.1193
  H  H424  1  0.430700  0.253100  0.418800  1.0  0.0794
  H  H425  1  0.440700  0.207700  0.388900  1.0  0.0876
  H  H426  1  0.467600  0.143200  0.428000  1.0  0.1041
  H  H427  1  0.641800  0.274100  0.353900  1.0  0.1152
  H  H428  1  0.665400  0.241500  0.425600  1.0  0.1125
  H  H429  1  0.742300  0.226600  0.438500  1.0  0.1095
  H  H430  1  0.795500  0.244400  0.379600  1.0  0.1072
  H  H431  1  0.771800  0.277000  0.308000  1.0  0.107
  H  H432  1  0.255100  0.601300  0.114300  1.0  0.108
  H  H433  1  0.190100  0.681200  0.208700  1.0  0.1106
  H  H434  1  0.118900  0.611300  0.110000  1.0  0.1162
  H  H435  1  0.065900  0.666667  0.137300  1.0  0.1072
  H  H436  1  0.069800  0.621000  0.167800  1.0  0.0887
  H  H437  1  0.075800  0.698700  0.250700  1.0  0.0943
  H  H438  1  0.020000  0.732900  0.297500  1.0  0.1167
  H  H439  1  0.944400  0.715700  0.283300  1.0  0.106
  H  H440  1  0.981400  0.647500  0.167300  1.0  0.0991
  H  H441  1  0.889800  0.701400  0.208700  1.0  0.0937
  H  H442  1  0.890700  0.654600  0.237800  1.0  0.0879
  H  H443  1  0.821400  0.666300  0.203300  1.0  0.1214
  H  H444  1  0.752500  0.583900  0.114700  1.0  0.1137
  H  H445  1  0.889500  0.592300  0.104800  1.0  0.1302
  H  H446  1  0.441400  0.723400  0.351000  1.0  0.1192
  H  H447  1  0.577900  0.716300  0.350100  1.0  0.1224
  H  H448  1  0.506200  0.651500  0.249200  1.0  0.1181
  H  H449  1  0.569300  0.746900  0.418800  1.0  0.0806
  H  H450  1  0.559300  0.792300  0.388900  1.0  0.0876
  H  H451  1  0.532400  0.856800  0.428000  1.0  0.1046
  H  H452  1  0.358200  0.725900  0.353900  1.0  0.117
  H  H453  1  0.334600  0.758500  0.425600  1.0  0.1125
  H  H454  1  0.257700  0.773400  0.438500  1.0  0.1091
  H  H455  1  0.204500  0.755600  0.379600  1.0  0.1064
  H  H456  1  0.228200  0.723000  0.308000  1.0  0.1065
  H  H457  1  0.894400  0.476000  0.500000  1.0  0.103
  H  H458  1  0.739300  0.471300  0.500000  1.0  0.1147
  H  H459  1  0.105600  0.524000  0.500000  1.0  0.1041
  H  H460  1  0.260700  0.528700  0.500000  1.0  0.1144
  H  H461  1  0.524000  0.894400  0.500000  1.0  0.1059
  H  H462  1  0.528700  0.739300  0.500000  1.0  0.116
  H  H463  1  0.476000  0.105600  0.500000  1.0  0.1077
  H  H464  1  0.471300  0.260700  0.500000  1.0  0.1152
  C  C465  1  0.113460  0.272250  0.373340  1.0  -0.051
  C  C466  1  0.168000  0.908700  0.226300  1.0  0.698
  C  C467  1  0.143120  0.270560  0.334530  1.0  -0.1704
  C  C468  1  0.160450  0.310650  0.317100  1.0  -0.1373
  C  C469  1  0.148100  0.352250  0.336600  1.0  0.2697
  C  C470  1  0.119260  0.353140  0.375600  1.0  -0.2134
  C  C471  1  0.101860  0.312370  0.393590  1.0  -0.1433
  C  C472  1  0.154400  0.428700  0.330400  1.0  -0.024
  C  C473  1  0.172200  0.465680  0.295800  1.0  0.013
  C  C474  1  0.194900  0.455200  0.257500  1.0  -0.141
  C  C475  1  0.213800  0.488300  0.228300  1.0  -0.109
  C  C476  1  0.204700  0.532700  0.237400  1.0  -0.0291
  C  C477  1  0.179500  0.544400  0.276400  1.0  0.089
  C  C478  1  0.164300  0.510800  0.305100  1.0  -0.144
  C  C479  1  0.171900  0.594500  0.288100  1.0  0.0153
  C  C480  1  0.132600  0.638950  0.343900  1.0  0.3175
  C  C481  1  0.145180  0.678790  0.322200  1.0  -0.1784
  C  C482  1  0.126630  0.719280  0.338000  1.0  -0.0918
  C  C483  1  0.096410  0.719610  0.374900  1.0  -0.0719
  C  C484  1  0.083890  0.679980  0.397100  1.0  -0.1265
  C  C485  1  0.101500  0.638300  0.381000  1.0  -0.1199
  C  C486  1  0.153550  0.227120  0.312200  1.0  0.6669
  C  C487  1  0.069890  0.314230  0.434400  1.0  0.7021
  C  C488  1  0.138250  0.761360  0.313200  1.0  0.6785
  C  C489  1  0.049770  0.679700  0.435680  1.0  0.6853
  C  C490  1  0.186100  0.033100  0.203200  1.0  -0.1355
  C  C491  1  0.213100  0.031300  0.163300  1.0  -0.1137
  C  C492  1  0.225100  0.990400  0.144300  1.0  0.2846
  C  C493  1  0.208600  0.950400  0.163700  1.0  -0.1439
  C  C494  1  0.181000  0.951900  0.203200  1.0  -0.1269
  C  C495  1  0.170100  0.992790  0.223200  1.0  -0.0068
  C  C496  1  0.270800  0.953500  0.087600  1.0  0.0014
  C  C497  1  0.296100  0.966200  0.040500  1.0  0.0538
  C  C498  1  0.340800  0.968200  0.042600  1.0  -0.0679
  C  C499  1  0.176400  0.077640  0.226700  1.0  0.691
  C  C500  1  0.231900  0.173000  0.140900  1.0  0.1574
  C  C501  1  0.251300  0.187000  0.098300  1.0  -0.1111
  C  C502  1  0.260100  0.232700  0.090700  1.0  -0.0744
  C  C503  1  0.249600  0.264300  0.125600  1.0  -0.0994
  C  C504  1  0.230200  0.250200  0.168200  1.0  0.1621
  C  C505  1  0.886540  0.727750  0.373340  1.0  -0.0483
  C  C506  1  0.832000  0.091300  0.226300  1.0  0.6975
  C  C507  1  0.856880  0.729440  0.334530  1.0  -0.1695
  C  C508  1  0.839550  0.689350  0.317100  1.0  -0.1361
  C  C509  1  0.851900  0.647750  0.336600  1.0  0.269
  C  C510  1  0.880740  0.646860  0.375600  1.0  -0.2119
  C  C511  1  0.898140  0.687630  0.393590  1.0  -0.1437
  C  C512  1  0.845600  0.571300  0.330400  1.0  -0.0212
  C  C513  1  0.827800  0.534320  0.295800  1.0  0.0118
  C  C514  1  0.805100  0.544800  0.257500  1.0  -0.1404
  C  C515  1  0.786200  0.511700  0.228300  1.0  -0.1096
  C  C516  1  0.795300  0.467300  0.237400  1.0  -0.0288
  C  C517  1  0.820500  0.455600  0.276400  1.0  0.0887
  C  C518  1  0.835700  0.489200  0.305100  1.0  -0.1455
  C  C519  1  0.828100  0.405500  0.288100  1.0  0.014
  C  C520  1  0.867400  0.361050  0.343900  1.0  0.3183
  C  C521  1  0.854820  0.321210  0.322200  1.0  -0.1773
  C  C522  1  0.873370  0.280720  0.338000  1.0  -0.0905
  C  C523  1  0.903590  0.280390  0.374900  1.0  -0.0705
  C  C524  1  0.916110  0.320020  0.397100  1.0  -0.1275
  C  C525  1  0.898500  0.361700  0.381000  1.0  -0.1194
  C  C526  1  0.846450  0.772880  0.312200  1.0  0.6673
  C  C527  1  0.930110  0.685770  0.434400  1.0  0.7019
  C  C528  1  0.861750  0.238640  0.313200  1.0  0.6802
  C  C529  1  0.950230  0.320300  0.435680  1.0  0.6852
  C  C530  1  0.813900  0.966900  0.203200  1.0  -0.1338
  C  C531  1  0.786900  0.968700  0.163300  1.0  -0.1139
  C  C532  1  0.774900  0.009600  0.144300  1.0  0.2849
  C  C533  1  0.791400  0.049600  0.163700  1.0  -0.1427
  C  C534  1  0.819000  0.048100  0.203200  1.0  -0.1271
  C  C535  1  0.829900  0.007210  0.223200  1.0  -0.0075
  C  C536  1  0.729200  0.046500  0.087600  1.0  0.0012
  C  C537  1  0.703900  0.033800  0.040500  1.0  0.0541
  C  C538  1  0.659200  0.031800  0.042600  1.0  -0.0641
  C  C539  1  0.823600  0.922360  0.226700  1.0  0.6919
  C  C540  1  0.768100  0.827000  0.140900  1.0  0.1557
  C  C541  1  0.748700  0.813000  0.098300  1.0  -0.1148
  C  C542  1  0.739900  0.767300  0.090700  1.0  -0.0727
  C  C543  1  0.750400  0.735700  0.125600  1.0  -0.0992
  C  C544  1  0.769800  0.749800  0.168200  1.0  0.1611
  C  C545  1  0.727750  0.113460  0.373340  1.0  -0.0463
  C  C546  1  0.091300  0.168000  0.226300  1.0  0.6958
  C  C547  1  0.729440  0.143120  0.334530  1.0  -0.17
  C  C548  1  0.689350  0.160450  0.317100  1.0  -0.1345
  C  C549  1  0.647750  0.148100  0.336600  1.0  0.2691
  C  C550  1  0.646860  0.119260  0.375600  1.0  -0.2098
  C  C551  1  0.687630  0.101860  0.393590  1.0  -0.1404
  C  C552  1  0.571300  0.154400  0.330400  1.0  -0.0221
  C  C553  1  0.534320  0.172200  0.295800  1.0  0.0118
  C  C554  1  0.544800  0.194900  0.257500  1.0  -0.143
  C  C555  1  0.511700  0.213800  0.228300  1.0  -0.1094
  C  C556  1  0.467300  0.204700  0.237400  1.0  -0.0269
  C  C557  1  0.455600  0.179500  0.276400  1.0  0.087
  C  C558  1  0.489200  0.164300  0.305100  1.0  -0.1427
  C  C559  1  0.405500  0.171900  0.288100  1.0  0.0147
  C  C560  1  0.361050  0.132600  0.343900  1.0  0.3178
  C  C561  1  0.321210  0.145180  0.322200  1.0  -0.1777
  C  C562  1  0.280720  0.126630  0.338000  1.0  -0.0917
  C  C563  1  0.280390  0.096410  0.374900  1.0  -0.0703
  C  C564  1  0.320020  0.083890  0.397100  1.0  -0.1242
  C  C565  1  0.361700  0.101500  0.381000  1.0  -0.1184
  C  C566  1  0.772880  0.153550  0.312200  1.0  0.6663
  C  C567  1  0.685770  0.069890  0.434400  1.0  0.7019
  C  C568  1  0.238640  0.138250  0.313200  1.0  0.6771
  C  C569  1  0.320300  0.049770  0.435680  1.0  0.685
  C  C570  1  0.966900  0.186100  0.203200  1.0  -0.1333
  C  C571  1  0.968700  0.213100  0.163300  1.0  -0.1142
  C  C572  1  0.009600  0.225100  0.144300  1.0  0.2855
  C  C573  1  0.049600  0.208600  0.163700  1.0  -0.1393
  C  C574  1  0.048100  0.181000  0.203200  1.0  -0.1277
  C  C575  1  0.007210  0.170100  0.223200  1.0  -0.0083
  C  C576  1  0.046500  0.270800  0.087600  1.0  0.001
  C  C577  1  0.033800  0.296100  0.040500  1.0  0.0558
  C  C578  1  0.031800  0.340800  0.042600  1.0  -0.0675
  C  C579  1  0.922360  0.176400  0.226700  1.0  0.6913
  C  C580  1  0.827000  0.231900  0.140900  1.0  0.1567
  C  C581  1  0.813000  0.251300  0.098300  1.0  -0.1145
  C  C582  1  0.767300  0.260100  0.090700  1.0  -0.072
  C  C583  1  0.735700  0.249600  0.125600  1.0  -0.1014
  C  C584  1  0.749800  0.230200  0.168200  1.0  0.1634
  C  C585  1  0.272250  0.886540  0.373340  1.0  -0.0476
  C  C586  1  0.908700  0.832000  0.226300  1.0  0.6963
  C  C587  1  0.270560  0.856880  0.334530  1.0  -0.1708
  C  C588  1  0.310650  0.839550  0.317100  1.0  -0.1356
  C  C589  1  0.352250  0.851900  0.336600  1.0  0.2695
  C  C590  1  0.353140  0.880740  0.375600  1.0  -0.2093
  C  C591  1  0.312370  0.898140  0.393590  1.0  -0.1409
  C  C592  1  0.428700  0.845600  0.330400  1.0  -0.0217
  C  C593  1  0.465680  0.827800  0.295800  1.0  0.0119
  C  C594  1  0.455200  0.805100  0.257500  1.0  -0.1427
  C  C595  1  0.488300  0.786200  0.228300  1.0  -0.1091
  C  C596  1  0.532700  0.795300  0.237400  1.0  -0.0268
  C  C597  1  0.544400  0.820500  0.276400  1.0  0.088
  C  C598  1  0.510800  0.835700  0.305100  1.0  -0.1455
  C  C599  1  0.594500  0.828100  0.288100  1.0  0.0129
  C  C600  1  0.638950  0.867400  0.343900  1.0  0.3172
  C  C601  1  0.678790  0.854820  0.322200  1.0  -0.1776
  C  C602  1  0.719280  0.873370  0.338000  1.0  -0.0903
  C  C603  1  0.719610  0.903590  0.374900  1.0  -0.0695
  C  C604  1  0.679980  0.916110  0.397100  1.0  -0.1241
  C  C605  1  0.638300  0.898500  0.381000  1.0  -0.119
  C  C606  1  0.227120  0.846450  0.312200  1.0  0.6654
  C  C607  1  0.314230  0.930110  0.434400  1.0  0.7022
  C  C608  1  0.761360  0.861750  0.313200  1.0  0.6769
  C  C609  1  0.679700  0.950230  0.435680  1.0  0.6852
  C  C610  1  0.033100  0.813900  0.203200  1.0  -0.1332
  C  C611  1  0.031300  0.786900  0.163300  1.0  -0.1141
  C  C612  1  0.990400  0.774900  0.144300  1.0  0.2845
  C  C613  1  0.950400  0.791400  0.163700  1.0  -0.1425
  C  C614  1  0.951900  0.819000  0.203200  1.0  -0.1288
  C  C615  1  0.992790  0.829900  0.223200  1.0  -0.0088
  C  C616  1  0.953500  0.729200  0.087600  1.0  0.0023
  C  C617  1  0.966200  0.703900  0.040500  1.0  0.0555
  C  C618  1  0.968200  0.659200  0.042600  1.0  -0.0674
  C  C619  1  0.077640  0.823600  0.226700  1.0  0.6905
  C  C620  1  0.173000  0.768100  0.140900  1.0  0.1588
  C  C621  1  0.187000  0.748700  0.098300  1.0  -0.1131
  C  C622  1  0.232700  0.739900  0.090700  1.0  -0.0736
  C  C623  1  0.264300  0.750400  0.125600  1.0  -0.0996
  C  C624  1  0.250200  0.769800  0.168200  1.0  0.1611
  C  C625  1  0.886540  0.727750  0.626660  1.0  -0.0468
  C  C626  1  0.832000  0.091300  0.773700  1.0  0.6967
  C  C627  1  0.856880  0.729440  0.665470  1.0  -0.1692
  C  C628  1  0.839550  0.689350  0.682900  1.0  -0.138
  C  C629  1  0.851900  0.647750  0.663400  1.0  0.2693
  C  C630  1  0.880740  0.646860  0.624400  1.0  -0.2118
  C  C631  1  0.898140  0.687630  0.606410  1.0  -0.1438
  C  C632  1  0.845600  0.571300  0.669600  1.0  -0.0221
  C  C633  1  0.827800  0.534320  0.704200  1.0  0.0111
  C  C634  1  0.805100  0.544800  0.742500  1.0  -0.1403
  C  C635  1  0.786200  0.511700  0.771700  1.0  -0.1085
  C  C636  1  0.795300  0.467300  0.762600  1.0  -0.0301
  C  C637  1  0.820500  0.455600  0.723600  1.0  0.0873
  C  C638  1  0.835700  0.489200  0.694900  1.0  -0.1451
  C  C639  1  0.828100  0.405500  0.711900  1.0  0.0138
  C  C640  1  0.867400  0.361050  0.656100  1.0  0.3177
  C  C641  1  0.854820  0.321210  0.677800  1.0  -0.1761
  C  C642  1  0.873370  0.280720  0.662000  1.0  -0.0886
  C  C643  1  0.903590  0.280390  0.625100  1.0  -0.0714
  C  C644  1  0.916110  0.320020  0.602900  1.0  -0.1261
  C  C645  1  0.898500  0.361700  0.619000  1.0  -0.1204
  C  C646  1  0.846450  0.772880  0.687800  1.0  0.6678
  C  C647  1  0.930110  0.685770  0.565600  1.0  0.7028
  C  C648  1  0.861750  0.238640  0.686800  1.0  0.6805
  C  C649  1  0.950230  0.320300  0.564320  1.0  0.6853
  C  C650  1  0.813900  0.966900  0.796800  1.0  -0.134
  C  C651  1  0.786900  0.968700  0.836700  1.0  -0.1132
  C  C652  1  0.774900  0.009600  0.855700  1.0  0.2859
  C  C653  1  0.791400  0.049600  0.836300  1.0  -0.1427
  C  C654  1  0.819000  0.048100  0.796800  1.0  -0.1266
  C  C655  1  0.829900  0.007210  0.776800  1.0  -0.0075
  C  C656  1  0.729200  0.046500  0.912400  1.0  -0.0018
  C  C657  1  0.703900  0.033800  0.959500  1.0  0.0542
  C  C658  1  0.659200  0.031800  0.957400  1.0  -0.0667
  C  C659  1  0.823600  0.922360  0.773300  1.0  0.6913
  C  C660  1  0.768100  0.827000  0.859100  1.0  0.1557
  C  C661  1  0.748700  0.813000  0.901700  1.0  -0.1108
  C  C662  1  0.739900  0.767300  0.909300  1.0  -0.0703
  C  C663  1  0.750400  0.735700  0.874400  1.0  -0.1002
  C  C664  1  0.769800  0.749800  0.831800  1.0  0.1615
  C  C665  1  0.113460  0.272250  0.626660  1.0  -0.0492
  C  C666  1  0.168000  0.908700  0.773700  1.0  0.6974
  C  C667  1  0.143120  0.270560  0.665470  1.0  -0.171
  C  C668  1  0.160450  0.310650  0.682900  1.0  -0.1394
  C  C669  1  0.148100  0.352250  0.663400  1.0  0.2694
  C  C670  1  0.119260  0.353140  0.624400  1.0  -0.2127
  C  C671  1  0.101860  0.312370  0.606410  1.0  -0.1437
  C  C672  1  0.154400  0.428700  0.669600  1.0  -0.0228
  C  C673  1  0.172200  0.465680  0.704200  1.0  0.0121
  C  C674  1  0.194900  0.455200  0.742500  1.0  -0.142
  C  C675  1  0.213800  0.488300  0.771700  1.0  -0.1077
  C  C676  1  0.204700  0.532700  0.762600  1.0  -0.0302
  C  C677  1  0.179500  0.544400  0.723600  1.0  0.0889
  C  C678  1  0.164300  0.510800  0.694900  1.0  -0.1433
  C  C679  1  0.171900  0.594500  0.711900  1.0  0.0151
  C  C680  1  0.132600  0.638950  0.656100  1.0  0.3158
  C  C681  1  0.145180  0.678790  0.677800  1.0  -0.1777
  C  C682  1  0.126630  0.719280  0.662000  1.0  -0.0893
  C  C683  1  0.096410  0.719610  0.625100  1.0  -0.0699
  C  C684  1  0.083890  0.679980  0.602900  1.0  -0.1253
  C  C685  1  0.101500  0.638300  0.619000  1.0  -0.1196
  C  C686  1  0.153550  0.227120  0.687800  1.0  0.6668
  C  C687  1  0.069890  0.314230  0.565600  1.0  0.7029
  C  C688  1  0.138250  0.761360  0.686800  1.0  0.6797
  C  C689  1  0.049770  0.679700  0.564320  1.0  0.6856
  C  C690  1  0.186100  0.033100  0.796800  1.0  -0.1361
  C  C691  1  0.213100  0.031300  0.836700  1.0  -0.1132
  C  C692  1  0.225100  0.990400  0.855700  1.0  0.2852
  C  C693  1  0.208600  0.950400  0.836300  1.0  -0.1448
  C  C694  1  0.181000  0.951900  0.796800  1.0  -0.1269
  C  C695  1  0.170100  0.992790  0.776800  1.0  -0.0064
  C  C696  1  0.270800  0.953500  0.912400  1.0  -0.0023
  C  C697  1  0.296100  0.966200  0.959500  1.0  0.0539
  C  C698  1  0.340800  0.968200  0.957400  1.0  -0.0694
  C  C699  1  0.176400  0.077640  0.773300  1.0  0.6909
  C  C700  1  0.231900  0.173000  0.859100  1.0  0.1574
  C  C701  1  0.251300  0.187000  0.901700  1.0  -0.1099
  C  C702  1  0.260100  0.232700  0.909300  1.0  -0.0722
  C  C703  1  0.249600  0.264300  0.874400  1.0  -0.0992
  C  C704  1  0.230200  0.250200  0.831800  1.0  0.1627
  C  C705  1  0.272250  0.886540  0.626660  1.0  -0.0449
  C  C706  1  0.908700  0.832000  0.773700  1.0  0.6957
  C  C707  1  0.270560  0.856880  0.665470  1.0  -0.1713
  C  C708  1  0.310650  0.839550  0.682900  1.0  -0.1373
  C  C709  1  0.352250  0.851900  0.663400  1.0  0.2697
  C  C710  1  0.353140  0.880740  0.624400  1.0  -0.2092
  C  C711  1  0.312370  0.898140  0.606410  1.0  -0.1412
  C  C712  1  0.428700  0.845600  0.669600  1.0  -0.0216
  C  C713  1  0.465680  0.827800  0.704200  1.0  0.0109
  C  C714  1  0.455200  0.805100  0.742500  1.0  -0.1431
  C  C715  1  0.488300  0.786200  0.771700  1.0  -0.1086
  C  C716  1  0.532700  0.795300  0.762600  1.0  -0.0271
  C  C717  1  0.544400  0.820500  0.723600  1.0  0.0871
  C  C718  1  0.510800  0.835700  0.694900  1.0  -0.1441
  C  C719  1  0.594500  0.828100  0.711900  1.0  0.0128
  C  C720  1  0.638950  0.867400  0.656100  1.0  0.3163
  C  C721  1  0.678790  0.854820  0.677800  1.0  -0.1765
  C  C722  1  0.719280  0.873370  0.662000  1.0  -0.0883
  C  C723  1  0.719610  0.903590  0.625100  1.0  -0.0704
  C  C724  1  0.679980  0.916110  0.602900  1.0  -0.1229
  C  C725  1  0.638300  0.898500  0.619000  1.0  -0.1192
  C  C726  1  0.227120  0.846450  0.687800  1.0  0.6656
  C  C727  1  0.314230  0.930110  0.565600  1.0  0.7029
  C  C728  1  0.761360  0.861750  0.686800  1.0  0.6773
  C  C729  1  0.679700  0.950230  0.564320  1.0  0.6853
  C  C730  1  0.033100  0.813900  0.796800  1.0  -0.134
  C  C731  1  0.031300  0.786900  0.836700  1.0  -0.1123
  C  C732  1  0.990400  0.774900  0.855700  1.0  0.2852
  C  C733  1  0.950400  0.791400  0.836300  1.0  -0.1433
  C  C734  1  0.951900  0.819000  0.796800  1.0  -0.1291
  C  C735  1  0.992790  0.829900  0.776800  1.0  -0.0085
  C  C736  1  0.953500  0.729200  0.912400  1.0  -0.0012
  C  C737  1  0.966200  0.703900  0.959500  1.0  0.0554
  C  C738  1  0.968200  0.659200  0.957400  1.0  -0.0695
  C  C739  1  0.077640  0.823600  0.773300  1.0  0.6902
  C  C740  1  0.173000  0.768100  0.859100  1.0  0.1579
  C  C741  1  0.187000  0.748700  0.901700  1.0  -0.1122
  C  C742  1  0.232700  0.739900  0.909300  1.0  -0.0698
  C  C743  1  0.264300  0.750400  0.874400  1.0  -0.0999
  C  C744  1  0.250200  0.769800  0.831800  1.0  0.1626
  C  C745  1  0.727750  0.113460  0.626660  1.0  -0.0455
  C  C746  1  0.091300  0.168000  0.773700  1.0  0.695
  C  C747  1  0.729440  0.143120  0.665470  1.0  -0.1701
  C  C748  1  0.689350  0.160450  0.682900  1.0  -0.1365
  C  C749  1  0.647750  0.148100  0.663400  1.0  0.2693
  C  C750  1  0.646860  0.119260  0.624400  1.0  -0.2097
  C  C751  1  0.687630  0.101860  0.606410  1.0  -0.1421
  C  C752  1  0.571300  0.154400  0.669600  1.0  -0.0214
  C  C753  1  0.534320  0.172200  0.704200  1.0  0.0116
  C  C754  1  0.544800  0.194900  0.742500  1.0  -0.1429
  C  C755  1  0.511700  0.213800  0.771700  1.0  -0.108
  C  C756  1  0.467300  0.204700  0.762600  1.0  -0.0281
  C  C757  1  0.455600  0.179500  0.723600  1.0  0.0865
  C  C758  1  0.489200  0.164300  0.694900  1.0  -0.1424
  C  C759  1  0.405500  0.171900  0.711900  1.0  0.0143
  C  C760  1  0.361050  0.132600  0.656100  1.0  0.3165
  C  C761  1  0.321210  0.145180  0.677800  1.0  -0.1769
  C  C762  1  0.280720  0.126630  0.662000  1.0  -0.0902
  C  C763  1  0.280390  0.096410  0.625100  1.0  -0.069
  C  C764  1  0.320020  0.083890  0.602900  1.0  -0.1236
  C  C765  1  0.361700  0.101500  0.619000  1.0  -0.119
  C  C766  1  0.772880  0.153550  0.687800  1.0  0.6667
  C  C767  1  0.685770  0.069890  0.565600  1.0  0.7027
  C  C768  1  0.238640  0.138250  0.686800  1.0  0.6775
  C  C769  1  0.320300  0.049770  0.564320  1.0  0.6852
  C  C770  1  0.966900  0.186100  0.796800  1.0  -0.1331
  C  C771  1  0.968700  0.213100  0.836700  1.0  -0.1159
  C  C772  1  0.009600  0.225100  0.855700  1.0  0.2864
  C  C773  1  0.049600  0.208600  0.836300  1.0  -0.1395
  C  C774  1  0.048100  0.181000  0.796800  1.0  -0.127
  C  C775  1  0.007210  0.170100  0.776800  1.0  -0.0077
  C  C776  1  0.046500  0.270800  0.912400  1.0  -0.0019
  C  C777  1  0.033800  0.296100  0.959500  1.0  0.056
  C  C778  1  0.031800  0.340800  0.957400  1.0  -0.0682
  C  C779  1  0.922360  0.176400  0.773300  1.0  0.6908
  C  C780  1  0.827000  0.231900  0.859100  1.0  0.1585
  C  C781  1  0.813000  0.251300  0.901700  1.0  -0.11
  C  C782  1  0.767300  0.260100  0.909300  1.0  -0.07
  C  C783  1  0.735700  0.249600  0.874400  1.0  -0.1031
  C  C784  1  0.749800  0.230200  0.831800  1.0  0.164
  C  C785  1  0.362600  0.971400  0.000000  1.0  -0.1515
  C  C786  1  0.271400  0.968400  0.000000  1.0  -0.117
  C  C787  1  0.637400  0.028600  0.000000  1.0  -0.1533
  C  C788  1  0.728600  0.031600  0.000000  1.0  -0.1165
  C  C789  1  0.028600  0.362600  0.000000  1.0  -0.1525
  C  C790  1  0.031600  0.271400  0.000000  1.0  -0.1152
  C  C791  1  0.971400  0.637400  0.000000  1.0  -0.1531
  C  C792  1  0.968400  0.728600  0.000000  1.0  -0.1144
  C  C793  1  0.613460  0.772250  0.873340  1.0  -0.051
  C  C794  1  0.668000  0.408700  0.726300  1.0  0.698
  C  C795  1  0.643120  0.770560  0.834530  1.0  -0.1704
  C  C796  1  0.660450  0.810650  0.817100  1.0  -0.1373
  C  C797  1  0.648100  0.852250  0.836600  1.0  0.2698
  C  C798  1  0.619260  0.853140  0.875600  1.0  -0.2134
  C  C799  1  0.601860  0.812370  0.893590  1.0  -0.1433
  C  C800  1  0.654400  0.928700  0.830400  1.0  -0.0286
  C  C801  1  0.672200  0.965680  0.795800  1.0  0.013
  C  C802  1  0.694900  0.955200  0.757500  1.0  -0.141
  C  C803  1  0.713800  0.988300  0.728300  1.0  -0.109
  C  C804  1  0.704700  0.032700  0.737400  1.0  -0.0291
  C  C805  1  0.679500  0.044400  0.776400  1.0  0.0892
  C  C806  1  0.664300  0.010800  0.805100  1.0  -0.144
  C  C807  1  0.671900  0.094500  0.788100  1.0  0.0153
  C  C808  1  0.632600  0.138950  0.843900  1.0  0.3175
  C  C809  1  0.645180  0.178790  0.822200  1.0  -0.1784
  C  C810  1  0.626630  0.219280  0.838000  1.0  -0.0918
  C  C811  1  0.596410  0.219610  0.874900  1.0  -0.0719
  C  C812  1  0.583890  0.179980  0.897100  1.0  -0.1265
  C  C813  1  0.601500  0.138300  0.881000  1.0  -0.1199
  C  C814  1  0.653550  0.727120  0.812200  1.0  0.6669
  C  C815  1  0.569890  0.814230  0.934400  1.0  0.7021
  C  C816  1  0.638250  0.261360  0.813200  1.0  0.6785
  C  C817  1  0.549770  0.179700  0.935680  1.0  0.6853
  C  C818  1  0.686100  0.533100  0.703200  1.0  -0.1355
  C  C819  1  0.713100  0.531300  0.663300  1.0  -0.1137
  C  C820  1  0.725100  0.490400  0.644300  1.0  0.2845
  C  C821  1  0.708600  0.450400  0.663700  1.0  -0.1439
  C  C822  1  0.681000  0.451900  0.703200  1.0  -0.1269
  C  C823  1  0.670100  0.492790  0.723200  1.0  -0.0068
  C  C824  1  0.770800  0.453500  0.587600  1.0  0.0015
  C  C825  1  0.796100  0.466200  0.540500  1.0  0.0538
  C  C826  1  0.840800  0.468200  0.542600  1.0  -0.0679
  C  C827  1  0.676400  0.577640  0.726700  1.0  0.691
  C  C828  1  0.731900  0.673000  0.640900  1.0  0.1574
  C  C829  1  0.751300  0.687000  0.598300  1.0  -0.1111
  C  C830  1  0.760100  0.732700  0.590700  1.0  -0.0744
  C  C831  1  0.749600  0.764300  0.625600  1.0  -0.0994
  C  C832  1  0.730200  0.750200  0.668200  1.0  0.1628
  C  C833  1  0.386540  0.227750  0.873340  1.0  -0.0483
  C  C834  1  0.332000  0.591300  0.726300  1.0  0.6975
  C  C835  1  0.356880  0.229440  0.834530  1.0  -0.1695
  C  C836  1  0.339550  0.189350  0.817100  1.0  -0.1361
  C  C837  1  0.351900  0.147750  0.836600  1.0  0.2691
  C  C838  1  0.380740  0.146860  0.875600  1.0  -0.2119
  C  C839  1  0.398140  0.187630  0.893590  1.0  -0.1437
  C  C840  1  0.345600  0.071300  0.830400  1.0  -0.0255
  C  C841  1  0.327800  0.034320  0.795800  1.0  0.0117
  C  C842  1  0.305100  0.044800  0.757500  1.0  -0.1404
  C  C843  1  0.286200  0.011700  0.728300  1.0  -0.1096
  C  C844  1  0.295300  0.967300  0.737400  1.0  -0.0288
  C  C845  1  0.320500  0.955600  0.776400  1.0  0.0887
  C  C846  1  0.335700  0.989200  0.805100  1.0  -0.1455
  C  C847  1  0.328100  0.905500  0.788100  1.0  0.014
  C  C848  1  0.367400  0.861050  0.843900  1.0  0.3183
  C  C849  1  0.354820  0.821210  0.822200  1.0  -0.1773
  C  C850  1  0.373370  0.780720  0.838000  1.0  -0.0905
  C  C851  1  0.403590  0.780390  0.874900  1.0  -0.0705
  C  C852  1  0.416110  0.820020  0.897100  1.0  -0.1275
  C  C853  1  0.398500  0.861700  0.881000  1.0  -0.1194
  C  C854  1  0.346450  0.272880  0.812200  1.0  0.6673
  C  C855  1  0.430110  0.185770  0.934400  1.0  0.7019
  C  C856  1  0.361750  0.738640  0.813200  1.0  0.6802
  C  C857  1  0.450230  0.820300  0.935680  1.0  0.6852
  C  C858  1  0.313900  0.466900  0.703200  1.0  -0.1338
  C  C859  1  0.286900  0.468700  0.663300  1.0  -0.1139
  C  C860  1  0.274900  0.509600  0.644300  1.0  0.2848
  C  C861  1  0.291400  0.549600  0.663700  1.0  -0.1427
  C  C862  1  0.319000  0.548100  0.703200  1.0  -0.1271
  C  C863  1  0.329900  0.507210  0.723200  1.0  -0.0075
  C  C864  1  0.229200  0.546500  0.587600  1.0  0.0013
  C  C865  1  0.203900  0.533800  0.540500  1.0  0.0541
  C  C866  1  0.159200  0.531800  0.542600  1.0  -0.0641
  C  C867  1  0.323600  0.422360  0.726700  1.0  0.6919
  C  C868  1  0.268100  0.327000  0.640900  1.0  0.1557
  C  C869  1  0.248700  0.313000  0.598300  1.0  -0.1148
  C  C870  1  0.239900  0.267300  0.590700  1.0  -0.0727
  C  C871  1  0.250400  0.235700  0.625600  1.0  -0.0992
  C  C872  1  0.269800  0.249800  0.668200  1.0  0.1618
  C  C873  1  0.227750  0.613460  0.873340  1.0  -0.0463
  C  C874  1  0.591300  0.668000  0.726300  1.0  0.6958
  C  C875  1  0.229440  0.643120  0.834530  1.0  -0.17
  C  C876  1  0.189350  0.660450  0.817100  1.0  -0.1345
  C  C877  1  0.147750  0.648100  0.836600  1.0  0.2693
  C  C878  1  0.146860  0.619260  0.875600  1.0  -0.2097
  C  C879  1  0.187630  0.601860  0.893590  1.0  -0.1404
  C  C880  1  0.071300  0.654400  0.830400  1.0  -0.0266
  C  C881  1  0.034320  0.672200  0.795800  1.0  0.0118
  C  C882  1  0.044800  0.694900  0.757500  1.0  -0.143
  C  C883  1  0.011700  0.713800  0.728300  1.0  -0.1094
  C  C884  1  0.967300  0.704700  0.737400  1.0  -0.0269
  C  C885  1  0.955600  0.679500  0.776400  1.0  0.087
  C  C886  1  0.989200  0.664300  0.805100  1.0  -0.1427
  C  C887  1  0.905500  0.671900  0.788100  1.0  0.0147
  C  C888  1  0.861050  0.632600  0.843900  1.0  0.3178
  C  C889  1  0.821210  0.645180  0.822200  1.0  -0.1777
  C  C890  1  0.780720  0.626630  0.838000  1.0  -0.0917
  C  C891  1  0.780390  0.596410  0.874900  1.0  -0.0703
  C  C892  1  0.820020  0.583890  0.897100  1.0  -0.1242
  C  C893  1  0.861700  0.601500  0.881000  1.0  -0.1184
  C  C894  1  0.272880  0.653550  0.812200  1.0  0.6663
  C  C895  1  0.185770  0.569890  0.934400  1.0  0.7019
  C  C896  1  0.738640  0.638250  0.813200  1.0  0.6771
  C  C897  1  0.820300  0.549770  0.935680  1.0  0.685
  C  C898  1  0.466900  0.686100  0.703200  1.0  -0.1333
  C  C899  1  0.468700  0.713100  0.663300  1.0  -0.1142
  C  C900  1  0.509600  0.725100  0.644300  1.0  0.2854
  C  C901  1  0.549600  0.708600  0.663700  1.0  -0.1393
  C  C902  1  0.548100  0.681000  0.703200  1.0  -0.1277
  C  C903  1  0.507210  0.670100  0.723200  1.0  -0.0083
  C  C904  1  0.546500  0.770800  0.587600  1.0  0.001
  C  C905  1  0.533800  0.796100  0.540500  1.0  0.0558
  C  C906  1  0.531800  0.840800  0.542600  1.0  -0.0675
  C  C907  1  0.422360  0.676400  0.726700  1.0  0.6913
  C  C908  1  0.327000  0.731900  0.640900  1.0  0.1567
  C  C909  1  0.313000  0.751300  0.598300  1.0  -0.1145
  C  C910  1  0.267300  0.760100  0.590700  1.0  -0.072
  C  C911  1  0.235700  0.749600  0.625600  1.0  -0.1014
  C  C912  1  0.249800  0.730200  0.668200  1.0  0.164
  C  C913  1  0.772250  0.386540  0.873340  1.0  -0.0476
  C  C914  1  0.408700  0.332000  0.726300  1.0  0.6963
  C  C915  1  0.770560  0.356880  0.834530  1.0  -0.1708
  C  C916  1  0.810650  0.339550  0.817100  1.0  -0.1356
  C  C917  1  0.852250  0.351900  0.836600  1.0  0.2696
  C  C918  1  0.853140  0.380740  0.875600  1.0  -0.2093
  C  C919  1  0.812370  0.398140  0.893590  1.0  -0.1409
  C  C920  1  0.928700  0.345600  0.830400  1.0  -0.0261
  C  C921  1  0.965680  0.327800  0.795800  1.0  0.0119
  C  C922  1  0.955200  0.305100  0.757500  1.0  -0.1427
  C  C923  1  0.988300  0.286200  0.728300  1.0  -0.1091
  C  C924  1  0.032700  0.295300  0.737400  1.0  -0.0268
  C  C925  1  0.044400  0.320500  0.776400  1.0  0.088
  C  C926  1  0.010800  0.335700  0.805100  1.0  -0.1455
  C  C927  1  0.094500  0.328100  0.788100  1.0  0.0129
  C  C928  1  0.138950  0.367400  0.843900  1.0  0.3172
  C  C929  1  0.178790  0.354820  0.822200  1.0  -0.1776
  C  C930  1  0.219280  0.373370  0.838000  1.0  -0.0903
  C  C931  1  0.219610  0.403590  0.874900  1.0  -0.0695
  C  C932  1  0.179980  0.416110  0.897100  1.0  -0.1241
  C  C933  1  0.138300  0.398500  0.881000  1.0  -0.119
  C  C934  1  0.727120  0.346450  0.812200  1.0  0.6654
  C  C935  1  0.814230  0.430110  0.934400  1.0  0.7022
  C  C936  1  0.261360  0.361750  0.813200  1.0  0.6769
  C  C937  1  0.179700  0.450230  0.935680  1.0  0.6852
  C  C938  1  0.533100  0.313900  0.703200  1.0  -0.1332
  C  C939  1  0.531300  0.286900  0.663300  1.0  -0.1141
  C  C940  1  0.490400  0.274900  0.644300  1.0  0.2844
  C  C941  1  0.450400  0.291400  0.663700  1.0  -0.1425
  C  C942  1  0.451900  0.319000  0.703200  1.0  -0.1288
  C  C943  1  0.492790  0.329900  0.723200  1.0  -0.0088
  C  C944  1  0.453500  0.229200  0.587600  1.0  0.0023
  C  C945  1  0.466200  0.203900  0.540500  1.0  0.0555
  C  C946  1  0.468200  0.159200  0.542600  1.0  -0.0674
  C  C947  1  0.577640  0.323600  0.726700  1.0  0.6905
  C  C948  1  0.673000  0.268100  0.640900  1.0  0.1588
  C  C949  1  0.687000  0.248700  0.598300  1.0  -0.1131
  C  C950  1  0.732700  0.239900  0.590700  1.0  -0.0736
  C  C951  1  0.764300  0.250400  0.625600  1.0  -0.0996
  C  C952  1  0.750200  0.269800  0.668200  1.0  0.1618
  C  C953  1  0.386540  0.227750  0.126660  1.0  -0.0468
  C  C954  1  0.332000  0.591300  0.273700  1.0  0.6967
  C  C955  1  0.356880  0.229440  0.165470  1.0  -0.1692
  C  C956  1  0.339550  0.189350  0.182900  1.0  -0.138
  C  C957  1  0.351900  0.147750  0.163400  1.0  0.2694
  C  C958  1  0.380740  0.146860  0.124400  1.0  -0.2118
  C  C959  1  0.398140  0.187630  0.106410  1.0  -0.1438
  C  C960  1  0.345600  0.071300  0.169600  1.0  -0.0265
  C  C961  1  0.327800  0.034320  0.204200  1.0  0.0111
  C  C962  1  0.305100  0.044800  0.242500  1.0  -0.1403
  C  C963  1  0.286200  0.011700  0.271700  1.0  -0.1085
  C  C964  1  0.295300  0.967300  0.262600  1.0  -0.0301
  C  C965  1  0.320500  0.955600  0.223600  1.0  0.0873
  C  C966  1  0.335700  0.989200  0.194900  1.0  -0.1451
  C  C967  1  0.328100  0.905500  0.211900  1.0  0.0138
  C  C968  1  0.367400  0.861050  0.156100  1.0  0.3177
  C  C969  1  0.354820  0.821210  0.177800  1.0  -0.1761
  C  C970  1  0.373370  0.780720  0.162000  1.0  -0.0886
  C  C971  1  0.403590  0.780390  0.125100  1.0  -0.0714
  C  C972  1  0.416110  0.820020  0.102900  1.0  -0.1261
  C  C973  1  0.398500  0.861700  0.119000  1.0  -0.1204
  C  C974  1  0.346450  0.272880  0.187800  1.0  0.6678
  C  C975  1  0.430110  0.185770  0.065600  1.0  0.7028
  C  C976  1  0.361750  0.738640  0.186800  1.0  0.6805
  C  C977  1  0.450230  0.820300  0.064320  1.0  0.6853
  C  C978  1  0.313900  0.466900  0.296800  1.0  -0.134
  C  C979  1  0.286900  0.468700  0.336700  1.0  -0.1133
  C  C980  1  0.274900  0.509600  0.355700  1.0  0.2859
  C  C981  1  0.291400  0.549600  0.336300  1.0  -0.1427
  C  C982  1  0.319000  0.548100  0.296800  1.0  -0.1266
  C  C983  1  0.329900  0.507210  0.276800  1.0  -0.0075
  C  C984  1  0.229200  0.546500  0.412400  1.0  -0.0018
  C  C985  1  0.203900  0.533800  0.459500  1.0  0.0542
  C  C986  1  0.159200  0.531800  0.457400  1.0  -0.0667
  C  C987  1  0.323600  0.422360  0.273300  1.0  0.6913
  C  C988  1  0.268100  0.327000  0.359100  1.0  0.1557
  C  C989  1  0.248700  0.313000  0.401700  1.0  -0.1108
  C  C990  1  0.239900  0.267300  0.409300  1.0  -0.0703
  C  C991  1  0.250400  0.235700  0.374400  1.0  -0.1002
  C  C992  1  0.269800  0.249800  0.331800  1.0  0.1622
  C  C993  1  0.613460  0.772250  0.126660  1.0  -0.0492
  C  C994  1  0.668000  0.408700  0.273700  1.0  0.6974
  C  C995  1  0.643120  0.770560  0.165470  1.0  -0.171
  C  C996  1  0.660450  0.810650  0.182900  1.0  -0.1394
  C  C997  1  0.648100  0.852250  0.163400  1.0  0.2695
  C  C998  1  0.619260  0.853140  0.124400  1.0  -0.2128
  C  C999  1  0.601860  0.812370  0.106410  1.0  -0.1437
  C  C1000  1  0.654400  0.928700  0.169600  1.0  -0.0276
  C  C1001  1  0.672200  0.965680  0.204200  1.0  0.0121
  C  C1002  1  0.694900  0.955200  0.242500  1.0  -0.142
  C  C1003  1  0.713800  0.988300  0.271700  1.0  -0.1077
  C  C1004  1  0.704700  0.032700  0.262600  1.0  -0.0302
  C  C1005  1  0.679500  0.044400  0.223600  1.0  0.089
  C  C1006  1  0.664300  0.010800  0.194900  1.0  -0.1433
  C  C1007  1  0.671900  0.094500  0.211900  1.0  0.0151
  C  C1008  1  0.632600  0.138950  0.156100  1.0  0.3158
  C  C1009  1  0.645180  0.178790  0.177800  1.0  -0.1777
  C  C1010  1  0.626630  0.219280  0.162000  1.0  -0.0893
  C  C1011  1  0.596410  0.219610  0.125100  1.0  -0.0699
  C  C1012  1  0.583890  0.179980  0.102900  1.0  -0.1253
  C  C1013  1  0.601500  0.138300  0.119000  1.0  -0.1196
  C  C1014  1  0.653550  0.727120  0.187800  1.0  0.6668
  C  C1015  1  0.569890  0.814230  0.065600  1.0  0.7029
  C  C1016  1  0.638250  0.261360  0.186800  1.0  0.6797
  C  C1017  1  0.549770  0.179700  0.064320  1.0  0.6856
  C  C1018  1  0.686100  0.533100  0.296800  1.0  -0.1361
  C  C1019  1  0.713100  0.531300  0.336700  1.0  -0.1132
  C  C1020  1  0.725100  0.490400  0.355700  1.0  0.2852
  C  C1021  1  0.708600  0.450400  0.336300  1.0  -0.1448
  C  C1022  1  0.681000  0.451900  0.296800  1.0  -0.1269
  C  C1023  1  0.670100  0.492790  0.276800  1.0  -0.0064
  C  C1024  1  0.770800  0.453500  0.412400  1.0  -0.0023
  C  C1025  1  0.796100  0.466200  0.459500  1.0  0.0539
  C  C1026  1  0.840800  0.468200  0.457400  1.0  -0.0694
  C  C1027  1  0.676400  0.577640  0.273300  1.0  0.6909
  C  C1028  1  0.731900  0.673000  0.359100  1.0  0.1574
  C  C1029  1  0.751300  0.687000  0.401700  1.0  -0.1099
  C  C1030  1  0.760100  0.732700  0.409300  1.0  -0.0722
  C  C1031  1  0.749600  0.764300  0.374400  1.0  -0.0992
  C  C1032  1  0.730200  0.750200  0.331800  1.0  0.1634
  C  C1033  1  0.772250  0.386540  0.126660  1.0  -0.0449
  C  C1034  1  0.408700  0.332000  0.273700  1.0  0.6957
  C  C1035  1  0.770560  0.356880  0.165470  1.0  -0.1713
  C  C1036  1  0.810650  0.339550  0.182900  1.0  -0.1373
  C  C1037  1  0.852250  0.351900  0.163400  1.0  0.2698
  C  C1038  1  0.853140  0.380740  0.124400  1.0  -0.2091
  C  C1039  1  0.812370  0.398140  0.106410  1.0  -0.1412
  C  C1040  1  0.928700  0.345600  0.169600  1.0  -0.0261
  C  C1041  1  0.965680  0.327800  0.204200  1.0  0.0109
  C  C1042  1  0.955200  0.305100  0.242500  1.0  -0.1431
  C  C1043  1  0.988300  0.286200  0.271700  1.0  -0.1086
  C  C1044  1  0.032700  0.295300  0.262600  1.0  -0.0271
  C  C1045  1  0.044400  0.320500  0.223600  1.0  0.0871
  C  C1046  1  0.010800  0.335700  0.194900  1.0  -0.1441
  C  C1047  1  0.094500  0.328100  0.211900  1.0  0.0128
  C  C1048  1  0.138950  0.367400  0.156100  1.0  0.3163
  C  C1049  1  0.178790  0.354820  0.177800  1.0  -0.1765
  C  C1050  1  0.219280  0.373370  0.162000  1.0  -0.0883
  C  C1051  1  0.219610  0.403590  0.125100  1.0  -0.0704
  C  C1052  1  0.179980  0.416110  0.102900  1.0  -0.1229
  C  C1053  1  0.138300  0.398500  0.119000  1.0  -0.1192
  C  C1054  1  0.727120  0.346450  0.187800  1.0  0.6656
  C  C1055  1  0.814230  0.430110  0.065600  1.0  0.7029
  C  C1056  1  0.261360  0.361750  0.186800  1.0  0.6773
  C  C1057  1  0.179700  0.450230  0.064320  1.0  0.6853
  C  C1058  1  0.533100  0.313900  0.296800  1.0  -0.134
  C  C1059  1  0.531300  0.286900  0.336700  1.0  -0.1123
  C  C1060  1  0.490400  0.274900  0.355700  1.0  0.2851
  C  C1061  1  0.450400  0.291400  0.336300  1.0  -0.1433
  C  C1062  1  0.451900  0.319000  0.296800  1.0  -0.1291
  C  C1063  1  0.492790  0.329900  0.276800  1.0  -0.0085
  C  C1064  1  0.453500  0.229200  0.412400  1.0  -0.0012
  C  C1065  1  0.466200  0.203900  0.459500  1.0  0.0554
  C  C1066  1  0.468200  0.159200  0.457400  1.0  -0.0695
  C  C1067  1  0.577640  0.323600  0.273300  1.0  0.6902
  C  C1068  1  0.673000  0.268100  0.359100  1.0  0.1579
  C  C1069  1  0.687000  0.248700  0.401700  1.0  -0.1122
  C  C1070  1  0.732700  0.239900  0.409300  1.0  -0.0698
  C  C1071  1  0.764300  0.250400  0.374400  1.0  -0.0999
  C  C1072  1  0.750200  0.269800  0.331800  1.0  0.1632
  C  C1073  1  0.227750  0.613460  0.126660  1.0  -0.0455
  C  C1074  1  0.591300  0.668000  0.273700  1.0  0.695
  C  C1075  1  0.229440  0.643120  0.165470  1.0  -0.1701
  C  C1076  1  0.189350  0.660450  0.182900  1.0  -0.1365
  C  C1077  1  0.147750  0.648100  0.163400  1.0  0.2694
  C  C1078  1  0.146860  0.619260  0.124400  1.0  -0.2096
  C  C1079  1  0.187630  0.601860  0.106410  1.0  -0.1421
  C  C1080  1  0.071300  0.654400  0.169600  1.0  -0.026
  C  C1081  1  0.034320  0.672200  0.204200  1.0  0.0116
  C  C1082  1  0.044800  0.694900  0.242500  1.0  -0.1429
  C  C1083  1  0.011700  0.713800  0.271700  1.0  -0.108
  C  C1084  1  0.967300  0.704700  0.262600  1.0  -0.0281
  C  C1085  1  0.955600  0.679500  0.223600  1.0  0.0865
  C  C1086  1  0.989200  0.664300  0.194900  1.0  -0.1424
  C  C1087  1  0.905500  0.671900  0.211900  1.0  0.0143
  C  C1088  1  0.861050  0.632600  0.156100  1.0  0.3165
  C  C1089  1  0.821210  0.645180  0.177800  1.0  -0.1769
  C  C1090  1  0.780720  0.626630  0.162000  1.0  -0.0902
  C  C1091  1  0.780390  0.596410  0.125100  1.0  -0.069
  C  C1092  1  0.820020  0.583890  0.102900  1.0  -0.1236
  C  C1093  1  0.861700  0.601500  0.119000  1.0  -0.119
  C  C1094  1  0.272880  0.653550  0.187800  1.0  0.6667
  C  C1095  1  0.185770  0.569890  0.065600  1.0  0.7027
  C  C1096  1  0.738640  0.638250  0.186800  1.0  0.6775
  C  C1097  1  0.820300  0.549770  0.064320  1.0  0.6852
  C  C1098  1  0.466900  0.686100  0.296800  1.0  -0.1331
  C  C1099  1  0.468700  0.713100  0.336700  1.0  -0.1159
  C  C1100  1  0.509600  0.725100  0.355700  1.0  0.2864
  C  C1101  1  0.549600  0.708600  0.336300  1.0  -0.1395
  C  C1102  1  0.548100  0.681000  0.296800  1.0  -0.127
  C  C1103  1  0.507210  0.670100  0.276800  1.0  -0.0077
  C  C1104  1  0.546500  0.770800  0.412400  1.0  -0.0019
  C  C1105  1  0.533800  0.796100  0.459500  1.0  0.056
  C  C1106  1  0.531800  0.840800  0.457400  1.0  -0.0682
  C  C1107  1  0.422360  0.676400  0.273300  1.0  0.6908
  C  C1108  1  0.327000  0.731900  0.359100  1.0  0.1585
  C  C1109  1  0.313000  0.751300  0.401700  1.0  -0.11
  C  C1110  1  0.267300  0.760100  0.409300  1.0  -0.07
  C  C1111  1  0.235700  0.749600  0.374400  1.0  -0.1031
  C  C1112  1  0.249800  0.730200  0.331800  1.0  0.1647
  C  C1113  1  0.862600  0.471400  0.500000  1.0  -0.1515
  C  C1114  1  0.771400  0.468400  0.500000  1.0  -0.117
  C  C1115  1  0.137400  0.528600  0.500000  1.0  -0.1533
  C  C1116  1  0.228600  0.531600  0.500000  1.0  -0.1165
  C  C1117  1  0.528600  0.862600  0.500000  1.0  -0.1525
  C  C1118  1  0.531600  0.771400  0.500000  1.0  -0.1152
  C  C1119  1  0.471400  0.137400  0.500000  1.0  -0.1531
  C  C1120  1  0.468400  0.228600  0.500000  1.0  -0.1144
  N  N1121  1  0.221340  0.204600  0.175800  1.0  -0.3549
  N  N1122  1  0.778660  0.795400  0.175800  1.0  -0.3538
  N  N1123  1  0.795400  0.221340  0.175800  1.0  -0.3543
  N  N1124  1  0.204600  0.778660  0.175800  1.0  -0.3559
  N  N1125  1  0.778660  0.795400  0.824200  1.0  -0.3552
  N  N1126  1  0.221340  0.204600  0.824200  1.0  -0.3548
  N  N1127  1  0.204600  0.778660  0.824200  1.0  -0.3563
  N  N1128  1  0.795400  0.221340  0.824200  1.0  -0.3558
  N  N1129  1  0.721340  0.704600  0.675800  1.0  -0.3549
  N  N1130  1  0.278660  0.295400  0.675800  1.0  -0.3538
  N  N1131  1  0.295400  0.721340  0.675800  1.0  -0.3543
  N  N1132  1  0.704600  0.278660  0.675800  1.0  -0.3559
  N  N1133  1  0.278660  0.295400  0.324200  1.0  -0.3552
  N  N1134  1  0.721340  0.704600  0.324200  1.0  -0.3548
  N  N1135  1  0.704600  0.278660  0.324200  1.0  -0.3563
  N  N1136  1  0.295400  0.721340  0.324200  1.0  -0.3558
  O  O1137  1  0.055260  0.277620  0.451060  1.0  -0.5764
  O  O1138  1  0.057860  0.352950  0.450230  1.0  -0.5931
  O  O1139  1  0.167100  0.387600  0.315310  1.0  -0.3011
  O  O1140  1  0.147650  0.597430  0.331240  1.0  -0.2647
  O  O1141  1  0.160250  0.759450  0.274750  1.0  -0.5682
  O  O1142  1  0.123920  0.798530  0.330490  1.0  -0.5988
  O  O1143  1  0.037040  0.718460  0.451820  1.0  -0.5962
  O  O1144  1  0.034250  0.642250  0.451140  1.0  -0.5763
  O  O1145  1  0.137640  0.191550  0.330720  1.0  -0.5893
  O  O1146  1  0.176420  0.227650  0.273590  1.0  -0.584
  O  O1147  1  0.191940  0.112850  0.208220  1.0  -0.5808
  O  O1148  1  0.152570  0.077140  0.264540  1.0  -0.5868
  O  O1149  1  0.145360  0.911340  0.264460  1.0  -0.5799
  O  O1150  1  0.181660  0.872890  0.207800  1.0  -0.5824
  O  O1151  1  0.252200  0.992110  0.104500  1.0  -0.2762
  O  O1152  1  0.944740  0.722380  0.451060  1.0  -0.5748
  O  O1153  1  0.942140  0.647050  0.450230  1.0  -0.5939
  O  O1154  1  0.832900  0.612400  0.315310  1.0  -0.3
  O  O1155  1  0.852350  0.402570  0.331240  1.0  -0.266
  O  O1156  1  0.839750  0.240550  0.274750  1.0  -0.5682
  O  O1157  1  0.876080  0.201470  0.330490  1.0  -0.6028
  O  O1158  1  0.962960  0.281540  0.451820  1.0  -0.5967
  O  O1159  1  0.965750  0.357750  0.451140  1.0  -0.5767
  O  O1160  1  0.862360  0.808450  0.330720  1.0  -0.5875
  O  O1161  1  0.823580  0.772350  0.273590  1.0  -0.5853
  O  O1162  1  0.808060  0.887150  0.208220  1.0  -0.5789
  O  O1163  1  0.847430  0.922860  0.264540  1.0  -0.588
  O  O1164  1  0.854640  0.088660  0.264460  1.0  -0.5803
  O  O1165  1  0.818340  0.127110  0.207800  1.0  -0.5814
  O  O1166  1  0.747800  0.007890  0.104500  1.0  -0.2772
  O  O1167  1  0.722380  0.055260  0.451060  1.0  -0.5757
  O  O1168  1  0.647050  0.057860  0.450230  1.0  -0.5956
  O  O1169  1  0.612400  0.167100  0.315310  1.0  -0.2993
  O  O1170  1  0.402570  0.147650  0.331240  1.0  -0.2667
  O  O1171  1  0.240550  0.160250  0.274750  1.0  -0.5692
  O  O1172  1  0.201470  0.123920  0.330490  1.0  -0.5982
  O  O1173  1  0.281540  0.037040  0.451820  1.0  -0.5952
  O  O1174  1  0.357750  0.034250  0.451140  1.0  -0.5774
  O  O1175  1  0.808450  0.137640  0.330720  1.0  -0.5884
  O  O1176  1  0.772350  0.176420  0.273590  1.0  -0.5855
  O  O1177  1  0.887150  0.191940  0.208220  1.0  -0.581
  O  O1178  1  0.922860  0.152570  0.264540  1.0  -0.5905
  O  O1179  1  0.088660  0.145360  0.264460  1.0  -0.5807
  O  O1180  1  0.127110  0.181660  0.207800  1.0  -0.5813
  O  O1181  1  0.007890  0.252200  0.104500  1.0  -0.2767
  O  O1182  1  0.277620  0.944740  0.451060  1.0  -0.5757
  O  O1183  1  0.352950  0.942140  0.450230  1.0  -0.5967
  O  O1184  1  0.387600  0.832900  0.315310  1.0  -0.2986
  O  O1185  1  0.597430  0.852350  0.331240  1.0  -0.2667
  O  O1186  1  0.759450  0.839750  0.274750  1.0  -0.5692
  O  O1187  1  0.798530  0.876080  0.330490  1.0  -0.5976
  O  O1188  1  0.718460  0.962960  0.451820  1.0  -0.5946
  O  O1189  1  0.642250  0.965750  0.451140  1.0  -0.5769
  O  O1190  1  0.191550  0.862360  0.330720  1.0  -0.5867
  O  O1191  1  0.227650  0.823580  0.273590  1.0  -0.5846
  O  O1192  1  0.112850  0.808060  0.208220  1.0  -0.5808
  O  O1193  1  0.077140  0.847430  0.264540  1.0  -0.5894
  O  O1194  1  0.911340  0.854640  0.264460  1.0  -0.58
  O  O1195  1  0.872890  0.818340  0.207800  1.0  -0.58
  O  O1196  1  0.992110  0.747800  0.104500  1.0  -0.2751
  O  O1197  1  0.944740  0.722380  0.548940  1.0  -0.5755
  O  O1198  1  0.942140  0.647050  0.549770  1.0  -0.594
  O  O1199  1  0.832900  0.612400  0.684690  1.0  -0.2997
  O  O1200  1  0.852350  0.402570  0.668760  1.0  -0.2656
  O  O1201  1  0.839750  0.240550  0.725250  1.0  -0.5684
  O  O1202  1  0.876080  0.201470  0.669510  1.0  -0.6016
  O  O1203  1  0.962960  0.281540  0.548180  1.0  -0.5969
  O  O1204  1  0.965750  0.357750  0.548860  1.0  -0.5769
  O  O1205  1  0.862360  0.808450  0.669280  1.0  -0.5894
  O  O1206  1  0.823580  0.772350  0.726410  1.0  -0.5863
  O  O1207  1  0.808060  0.887150  0.791780  1.0  -0.5808
  O  O1208  1  0.847430  0.922860  0.735460  1.0  -0.5872
  O  O1209  1  0.854640  0.088660  0.735540  1.0  -0.5798
  O  O1210  1  0.818340  0.127110  0.792200  1.0  -0.5823
  O  O1211  1  0.747800  0.007890  0.895500  1.0  -0.277
  O  O1212  1  0.055260  0.277620  0.548940  1.0  -0.577
  O  O1213  1  0.057860  0.352950  0.549770  1.0  -0.5932
  O  O1214  1  0.167100  0.387600  0.684690  1.0  -0.3008
  O  O1215  1  0.147650  0.597430  0.668760  1.0  -0.2651
  O  O1216  1  0.160250  0.759450  0.725250  1.0  -0.5683
  O  O1217  1  0.123920  0.798530  0.669510  1.0  -0.6012
  O  O1218  1  0.037040  0.718460  0.548180  1.0  -0.596
  O  O1219  1  0.034250  0.642250  0.548860  1.0  -0.5764
  O  O1220  1  0.137640  0.191550  0.669280  1.0  -0.5882
  O  O1221  1  0.176420  0.227650  0.726410  1.0  -0.5844
  O  O1222  1  0.191940  0.112850  0.791780  1.0  -0.5805
  O  O1223  1  0.152570  0.077140  0.735460  1.0  -0.5881
  O  O1224  1  0.145360  0.911340  0.735540  1.0  -0.58
  O  O1225  1  0.181660  0.872890  0.792200  1.0  -0.5822
  O  O1226  1  0.252200  0.992110  0.895500  1.0  -0.2768
  O  O1227  1  0.277620  0.944740  0.548940  1.0  -0.5762
  O  O1228  1  0.352950  0.942140  0.549770  1.0  -0.5964
  O  O1229  1  0.387600  0.832900  0.684690  1.0  -0.2993
  O  O1230  1  0.597430  0.852350  0.668760  1.0  -0.2664
  O  O1231  1  0.759450  0.839750  0.725250  1.0  -0.569
  O  O1232  1  0.798530  0.876080  0.669510  1.0  -0.6001
  O  O1233  1  0.718460  0.962960  0.548180  1.0  -0.5944
  O  O1234  1  0.642250  0.965750  0.548860  1.0  -0.5771
  O  O1235  1  0.191550  0.862360  0.669280  1.0  -0.5879
  O  O1236  1  0.227650  0.823580  0.726410  1.0  -0.5857
  O  O1237  1  0.112850  0.808060  0.791780  1.0  -0.5811
  O  O1238  1  0.077140  0.847430  0.735460  1.0  -0.5901
  O  O1239  1  0.911340  0.854640  0.735540  1.0  -0.5803
  O  O1240  1  0.872890  0.818340  0.792200  1.0  -0.581
  O  O1241  1  0.992110  0.747800  0.895500  1.0  -0.2755
  O  O1242  1  0.722380  0.055260  0.548940  1.0  -0.5762
  O  O1243  1  0.647050  0.057860  0.549770  1.0  -0.5958
  O  O1244  1  0.612400  0.167100  0.684690  1.0  -0.2988
  O  O1245  1  0.402570  0.147650  0.668760  1.0  -0.2674
  O  O1246  1  0.240550  0.160250  0.725250  1.0  -0.5696
  O  O1247  1  0.201470  0.123920  0.669510  1.0  -0.6002
  O  O1248  1  0.281540  0.037040  0.548180  1.0  -0.5946
  O  O1249  1  0.357750  0.034250  0.548860  1.0  -0.5773
  O  O1250  1  0.808450  0.137640  0.669280  1.0  -0.5869
  O  O1251  1  0.772350  0.176420  0.726410  1.0  -0.5856
  O  O1252  1  0.887150  0.191940  0.791780  1.0  -0.5817
  O  O1253  1  0.922860  0.152570  0.735460  1.0  -0.5899
  O  O1254  1  0.088660  0.145360  0.735540  1.0  -0.5803
  O  O1255  1  0.127110  0.181660  0.792200  1.0  -0.5825
  O  O1256  1  0.007890  0.252200  0.895500  1.0  -0.2771
  O  O1257  1  0.555260  0.777620  0.951060  1.0  -0.5764
  O  O1258  1  0.557860  0.852950  0.950230  1.0  -0.5931
  O  O1259  1  0.667100  0.887600  0.815310  1.0  -0.301
  O  O1260  1  0.647650  0.097430  0.831240  1.0  -0.2647
  O  O1261  1  0.660250  0.259450  0.774750  1.0  -0.5682
  O  O1262  1  0.623920  0.298530  0.830490  1.0  -0.5988
  O  O1263  1  0.537040  0.218460  0.951820  1.0  -0.5962
  O  O1264  1  0.534250  0.142250  0.951140  1.0  -0.5763
  O  O1265  1  0.637640  0.691550  0.830720  1.0  -0.5893
  O  O1266  1  0.676420  0.727650  0.773590  1.0  -0.584
  O  O1267  1  0.691940  0.612850  0.708220  1.0  -0.5808
  O  O1268  1  0.652570  0.577140  0.764540  1.0  -0.5868
  O  O1269  1  0.645360  0.411340  0.764460  1.0  -0.5799
  O  O1270  1  0.681660  0.372890  0.707800  1.0  -0.5824
  O  O1271  1  0.752200  0.492110  0.604500  1.0  -0.2762
  O  O1272  1  0.444740  0.222380  0.951060  1.0  -0.5748
  O  O1273  1  0.442140  0.147050  0.950230  1.0  -0.5939
  O  O1274  1  0.332900  0.112400  0.815310  1.0  -0.3
  O  O1275  1  0.352350  0.902570  0.831240  1.0  -0.266
  O  O1276  1  0.339750  0.740550  0.774750  1.0  -0.5682
  O  O1277  1  0.376080  0.701470  0.830490  1.0  -0.6028
  O  O1278  1  0.462960  0.781540  0.951820  1.0  -0.5967
  O  O1279  1  0.465750  0.857750  0.951140  1.0  -0.5767
  O  O1280  1  0.362360  0.308450  0.830720  1.0  -0.5875
  O  O1281  1  0.323580  0.272350  0.773590  1.0  -0.5853
  O  O1282  1  0.308060  0.387150  0.708220  1.0  -0.5789
  O  O1283  1  0.347430  0.422860  0.764540  1.0  -0.588
  O  O1284  1  0.354640  0.588660  0.764460  1.0  -0.5803
  O  O1285  1  0.318340  0.627110  0.707800  1.0  -0.5814
  O  O1286  1  0.247800  0.507890  0.604500  1.0  -0.2772
  O  O1287  1  0.222380  0.555260  0.951060  1.0  -0.5757
  O  O1288  1  0.147050  0.557860  0.950230  1.0  -0.5956
  O  O1289  1  0.112400  0.667100  0.815310  1.0  -0.2992
  O  O1290  1  0.902570  0.647650  0.831240  1.0  -0.2667
  O  O1291  1  0.740550  0.660250  0.774750  1.0  -0.5692
  O  O1292  1  0.701470  0.623920  0.830490  1.0  -0.5982
  O  O1293  1  0.781540  0.537040  0.951820  1.0  -0.5952
  O  O1294  1  0.857750  0.534250  0.951140  1.0  -0.5774
  O  O1295  1  0.308450  0.637640  0.830720  1.0  -0.5884
  O  O1296  1  0.272350  0.676420  0.773590  1.0  -0.5855
  O  O1297  1  0.387150  0.691940  0.708220  1.0  -0.581
  O  O1298  1  0.422860  0.652570  0.764540  1.0  -0.5905
  O  O1299  1  0.588660  0.645360  0.764460  1.0  -0.5807
  O  O1300  1  0.627110  0.681660  0.707800  1.0  -0.5813
  O  O1301  1  0.507890  0.752200  0.604500  1.0  -0.2767
  O  O1302  1  0.777620  0.444740  0.951060  1.0  -0.5757
  O  O1303  1  0.852950  0.442140  0.950230  1.0  -0.5967
  O  O1304  1  0.887600  0.332900  0.815310  1.0  -0.2985
  O  O1305  1  0.097430  0.352350  0.831240  1.0  -0.2667
  O  O1306  1  0.259450  0.339750  0.774750  1.0  -0.5692
  O  O1307  1  0.298530  0.376080  0.830490  1.0  -0.5976
  O  O1308  1  0.218460  0.462960  0.951820  1.0  -0.5946
  O  O1309  1  0.142250  0.465750  0.951140  1.0  -0.5769
  O  O1310  1  0.691550  0.362360  0.830720  1.0  -0.5867
  O  O1311  1  0.727650  0.323580  0.773590  1.0  -0.5846
  O  O1312  1  0.612850  0.308060  0.708220  1.0  -0.5808
  O  O1313  1  0.577140  0.347430  0.764540  1.0  -0.5894
  O  O1314  1  0.411340  0.354640  0.764460  1.0  -0.58
  O  O1315  1  0.372890  0.318340  0.707800  1.0  -0.58
  O  O1316  1  0.492110  0.247800  0.604500  1.0  -0.2751
  O  O1317  1  0.444740  0.222380  0.048940  1.0  -0.5755
  O  O1318  1  0.442140  0.147050  0.049770  1.0  -0.594
  O  O1319  1  0.332900  0.112400  0.184690  1.0  -0.2996
  O  O1320  1  0.352350  0.902570  0.168760  1.0  -0.2656
  O  O1321  1  0.339750  0.740550  0.225250  1.0  -0.5684
  O  O1322  1  0.376080  0.701470  0.169510  1.0  -0.6016
  O  O1323  1  0.462960  0.781540  0.048180  1.0  -0.5969
  O  O1324  1  0.465750  0.857750  0.048860  1.0  -0.5769
  O  O1325  1  0.362360  0.308450  0.169280  1.0  -0.5894
  O  O1326  1  0.323580  0.272350  0.226410  1.0  -0.5863
  O  O1327  1  0.308060  0.387150  0.291780  1.0  -0.5808
  O  O1328  1  0.347430  0.422860  0.235460  1.0  -0.5872
  O  O1329  1  0.354640  0.588660  0.235540  1.0  -0.5798
  O  O1330  1  0.318340  0.627110  0.292200  1.0  -0.5823
  O  O1331  1  0.247800  0.507890  0.395500  1.0  -0.277
  O  O1332  1  0.555260  0.777620  0.048940  1.0  -0.577
  O  O1333  1  0.557860  0.852950  0.049770  1.0  -0.5932
  O  O1334  1  0.667100  0.887600  0.184690  1.0  -0.3008
  O  O1335  1  0.647650  0.097430  0.168760  1.0  -0.2651
  O  O1336  1  0.660250  0.259450  0.225250  1.0  -0.5683
  O  O1337  1  0.623920  0.298530  0.169510  1.0  -0.6012
  O  O1338  1  0.537040  0.218460  0.048180  1.0  -0.596
  O  O1339  1  0.534250  0.142250  0.048860  1.0  -0.5764
  O  O1340  1  0.637640  0.691550  0.169280  1.0  -0.5882
  O  O1341  1  0.676420  0.727650  0.226410  1.0  -0.5844
  O  O1342  1  0.691940  0.612850  0.291780  1.0  -0.5805
  O  O1343  1  0.652570  0.577140  0.235460  1.0  -0.5881
  O  O1344  1  0.645360  0.411340  0.235540  1.0  -0.58
  O  O1345  1  0.681660  0.372890  0.292200  1.0  -0.5822
  O  O1346  1  0.752200  0.492110  0.395500  1.0  -0.2768
  O  O1347  1  0.777620  0.444740  0.048940  1.0  -0.5762
  O  O1348  1  0.852950  0.442140  0.049770  1.0  -0.5964
  O  O1349  1  0.887600  0.332900  0.184690  1.0  -0.2992
  O  O1350  1  0.097430  0.352350  0.168760  1.0  -0.2664
  O  O1351  1  0.259450  0.339750  0.225250  1.0  -0.569
  O  O1352  1  0.298530  0.376080  0.169510  1.0  -0.6001
  O  O1353  1  0.218460  0.462960  0.048180  1.0  -0.5944
  O  O1354  1  0.142250  0.465750  0.048860  1.0  -0.5771
  O  O1355  1  0.691550  0.362360  0.169280  1.0  -0.5879
  O  O1356  1  0.727650  0.323580  0.226410  1.0  -0.5857
  O  O1357  1  0.612850  0.308060  0.291780  1.0  -0.5811
  O  O1358  1  0.577140  0.347430  0.235460  1.0  -0.5901
  O  O1359  1  0.411340  0.354640  0.235540  1.0  -0.5803
  O  O1360  1  0.372890  0.318340  0.292200  1.0  -0.581
  O  O1361  1  0.492110  0.247800  0.395500  1.0  -0.2755
  O  O1362  1  0.222380  0.555260  0.048940  1.0  -0.5762
  O  O1363  1  0.147050  0.557860  0.049770  1.0  -0.5958
  O  O1364  1  0.112400  0.667100  0.184690  1.0  -0.2987
  O  O1365  1  0.902570  0.647650  0.168760  1.0  -0.2674
  O  O1366  1  0.740550  0.660250  0.225250  1.0  -0.5696
  O  O1367  1  0.701470  0.623920  0.169510  1.0  -0.6002
  O  O1368  1  0.781540  0.537040  0.048180  1.0  -0.5946
  O  O1369  1  0.857750  0.534250  0.048860  1.0  -0.5773
  O  O1370  1  0.308450  0.637640  0.169280  1.0  -0.5869
  O  O1371  1  0.272350  0.676420  0.226410  1.0  -0.5856
  O  O1372  1  0.387150  0.691940  0.291780  1.0  -0.5817
  O  O1373  1  0.422860  0.652570  0.235460  1.0  -0.5899
  O  O1374  1  0.588660  0.645360  0.235540  1.0  -0.5803
  O  O1375  1  0.627110  0.681660  0.292200  1.0  -0.5825
  O  O1376  1  0.507890  0.752200  0.395500  1.0  -0.2771
