# generated using pymatgen
data_Ni2H40C53(N2O7)2
_symmetry_space_group_name_H-M   'P 1'
_cell_length_a   46.10800000
_cell_length_b   10.67580000
_cell_length_c   23.63300000
_cell_angle_alpha   90.00000000
_cell_angle_beta   95.27400000
_cell_angle_gamma   90.00000000
_symmetry_Int_Tables_number   1
_chemical_formula_structural   Ni2H40C53(N2O7)2
_chemical_formula_sum   'Ni16 H320 C424 N32 O112'
_cell_volume   11583.85427181
_cell_formula_units_Z   8
loop_
 _symmetry_equiv_pos_site_id
 _symmetry_equiv_pos_as_xyz
  1  'x, y, z'
loop_
 _atom_site_type_symbol
 _atom_site_label
 _atom_site_symmetry_multiplicity
 _atom_site_fract_x
 _atom_site_fract_y
 _atom_site_fract_z
 _atom_site_occupancy
 _atom_site_charge
  Ni  Ni1  1  0.214950  0.846120  0.073970  1.0  0.7701
  Ni  Ni2  1  0.991500  0.831310  0.930030  1.0  0.7617
  Ni  Ni3  1  0.714950  0.346120  0.073970  1.0  0.7701
  Ni  Ni4  1  0.491500  0.331310  0.930030  1.0  0.7617
  Ni  Ni5  1  0.785050  0.846120  0.426030  1.0  0.7694
  Ni  Ni6  1  0.008500  0.831310  0.569970  1.0  0.7622
  Ni  Ni7  1  0.285050  0.346120  0.426030  1.0  0.7694
  Ni  Ni8  1  0.508500  0.331310  0.569970  1.0  0.7622
  Ni  Ni9  1  0.785050  0.153880  0.926030  1.0  0.7636
  Ni  Ni10  1  0.008500  0.168690  0.069970  1.0  0.7607
  Ni  Ni11  1  0.285050  0.653880  0.926030  1.0  0.7636
  Ni  Ni12  1  0.508500  0.668690  0.069970  1.0  0.7607
  Ni  Ni13  1  0.214950  0.153880  0.573970  1.0  0.7642
  Ni  Ni14  1  0.991500  0.168690  0.430030  1.0  0.7596
  Ni  Ni15  1  0.714950  0.653880  0.573970  1.0  0.7642
  Ni  Ni16  1  0.491500  0.668690  0.430030  1.0  0.7596
  H  H17  1  0.151800  0.110700  0.127200  1.0  0.0903
  H  H18  1  0.122700  0.274900  0.155400  1.0  0.1235
  H  H19  1  0.157700  0.495200  0.044900  1.0  0.1014
  H  H20  1  0.182800  0.328800  0.011800  1.0  0.1003
  H  H21  1  0.093800  0.425500  0.030700  1.0  0.0949
  H  H22  1  0.057200  0.531200  0.977900  1.0  0.0932
  H  H23  1  0.070900  0.830700  0.076200  1.0  0.1074
  H  H24  1  0.107100  0.722500  0.131000  1.0  0.1083
  H  H25  1  0.297100  0.856100  0.203700  1.0  0.0986
  H  H26  1  0.338600  0.770800  0.253000  1.0  0.1141
  H  H27  1  0.330200  0.467600  0.154000  1.0  0.1246
  H  H28  1  0.288500  0.553300  0.107700  1.0  0.0917
  H  H29  1  0.378500  0.660900  0.147700  1.0  0.0826
  H  H30  1  0.423600  0.654900  0.115000  1.0  0.0917
  H  H31  1  0.450200  0.417800  0.239100  1.0  0.1005
  H  H32  1  0.405100  0.433200  0.275400  1.0  0.1211
  H  H33  1  0.176300  0.919200  0.165700  1.0  0.0718
  H  H34  1  0.149500  0.834500  0.232700  1.0  0.1135
  H  H35  1  0.183400  0.502100  0.196900  1.0  0.1219
  H  H36  1  0.209200  0.598200  0.132300  1.0  0.0726
  H  H37  1  0.212800  0.353500  0.488200  1.0  0.0727
  H  H38  1  0.182200  0.461700  0.424000  1.0  0.1283
  H  H39  1  0.118100  0.240500  0.466400  1.0  0.1312
  H  H40  1  0.150500  0.145900  0.530000  1.0  0.0623
  H  H41  1  0.050400  0.141100  0.176000  1.0  0.0551
  H  H42  1  0.078100  0.255900  0.240400  1.0  0.1059
  H  H43  1  0.048300  0.560600  0.157700  1.0  0.1269
  H  H44  1  0.023300  0.433100  0.092600  1.0  0.067
  H  H45  1  0.070700  0.892000  0.542400  1.0  0.0704
  H  H46  1  0.103400  0.842200  0.479800  1.0  0.1329
  H  H47  1  0.039700  0.660700  0.386800  1.0  0.1287
  H  H48  1  0.009500  0.718500  0.453700  1.0  0.063
  H  H49  1  0.073000  0.649800  0.321300  1.0  0.0796
  H  H50  1  0.077100  0.546900  0.368900  1.0  0.0676
  H  H51  1  0.116800  0.408600  0.271300  1.0  0.0605
  H  H52  1  0.090800  0.395400  0.309400  1.0  0.0517
  H  H53  1  0.153000  0.489100  0.348400  1.0  0.0722
  H  H54  1  0.142500  0.585600  0.392200  1.0  0.0733
  H  H55  1  0.112500  0.695900  0.261000  1.0  0.0651
  H  H56  1  0.136000  0.722700  0.312300  1.0  0.0665
  H  H57  1  0.651800  0.610700  0.127200  1.0  0.0903
  H  H58  1  0.622700  0.774900  0.155400  1.0  0.1235
  H  H59  1  0.657700  0.995200  0.044900  1.0  0.1014
  H  H60  1  0.682800  0.828800  0.011800  1.0  0.1003
  H  H61  1  0.593800  0.925500  0.030700  1.0  0.0949
  H  H62  1  0.557200  0.031200  0.977900  1.0  0.0932
  H  H63  1  0.570900  0.330700  0.076200  1.0  0.1074
  H  H64  1  0.607100  0.222500  0.131000  1.0  0.1083
  H  H65  1  0.797100  0.356100  0.203700  1.0  0.0986
  H  H66  1  0.838600  0.270800  0.253000  1.0  0.1141
  H  H67  1  0.830200  0.967600  0.154000  1.0  0.1246
  H  H68  1  0.788500  0.053300  0.107700  1.0  0.0917
  H  H69  1  0.878500  0.160900  0.147700  1.0  0.0826
  H  H70  1  0.923600  0.154900  0.115000  1.0  0.0917
  H  H71  1  0.950200  0.917800  0.239100  1.0  0.1005
  H  H72  1  0.905100  0.933200  0.275400  1.0  0.1211
  H  H73  1  0.676300  0.419200  0.165700  1.0  0.0718
  H  H74  1  0.649500  0.334500  0.232700  1.0  0.1135
  H  H75  1  0.683400  0.002100  0.196900  1.0  0.1219
  H  H76  1  0.709200  0.098200  0.132300  1.0  0.0726
  H  H77  1  0.712800  0.853500  0.488200  1.0  0.0727
  H  H78  1  0.682200  0.961700  0.424000  1.0  0.1283
  H  H79  1  0.618100  0.740500  0.466400  1.0  0.1312
  H  H80  1  0.650500  0.645900  0.530000  1.0  0.0623
  H  H81  1  0.550400  0.641100  0.176000  1.0  0.0551
  H  H82  1  0.578100  0.755900  0.240400  1.0  0.1059
  H  H83  1  0.548300  0.060600  0.157700  1.0  0.1269
  H  H84  1  0.523300  0.933100  0.092600  1.0  0.067
  H  H85  1  0.570700  0.392000  0.542400  1.0  0.0704
  H  H86  1  0.603400  0.342200  0.479800  1.0  0.1329
  H  H87  1  0.539700  0.160700  0.386800  1.0  0.1287
  H  H88  1  0.509500  0.218500  0.453700  1.0  0.063
  H  H89  1  0.573000  0.149800  0.321300  1.0  0.0796
  H  H90  1  0.577100  0.046900  0.368900  1.0  0.0676
  H  H91  1  0.616800  0.908600  0.271300  1.0  0.0605
  H  H92  1  0.590800  0.895400  0.309400  1.0  0.0517
  H  H93  1  0.653000  0.989100  0.348400  1.0  0.0722
  H  H94  1  0.642500  0.085600  0.392200  1.0  0.0733
  H  H95  1  0.612500  0.195900  0.261000  1.0  0.0651
  H  H96  1  0.636000  0.222700  0.312300  1.0  0.0665
  H  H97  1  0.848200  0.110700  0.372800  1.0  0.0899
  H  H98  1  0.877300  0.274900  0.344600  1.0  0.1238
  H  H99  1  0.842300  0.495200  0.455100  1.0  0.101
  H  H100  1  0.817200  0.328800  0.488200  1.0  0.1005
  H  H101  1  0.906200  0.425500  0.469300  1.0  0.0954
  H  H102  1  0.942800  0.531200  0.522100  1.0  0.0935
  H  H103  1  0.929100  0.830700  0.423800  1.0  0.1071
  H  H104  1  0.892900  0.722500  0.369000  1.0  0.1079
  H  H105  1  0.702900  0.856100  0.296300  1.0  0.0985
  H  H106  1  0.661400  0.770800  0.247000  1.0  0.1139
  H  H107  1  0.669800  0.467600  0.346000  1.0  0.1248
  H  H108  1  0.711500  0.553300  0.392300  1.0  0.0923
  H  H109  1  0.621500  0.660900  0.352300  1.0  0.083
  H  H110  1  0.576400  0.654900  0.385000  1.0  0.0913
  H  H111  1  0.549800  0.417800  0.260900  1.0  0.0999
  H  H112  1  0.594900  0.433200  0.224600  1.0  0.1212
  H  H113  1  0.823700  0.919200  0.334300  1.0  0.0719
  H  H114  1  0.850500  0.834500  0.267300  1.0  0.1137
  H  H115  1  0.816600  0.502100  0.303100  1.0  0.122
  H  H116  1  0.790800  0.598200  0.367700  1.0  0.0718
  H  H117  1  0.787200  0.353500  0.011800  1.0  0.0723
  H  H118  1  0.817800  0.461700  0.076000  1.0  0.1276
  H  H119  1  0.881900  0.240500  0.033600  1.0  0.1299
  H  H120  1  0.849500  0.145900  0.970000  1.0  0.0628
  H  H121  1  0.949600  0.141100  0.324000  1.0  0.0549
  H  H122  1  0.921900  0.255900  0.259600  1.0  0.1053
  H  H123  1  0.951700  0.560600  0.342300  1.0  0.127
  H  H124  1  0.976700  0.433100  0.407400  1.0  0.0672
  H  H125  1  0.929300  0.892000  0.957600  1.0  0.0699
  H  H126  1  0.896600  0.842200  0.020200  1.0  0.1332
  H  H127  1  0.960300  0.660700  0.113200  1.0  0.1286
  H  H128  1  0.990500  0.718500  0.046300  1.0  0.0596
  H  H129  1  0.927000  0.649800  0.178700  1.0  0.0796
  H  H130  1  0.922900  0.546900  0.131100  1.0  0.0677
  H  H131  1  0.883200  0.408600  0.228700  1.0  0.0615
  H  H132  1  0.909200  0.395400  0.190600  1.0  0.0508
  H  H133  1  0.847000  0.489100  0.151600  1.0  0.0711
  H  H134  1  0.857500  0.585600  0.107800  1.0  0.0756
  H  H135  1  0.887500  0.695900  0.239000  1.0  0.0651
  H  H136  1  0.864000  0.722700  0.187700  1.0  0.0691
  H  H137  1  0.348200  0.610700  0.372800  1.0  0.0899
  H  H138  1  0.377300  0.774900  0.344600  1.0  0.1238
  H  H139  1  0.342300  0.995200  0.455100  1.0  0.101
  H  H140  1  0.317200  0.828800  0.488200  1.0  0.1005
  H  H141  1  0.406200  0.925500  0.469300  1.0  0.0954
  H  H142  1  0.442800  0.031200  0.522100  1.0  0.0935
  H  H143  1  0.429100  0.330700  0.423800  1.0  0.1071
  H  H144  1  0.392900  0.222500  0.369000  1.0  0.1079
  H  H145  1  0.202900  0.356100  0.296300  1.0  0.0985
  H  H146  1  0.161400  0.270800  0.247000  1.0  0.1139
  H  H147  1  0.169800  0.967600  0.346000  1.0  0.1248
  H  H148  1  0.211500  0.053300  0.392300  1.0  0.0923
  H  H149  1  0.121500  0.160900  0.352300  1.0  0.083
  H  H150  1  0.076400  0.154900  0.385000  1.0  0.0913
  H  H151  1  0.049800  0.917800  0.260900  1.0  0.0999
  H  H152  1  0.094900  0.933200  0.224600  1.0  0.1212
  H  H153  1  0.323700  0.419200  0.334300  1.0  0.0719
  H  H154  1  0.350500  0.334500  0.267300  1.0  0.1137
  H  H155  1  0.316600  0.002100  0.303100  1.0  0.122
  H  H156  1  0.290800  0.098200  0.367700  1.0  0.0718
  H  H157  1  0.287200  0.853500  0.011800  1.0  0.0723
  H  H158  1  0.317800  0.961700  0.076000  1.0  0.1276
  H  H159  1  0.381900  0.740500  0.033600  1.0  0.1299
  H  H160  1  0.349500  0.645900  0.970000  1.0  0.0628
  H  H161  1  0.449600  0.641100  0.324000  1.0  0.0549
  H  H162  1  0.421900  0.755900  0.259600  1.0  0.1053
  H  H163  1  0.451700  0.060600  0.342300  1.0  0.127
  H  H164  1  0.476700  0.933100  0.407400  1.0  0.0672
  H  H165  1  0.429300  0.392000  0.957600  1.0  0.0699
  H  H166  1  0.396600  0.342200  0.020200  1.0  0.1332
  H  H167  1  0.460300  0.160700  0.113200  1.0  0.1286
  H  H168  1  0.490500  0.218500  0.046300  1.0  0.0596
  H  H169  1  0.427000  0.149800  0.178700  1.0  0.0796
  H  H170  1  0.422900  0.046900  0.131100  1.0  0.0677
  H  H171  1  0.383200  0.908600  0.228700  1.0  0.0615
  H  H172  1  0.409200  0.895400  0.190600  1.0  0.0508
  H  H173  1  0.347000  0.989100  0.151600  1.0  0.0711
  H  H174  1  0.357500  0.085600  0.107800  1.0  0.0756
  H  H175  1  0.387500  0.195900  0.239000  1.0  0.0651
  H  H176  1  0.364000  0.222700  0.187700  1.0  0.0691
  H  H177  1  0.848200  0.889300  0.872800  1.0  0.0902
  H  H178  1  0.877300  0.725100  0.844600  1.0  0.124
  H  H179  1  0.842300  0.504800  0.955100  1.0  0.1014
  H  H180  1  0.817200  0.671200  0.988200  1.0  0.1007
  H  H181  1  0.906200  0.574500  0.969300  1.0  0.0953
  H  H182  1  0.942800  0.468800  0.022100  1.0  0.0934
  H  H183  1  0.929100  0.169300  0.923800  1.0  0.1076
  H  H184  1  0.892900  0.277500  0.869000  1.0  0.1079
  H  H185  1  0.702900  0.143900  0.796300  1.0  0.0981
  H  H186  1  0.661400  0.229200  0.747000  1.0  0.114
  H  H187  1  0.669800  0.532400  0.846000  1.0  0.1243
  H  H188  1  0.711500  0.446700  0.892300  1.0  0.093
  H  H189  1  0.621500  0.339100  0.852300  1.0  0.0828
  H  H190  1  0.576400  0.345100  0.885000  1.0  0.0913
  H  H191  1  0.549800  0.582200  0.760900  1.0  0.1004
  H  H192  1  0.594900  0.566800  0.724600  1.0  0.121
  H  H193  1  0.823700  0.080800  0.834300  1.0  0.0714
  H  H194  1  0.850500  0.165500  0.767300  1.0  0.1131
  H  H195  1  0.816600  0.497900  0.803100  1.0  0.1217
  H  H196  1  0.790800  0.401800  0.867700  1.0  0.0719
  H  H197  1  0.787200  0.646500  0.511800  1.0  0.0728
  H  H198  1  0.817800  0.538300  0.576000  1.0  0.1274
  H  H199  1  0.881900  0.759500  0.533600  1.0  0.13
  H  H200  1  0.849500  0.854100  0.470000  1.0  0.0626
  H  H201  1  0.949600  0.858900  0.824000  1.0  0.0501
  H  H202  1  0.921900  0.744100  0.759600  1.0  0.1053
  H  H203  1  0.951700  0.439400  0.842300  1.0  0.1281
  H  H204  1  0.976700  0.566900  0.907400  1.0  0.0674
  H  H205  1  0.929300  0.108000  0.457600  1.0  0.0699
  H  H206  1  0.896600  0.157800  0.520200  1.0  0.1332
  H  H207  1  0.960300  0.339300  0.613200  1.0  0.1284
  H  H208  1  0.990500  0.281500  0.546300  1.0  0.0597
  H  H209  1  0.927000  0.350200  0.678700  1.0  0.0799
  H  H210  1  0.922900  0.453100  0.631100  1.0  0.0681
  H  H211  1  0.883200  0.591400  0.728700  1.0  0.061
  H  H212  1  0.909200  0.604600  0.690600  1.0  0.0516
  H  H213  1  0.847000  0.510900  0.651600  1.0  0.0711
  H  H214  1  0.857500  0.414400  0.607800  1.0  0.0748
  H  H215  1  0.887500  0.304100  0.739000  1.0  0.0658
  H  H216  1  0.864000  0.277300  0.687700  1.0  0.0682
  H  H217  1  0.348200  0.389300  0.872800  1.0  0.0902
  H  H218  1  0.377300  0.225100  0.844600  1.0  0.124
  H  H219  1  0.342300  0.004800  0.955100  1.0  0.1014
  H  H220  1  0.317200  0.171200  0.988200  1.0  0.1007
  H  H221  1  0.406200  0.074500  0.969300  1.0  0.0953
  H  H222  1  0.442800  0.968800  0.022100  1.0  0.0934
  H  H223  1  0.429100  0.669300  0.923800  1.0  0.1076
  H  H224  1  0.392900  0.777500  0.869000  1.0  0.1079
  H  H225  1  0.202900  0.643900  0.796300  1.0  0.0981
  H  H226  1  0.161400  0.729200  0.747000  1.0  0.114
  H  H227  1  0.169800  0.032400  0.846000  1.0  0.1243
  H  H228  1  0.211500  0.946700  0.892300  1.0  0.093
  H  H229  1  0.121500  0.839100  0.852300  1.0  0.0828
  H  H230  1  0.076400  0.845100  0.885000  1.0  0.0913
  H  H231  1  0.049800  0.082200  0.760900  1.0  0.1004
  H  H232  1  0.094900  0.066800  0.724600  1.0  0.121
  H  H233  1  0.323700  0.580800  0.834300  1.0  0.0714
  H  H234  1  0.350500  0.665500  0.767300  1.0  0.1131
  H  H235  1  0.316600  0.997900  0.803100  1.0  0.1217
  H  H236  1  0.290800  0.901800  0.867700  1.0  0.0719
  H  H237  1  0.287200  0.146500  0.511800  1.0  0.0728
  H  H238  1  0.317800  0.038300  0.576000  1.0  0.1274
  H  H239  1  0.381900  0.259500  0.533600  1.0  0.13
  H  H240  1  0.349500  0.354100  0.470000  1.0  0.0626
  H  H241  1  0.449600  0.358900  0.824000  1.0  0.0501
  H  H242  1  0.421900  0.244100  0.759600  1.0  0.1053
  H  H243  1  0.451700  0.939400  0.842300  1.0  0.1281
  H  H244  1  0.476700  0.066900  0.907400  1.0  0.0674
  H  H245  1  0.429300  0.608000  0.457600  1.0  0.0699
  H  H246  1  0.396600  0.657800  0.520200  1.0  0.1332
  H  H247  1  0.460300  0.839300  0.613200  1.0  0.1284
  H  H248  1  0.490500  0.781500  0.546300  1.0  0.0597
  H  H249  1  0.427000  0.850200  0.678700  1.0  0.0799
  H  H250  1  0.422900  0.953100  0.631100  1.0  0.0681
  H  H251  1  0.383200  0.091400  0.728700  1.0  0.061
  H  H252  1  0.409200  0.104600  0.690600  1.0  0.0516
  H  H253  1  0.347000  0.010900  0.651600  1.0  0.0711
  H  H254  1  0.357500  0.914400  0.607800  1.0  0.0748
  H  H255  1  0.387500  0.804100  0.739000  1.0  0.0658
  H  H256  1  0.364000  0.777300  0.687700  1.0  0.0682
  H  H257  1  0.151800  0.889300  0.627200  1.0  0.0902
  H  H258  1  0.122700  0.725100  0.655400  1.0  0.1235
  H  H259  1  0.157700  0.504800  0.544900  1.0  0.1016
  H  H260  1  0.182800  0.671200  0.511800  1.0  0.1003
  H  H261  1  0.093800  0.574500  0.530700  1.0  0.0949
  H  H262  1  0.057200  0.468800  0.477900  1.0  0.093
  H  H263  1  0.070900  0.169300  0.576200  1.0  0.1081
  H  H264  1  0.107100  0.277500  0.631000  1.0  0.1089
  H  H265  1  0.297100  0.143900  0.703700  1.0  0.0981
  H  H266  1  0.338600  0.229200  0.753000  1.0  0.1143
  H  H267  1  0.330200  0.532400  0.654000  1.0  0.1244
  H  H268  1  0.288500  0.446700  0.607700  1.0  0.093
  H  H269  1  0.378500  0.339100  0.647700  1.0  0.0828
  H  H270  1  0.423600  0.345100  0.615000  1.0  0.0917
  H  H271  1  0.450200  0.582200  0.739100  1.0  0.1006
  H  H272  1  0.405100  0.566800  0.775400  1.0  0.1209
  H  H273  1  0.176300  0.080800  0.665700  1.0  0.0716
  H  H274  1  0.149500  0.165500  0.732700  1.0  0.1132
  H  H275  1  0.183400  0.497900  0.696900  1.0  0.1212
  H  H276  1  0.209200  0.401800  0.632300  1.0  0.073
  H  H277  1  0.212800  0.646500  0.988200  1.0  0.0727
  H  H278  1  0.182200  0.538300  0.924000  1.0  0.1273
  H  H279  1  0.118100  0.759500  0.966400  1.0  0.1314
  H  H280  1  0.150500  0.854100  0.030000  1.0  0.0619
  H  H281  1  0.050400  0.858900  0.676000  1.0  0.0505
  H  H282  1  0.078100  0.744100  0.740400  1.0  0.1053
  H  H283  1  0.048300  0.439400  0.657700  1.0  0.1279
  H  H284  1  0.023300  0.566900  0.592600  1.0  0.0671
  H  H285  1  0.070700  0.108000  0.042400  1.0  0.0709
  H  H286  1  0.103400  0.157800  0.979800  1.0  0.1331
  H  H287  1  0.039700  0.339300  0.886800  1.0  0.1285
  H  H288  1  0.009500  0.281500  0.953700  1.0  0.063
  H  H289  1  0.073000  0.350200  0.821300  1.0  0.0795
  H  H290  1  0.077100  0.453100  0.868900  1.0  0.0676
  H  H291  1  0.116800  0.591400  0.771300  1.0  0.0608
  H  H292  1  0.090800  0.604600  0.809400  1.0  0.0508
  H  H293  1  0.153000  0.510900  0.848400  1.0  0.0719
  H  H294  1  0.142500  0.414400  0.892200  1.0  0.0752
  H  H295  1  0.112500  0.304100  0.761000  1.0  0.0646
  H  H296  1  0.136000  0.277300  0.812300  1.0  0.0674
  H  H297  1  0.651800  0.389300  0.627200  1.0  0.0902
  H  H298  1  0.622700  0.225100  0.655400  1.0  0.1235
  H  H299  1  0.657700  0.004800  0.544900  1.0  0.1016
  H  H300  1  0.682800  0.171200  0.511800  1.0  0.1003
  H  H301  1  0.593800  0.074500  0.530700  1.0  0.0949
  H  H302  1  0.557200  0.968800  0.477900  1.0  0.093
  H  H303  1  0.570900  0.669300  0.576200  1.0  0.1081
  H  H304  1  0.607100  0.777500  0.631000  1.0  0.1089
  H  H305  1  0.797100  0.643900  0.703700  1.0  0.0981
  H  H306  1  0.838600  0.729200  0.753000  1.0  0.1143
  H  H307  1  0.830200  0.032400  0.654000  1.0  0.1244
  H  H308  1  0.788500  0.946700  0.607700  1.0  0.093
  H  H309  1  0.878500  0.839100  0.647700  1.0  0.0828
  H  H310  1  0.923600  0.845100  0.615000  1.0  0.0917
  H  H311  1  0.950200  0.082200  0.739100  1.0  0.1006
  H  H312  1  0.905100  0.066800  0.775400  1.0  0.1209
  H  H313  1  0.676300  0.580800  0.665700  1.0  0.0716
  H  H314  1  0.649500  0.665500  0.732700  1.0  0.1132
  H  H315  1  0.683400  0.997900  0.696900  1.0  0.1212
  H  H316  1  0.709200  0.901800  0.632300  1.0  0.073
  H  H317  1  0.712800  0.146500  0.988200  1.0  0.0727
  H  H318  1  0.682200  0.038300  0.924000  1.0  0.1273
  H  H319  1  0.618100  0.259500  0.966400  1.0  0.1314
  H  H320  1  0.650500  0.354100  0.030000  1.0  0.0619
  H  H321  1  0.550400  0.358900  0.676000  1.0  0.0505
  H  H322  1  0.578100  0.244100  0.740400  1.0  0.1053
  H  H323  1  0.548300  0.939400  0.657700  1.0  0.1279
  H  H324  1  0.523300  0.066900  0.592600  1.0  0.0671
  H  H325  1  0.570700  0.608000  0.042400  1.0  0.0709
  H  H326  1  0.603400  0.657800  0.979800  1.0  0.1331
  H  H327  1  0.539700  0.839300  0.886800  1.0  0.1285
  H  H328  1  0.509500  0.781500  0.953700  1.0  0.063
  H  H329  1  0.573000  0.850200  0.821300  1.0  0.0795
  H  H330  1  0.577100  0.953100  0.868900  1.0  0.0676
  H  H331  1  0.616800  0.091400  0.771300  1.0  0.0608
  H  H332  1  0.590800  0.104600  0.809400  1.0  0.0508
  H  H333  1  0.653000  0.010900  0.848400  1.0  0.0719
  H  H334  1  0.642500  0.914400  0.892200  1.0  0.0752
  H  H335  1  0.612500  0.804100  0.761000  1.0  0.0646
  H  H336  1  0.636000  0.777300  0.812300  1.0  0.0674
  C  C337  1  0.188850  0.100300  0.049830  1.0  0.7039
  C  C338  1  0.170830  0.203100  0.067560  1.0  -0.1389
  C  C339  1  0.152680  0.188400  0.109670  1.0  -0.0306
  C  C340  1  0.135340  0.286700  0.127360  1.0  -0.1818
  C  C341  1  0.137830  0.399600  0.101730  1.0  0.2788
  C  C342  1  0.155870  0.416200  0.060740  1.0  -0.2042
  C  C343  1  0.171570  0.317500  0.042110  1.0  -0.0585
  C  C344  1  0.103160  0.563100  0.086210  1.0  0.2773
  C  C345  1  0.088910  0.506700  0.040550  1.0  -0.1878
  C  C346  1  0.067240  0.570100  0.009040  1.0  -0.0344
  C  C347  1  0.060070  0.690500  0.022900  1.0  -0.1377
  C  C348  1  0.075140  0.748100  0.067450  1.0  0.0015
  C  C349  1  0.096870  0.683800  0.100000  1.0  -0.164
  C  C350  1  0.034590  0.750400  0.990500  1.0  0.6377
  C  C351  1  0.288120  0.713100  0.150570  1.0  -0.0759
  C  C352  1  0.303430  0.777000  0.193790  1.0  -0.0295
  C  C353  1  0.328530  0.726300  0.223580  1.0  -0.1392
  C  C354  1  0.338110  0.608200  0.208310  1.0  0.2923
  C  C355  1  0.323620  0.545300  0.165060  1.0  -0.2614
  C  C356  1  0.298540  0.598300  0.136970  1.0  -0.0155
  C  C357  1  0.387350  0.550400  0.214600  1.0  0.3091
  C  C358  1  0.393130  0.613600  0.167100  1.0  -0.1192
  C  C359  1  0.420190  0.609000  0.147140  1.0  -0.0472
  C  C360  1  0.442410  0.537500  0.173890  1.0  -0.1003
  C  C361  1  0.436000  0.469700  0.221180  1.0  -0.0423
  C  C362  1  0.408730  0.477000  0.242750  1.0  -0.1732
  C  C363  1  0.472150  0.536600  0.151910  1.0  0.658
  C  C364  1  0.177510  0.833200  0.171790  1.0  0.1793
  C  C365  1  0.161380  0.783700  0.212670  1.0  -0.3202
  C  C366  1  0.163290  0.655900  0.223050  1.0  0.3443
  C  C367  1  0.181500  0.588000  0.191420  1.0  -0.2139
  C  C368  1  0.196660  0.646400  0.152070  1.0  0.1808
  C  C369  1  0.193280  0.330000  0.483960  1.0  0.1799
  C  C370  1  0.175170  0.396200  0.444750  1.0  -0.2975
  C  C371  1  0.146530  0.361800  0.437600  1.0  0.2936
  C  C372  1  0.137420  0.266200  0.470080  1.0  -0.275
  C  C373  1  0.157210  0.209600  0.507790  1.0  0.1742
  C  C374  1  0.050230  0.227600  0.171530  1.0  0.1833
  C  C375  1  0.066830  0.295800  0.211000  1.0  -0.2587
  C  C376  1  0.066830  0.421900  0.207070  1.0  0.3243
  C  C377  1  0.049520  0.474100  0.161910  1.0  -0.2417
  C  C378  1  0.034130  0.396400  0.123370  1.0  0.1852
  C  C379  1  0.064510  0.842800  0.511170  1.0  0.1956
  C  C380  1  0.084210  0.814700  0.473700  1.0  -0.2933
  C  C381  1  0.075160  0.745200  0.427090  1.0  0.3099
  C  C382  1  0.046610  0.707200  0.418490  1.0  -0.292
  C  C383  1  0.028980  0.741700  0.459320  1.0  0.1857
  C  C384  1  0.086750  0.614000  0.350340  1.0  0.0481
  C  C385  1  0.101010  0.453300  0.286680  1.0  0.0502
  C  C386  1  0.136290  0.516700  0.367090  1.0  0.0531
  C  C387  1  0.126920  0.657600  0.288080  1.0  0.0747
  C  C388  1  0.261620  0.766100  0.121410  1.0  0.6293
  C  C389  1  0.112940  0.561900  0.323030  1.0  -0.0322
  C  C390  1  0.688850  0.600300  0.049830  1.0  0.7039
  C  C391  1  0.670830  0.703100  0.067560  1.0  -0.1389
  C  C392  1  0.652680  0.688400  0.109670  1.0  -0.0306
  C  C393  1  0.635340  0.786700  0.127360  1.0  -0.1818
  C  C394  1  0.637830  0.899600  0.101730  1.0  0.2788
  C  C395  1  0.655870  0.916200  0.060740  1.0  -0.2042
  C  C396  1  0.671570  0.817500  0.042110  1.0  -0.0585
  C  C397  1  0.603160  0.063100  0.086210  1.0  0.2773
  C  C398  1  0.588910  0.006700  0.040550  1.0  -0.1878
  C  C399  1  0.567240  0.070100  0.009040  1.0  -0.0344
  C  C400  1  0.560070  0.190500  0.022900  1.0  -0.1377
  C  C401  1  0.575140  0.248100  0.067450  1.0  0.0015
  C  C402  1  0.596870  0.183800  0.100000  1.0  -0.164
  C  C403  1  0.534590  0.250400  0.990500  1.0  0.6377
  C  C404  1  0.788120  0.213100  0.150570  1.0  -0.0759
  C  C405  1  0.803430  0.277000  0.193790  1.0  -0.0295
  C  C406  1  0.828530  0.226300  0.223580  1.0  -0.1392
  C  C407  1  0.838110  0.108200  0.208310  1.0  0.2923
  C  C408  1  0.823620  0.045300  0.165060  1.0  -0.2614
  C  C409  1  0.798540  0.098300  0.136970  1.0  -0.0155
  C  C410  1  0.887350  0.050400  0.214600  1.0  0.3091
  C  C411  1  0.893130  0.113600  0.167100  1.0  -0.1192
  C  C412  1  0.920190  0.109000  0.147140  1.0  -0.0472
  C  C413  1  0.942410  0.037500  0.173890  1.0  -0.1003
  C  C414  1  0.936000  0.969700  0.221180  1.0  -0.0423
  C  C415  1  0.908730  0.977000  0.242750  1.0  -0.1732
  C  C416  1  0.972150  0.036600  0.151910  1.0  0.658
  C  C417  1  0.677510  0.333200  0.171790  1.0  0.1793
  C  C418  1  0.661380  0.283700  0.212670  1.0  -0.3202
  C  C419  1  0.663290  0.155900  0.223050  1.0  0.3443
  C  C420  1  0.681500  0.088000  0.191420  1.0  -0.2139
  C  C421  1  0.696660  0.146400  0.152070  1.0  0.1808
  C  C422  1  0.693280  0.830000  0.483960  1.0  0.1799
  C  C423  1  0.675170  0.896200  0.444750  1.0  -0.2975
  C  C424  1  0.646530  0.861800  0.437600  1.0  0.2936
  C  C425  1  0.637420  0.766200  0.470080  1.0  -0.275
  C  C426  1  0.657210  0.709600  0.507790  1.0  0.1742
  C  C427  1  0.550230  0.727600  0.171530  1.0  0.1833
  C  C428  1  0.566830  0.795800  0.211000  1.0  -0.2587
  C  C429  1  0.566830  0.921900  0.207070  1.0  0.3243
  C  C430  1  0.549520  0.974100  0.161910  1.0  -0.2417
  C  C431  1  0.534130  0.896400  0.123370  1.0  0.1852
  C  C432  1  0.564510  0.342800  0.511170  1.0  0.1956
  C  C433  1  0.584210  0.314700  0.473700  1.0  -0.2933
  C  C434  1  0.575160  0.245200  0.427090  1.0  0.3099
  C  C435  1  0.546610  0.207200  0.418490  1.0  -0.292
  C  C436  1  0.528980  0.241700  0.459320  1.0  0.1857
  C  C437  1  0.586750  0.114000  0.350340  1.0  0.0481
  C  C438  1  0.601010  0.953300  0.286680  1.0  0.0502
  C  C439  1  0.636290  0.016700  0.367090  1.0  0.0531
  C  C440  1  0.626920  0.157600  0.288080  1.0  0.0747
  C  C441  1  0.761620  0.266100  0.121410  1.0  0.6293
  C  C442  1  0.612940  0.061900  0.323030  1.0  -0.0322
  C  C443  1  0.811150  0.100300  0.450170  1.0  0.7029
  C  C444  1  0.829170  0.203100  0.432440  1.0  -0.1402
  C  C445  1  0.847320  0.188400  0.390330  1.0  -0.0304
  C  C446  1  0.864660  0.286700  0.372640  1.0  -0.1809
  C  C447  1  0.862170  0.399600  0.398270  1.0  0.2788
  C  C448  1  0.844130  0.416200  0.439260  1.0  -0.2042
  C  C449  1  0.828430  0.317500  0.457890  1.0  -0.0564
  C  C450  1  0.896840  0.563100  0.413790  1.0  0.2772
  C  C451  1  0.911090  0.506700  0.459450  1.0  -0.1889
  C  C452  1  0.932760  0.570100  0.490960  1.0  -0.0366
  C  C453  1  0.939930  0.690500  0.477100  1.0  -0.1371
  C  C454  1  0.924860  0.748100  0.432550  1.0  0.0025
  C  C455  1  0.903130  0.683800  0.400000  1.0  -0.1638
  C  C456  1  0.965410  0.750400  0.509500  1.0  0.6389
  C  C457  1  0.711880  0.713100  0.349430  1.0  -0.0736
  C  C458  1  0.696570  0.777000  0.306210  1.0  -0.0274
  C  C459  1  0.671470  0.726300  0.276420  1.0  -0.138
  C  C460  1  0.661890  0.608200  0.291690  1.0  0.2939
  C  C461  1  0.676380  0.545300  0.334940  1.0  -0.2598
  C  C462  1  0.701460  0.598300  0.363030  1.0  -0.0152
  C  C463  1  0.612650  0.550400  0.285400  1.0  0.3094
  C  C464  1  0.606870  0.613600  0.332900  1.0  -0.1204
  C  C465  1  0.579810  0.609000  0.352860  1.0  -0.0458
  C  C466  1  0.557590  0.537500  0.326110  1.0  -0.101
  C  C467  1  0.564000  0.469700  0.278820  1.0  -0.0414
  C  C468  1  0.591270  0.477000  0.257250  1.0  -0.172
  C  C469  1  0.527850  0.536600  0.348090  1.0  0.6589
  C  C470  1  0.822490  0.833200  0.328210  1.0  0.1799
  C  C471  1  0.838620  0.783700  0.287330  1.0  -0.3197
  C  C472  1  0.836710  0.655900  0.276950  1.0  0.345
  C  C473  1  0.818500  0.588000  0.308580  1.0  -0.2125
  C  C474  1  0.803340  0.646400  0.347930  1.0  0.1805
  C  C475  1  0.806720  0.330000  0.016040  1.0  0.1805
  C  C476  1  0.824830  0.396200  0.055250  1.0  -0.2959
  C  C477  1  0.853470  0.361800  0.062400  1.0  0.2936
  C  C478  1  0.862580  0.266200  0.029920  1.0  -0.2734
  C  C479  1  0.842790  0.209600  0.992210  1.0  0.1753
  C  C480  1  0.949770  0.227600  0.328470  1.0  0.1835
  C  C481  1  0.933170  0.295800  0.289000  1.0  -0.2588
  C  C482  1  0.933170  0.421900  0.292930  1.0  0.3222
  C  C483  1  0.950480  0.474100  0.338090  1.0  -0.2434
  C  C484  1  0.965870  0.396400  0.376630  1.0  0.1852
  C  C485  1  0.935490  0.842800  0.988830  1.0  0.1959
  C  C486  1  0.915790  0.814700  0.026300  1.0  -0.2942
  C  C487  1  0.924840  0.745200  0.072910  1.0  0.3089
  C  C488  1  0.953390  0.707200  0.081510  1.0  -0.2908
  C  C489  1  0.971020  0.741700  0.040680  1.0  0.1873
  C  C490  1  0.913250  0.614000  0.149660  1.0  0.047
  C  C491  1  0.898990  0.453300  0.213320  1.0  0.0528
  C  C492  1  0.863710  0.516700  0.132910  1.0  0.0526
  C  C493  1  0.873080  0.657600  0.211920  1.0  0.0744
  C  C494  1  0.738380  0.766100  0.378590  1.0  0.6301
  C  C495  1  0.887060  0.561900  0.176970  1.0  -0.0318
  C  C496  1  0.311150  0.600300  0.450170  1.0  0.7029
  C  C497  1  0.329170  0.703100  0.432440  1.0  -0.1402
  C  C498  1  0.347320  0.688400  0.390330  1.0  -0.0304
  C  C499  1  0.364660  0.786700  0.372640  1.0  -0.1809
  C  C500  1  0.362170  0.899600  0.398270  1.0  0.2788
  C  C501  1  0.344130  0.916200  0.439260  1.0  -0.2042
  C  C502  1  0.328430  0.817500  0.457890  1.0  -0.0564
  C  C503  1  0.396840  0.063100  0.413790  1.0  0.2772
  C  C504  1  0.411090  0.006700  0.459450  1.0  -0.1889
  C  C505  1  0.432760  0.070100  0.490960  1.0  -0.0366
  C  C506  1  0.439930  0.190500  0.477100  1.0  -0.1371
  C  C507  1  0.424860  0.248100  0.432550  1.0  0.0025
  C  C508  1  0.403130  0.183800  0.400000  1.0  -0.1638
  C  C509  1  0.465410  0.250400  0.509500  1.0  0.6389
  C  C510  1  0.211880  0.213100  0.349430  1.0  -0.0736
  C  C511  1  0.196570  0.277000  0.306210  1.0  -0.0274
  C  C512  1  0.171470  0.226300  0.276420  1.0  -0.138
  C  C513  1  0.161890  0.108200  0.291690  1.0  0.2939
  C  C514  1  0.176380  0.045300  0.334940  1.0  -0.2598
  C  C515  1  0.201460  0.098300  0.363030  1.0  -0.0152
  C  C516  1  0.112650  0.050400  0.285400  1.0  0.3094
  C  C517  1  0.106870  0.113600  0.332900  1.0  -0.1204
  C  C518  1  0.079810  0.109000  0.352860  1.0  -0.0458
  C  C519  1  0.057590  0.037500  0.326110  1.0  -0.101
  C  C520  1  0.064000  0.969700  0.278820  1.0  -0.0414
  C  C521  1  0.091270  0.977000  0.257250  1.0  -0.172
  C  C522  1  0.027850  0.036600  0.348090  1.0  0.6589
  C  C523  1  0.322490  0.333200  0.328210  1.0  0.1799
  C  C524  1  0.338620  0.283700  0.287330  1.0  -0.3197
  C  C525  1  0.336710  0.155900  0.276950  1.0  0.345
  C  C526  1  0.318500  0.088000  0.308580  1.0  -0.2125
  C  C527  1  0.303340  0.146400  0.347930  1.0  0.1805
  C  C528  1  0.306720  0.830000  0.016040  1.0  0.1805
  C  C529  1  0.324830  0.896200  0.055250  1.0  -0.2959
  C  C530  1  0.353470  0.861800  0.062400  1.0  0.2936
  C  C531  1  0.362580  0.766200  0.029920  1.0  -0.2734
  C  C532  1  0.342790  0.709600  0.992210  1.0  0.1753
  C  C533  1  0.449770  0.727600  0.328470  1.0  0.1835
  C  C534  1  0.433170  0.795800  0.289000  1.0  -0.2588
  C  C535  1  0.433170  0.921900  0.292930  1.0  0.3222
  C  C536  1  0.450480  0.974100  0.338090  1.0  -0.2434
  C  C537  1  0.465870  0.896400  0.376630  1.0  0.1852
  C  C538  1  0.435490  0.342800  0.988830  1.0  0.1959
  C  C539  1  0.415790  0.314700  0.026300  1.0  -0.2942
  C  C540  1  0.424840  0.245200  0.072910  1.0  0.3089
  C  C541  1  0.453390  0.207200  0.081510  1.0  -0.2908
  C  C542  1  0.471020  0.241700  0.040680  1.0  0.1873
  C  C543  1  0.413250  0.114000  0.149660  1.0  0.047
  C  C544  1  0.398990  0.953300  0.213320  1.0  0.0528
  C  C545  1  0.363710  0.016700  0.132910  1.0  0.0526
  C  C546  1  0.373080  0.157600  0.211920  1.0  0.0744
  C  C547  1  0.238380  0.266100  0.378590  1.0  0.6301
  C  C548  1  0.387060  0.061900  0.176970  1.0  -0.0318
  C  C549  1  0.811150  0.899700  0.950170  1.0  0.7034
  C  C550  1  0.829170  0.796900  0.932440  1.0  -0.1402
  C  C551  1  0.847320  0.811600  0.890330  1.0  -0.032
  C  C552  1  0.864660  0.713300  0.872640  1.0  -0.1803
  C  C553  1  0.862170  0.600400  0.898270  1.0  0.2789
  C  C554  1  0.844130  0.583800  0.939260  1.0  -0.206
  C  C555  1  0.828430  0.682500  0.957890  1.0  -0.0565
  C  C556  1  0.896840  0.436900  0.913790  1.0  0.2769
  C  C557  1  0.911090  0.493300  0.959450  1.0  -0.1891
  C  C558  1  0.932760  0.429900  0.990960  1.0  -0.0368
  C  C559  1  0.939930  0.309500  0.977100  1.0  -0.1372
  C  C560  1  0.924860  0.251900  0.932550  1.0  0.0024
  C  C561  1  0.903130  0.316200  0.900000  1.0  -0.1628
  C  C562  1  0.965410  0.249600  0.009500  1.0  0.639
  C  C563  1  0.711880  0.286900  0.849430  1.0  -0.0738
  C  C564  1  0.696570  0.223000  0.806210  1.0  -0.0282
  C  C565  1  0.671470  0.273700  0.776420  1.0  -0.1375
  C  C566  1  0.661890  0.391800  0.791690  1.0  0.294
  C  C567  1  0.676380  0.454700  0.834940  1.0  -0.2589
  C  C568  1  0.701460  0.401700  0.863030  1.0  -0.0143
  C  C569  1  0.612650  0.449600  0.785400  1.0  0.3094
  C  C570  1  0.606870  0.386400  0.832900  1.0  -0.1207
  C  C571  1  0.579810  0.391000  0.852860  1.0  -0.0459
  C  C572  1  0.557590  0.462500  0.826110  1.0  -0.1009
  C  C573  1  0.564000  0.530300  0.778820  1.0  -0.0421
  C  C574  1  0.591270  0.523000  0.757250  1.0  -0.1723
  C  C575  1  0.527850  0.463400  0.848090  1.0  0.6591
  C  C576  1  0.822490  0.166800  0.828210  1.0  0.1783
  C  C577  1  0.838620  0.216300  0.787330  1.0  -0.3203
  C  C578  1  0.836710  0.344100  0.776950  1.0  0.3445
  C  C579  1  0.818500  0.412000  0.808580  1.0  -0.2138
  C  C580  1  0.803340  0.353600  0.847930  1.0  0.1801
  C  C581  1  0.806720  0.670000  0.516040  1.0  0.1808
  C  C582  1  0.824830  0.603800  0.555250  1.0  -0.2961
  C  C583  1  0.853470  0.638200  0.562400  1.0  0.2935
  C  C584  1  0.862580  0.733800  0.529920  1.0  -0.2732
  C  C585  1  0.842790  0.790400  0.492210  1.0  0.1757
  C  C586  1  0.949770  0.772400  0.828470  1.0  0.1834
  C  C587  1  0.933170  0.704200  0.789000  1.0  -0.2587
  C  C588  1  0.933170  0.578100  0.792930  1.0  0.3231
  C  C589  1  0.950480  0.525900  0.838090  1.0  -0.2433
  C  C590  1  0.965870  0.603600  0.876630  1.0  0.1858
  C  C591  1  0.935490  0.157200  0.488830  1.0  0.196
  C  C592  1  0.915790  0.185300  0.526300  1.0  -0.292
  C  C593  1  0.924840  0.254800  0.572910  1.0  0.3089
  C  C594  1  0.953390  0.292800  0.581510  1.0  -0.2902
  C  C595  1  0.971020  0.258300  0.540680  1.0  0.1876
  C  C596  1  0.913250  0.386000  0.649660  1.0  0.0468
  C  C597  1  0.898990  0.546700  0.713320  1.0  0.0518
  C  C598  1  0.863710  0.483300  0.632910  1.0  0.0528
  C  C599  1  0.873080  0.342400  0.711920  1.0  0.0751
  C  C600  1  0.738380  0.233900  0.878590  1.0  0.6301
  C  C601  1  0.887060  0.438100  0.676970  1.0  -0.0315
  C  C602  1  0.311150  0.399700  0.950170  1.0  0.7034
  C  C603  1  0.329170  0.296900  0.932440  1.0  -0.1402
  C  C604  1  0.347320  0.311600  0.890330  1.0  -0.032
  C  C605  1  0.364660  0.213300  0.872640  1.0  -0.1803
  C  C606  1  0.362170  0.100400  0.898270  1.0  0.2789
  C  C607  1  0.344130  0.083800  0.939260  1.0  -0.206
  C  C608  1  0.328430  0.182500  0.957890  1.0  -0.0565
  C  C609  1  0.396840  0.936900  0.913790  1.0  0.2769
  C  C610  1  0.411090  0.993300  0.959450  1.0  -0.1891
  C  C611  1  0.432760  0.929900  0.990960  1.0  -0.0368
  C  C612  1  0.439930  0.809500  0.977100  1.0  -0.1372
  C  C613  1  0.424860  0.751900  0.932550  1.0  0.0024
  C  C614  1  0.403130  0.816200  0.900000  1.0  -0.1628
  C  C615  1  0.465410  0.749600  0.009500  1.0  0.639
  C  C616  1  0.211880  0.786900  0.849430  1.0  -0.0738
  C  C617  1  0.196570  0.723000  0.806210  1.0  -0.0282
  C  C618  1  0.171470  0.773700  0.776420  1.0  -0.1375
  C  C619  1  0.161890  0.891800  0.791690  1.0  0.294
  C  C620  1  0.176380  0.954700  0.834940  1.0  -0.2589
  C  C621  1  0.201460  0.901700  0.863030  1.0  -0.0143
  C  C622  1  0.112650  0.949600  0.785400  1.0  0.3094
  C  C623  1  0.106870  0.886400  0.832900  1.0  -0.1207
  C  C624  1  0.079810  0.891000  0.852860  1.0  -0.0459
  C  C625  1  0.057590  0.962500  0.826110  1.0  -0.1009
  C  C626  1  0.064000  0.030300  0.778820  1.0  -0.0421
  C  C627  1  0.091270  0.023000  0.757250  1.0  -0.1723
  C  C628  1  0.027850  0.963400  0.848090  1.0  0.6591
  C  C629  1  0.322490  0.666800  0.828210  1.0  0.1783
  C  C630  1  0.338620  0.716300  0.787330  1.0  -0.3203
  C  C631  1  0.336710  0.844100  0.776950  1.0  0.3445
  C  C632  1  0.318500  0.912000  0.808580  1.0  -0.2138
  C  C633  1  0.303340  0.853600  0.847930  1.0  0.1801
  C  C634  1  0.306720  0.170000  0.516040  1.0  0.1808
  C  C635  1  0.324830  0.103800  0.555250  1.0  -0.2961
  C  C636  1  0.353470  0.138200  0.562400  1.0  0.2935
  C  C637  1  0.362580  0.233800  0.529920  1.0  -0.2732
  C  C638  1  0.342790  0.290400  0.492210  1.0  0.1757
  C  C639  1  0.449770  0.272400  0.828470  1.0  0.1834
  C  C640  1  0.433170  0.204200  0.789000  1.0  -0.2587
  C  C641  1  0.433170  0.078100  0.792930  1.0  0.3231
  C  C642  1  0.450480  0.025900  0.838090  1.0  -0.2433
  C  C643  1  0.465870  0.103600  0.876630  1.0  0.1858
  C  C644  1  0.435490  0.657200  0.488830  1.0  0.196
  C  C645  1  0.415790  0.685300  0.526300  1.0  -0.292
  C  C646  1  0.424840  0.754800  0.572910  1.0  0.3089
  C  C647  1  0.453390  0.792800  0.581510  1.0  -0.2902
  C  C648  1  0.471020  0.758300  0.540680  1.0  0.1876
  C  C649  1  0.413250  0.886000  0.649660  1.0  0.0468
  C  C650  1  0.398990  0.046700  0.713320  1.0  0.0518
  C  C651  1  0.363710  0.983300  0.632910  1.0  0.0528
  C  C652  1  0.373080  0.842400  0.711920  1.0  0.0751
  C  C653  1  0.238380  0.733900  0.878590  1.0  0.6301
  C  C654  1  0.387060  0.938100  0.676970  1.0  -0.0315
  C  C655  1  0.188850  0.899700  0.549830  1.0  0.7044
  C  C656  1  0.170830  0.796900  0.567560  1.0  -0.1396
  C  C657  1  0.152680  0.811600  0.609670  1.0  -0.0324
  C  C658  1  0.135340  0.713300  0.627360  1.0  -0.1822
  C  C659  1  0.137830  0.600400  0.601730  1.0  0.2786
  C  C660  1  0.155870  0.583800  0.560740  1.0  -0.2063
  C  C661  1  0.171570  0.682500  0.542110  1.0  -0.0582
  C  C662  1  0.103160  0.436900  0.586210  1.0  0.2772
  C  C663  1  0.088910  0.493300  0.540550  1.0  -0.1883
  C  C664  1  0.067240  0.429900  0.509040  1.0  -0.0346
  C  C665  1  0.060070  0.309500  0.522900  1.0  -0.1384
  C  C666  1  0.075140  0.251900  0.567450  1.0  0.0029
  C  C667  1  0.096870  0.316200  0.600000  1.0  -0.1631
  C  C668  1  0.034590  0.249600  0.490500  1.0  0.6378
  C  C669  1  0.288120  0.286900  0.650570  1.0  -0.0758
  C  C670  1  0.303430  0.223000  0.693790  1.0  -0.0292
  C  C671  1  0.328530  0.273700  0.723580  1.0  -0.1392
  C  C672  1  0.338110  0.391800  0.708310  1.0  0.2923
  C  C673  1  0.323620  0.454700  0.665060  1.0  -0.2591
  C  C674  1  0.298540  0.401700  0.636970  1.0  -0.0147
  C  C675  1  0.387350  0.449600  0.714600  1.0  0.3091
  C  C676  1  0.393130  0.386400  0.667100  1.0  -0.1191
  C  C677  1  0.420190  0.391000  0.647140  1.0  -0.0471
  C  C678  1  0.442410  0.462500  0.673890  1.0  -0.1005
  C  C679  1  0.436000  0.530300  0.721180  1.0  -0.0435
  C  C680  1  0.408730  0.523000  0.742750  1.0  -0.1737
  C  C681  1  0.472150  0.463400  0.651910  1.0  0.6579
  C  C682  1  0.177510  0.166800  0.671790  1.0  0.1801
  C  C683  1  0.161380  0.216300  0.712670  1.0  -0.3204
  C  C684  1  0.163290  0.344100  0.723050  1.0  0.3441
  C  C685  1  0.181500  0.412000  0.691420  1.0  -0.2146
  C  C686  1  0.196660  0.353600  0.652070  1.0  0.1807
  C  C687  1  0.193280  0.670000  0.983960  1.0  0.1798
  C  C688  1  0.175170  0.603800  0.944750  1.0  -0.2972
  C  C689  1  0.146530  0.638200  0.937600  1.0  0.2937
  C  C690  1  0.137420  0.733800  0.970080  1.0  -0.2751
  C  C691  1  0.157210  0.790400  0.007790  1.0  0.1744
  C  C692  1  0.050230  0.772400  0.671530  1.0  0.184
  C  C693  1  0.066830  0.704200  0.711000  1.0  -0.2587
  C  C694  1  0.066830  0.578100  0.707070  1.0  0.3249
  C  C695  1  0.049520  0.525900  0.661910  1.0  -0.2425
  C  C696  1  0.034130  0.603600  0.623370  1.0  0.1854
  C  C697  1  0.064510  0.157200  0.011170  1.0  0.1955
  C  C698  1  0.084210  0.185300  0.973700  1.0  -0.2916
  C  C699  1  0.075160  0.254800  0.927090  1.0  0.3103
  C  C700  1  0.046610  0.292800  0.918490  1.0  -0.2919
  C  C701  1  0.028980  0.258300  0.959320  1.0  0.1854
  C  C702  1  0.086750  0.386000  0.850340  1.0  0.048
  C  C703  1  0.101010  0.546700  0.786680  1.0  0.0511
  C  C704  1  0.136290  0.483300  0.867090  1.0  0.0535
  C  C705  1  0.126920  0.342400  0.788080  1.0  0.0749
  C  C706  1  0.261620  0.233900  0.621410  1.0  0.6294
  C  C707  1  0.112940  0.438100  0.823030  1.0  -0.0316
  C  C708  1  0.688850  0.399700  0.549830  1.0  0.7044
  C  C709  1  0.670830  0.296900  0.567560  1.0  -0.1396
  C  C710  1  0.652680  0.311600  0.609670  1.0  -0.0324
  C  C711  1  0.635340  0.213300  0.627360  1.0  -0.1822
  C  C712  1  0.637830  0.100400  0.601730  1.0  0.2786
  C  C713  1  0.655870  0.083800  0.560740  1.0  -0.2063
  C  C714  1  0.671570  0.182500  0.542110  1.0  -0.0582
  C  C715  1  0.603160  0.936900  0.586210  1.0  0.2772
  C  C716  1  0.588910  0.993300  0.540550  1.0  -0.1883
  C  C717  1  0.567240  0.929900  0.509040  1.0  -0.0346
  C  C718  1  0.560070  0.809500  0.522900  1.0  -0.1384
  C  C719  1  0.575140  0.751900  0.567450  1.0  0.0029
  C  C720  1  0.596870  0.816200  0.600000  1.0  -0.1631
  C  C721  1  0.534590  0.749600  0.490500  1.0  0.6378
  C  C722  1  0.788120  0.786900  0.650570  1.0  -0.0758
  C  C723  1  0.803430  0.723000  0.693790  1.0  -0.0292
  C  C724  1  0.828530  0.773700  0.723580  1.0  -0.1392
  C  C725  1  0.838110  0.891800  0.708310  1.0  0.2923
  C  C726  1  0.823620  0.954700  0.665060  1.0  -0.2591
  C  C727  1  0.798540  0.901700  0.636970  1.0  -0.0147
  C  C728  1  0.887350  0.949600  0.714600  1.0  0.3091
  C  C729  1  0.893130  0.886400  0.667100  1.0  -0.1191
  C  C730  1  0.920190  0.891000  0.647140  1.0  -0.0471
  C  C731  1  0.942410  0.962500  0.673890  1.0  -0.1005
  C  C732  1  0.936000  0.030300  0.721180  1.0  -0.0435
  C  C733  1  0.908730  0.023000  0.742750  1.0  -0.1737
  C  C734  1  0.972150  0.963400  0.651910  1.0  0.6579
  C  C735  1  0.677510  0.666800  0.671790  1.0  0.1801
  C  C736  1  0.661380  0.716300  0.712670  1.0  -0.3204
  C  C737  1  0.663290  0.844100  0.723050  1.0  0.3441
  C  C738  1  0.681500  0.912000  0.691420  1.0  -0.2146
  C  C739  1  0.696660  0.853600  0.652070  1.0  0.1807
  C  C740  1  0.693280  0.170000  0.983960  1.0  0.1798
  C  C741  1  0.675170  0.103800  0.944750  1.0  -0.2972
  C  C742  1  0.646530  0.138200  0.937600  1.0  0.2937
  C  C743  1  0.637420  0.233800  0.970080  1.0  -0.2751
  C  C744  1  0.657210  0.290400  0.007790  1.0  0.1744
  C  C745  1  0.550230  0.272400  0.671530  1.0  0.184
  C  C746  1  0.566830  0.204200  0.711000  1.0  -0.2587
  C  C747  1  0.566830  0.078100  0.707070  1.0  0.3249
  C  C748  1  0.549520  0.025900  0.661910  1.0  -0.2425
  C  C749  1  0.534130  0.103600  0.623370  1.0  0.1854
  C  C750  1  0.564510  0.657200  0.011170  1.0  0.1955
  C  C751  1  0.584210  0.685300  0.973700  1.0  -0.2916
  C  C752  1  0.575160  0.754800  0.927090  1.0  0.3103
  C  C753  1  0.546610  0.792800  0.918490  1.0  -0.2919
  C  C754  1  0.528980  0.758300  0.959320  1.0  0.1854
  C  C755  1  0.586750  0.886000  0.850340  1.0  0.048
  C  C756  1  0.601010  0.046700  0.786680  1.0  0.0511
  C  C757  1  0.636290  0.983300  0.867090  1.0  0.0535
  C  C758  1  0.626920  0.842400  0.788080  1.0  0.0749
  C  C759  1  0.761620  0.733900  0.621410  1.0  0.6294
  C  C760  1  0.612940  0.938100  0.823030  1.0  -0.0316
  N  N761  1  0.194660  0.767800  0.140230  1.0  -0.3158
  N  N762  1  0.033890  0.273600  0.127430  1.0  -0.3274
  N  N763  1  0.185580  0.237500  0.515740  1.0  -0.3536
  N  N764  1  0.037230  0.805300  0.506160  1.0  -0.3418
  N  N765  1  0.694660  0.267800  0.140230  1.0  -0.3158
  N  N766  1  0.533890  0.773600  0.127430  1.0  -0.3274
  N  N767  1  0.685580  0.737500  0.515740  1.0  -0.3536
  N  N768  1  0.537230  0.305300  0.506160  1.0  -0.3418
  N  N769  1  0.805340  0.767800  0.359770  1.0  -0.3178
  N  N770  1  0.966110  0.273600  0.372570  1.0  -0.3264
  N  N771  1  0.814420  0.237500  0.984260  1.0  -0.3531
  N  N772  1  0.962770  0.805300  0.993840  1.0  -0.3409
  N  N773  1  0.305340  0.267800  0.359770  1.0  -0.3178
  N  N774  1  0.466110  0.773600  0.372570  1.0  -0.3264
  N  N775  1  0.314420  0.737500  0.984260  1.0  -0.3531
  N  N776  1  0.462770  0.305300  0.993840  1.0  -0.3409
  N  N777  1  0.805340  0.232200  0.859770  1.0  -0.3175
  N  N778  1  0.966110  0.726400  0.872570  1.0  -0.3267
  N  N779  1  0.814420  0.762500  0.484260  1.0  -0.3527
  N  N780  1  0.962770  0.194700  0.493840  1.0  -0.3422
  N  N781  1  0.305340  0.732200  0.859770  1.0  -0.3175
  N  N782  1  0.466110  0.226400  0.872570  1.0  -0.3267
  N  N783  1  0.314420  0.262500  0.484260  1.0  -0.3527
  N  N784  1  0.462770  0.694700  0.493840  1.0  -0.3422
  N  N785  1  0.194660  0.232200  0.640230  1.0  -0.3151
  N  N786  1  0.033890  0.726400  0.627430  1.0  -0.3264
  N  N787  1  0.185580  0.762500  0.015740  1.0  -0.3541
  N  N788  1  0.037230  0.194700  0.006160  1.0  -0.3418
  N  N789  1  0.694660  0.732200  0.640230  1.0  -0.3151
  N  N790  1  0.533890  0.226400  0.627430  1.0  -0.3264
  N  N791  1  0.685580  0.262500  0.015740  1.0  -0.3541
  N  N792  1  0.537230  0.694700  0.006160  1.0  -0.3418
  O  O793  1  0.191480  0.004900  0.080520  1.0  -0.6131
  O  O794  1  0.201310  0.112400  0.005680  1.0  -0.526
  O  O795  1  0.252770  0.873800  0.133890  1.0  -0.559
  O  O796  1  0.247140  0.703500  0.081680  1.0  -0.5878
  O  O797  1  0.477980  0.634200  0.124780  1.0  -0.6056
  O  O798  1  0.488370  0.445500  0.162620  1.0  -0.5426
  O  O799  1  0.028700  0.865000  0.996850  1.0  -0.5903
  O  O800  1  0.018440  0.683700  0.956220  1.0  -0.5813
  O  O801  1  0.361980  0.558900  0.240190  1.0  -0.2679
  O  O802  1  0.123090  0.500700  0.123780  1.0  -0.2711
  O  O803  1  0.096260  0.709400  0.391640  1.0  -0.2959
  O  O804  1  0.081550  0.502200  0.241660  1.0  -0.2754
  O  O805  1  0.126170  0.415400  0.400130  1.0  -0.2844
  O  O806  1  0.148290  0.593100  0.259150  1.0  -0.2826
  O  O807  1  0.691480  0.504900  0.080520  1.0  -0.6131
  O  O808  1  0.701310  0.612400  0.005680  1.0  -0.526
  O  O809  1  0.752770  0.373800  0.133890  1.0  -0.559
  O  O810  1  0.747140  0.203500  0.081680  1.0  -0.5878
  O  O811  1  0.977980  0.134200  0.124780  1.0  -0.6056
  O  O812  1  0.988370  0.945500  0.162620  1.0  -0.5426
  O  O813  1  0.528700  0.365000  0.996850  1.0  -0.5903
  O  O814  1  0.518440  0.183700  0.956220  1.0  -0.5813
  O  O815  1  0.861980  0.058900  0.240190  1.0  -0.2679
  O  O816  1  0.623090  0.000700  0.123780  1.0  -0.2711
  O  O817  1  0.596260  0.209400  0.391640  1.0  -0.2959
  O  O818  1  0.581550  0.002200  0.241660  1.0  -0.2754
  O  O819  1  0.626170  0.915400  0.400130  1.0  -0.2844
  O  O820  1  0.648290  0.093100  0.259150  1.0  -0.2826
  O  O821  1  0.808520  0.004900  0.419480  1.0  -0.6125
  O  O822  1  0.798690  0.112400  0.494320  1.0  -0.5259
  O  O823  1  0.747230  0.873800  0.366110  1.0  -0.5604
  O  O824  1  0.752860  0.703500  0.418320  1.0  -0.5894
  O  O825  1  0.522020  0.634200  0.375220  1.0  -0.6063
  O  O826  1  0.511630  0.445500  0.337380  1.0  -0.5417
  O  O827  1  0.971300  0.865000  0.503150  1.0  -0.5902
  O  O828  1  0.981560  0.683700  0.543780  1.0  -0.5815
  O  O829  1  0.638020  0.558900  0.259810  1.0  -0.2678
  O  O830  1  0.876910  0.500700  0.376220  1.0  -0.2722
  O  O831  1  0.903740  0.709400  0.108360  1.0  -0.2963
  O  O832  1  0.918450  0.502200  0.258340  1.0  -0.2766
  O  O833  1  0.873830  0.415400  0.099870  1.0  -0.2819
  O  O834  1  0.851710  0.593100  0.240850  1.0  -0.2822
  O  O835  1  0.308520  0.504900  0.419480  1.0  -0.6125
  O  O836  1  0.298690  0.612400  0.494320  1.0  -0.5259
  O  O837  1  0.247230  0.373800  0.366110  1.0  -0.5604
  O  O838  1  0.252860  0.203500  0.418320  1.0  -0.5894
  O  O839  1  0.022020  0.134200  0.375220  1.0  -0.6063
  O  O840  1  0.011630  0.945500  0.337380  1.0  -0.5417
  O  O841  1  0.471300  0.365000  0.503150  1.0  -0.5902
  O  O842  1  0.481560  0.183700  0.543780  1.0  -0.5815
  O  O843  1  0.138020  0.058900  0.259810  1.0  -0.2678
  O  O844  1  0.376910  0.000700  0.376220  1.0  -0.2722
  O  O845  1  0.403740  0.209400  0.108360  1.0  -0.2963
  O  O846  1  0.418450  0.002200  0.258340  1.0  -0.2766
  O  O847  1  0.373830  0.915400  0.099870  1.0  -0.2819
  O  O848  1  0.351710  0.093100  0.240850  1.0  -0.2822
  O  O849  1  0.808520  0.995100  0.919480  1.0  -0.6126
  O  O850  1  0.798690  0.887600  0.994320  1.0  -0.5249
  O  O851  1  0.747230  0.126200  0.866110  1.0  -0.5607
  O  O852  1  0.752860  0.296500  0.918320  1.0  -0.5889
  O  O853  1  0.522020  0.365800  0.875220  1.0  -0.6069
  O  O854  1  0.511630  0.554500  0.837380  1.0  -0.5438
  O  O855  1  0.971300  0.135000  0.003150  1.0  -0.5917
  O  O856  1  0.981560  0.316300  0.043780  1.0  -0.5818
  O  O857  1  0.638020  0.441100  0.759810  1.0  -0.2663
  O  O858  1  0.876910  0.499300  0.876220  1.0  -0.2719
  O  O859  1  0.903740  0.290600  0.608360  1.0  -0.2983
  O  O860  1  0.918450  0.497800  0.758340  1.0  -0.2774
  O  O861  1  0.873830  0.584600  0.599870  1.0  -0.2815
  O  O862  1  0.851710  0.406900  0.740850  1.0  -0.2842
  O  O863  1  0.308520  0.495100  0.919480  1.0  -0.6126
  O  O864  1  0.298690  0.387600  0.994320  1.0  -0.5249
  O  O865  1  0.247230  0.626200  0.866110  1.0  -0.5607
  O  O866  1  0.252860  0.796500  0.918320  1.0  -0.5889
  O  O867  1  0.022020  0.865800  0.875220  1.0  -0.6069
  O  O868  1  0.011630  0.054500  0.837380  1.0  -0.5438
  O  O869  1  0.471300  0.635000  0.003150  1.0  -0.5917
  O  O870  1  0.481560  0.816300  0.043780  1.0  -0.5818
  O  O871  1  0.138020  0.941100  0.759810  1.0  -0.2663
  O  O872  1  0.376910  0.999300  0.876220  1.0  -0.2719
  O  O873  1  0.403740  0.790600  0.608360  1.0  -0.2983
  O  O874  1  0.418450  0.997800  0.758340  1.0  -0.2774
  O  O875  1  0.373830  0.084600  0.599870  1.0  -0.2815
  O  O876  1  0.351710  0.906900  0.740850  1.0  -0.2842
  O  O877  1  0.191480  0.995100  0.580520  1.0  -0.6127
  O  O878  1  0.201310  0.887600  0.505680  1.0  -0.5263
  O  O879  1  0.252770  0.126200  0.633890  1.0  -0.5592
  O  O880  1  0.247140  0.296500  0.581680  1.0  -0.5871
  O  O881  1  0.477980  0.365800  0.624780  1.0  -0.6062
  O  O882  1  0.488370  0.554500  0.662620  1.0  -0.5442
  O  O883  1  0.028700  0.135000  0.496850  1.0  -0.592
  O  O884  1  0.018440  0.316300  0.456220  1.0  -0.5813
  O  O885  1  0.361980  0.441100  0.740190  1.0  -0.2676
  O  O886  1  0.123090  0.499300  0.623780  1.0  -0.271
  O  O887  1  0.096260  0.290600  0.891640  1.0  -0.2965
  O  O888  1  0.081550  0.497800  0.741660  1.0  -0.2746
  O  O889  1  0.126170  0.584600  0.900130  1.0  -0.2843
  O  O890  1  0.148290  0.406900  0.759150  1.0  -0.2826
  O  O891  1  0.691480  0.495100  0.580520  1.0  -0.6127
  O  O892  1  0.701310  0.387600  0.505680  1.0  -0.5263
  O  O893  1  0.752770  0.626200  0.633890  1.0  -0.5592
  O  O894  1  0.747140  0.796500  0.581680  1.0  -0.5871
  O  O895  1  0.977980  0.865800  0.624780  1.0  -0.6062
  O  O896  1  0.988370  0.054500  0.662620  1.0  -0.5442
  O  O897  1  0.528700  0.635000  0.496850  1.0  -0.592
  O  O898  1  0.518440  0.816300  0.456220  1.0  -0.5813
  O  O899  1  0.861980  0.941100  0.740190  1.0  -0.2676
  O  O900  1  0.623090  0.999300  0.623780  1.0  -0.271
  O  O901  1  0.596260  0.790600  0.891640  1.0  -0.2965
  O  O902  1  0.581550  0.997800  0.741660  1.0  -0.2746
  O  O903  1  0.626170  0.084600  0.900130  1.0  -0.2843
  O  O904  1  0.648290  0.906900  0.759150  1.0  -0.2826
