# generated using pymatgen
data_Co4PH24W9C36N12O29
_symmetry_space_group_name_H-M   'P 1'
_cell_length_a   29.32500000
_cell_length_b   13.41300000
_cell_length_c   36.01600000
_cell_angle_alpha   90.00000000
_cell_angle_beta   90.00000000
_cell_angle_gamma   90.00000000
_symmetry_Int_Tables_number   1
_chemical_formula_structural   Co4PH24W9C36N12O29
_chemical_formula_sum   'Co32 P8 H192 W72 C288 N96 O232'
_cell_volume   14166.39747960
_cell_formula_units_Z   8
loop_
 _symmetry_equiv_pos_site_id
 _symmetry_equiv_pos_as_xyz
  1  'x, y, z'
loop_
 _atom_site_type_symbol
 _atom_site_label
 _atom_site_symmetry_multiplicity
 _atom_site_fract_x
 _atom_site_fract_y
 _atom_site_fract_z
 _atom_site_occupancy
 _atom_site_charge
  Co  Co1  1  0.586520  0.424100  0.504720  1.0  0.8791
  Co  Co2  1  0.521050  0.613940  0.507060  1.0  1.0527
  Co  Co3  1  0.530130  0.823390  0.261490  1.0  0.8954
  Co  Co4  1  0.284320  0.890350  0.565230  1.0  0.8657
  Co  Co5  1  0.913480  0.575900  0.004720  1.0  0.8851
  Co  Co6  1  0.978950  0.386060  0.007060  1.0  1.0539
  Co  Co7  1  0.969870  0.176610  0.761490  1.0  0.8956
  Co  Co8  1  0.215680  0.109650  0.065230  1.0  0.865
  Co  Co9  1  0.413480  0.924100  0.995280  1.0  0.8816
  Co  Co10  1  0.478950  0.113940  0.992940  1.0  1.0524
  Co  Co11  1  0.469870  0.323390  0.238510  1.0  0.8954
  Co  Co12  1  0.715680  0.390350  0.934770  1.0  0.8639
  Co  Co13  1  0.086520  0.075900  0.495280  1.0  0.8778
  Co  Co14  1  0.021050  0.886060  0.492940  1.0  1.0535
  Co  Co15  1  0.030130  0.676610  0.738510  1.0  0.8953
  Co  Co16  1  0.784320  0.609650  0.434770  1.0  0.8633
  Co  Co17  1  0.413480  0.575900  0.495280  1.0  0.8828
  Co  Co18  1  0.478950  0.386060  0.492940  1.0  1.0538
  Co  Co19  1  0.469870  0.176610  0.738510  1.0  0.8954
  Co  Co20  1  0.715680  0.109650  0.434770  1.0  0.8644
  Co  Co21  1  0.086520  0.424100  0.995280  1.0  0.8768
  Co  Co22  1  0.021050  0.613940  0.992940  1.0  1.0525
  Co  Co23  1  0.030130  0.823390  0.238510  1.0  0.8952
  Co  Co24  1  0.784320  0.890350  0.934770  1.0  0.863
  Co  Co25  1  0.586520  0.075900  0.004720  1.0  0.8794
  Co  Co26  1  0.521050  0.886060  0.007060  1.0  1.0536
  Co  Co27  1  0.530130  0.676610  0.761490  1.0  0.8956
  Co  Co28  1  0.284320  0.609650  0.065230  1.0  0.8657
  Co  Co29  1  0.913480  0.924100  0.504720  1.0  0.8842
  Co  Co30  1  0.978950  0.113940  0.507060  1.0  1.0525
  Co  Co31  1  0.969870  0.323390  0.261490  1.0  0.8955
  Co  Co32  1  0.215680  0.390350  0.565230  1.0  0.865
  P  P33  1  0.541030  0.491700  0.426480  1.0  1.5442
  P  P34  1  0.958970  0.508300  0.926480  1.0  1.5432
  P  P35  1  0.458970  0.991700  0.073520  1.0  1.5433
  P  P36  1  0.041030  0.008300  0.573520  1.0  1.5442
  P  P37  1  0.458970  0.508300  0.573520  1.0  1.5432
  P  P38  1  0.041030  0.491700  0.073520  1.0  1.5443
  P  P39  1  0.541030  0.008300  0.926480  1.0  1.5441
  P  P40  1  0.958970  0.991700  0.426480  1.0  1.5432
  H  H41  1  0.801000  0.722200  0.233200  1.0  0.1366
  H  H42  1  0.858600  0.670000  0.133900  1.0  0.1347
  H  H43  1  0.927500  0.653600  0.163900  1.0  0.077
  H  H44  1  0.428400  0.932100  0.367700  1.0  0.1365
  H  H45  1  0.497000  0.894300  0.337400  1.0  0.0881
  H  H46  1  0.229200  0.911500  0.432300  1.0  0.1303
  H  H47  1  0.181600  0.937000  0.349000  1.0  0.1169
  H  H48  1  0.118800  0.944600  0.312000  1.0  0.095
  H  H49  1  0.440500  0.926400  0.240700  1.0  0.0853
  H  H50  1  0.872400  0.721300  0.258700  1.0  0.104
  H  H51  1  0.612000  0.681400  0.153300  1.0  0.1314
  H  H52  1  0.369800  0.962400  0.268400  1.0  0.1291
  H  H53  1  0.550800  0.717800  0.189400  1.0  0.0851
  H  H54  1  0.261300  0.966900  0.259300  1.0  0.1373
  H  H55  1  0.225400  0.884200  0.494400  1.0  0.0779
  H  H56  1  0.691400  0.702500  0.243600  1.0  0.1245
  H  H57  1  0.627600  0.740300  0.277800  1.0  0.1054
  H  H58  1  0.785300  0.629300  0.059500  1.0  0.1319
  H  H59  1  0.773600  0.623500  0.997600  1.0  0.077
  H  H60  1  0.656000  0.713700  0.071800  1.0  0.1392
  H  H61  1  0.649600  0.709500  0.009400  1.0  0.0679
  H  H62  1  0.364700  0.913700  0.440700  1.0  0.129
  H  H63  1  0.356300  0.885900  0.503700  1.0  0.087
  H  H64  1  0.197600  0.973100  0.224100  1.0  0.0912
  H  H65  1  0.699000  0.277800  0.733200  1.0  0.1372
  H  H66  1  0.641400  0.330000  0.633900  1.0  0.1352
  H  H67  1  0.572500  0.346400  0.663900  1.0  0.0773
  H  H68  1  0.071600  0.067900  0.867700  1.0  0.1375
  H  H69  1  0.003000  0.105700  0.837400  1.0  0.088
  H  H70  1  0.270800  0.088500  0.932300  1.0  0.1308
  H  H71  1  0.318400  0.063000  0.849000  1.0  0.1166
  H  H72  1  0.381200  0.055400  0.812000  1.0  0.095
  H  H73  1  0.059500  0.073600  0.740700  1.0  0.0853
  H  H74  1  0.627600  0.278700  0.758700  1.0  0.104
  H  H75  1  0.888000  0.318600  0.653300  1.0  0.1313
  H  H76  1  0.130200  0.037600  0.768400  1.0  0.129
  H  H77  1  0.949200  0.282200  0.689400  1.0  0.086
  H  H78  1  0.238700  0.033100  0.759300  1.0  0.1365
  H  H79  1  0.274600  0.115800  0.994400  1.0  0.0786
  H  H80  1  0.808600  0.297500  0.743600  1.0  0.1244
  H  H81  1  0.872400  0.259700  0.777800  1.0  0.1052
  H  H82  1  0.714700  0.370700  0.559500  1.0  0.1318
  H  H83  1  0.726400  0.376500  0.497600  1.0  0.0768
  H  H84  1  0.844000  0.286300  0.571800  1.0  0.1398
  H  H85  1  0.850400  0.290500  0.509400  1.0  0.068
  H  H86  1  0.135300  0.086300  0.940700  1.0  0.1278
  H  H87  1  0.143700  0.114100  0.003700  1.0  0.0861
  H  H88  1  0.302400  0.026900  0.724100  1.0  0.091
  H  H89  1  0.199000  0.222200  0.266800  1.0  0.1375
  H  H90  1  0.141400  0.170000  0.366100  1.0  0.1343
  H  H91  1  0.072500  0.153600  0.336100  1.0  0.0775
  H  H92  1  0.571600  0.432100  0.132300  1.0  0.136
  H  H93  1  0.503000  0.394300  0.162600  1.0  0.0878
  H  H94  1  0.770800  0.411500  0.067700  1.0  0.1306
  H  H95  1  0.818400  0.437000  0.151000  1.0  0.117
  H  H96  1  0.881200  0.444600  0.188000  1.0  0.0955
  H  H97  1  0.559500  0.426400  0.259300  1.0  0.0857
  H  H98  1  0.127600  0.221300  0.241300  1.0  0.1038
  H  H99  1  0.388000  0.181400  0.346700  1.0  0.1306
  H  H100  1  0.630200  0.462400  0.231600  1.0  0.1289
  H  H101  1  0.449200  0.217800  0.310600  1.0  0.0857
  H  H102  1  0.738700  0.466900  0.240700  1.0  0.1367
  H  H103  1  0.774600  0.384200  0.005600  1.0  0.0782
  H  H104  1  0.308600  0.202500  0.256400  1.0  0.1247
  H  H105  1  0.372400  0.240300  0.222200  1.0  0.1064
  H  H106  1  0.214700  0.129300  0.440500  1.0  0.1316
  H  H107  1  0.226400  0.123500  0.502400  1.0  0.0764
  H  H108  1  0.344000  0.213700  0.428200  1.0  0.1397
  H  H109  1  0.350400  0.209500  0.490600  1.0  0.0683
  H  H110  1  0.635300  0.413700  0.059300  1.0  0.1276
  H  H111  1  0.643700  0.385900  0.996300  1.0  0.0852
  H  H112  1  0.802400  0.473100  0.275900  1.0  0.0902
  H  H113  1  0.301000  0.777800  0.766800  1.0  0.1374
  H  H114  1  0.358600  0.830000  0.866100  1.0  0.1336
  H  H115  1  0.427500  0.846400  0.836100  1.0  0.0773
  H  H116  1  0.928400  0.567900  0.632300  1.0  0.1365
  H  H117  1  0.997000  0.605700  0.662600  1.0  0.0877
  H  H118  1  0.729200  0.588500  0.567700  1.0  0.1302
  H  H119  1  0.681600  0.563000  0.651000  1.0  0.1176
  H  H120  1  0.618800  0.555400  0.688000  1.0  0.0954
  H  H121  1  0.940500  0.573600  0.759300  1.0  0.0859
  H  H122  1  0.372400  0.778700  0.741300  1.0  0.1039
  H  H123  1  0.112000  0.818600  0.846700  1.0  0.1307
  H  H124  1  0.869800  0.537600  0.731600  1.0  0.1288
  H  H125  1  0.050800  0.782200  0.810600  1.0  0.0849
  H  H126  1  0.761300  0.533100  0.740700  1.0  0.1366
  H  H127  1  0.725400  0.615800  0.505600  1.0  0.0781
  H  H128  1  0.191400  0.797500  0.756400  1.0  0.1245
  H  H129  1  0.127600  0.759700  0.722200  1.0  0.1055
  H  H130  1  0.285300  0.870700  0.940500  1.0  0.1318
  H  H131  1  0.273600  0.876500  0.002400  1.0  0.0765
  H  H132  1  0.156000  0.786300  0.928200  1.0  0.1393
  H  H133  1  0.149600  0.790500  0.990600  1.0  0.068
  H  H134  1  0.864700  0.586300  0.559300  1.0  0.1284
  H  H135  1  0.856300  0.614100  0.496300  1.0  0.0859
  H  H136  1  0.697600  0.526900  0.775900  1.0  0.0902
  H  H137  1  0.199000  0.277800  0.766800  1.0  0.1375
  H  H138  1  0.141400  0.330000  0.866100  1.0  0.134
  H  H139  1  0.072500  0.346400  0.836100  1.0  0.0774
  H  H140  1  0.571600  0.067900  0.632300  1.0  0.136
  H  H141  1  0.503000  0.105700  0.662600  1.0  0.0874
  H  H142  1  0.770800  0.088500  0.567700  1.0  0.1307
  H  H143  1  0.818400  0.063000  0.651000  1.0  0.1169
  H  H144  1  0.881200  0.055400  0.688000  1.0  0.0953
  H  H145  1  0.559500  0.073600  0.759300  1.0  0.0858
  H  H146  1  0.127600  0.278700  0.741300  1.0  0.1037
  H  H147  1  0.388000  0.318600  0.846700  1.0  0.1307
  H  H148  1  0.630200  0.037600  0.731600  1.0  0.1289
  H  H149  1  0.449200  0.282200  0.810600  1.0  0.0856
  H  H150  1  0.738700  0.033100  0.740700  1.0  0.1368
  H  H151  1  0.774600  0.115800  0.505600  1.0  0.0784
  H  H152  1  0.308600  0.297500  0.756400  1.0  0.1247
  H  H153  1  0.372400  0.259700  0.722200  1.0  0.1059
  H  H154  1  0.214700  0.370700  0.940500  1.0  0.1318
  H  H155  1  0.226400  0.376500  0.002400  1.0  0.0763
  H  H156  1  0.344000  0.286300  0.928200  1.0  0.1396
  H  H157  1  0.350400  0.290500  0.990600  1.0  0.0681
  H  H158  1  0.635300  0.086300  0.559300  1.0  0.1277
  H  H159  1  0.643700  0.114100  0.496300  1.0  0.0849
  H  H160  1  0.802400  0.026900  0.775900  1.0  0.0904
  H  H161  1  0.301000  0.722200  0.266800  1.0  0.1375
  H  H162  1  0.358600  0.670000  0.366100  1.0  0.1339
  H  H163  1  0.427500  0.653600  0.336100  1.0  0.0774
  H  H164  1  0.928400  0.932100  0.132300  1.0  0.1366
  H  H165  1  0.997000  0.894300  0.162600  1.0  0.0879
  H  H166  1  0.729200  0.911500  0.067700  1.0  0.1299
  H  H167  1  0.681600  0.937000  0.151000  1.0  0.1177
  H  H168  1  0.618800  0.944600  0.188000  1.0  0.0953
  H  H169  1  0.940500  0.926400  0.259300  1.0  0.0859
  H  H170  1  0.372400  0.721300  0.241300  1.0  0.104
  H  H171  1  0.112000  0.681400  0.346700  1.0  0.1308
  H  H172  1  0.869800  0.962400  0.231600  1.0  0.129
  H  H173  1  0.050800  0.717800  0.310600  1.0  0.085
  H  H174  1  0.761300  0.966900  0.240700  1.0  0.1364
  H  H175  1  0.725400  0.884200  0.005600  1.0  0.078
  H  H176  1  0.191400  0.702500  0.256400  1.0  0.1247
  H  H177  1  0.127600  0.740300  0.222200  1.0  0.106
  H  H178  1  0.285300  0.629300  0.440500  1.0  0.1318
  H  H179  1  0.273600  0.623500  0.502400  1.0  0.0768
  H  H180  1  0.156000  0.713700  0.428200  1.0  0.1394
  H  H181  1  0.149600  0.709500  0.490600  1.0  0.0679
  H  H182  1  0.864700  0.913700  0.059300  1.0  0.1283
  H  H183  1  0.856300  0.885900  0.996300  1.0  0.0861
  H  H184  1  0.697600  0.973100  0.275900  1.0  0.0901
  H  H185  1  0.801000  0.777800  0.733200  1.0  0.1369
  H  H186  1  0.858600  0.830000  0.633900  1.0  0.1346
  H  H187  1  0.927500  0.846400  0.663900  1.0  0.0772
  H  H188  1  0.428400  0.567900  0.867700  1.0  0.1367
  H  H189  1  0.497000  0.605700  0.837400  1.0  0.088
  H  H190  1  0.229200  0.588500  0.932300  1.0  0.1303
  H  H191  1  0.181600  0.563000  0.849000  1.0  0.1167
  H  H192  1  0.118800  0.555400  0.812000  1.0  0.0951
  H  H193  1  0.440500  0.573600  0.740700  1.0  0.0852
  H  H194  1  0.872400  0.778700  0.758700  1.0  0.104
  H  H195  1  0.612000  0.818600  0.653300  1.0  0.1313
  H  H196  1  0.369800  0.537600  0.768400  1.0  0.129
  H  H197  1  0.550800  0.782200  0.689400  1.0  0.0853
  H  H198  1  0.261300  0.533100  0.759300  1.0  0.1373
  H  H199  1  0.225400  0.615800  0.994400  1.0  0.078
  H  H200  1  0.691400  0.797500  0.743600  1.0  0.1239
  H  H201  1  0.627600  0.759700  0.777800  1.0  0.1051
  H  H202  1  0.785300  0.870700  0.559500  1.0  0.1317
  H  H203  1  0.773600  0.876500  0.497600  1.0  0.0769
  H  H204  1  0.656000  0.786300  0.571800  1.0  0.1395
  H  H205  1  0.649600  0.790500  0.509400  1.0  0.0678
  H  H206  1  0.364700  0.586300  0.940700  1.0  0.1292
  H  H207  1  0.356300  0.614100  0.003700  1.0  0.0868
  H  H208  1  0.197600  0.526900  0.724100  1.0  0.091
  H  H209  1  0.699000  0.222200  0.233200  1.0  0.1367
  H  H210  1  0.641400  0.170000  0.133900  1.0  0.1354
  H  H211  1  0.572500  0.153600  0.163900  1.0  0.0771
  H  H212  1  0.071600  0.432100  0.367700  1.0  0.1371
  H  H213  1  0.003000  0.394300  0.337400  1.0  0.0883
  H  H214  1  0.270800  0.411500  0.432300  1.0  0.1308
  H  H215  1  0.318400  0.437000  0.349000  1.0  0.1167
  H  H216  1  0.381200  0.444600  0.312000  1.0  0.0952
  H  H217  1  0.059500  0.426400  0.240700  1.0  0.0855
  H  H218  1  0.627600  0.221300  0.258700  1.0  0.1038
  H  H219  1  0.888000  0.181400  0.153300  1.0  0.1313
  H  H220  1  0.130200  0.462400  0.268400  1.0  0.1288
  H  H221  1  0.949200  0.217800  0.189400  1.0  0.0858
  H  H222  1  0.238700  0.466900  0.259300  1.0  0.1366
  H  H223  1  0.274600  0.384200  0.494400  1.0  0.0786
  H  H224  1  0.808600  0.202500  0.243600  1.0  0.125
  H  H225  1  0.872400  0.240300  0.277800  1.0  0.1054
  H  H226  1  0.714700  0.129300  0.059500  1.0  0.1317
  H  H227  1  0.726400  0.123500  0.997600  1.0  0.0767
  H  H228  1  0.844000  0.213700  0.071800  1.0  0.1396
  H  H229  1  0.850400  0.209500  0.009400  1.0  0.0681
  H  H230  1  0.135300  0.413700  0.440700  1.0  0.1277
  H  H231  1  0.143700  0.385900  0.503700  1.0  0.0865
  H  H232  1  0.302400  0.473100  0.224100  1.0  0.0912
  W  W233  1  0.543140  0.673410  0.350500  1.0  2.3347
  W  W234  1  0.469420  0.702930  0.423970  1.0  1.4158
  W  W235  1  0.421760  0.450860  0.410280  1.0  1.4059
  W  W236  1  0.494120  0.252330  0.408790  1.0  1.4383
  W  W237  1  0.619180  0.451870  0.348140  1.0  1.3338
  W  W238  1  0.660960  0.520400  0.435050  1.0  2.3626
  W  W239  1  0.584370  0.735920  0.437350  1.0  1.4179
  W  W240  1  0.617760  0.287770  0.423600  1.0  2.5295
  W  W241  1  0.494560  0.422020  0.335840  1.0  2.0735
  W  W242  1  0.956860  0.326590  0.850500  1.0  2.3356
  W  W243  1  0.030580  0.297070  0.923970  1.0  1.4103
  W  W244  1  0.078240  0.549140  0.910280  1.0  1.4075
  W  W245  1  0.005880  0.747670  0.908790  1.0  1.4436
  W  W246  1  0.880820  0.548130  0.848140  1.0  1.3331
  W  W247  1  0.839040  0.479600  0.935050  1.0  2.3654
  W  W248  1  0.915630  0.264080  0.937350  1.0  1.4175
  W  W249  1  0.882240  0.712230  0.923600  1.0  2.5294
  W  W250  1  0.005440  0.577980  0.835840  1.0  2.0747
  W  W251  1  0.456860  0.173410  0.149500  1.0  2.3369
  W  W252  1  0.530580  0.202930  0.076030  1.0  1.4148
  W  W253  1  0.578240  0.950860  0.089720  1.0  1.4077
  W  W254  1  0.505880  0.752330  0.091210  1.0  1.4356
  W  W255  1  0.380820  0.951870  0.151860  1.0  1.333
  W  W256  1  0.339040  0.020400  0.064950  1.0  2.362
  W  W257  1  0.415630  0.235920  0.062650  1.0  1.4155
  W  W258  1  0.382240  0.787770  0.076400  1.0  2.5285
  W  W259  1  0.505440  0.922020  0.164160  1.0  2.0746
  W  W260  1  0.043140  0.826590  0.649500  1.0  2.3367
  W  W261  1  0.969420  0.797070  0.576030  1.0  1.4088
  W  W262  1  0.921760  0.049140  0.589720  1.0  1.4045
  W  W263  1  0.994120  0.247670  0.591210  1.0  1.4411
  W  W264  1  0.119180  0.048130  0.651860  1.0  1.3334
  W  W265  1  0.160960  0.979600  0.564950  1.0  2.3622
  W  W266  1  0.084370  0.764080  0.562650  1.0  1.4155
  W  W267  1  0.117760  0.212230  0.576400  1.0  2.5269
  W  W268  1  0.994560  0.077980  0.664160  1.0  2.0742
  W  W269  1  0.456860  0.326590  0.649500  1.0  2.3375
  W  W270  1  0.530580  0.297070  0.576030  1.0  1.4087
  W  W271  1  0.578240  0.549140  0.589720  1.0  1.4067
  W  W272  1  0.505880  0.747670  0.591210  1.0  1.4412
  W  W273  1  0.380820  0.548130  0.651860  1.0  1.3328
  W  W274  1  0.339040  0.479600  0.564950  1.0  2.3633
  W  W275  1  0.415630  0.264080  0.562650  1.0  1.4156
  W  W276  1  0.382240  0.712230  0.576400  1.0  2.5273
  W  W277  1  0.505440  0.577980  0.664160  1.0  2.0748
  W  W278  1  0.043140  0.673410  0.149500  1.0  2.3359
  W  W279  1  0.969420  0.702930  0.076030  1.0  1.4146
  W  W280  1  0.921760  0.450860  0.089720  1.0  1.4047
  W  W281  1  0.994120  0.252330  0.091210  1.0  1.4355
  W  W282  1  0.119180  0.451870  0.151860  1.0  1.3335
  W  W283  1  0.160960  0.520400  0.064950  1.0  2.36
  W  W284  1  0.084370  0.735920  0.062650  1.0  1.4156
  W  W285  1  0.117760  0.287770  0.076400  1.0  2.5282
  W  W286  1  0.994560  0.422020  0.164160  1.0  2.074
  W  W287  1  0.543140  0.826590  0.850500  1.0  2.3349
  W  W288  1  0.469420  0.797070  0.923970  1.0  1.4106
  W  W289  1  0.421760  0.049140  0.910280  1.0  1.4054
  W  W290  1  0.494120  0.247670  0.908790  1.0  1.4435
  W  W291  1  0.619180  0.048130  0.848140  1.0  1.3338
  W  W292  1  0.660960  0.979600  0.935050  1.0  2.3645
  W  W293  1  0.584370  0.764080  0.937350  1.0  1.4173
  W  W294  1  0.617760  0.212230  0.923600  1.0  2.5294
  W  W295  1  0.494560  0.077980  0.835840  1.0  2.074
  W  W296  1  0.956860  0.173410  0.350500  1.0  2.3356
  W  W297  1  0.030580  0.202930  0.423970  1.0  1.416
  W  W298  1  0.078240  0.950860  0.410280  1.0  1.4088
  W  W299  1  0.005880  0.752330  0.408790  1.0  1.4385
  W  W300  1  0.880820  0.951870  0.348140  1.0  1.3329
  W  W301  1  0.839040  0.020400  0.435050  1.0  2.3646
  W  W302  1  0.915630  0.235920  0.437350  1.0  1.4179
  W  W303  1  0.882240  0.787770  0.423600  1.0  2.5296
  W  W304  1  0.005440  0.922020  0.335840  1.0  2.0743
  C  C305  1  0.700700  0.689100  0.171100  1.0  0.3845
  C  C306  1  0.729800  0.679900  0.113900  1.0  0.3763
  C  C307  1  0.775800  0.688800  0.163100  1.0  0.4144
  C  C308  1  0.722500  0.675300  0.072800  1.0  -0.0865
  C  C309  1  0.822500  0.693900  0.181100  1.0  -0.1268
  C  C310  1  0.826500  0.710300  0.218500  1.0  -0.1542
  C  C311  1  0.860700  0.677100  0.159500  1.0  -0.1911
  C  C312  1  0.902000  0.671200  0.177800  1.0  0.1876
  C  C313  1  0.302600  0.927400  0.388400  1.0  0.361
  C  C314  1  0.270400  0.944900  0.332500  1.0  0.4054
  C  C315  1  0.345800  0.942000  0.338500  1.0  0.3992
  C  C316  1  0.392500  0.940900  0.320300  1.0  -0.0939
  C  C317  1  0.429900  0.927600  0.342000  1.0  -0.1367
  C  C318  1  0.471100  0.906300  0.323200  1.0  0.1657
  C  C319  1  0.297700  0.913300  0.429300  1.0  -0.058
  C  C320  1  0.255800  0.906600  0.446200  1.0  -0.1732
  C  C321  1  0.228700  0.951200  0.308200  1.0  -0.0611
  C  C322  1  0.185100  0.944300  0.323500  1.0  -0.0776
  C  C323  1  0.147600  0.948100  0.301300  1.0  0.1392
  C  C324  1  0.438200  0.924700  0.266400  1.0  0.1746
  C  C325  1  0.869300  0.708500  0.233400  1.0  0.1638
  C  C326  1  0.659300  0.696500  0.194500  1.0  -0.0628
  C  C327  1  0.615800  0.696200  0.178400  1.0  -0.1905
  C  C328  1  0.395100  0.945900  0.282800  1.0  -0.1768
  C  C329  1  0.579600  0.717800  0.200100  1.0  0.1711
  C  C330  1  0.232800  0.961900  0.270400  1.0  -0.1234
  C  C331  1  0.254000  0.892400  0.483700  1.0  0.1749
  C  C332  1  0.663200  0.708900  0.232000  1.0  -0.1669
  C  C333  1  0.624800  0.730900  0.252300  1.0  0.1573
  C  C334  1  0.757000  0.646400  0.049800  1.0  -0.1997
  C  C335  1  0.749600  0.643000  0.012800  1.0  0.1917
  C  C336  1  0.680900  0.696700  0.057200  1.0  -0.1895
  C  C337  1  0.677500  0.692300  0.019900  1.0  0.1775
  C  C338  1  0.335800  0.907900  0.451100  1.0  -0.1367
  C  C339  1  0.330200  0.893400  0.489300  1.0  0.1846
  C  C340  1  0.194400  0.965000  0.249600  1.0  0.1713
  C  C341  1  0.799300  0.310900  0.671100  1.0  0.3829
  C  C342  1  0.770200  0.320100  0.613900  1.0  0.3754
  C  C343  1  0.724200  0.311200  0.663100  1.0  0.415
  C  C344  1  0.777500  0.324700  0.572800  1.0  -0.0872
  C  C345  1  0.677500  0.306100  0.681100  1.0  -0.126
  C  C346  1  0.673500  0.289700  0.718500  1.0  -0.1524
  C  C347  1  0.639300  0.322900  0.659500  1.0  -0.1913
  C  C348  1  0.598000  0.328800  0.677800  1.0  0.1871
  C  C349  1  0.197400  0.072600  0.888400  1.0  0.3618
  C  C350  1  0.229600  0.055100  0.832500  1.0  0.4054
  C  C351  1  0.154200  0.058000  0.838500  1.0  0.3993
  C  C352  1  0.107500  0.059100  0.820300  1.0  -0.0929
  C  C353  1  0.070100  0.072400  0.842000  1.0  -0.1364
  C  C354  1  0.028900  0.093700  0.823200  1.0  0.1639
  C  C355  1  0.202300  0.086700  0.929300  1.0  -0.0577
  C  C356  1  0.244200  0.093400  0.946200  1.0  -0.175
  C  C357  1  0.271300  0.048800  0.808200  1.0  -0.0616
  C  C358  1  0.314900  0.055700  0.823500  1.0  -0.0775
  C  C359  1  0.352400  0.051900  0.801300  1.0  0.14
  C  C360  1  0.061800  0.075300  0.766400  1.0  0.1754
  C  C361  1  0.630700  0.291500  0.733400  1.0  0.1613
  C  C362  1  0.840700  0.303500  0.694500  1.0  -0.0622
  C  C363  1  0.884200  0.303800  0.678400  1.0  -0.1912
  C  C364  1  0.104900  0.054100  0.782800  1.0  -0.1778
  C  C365  1  0.920400  0.282200  0.700100  1.0  0.1707
  C  C366  1  0.267200  0.038100  0.770400  1.0  -0.123
  C  C367  1  0.246000  0.107600  0.983700  1.0  0.175
  C  C368  1  0.836800  0.291100  0.732000  1.0  -0.1669
  C  C369  1  0.875200  0.269100  0.752300  1.0  0.1581
  C  C370  1  0.743000  0.353600  0.549800  1.0  -0.1985
  C  C371  1  0.750400  0.357000  0.512800  1.0  0.1914
  C  C372  1  0.819100  0.303300  0.557200  1.0  -0.1901
  C  C373  1  0.822500  0.307700  0.519900  1.0  0.178
  C  C374  1  0.164200  0.092100  0.951100  1.0  -0.1331
  C  C375  1  0.169800  0.106600  0.989300  1.0  0.185
  C  C376  1  0.305600  0.035000  0.749600  1.0  0.1734
  C  C377  1  0.299300  0.189100  0.328900  1.0  0.3829
  C  C378  1  0.270200  0.179900  0.386100  1.0  0.3759
  C  C379  1  0.224200  0.188800  0.336900  1.0  0.4148
  C  C380  1  0.277500  0.175300  0.427200  1.0  -0.0857
  C  C381  1  0.177500  0.193900  0.318900  1.0  -0.126
  C  C382  1  0.173500  0.210300  0.281500  1.0  -0.1515
  C  C383  1  0.139300  0.177100  0.340500  1.0  -0.1912
  C  C384  1  0.098000  0.171200  0.322200  1.0  0.1874
  C  C385  1  0.697400  0.427400  0.111600  1.0  0.362
  C  C386  1  0.729600  0.444900  0.167500  1.0  0.4055
  C  C387  1  0.654200  0.442000  0.161500  1.0  0.3996
  C  C388  1  0.607500  0.440900  0.179700  1.0  -0.0927
  C  C389  1  0.570100  0.427600  0.158000  1.0  -0.1371
  C  C390  1  0.528900  0.406300  0.176800  1.0  0.1627
  C  C391  1  0.702300  0.413300  0.070700  1.0  -0.0558
  C  C392  1  0.744200  0.406600  0.053800  1.0  -0.1755
  C  C393  1  0.771300  0.451200  0.191800  1.0  -0.061
  C  C394  1  0.814900  0.444300  0.176500  1.0  -0.0795
  C  C395  1  0.852400  0.448100  0.198700  1.0  0.1399
  C  C396  1  0.561800  0.424700  0.233600  1.0  0.1744
  C  C397  1  0.130700  0.208500  0.266600  1.0  0.1613
  C  C398  1  0.340700  0.196500  0.305500  1.0  -0.0616
  C  C399  1  0.384200  0.196200  0.321600  1.0  -0.1907
  C  C400  1  0.604900  0.445900  0.217200  1.0  -0.1764
  C  C401  1  0.420400  0.217800  0.299900  1.0  0.1708
  C  C402  1  0.767200  0.461900  0.229600  1.0  -0.1285
  C  C403  1  0.746000  0.392400  0.016300  1.0  0.1747
  C  C404  1  0.336800  0.208900  0.268000  1.0  -0.1633
  C  C405  1  0.375200  0.230900  0.247700  1.0  0.1575
  C  C406  1  0.243000  0.146400  0.450200  1.0  -0.1982
  C  C407  1  0.250400  0.143000  0.487200  1.0  0.1908
  C  C408  1  0.319100  0.196700  0.442800  1.0  -0.1892
  C  C409  1  0.322500  0.192300  0.480100  1.0  0.1782
  C  C410  1  0.664200  0.407900  0.048900  1.0  -0.1349
  C  C411  1  0.669800  0.393400  0.010700  1.0  0.184
  C  C412  1  0.805600  0.465000  0.250400  1.0  0.1697
  C  C413  1  0.200700  0.810900  0.828900  1.0  0.3845
  C  C414  1  0.229800  0.820100  0.886100  1.0  0.3767
  C  C415  1  0.275800  0.811200  0.836900  1.0  0.4147
  C  C416  1  0.222500  0.824700  0.927200  1.0  -0.0856
  C  C417  1  0.322500  0.806100  0.818900  1.0  -0.1277
  C  C418  1  0.326500  0.789700  0.781500  1.0  -0.1518
  C  C419  1  0.360700  0.822900  0.840500  1.0  -0.1907
  C  C420  1  0.402000  0.828800  0.822200  1.0  0.1877
  C  C421  1  0.802600  0.572600  0.611600  1.0  0.3616
  C  C422  1  0.770400  0.555100  0.667500  1.0  0.4054
  C  C423  1  0.845800  0.558000  0.661500  1.0  0.3993
  C  C424  1  0.892500  0.559100  0.679700  1.0  -0.0945
  C  C425  1  0.929900  0.572400  0.658000  1.0  -0.1363
  C  C426  1  0.971100  0.593700  0.676800  1.0  0.1645
  C  C427  1  0.797700  0.586700  0.570700  1.0  -0.0572
  C  C428  1  0.755800  0.593400  0.553800  1.0  -0.1733
  C  C429  1  0.728700  0.548800  0.691800  1.0  -0.0603
  C  C430  1  0.685100  0.555700  0.676500  1.0  -0.0782
  C  C431  1  0.647600  0.551900  0.698700  1.0  0.1396
  C  C432  1  0.938200  0.575300  0.733600  1.0  0.1755
  C  C433  1  0.369300  0.791500  0.766600  1.0  0.1621
  C  C434  1  0.159300  0.803500  0.805500  1.0  -0.0619
  C  C435  1  0.115800  0.803800  0.821600  1.0  -0.19
  C  C436  1  0.895100  0.554100  0.717200  1.0  -0.1757
  C  C437  1  0.079600  0.782200  0.799900  1.0  0.1713
  C  C438  1  0.732800  0.538100  0.729600  1.0  -0.1262
  C  C439  1  0.754000  0.607600  0.516300  1.0  0.1752
  C  C440  1  0.163200  0.791100  0.768000  1.0  -0.1655
  C  C441  1  0.124800  0.769100  0.747700  1.0  0.1568
  C  C442  1  0.257000  0.853600  0.950200  1.0  -0.1989
  C  C443  1  0.249600  0.857000  0.987200  1.0  0.1912
  C  C444  1  0.180900  0.803300  0.942800  1.0  -0.1884
  C  C445  1  0.177500  0.807700  0.980100  1.0  0.1786
  C  C446  1  0.835800  0.592100  0.548900  1.0  -0.1363
  C  C447  1  0.830200  0.606600  0.510700  1.0  0.1848
  C  C448  1  0.694400  0.535000  0.750400  1.0  0.1685
  C  C449  1  0.299300  0.310900  0.828900  1.0  0.3829
  C  C450  1  0.270200  0.320100  0.886100  1.0  0.3759
  C  C451  1  0.224200  0.311200  0.836900  1.0  0.415
  C  C452  1  0.277500  0.324700  0.927200  1.0  -0.0859
  C  C453  1  0.177500  0.306100  0.818900  1.0  -0.1264
  C  C454  1  0.173500  0.289700  0.781500  1.0  -0.1516
  C  C455  1  0.139300  0.322900  0.840500  1.0  -0.191
  C  C456  1  0.098000  0.328800  0.822200  1.0  0.1872
  C  C457  1  0.697400  0.072600  0.611600  1.0  0.3619
  C  C458  1  0.729600  0.055100  0.667500  1.0  0.4054
  C  C459  1  0.654200  0.058000  0.661500  1.0  0.3995
  C  C460  1  0.607500  0.059100  0.679700  1.0  -0.0931
  C  C461  1  0.570100  0.072400  0.658000  1.0  -0.1363
  C  C462  1  0.528900  0.093700  0.676800  1.0  0.163
  C  C463  1  0.702300  0.086700  0.570700  1.0  -0.0557
  C  C464  1  0.744200  0.093400  0.553800  1.0  -0.1755
  C  C465  1  0.771300  0.048800  0.691800  1.0  -0.0609
  C  C466  1  0.814900  0.055700  0.676500  1.0  -0.0794
  C  C467  1  0.852400  0.051900  0.698700  1.0  0.1399
  C  C468  1  0.561800  0.075300  0.733600  1.0  0.1748
  C  C469  1  0.130700  0.291500  0.766600  1.0  0.162
  C  C470  1  0.340700  0.303500  0.805500  1.0  -0.0615
  C  C471  1  0.384200  0.303800  0.821600  1.0  -0.1906
  C  C472  1  0.604900  0.054100  0.717200  1.0  -0.1771
  C  C473  1  0.420400  0.282200  0.799900  1.0  0.1708
  C  C474  1  0.767200  0.038100  0.729600  1.0  -0.1285
  C  C475  1  0.746000  0.107600  0.516300  1.0  0.1748
  C  C476  1  0.336800  0.291100  0.768000  1.0  -0.1637
  C  C477  1  0.375200  0.269100  0.747700  1.0  0.1574
  C  C478  1  0.243000  0.353600  0.950200  1.0  -0.1978
  C  C479  1  0.250400  0.357000  0.987200  1.0  0.1907
  C  C480  1  0.319100  0.303300  0.942800  1.0  -0.1892
  C  C481  1  0.322500  0.307700  0.980100  1.0  0.1783
  C  C482  1  0.664200  0.092100  0.548900  1.0  -0.1349
  C  C483  1  0.669800  0.106600  0.510700  1.0  0.1842
  C  C484  1  0.805600  0.035000  0.750400  1.0  0.1692
  C  C485  1  0.200700  0.689100  0.328900  1.0  0.3845
  C  C486  1  0.229800  0.679900  0.386100  1.0  0.3767
  C  C487  1  0.275800  0.688800  0.336900  1.0  0.4146
  C  C488  1  0.222500  0.675300  0.427200  1.0  -0.0855
  C  C489  1  0.322500  0.693900  0.318900  1.0  -0.1274
  C  C490  1  0.326500  0.710300  0.281500  1.0  -0.1519
  C  C491  1  0.360700  0.677100  0.340500  1.0  -0.1911
  C  C492  1  0.402000  0.671200  0.322200  1.0  0.1879
  C  C493  1  0.802600  0.927400  0.111600  1.0  0.3616
  C  C494  1  0.770400  0.944900  0.167500  1.0  0.4055
  C  C495  1  0.845800  0.942000  0.161500  1.0  0.3993
  C  C496  1  0.892500  0.940900  0.179700  1.0  -0.0942
  C  C497  1  0.929900  0.927600  0.158000  1.0  -0.1369
  C  C498  1  0.971100  0.906300  0.176800  1.0  0.1652
  C  C499  1  0.797700  0.913300  0.070700  1.0  -0.0571
  C  C500  1  0.755800  0.906600  0.053800  1.0  -0.1732
  C  C501  1  0.728700  0.951200  0.191800  1.0  -0.0603
  C  C502  1  0.685100  0.944300  0.176500  1.0  -0.0781
  C  C503  1  0.647600  0.948100  0.198700  1.0  0.1396
  C  C504  1  0.938200  0.924700  0.233600  1.0  0.1752
  C  C505  1  0.369300  0.708500  0.266600  1.0  0.162
  C  C506  1  0.159300  0.696500  0.305500  1.0  -0.0619
  C  C507  1  0.115800  0.696200  0.321600  1.0  -0.1904
  C  C508  1  0.895100  0.945900  0.217200  1.0  -0.1758
  C  C509  1  0.079600  0.717800  0.299900  1.0  0.1712
  C  C510  1  0.732800  0.961900  0.229600  1.0  -0.1261
  C  C511  1  0.754000  0.892400  0.016300  1.0  0.1752
  C  C512  1  0.163200  0.708900  0.268000  1.0  -0.1653
  C  C513  1  0.124800  0.730900  0.247700  1.0  0.1569
  C  C514  1  0.257000  0.646400  0.450200  1.0  -0.1988
  C  C515  1  0.249600  0.643000  0.487200  1.0  0.1914
  C  C516  1  0.180900  0.696700  0.442800  1.0  -0.1882
  C  C517  1  0.177500  0.692300  0.480100  1.0  0.1785
  C  C518  1  0.835800  0.907900  0.048900  1.0  -0.1363
  C  C519  1  0.830200  0.893400  0.010700  1.0  0.1845
  C  C520  1  0.694400  0.965000  0.250400  1.0  0.1692
  C  C521  1  0.700700  0.810900  0.671100  1.0  0.3845
  C  C522  1  0.729800  0.820100  0.613900  1.0  0.3762
  C  C523  1  0.775800  0.811200  0.663100  1.0  0.4145
  C  C524  1  0.722500  0.824700  0.572800  1.0  -0.0866
  C  C525  1  0.822500  0.806100  0.681100  1.0  -0.1271
  C  C526  1  0.826500  0.789700  0.718500  1.0  -0.1545
  C  C527  1  0.860700  0.822900  0.659500  1.0  -0.1909
  C  C528  1  0.902000  0.828800  0.677800  1.0  0.1875
  C  C529  1  0.302600  0.572600  0.888400  1.0  0.3611
  C  C530  1  0.270400  0.555100  0.832500  1.0  0.4053
  C  C531  1  0.345800  0.558000  0.838500  1.0  0.3991
  C  C532  1  0.392500  0.559100  0.820300  1.0  -0.0941
  C  C533  1  0.429900  0.572400  0.842000  1.0  -0.1368
  C  C534  1  0.471100  0.593700  0.823200  1.0  0.1657
  C  C535  1  0.297700  0.586700  0.929300  1.0  -0.058
  C  C536  1  0.255800  0.593400  0.946200  1.0  -0.1734
  C  C537  1  0.228700  0.548800  0.808200  1.0  -0.061
  C  C538  1  0.185100  0.555700  0.823500  1.0  -0.0772
  C  C539  1  0.147600  0.551900  0.801300  1.0  0.1393
  C  C540  1  0.438200  0.575300  0.766400  1.0  0.1752
  C  C541  1  0.869300  0.791500  0.733400  1.0  0.1639
  C  C542  1  0.659300  0.803500  0.694500  1.0  -0.0627
  C  C543  1  0.615800  0.803800  0.678400  1.0  -0.1905
  C  C544  1  0.395100  0.554100  0.782800  1.0  -0.1765
  C  C545  1  0.579600  0.782200  0.700100  1.0  0.1712
  C  C546  1  0.232800  0.538100  0.770400  1.0  -0.1234
  C  C547  1  0.254000  0.607600  0.983700  1.0  0.175
  C  C548  1  0.663200  0.791100  0.732000  1.0  -0.167
  C  C549  1  0.624800  0.769100  0.752300  1.0  0.1572
  C  C550  1  0.757000  0.853600  0.549800  1.0  -0.1998
  C  C551  1  0.749600  0.857000  0.512800  1.0  0.1916
  C  C552  1  0.680900  0.803300  0.557200  1.0  -0.1893
  C  C553  1  0.677500  0.807700  0.519900  1.0  0.1777
  C  C554  1  0.335800  0.592100  0.951100  1.0  -0.1366
  C  C555  1  0.330200  0.606600  0.989300  1.0  0.1851
  C  C556  1  0.194400  0.535000  0.749600  1.0  0.1717
  C  C557  1  0.799300  0.189100  0.171100  1.0  0.3829
  C  C558  1  0.770200  0.179900  0.113900  1.0  0.3756
  C  C559  1  0.724200  0.188800  0.163100  1.0  0.4148
  C  C560  1  0.777500  0.175300  0.072800  1.0  -0.0871
  C  C561  1  0.677500  0.193900  0.181100  1.0  -0.1256
  C  C562  1  0.673500  0.210300  0.218500  1.0  -0.1521
  C  C563  1  0.639300  0.177100  0.159500  1.0  -0.1913
  C  C564  1  0.598000  0.171200  0.177800  1.0  0.1874
  C  C565  1  0.197400  0.427400  0.388400  1.0  0.3617
  C  C566  1  0.229600  0.444900  0.332500  1.0  0.4055
  C  C567  1  0.154200  0.442000  0.338500  1.0  0.3994
  C  C568  1  0.107500  0.440900  0.320300  1.0  -0.0926
  C  C569  1  0.070100  0.427600  0.342000  1.0  -0.136
  C  C570  1  0.028900  0.406300  0.323200  1.0  0.1632
  C  C571  1  0.202300  0.413300  0.429300  1.0  -0.0579
  C  C572  1  0.244200  0.406600  0.446200  1.0  -0.1749
  C  C573  1  0.271300  0.451200  0.308200  1.0  -0.0617
  C  C574  1  0.314900  0.444300  0.323500  1.0  -0.0779
  C  C575  1  0.352400  0.448100  0.301300  1.0  0.1402
  C  C576  1  0.061800  0.424700  0.266400  1.0  0.1747
  C  C577  1  0.630700  0.208500  0.233400  1.0  0.1611
  C  C578  1  0.840700  0.196500  0.194500  1.0  -0.0624
  C  C579  1  0.884200  0.196200  0.178400  1.0  -0.191
  C  C580  1  0.104900  0.445900  0.282800  1.0  -0.1774
  C  C581  1  0.920400  0.217800  0.200100  1.0  0.1707
  C  C582  1  0.267200  0.461900  0.270400  1.0  -0.1231
  C  C583  1  0.246000  0.392400  0.483700  1.0  0.1749
  C  C584  1  0.836800  0.208900  0.232000  1.0  -0.1666
  C  C585  1  0.875200  0.230900  0.252300  1.0  0.1582
  C  C586  1  0.743000  0.146400  0.049800  1.0  -0.1986
  C  C587  1  0.750400  0.143000  0.012800  1.0  0.1914
  C  C588  1  0.819100  0.196700  0.057200  1.0  -0.1902
  C  C589  1  0.822500  0.192300  0.019900  1.0  0.178
  C  C590  1  0.164200  0.407900  0.451100  1.0  -0.133
  C  C591  1  0.169800  0.393400  0.489300  1.0  0.1845
  C  C592  1  0.305600  0.465000  0.249600  1.0  0.1728
  N  N593  1  0.475200  0.902600  0.286000  1.0  -0.3246
  N  N594  1  0.290600  0.889600  0.506100  1.0  -0.3476
  N  N595  1  0.264000  0.933400  0.368500  1.0  -0.5206
  N  N596  1  0.344100  0.933500  0.375100  1.0  -0.4719
  N  N597  1  0.310000  0.951700  0.315800  1.0  -0.5169
  N  N598  1  0.693300  0.681500  0.134700  1.0  -0.4601
  N  N599  1  0.741100  0.694100  0.186500  1.0  -0.5271
  N  N600  1  0.772600  0.685000  0.126500  1.0  -0.4975
  N  N601  1  0.907800  0.689100  0.213500  1.0  -0.4291
  N  N602  1  0.151500  0.957100  0.263500  1.0  -0.4243
  N  N603  1  0.582900  0.739300  0.236300  1.0  -0.3349
  N  N604  1  0.710700  0.665400  0.997000  1.0  -0.4292
  N  N605  1  0.024800  0.097400  0.786000  1.0  -0.3241
  N  N606  1  0.209400  0.110400  0.006100  1.0  -0.3498
  N  N607  1  0.236000  0.066600  0.868500  1.0  -0.5193
  N  N608  1  0.155900  0.066500  0.875100  1.0  -0.473
  N  N609  1  0.190000  0.048300  0.815800  1.0  -0.5167
  N  N610  1  0.806700  0.318500  0.634700  1.0  -0.4605
  N  N611  1  0.758900  0.305900  0.686500  1.0  -0.5271
  N  N612  1  0.727400  0.315000  0.626500  1.0  -0.4992
  N  N613  1  0.592200  0.310900  0.713500  1.0  -0.4261
  N  N614  1  0.348500  0.042900  0.763500  1.0  -0.4267
  N  N615  1  0.917100  0.260700  0.736300  1.0  -0.3323
  N  N616  1  0.789300  0.334600  0.497000  1.0  -0.4288
  N  N617  1  0.524800  0.402600  0.214000  1.0  -0.3254
  N  N618  1  0.709400  0.389600  0.993900  1.0  -0.3465
  N  N619  1  0.736000  0.433400  0.131500  1.0  -0.519
  N  N620  1  0.655900  0.433500  0.124900  1.0  -0.4722
  N  N621  1  0.690000  0.451700  0.184200  1.0  -0.5171
  N  N622  1  0.306700  0.181500  0.365300  1.0  -0.4613
  N  N623  1  0.258900  0.194100  0.313500  1.0  -0.5222
  N  N624  1  0.227400  0.185000  0.373500  1.0  -0.5002
  N  N625  1  0.092200  0.189100  0.286500  1.0  -0.4225
  N  N626  1  0.848500  0.457100  0.236500  1.0  -0.4271
  N  N627  1  0.417100  0.239300  0.263700  1.0  -0.3333
  N  N628  1  0.289300  0.165400  0.503000  1.0  -0.4311
  N  N629  1  0.975200  0.597400  0.714000  1.0  -0.3241
  N  N630  1  0.790600  0.610400  0.493900  1.0  -0.3463
  N  N631  1  0.764000  0.566600  0.631500  1.0  -0.5205
  N  N632  1  0.844100  0.566500  0.624900  1.0  -0.4723
  N  N633  1  0.810000  0.548300  0.684200  1.0  -0.5171
  N  N634  1  0.193300  0.818500  0.865300  1.0  -0.4612
  N  N635  1  0.241100  0.805900  0.813500  1.0  -0.5228
  N  N636  1  0.272600  0.815000  0.873500  1.0  -0.498
  N  N637  1  0.407800  0.810900  0.786500  1.0  -0.4293
  N  N638  1  0.651500  0.542900  0.736500  1.0  -0.427
  N  N639  1  0.082900  0.760700  0.763700  1.0  -0.3339
  N  N640  1  0.210700  0.834600  0.003000  1.0  -0.4326
  N  N641  1  0.524800  0.097400  0.714000  1.0  -0.3247
  N  N642  1  0.709400  0.110400  0.493900  1.0  -0.3457
  N  N643  1  0.736000  0.066600  0.631500  1.0  -0.5188
  N  N644  1  0.655900  0.066500  0.624900  1.0  -0.4722
  N  N645  1  0.690000  0.048300  0.684200  1.0  -0.5168
  N  N646  1  0.306700  0.318500  0.865300  1.0  -0.4611
  N  N647  1  0.258900  0.305900  0.813500  1.0  -0.5228
  N  N648  1  0.227400  0.315000  0.873500  1.0  -0.5001
  N  N649  1  0.092200  0.310900  0.786500  1.0  -0.4226
  N  N650  1  0.848500  0.042900  0.736500  1.0  -0.4269
  N  N651  1  0.417100  0.260700  0.763700  1.0  -0.334
  N  N652  1  0.289300  0.334600  0.003000  1.0  -0.4313
  N  N653  1  0.975200  0.902600  0.214000  1.0  -0.3247
  N  N654  1  0.790600  0.889600  0.993900  1.0  -0.3469
  N  N655  1  0.764000  0.933400  0.131500  1.0  -0.5207
  N  N656  1  0.844100  0.933500  0.124900  1.0  -0.4723
  N  N657  1  0.810000  0.951700  0.184200  1.0  -0.5176
  N  N658  1  0.193300  0.681500  0.365300  1.0  -0.4612
  N  N659  1  0.241100  0.694100  0.313500  1.0  -0.5223
  N  N660  1  0.272600  0.685000  0.373500  1.0  -0.498
  N  N661  1  0.407800  0.689100  0.286500  1.0  -0.4282
  N  N662  1  0.651500  0.957100  0.236500  1.0  -0.4272
  N  N663  1  0.082900  0.739300  0.263700  1.0  -0.3329
  N  N664  1  0.210700  0.665400  0.503000  1.0  -0.4327
  N  N665  1  0.475200  0.597400  0.786000  1.0  -0.3241
  N  N666  1  0.290600  0.610400  0.006100  1.0  -0.3483
  N  N667  1  0.264000  0.566600  0.868500  1.0  -0.5206
  N  N668  1  0.344100  0.566500  0.875100  1.0  -0.4719
  N  N669  1  0.310000  0.548300  0.815800  1.0  -0.5171
  N  N670  1  0.693300  0.818500  0.634700  1.0  -0.4605
  N  N671  1  0.741100  0.805900  0.686500  1.0  -0.5273
  N  N672  1  0.772600  0.815000  0.626500  1.0  -0.4975
  N  N673  1  0.907800  0.810900  0.713500  1.0  -0.4304
  N  N674  1  0.151500  0.542900  0.763500  1.0  -0.4238
  N  N675  1  0.582900  0.760700  0.736300  1.0  -0.3347
  N  N676  1  0.710700  0.834600  0.497000  1.0  -0.4292
  N  N677  1  0.024800  0.402600  0.286000  1.0  -0.3249
  N  N678  1  0.209400  0.389600  0.506100  1.0  -0.3493
  N  N679  1  0.236000  0.433400  0.368500  1.0  -0.5195
  N  N680  1  0.155900  0.433500  0.375100  1.0  -0.4731
  N  N681  1  0.190000  0.451700  0.315800  1.0  -0.5163
  N  N682  1  0.806700  0.181500  0.134700  1.0  -0.4605
  N  N683  1  0.758900  0.194100  0.186500  1.0  -0.5268
  N  N684  1  0.727400  0.185000  0.126500  1.0  -0.4992
  N  N685  1  0.592200  0.189100  0.213500  1.0  -0.4252
  N  N686  1  0.348500  0.457100  0.263500  1.0  -0.4273
  N  N687  1  0.917100  0.239300  0.236300  1.0  -0.3327
  N  N688  1  0.789300  0.165400  0.997000  1.0  -0.4288
  O  O689  1  0.505400  0.430800  0.405300  1.0  -0.7528
  O  O690  1  0.589000  0.454800  0.414800  1.0  -0.7002
  O  O691  1  0.533900  0.480100  0.468600  1.0  -0.7844
  O  O692  1  0.536600  0.602100  0.414400  1.0  -0.7027
  O  O693  1  0.494500  0.271100  0.458300  1.0  -0.6593
  O  O694  1  0.432800  0.314200  0.408500  1.0  -0.6873
  O  O695  1  0.493000  0.292000  0.355900  1.0  -0.7295
  O  O696  1  0.559400  0.246600  0.405900  1.0  -0.7749
  O  O697  1  0.438200  0.590900  0.405700  1.0  -0.6784
  O  O698  1  0.598100  0.306100  0.469800  1.0  -0.7249
  O  O699  1  0.648800  0.176100  0.425500  1.0  -0.8254
  O  O700  1  0.628700  0.326400  0.369800  1.0  -0.753
  O  O701  1  0.566000  0.539600  0.539900  1.0  -0.7502
  O  O702  1  0.571900  0.685600  0.481400  1.0  -0.685
  O  O703  1  0.636800  0.506700  0.479500  1.0  -0.6698
  O  O704  1  0.521200  0.784000  0.435600  1.0  -0.6764
  O  O705  1  0.579300  0.750200  0.381900  1.0  -0.7292
  O  O706  1  0.632800  0.647700  0.426500  1.0  -0.7062
  O  O707  1  0.469900  0.650100  0.470800  1.0  -0.7464
  O  O708  1  0.490300  0.724400  0.373000  1.0  -0.7091
  O  O709  1  0.592900  0.583700  0.345000  1.0  -0.6858
  O  O710  1  0.559500  0.407600  0.335100  1.0  -0.7037
  O  O711  1  0.663600  0.508500  0.379200  1.0  -0.7362
  O  O712  1  0.544200  0.745000  0.310500  1.0  -0.7225
  O  O713  1  0.480700  0.398900  0.289800  1.0  -0.6931
  O  O714  1  0.437200  0.448200  0.357500  1.0  -0.6964
  O  O715  1  0.668300  0.376100  0.431300  1.0  -0.674
  O  O716  1  0.504100  0.559000  0.337100  1.0  -0.7487
  O  O717  1  0.717700  0.554900  0.442100  1.0  -0.7654
  O  O718  1  0.994600  0.569200  0.905300  1.0  -0.7527
  O  O719  1  0.911000  0.545200  0.914800  1.0  -0.7002
  O  O720  1  0.966100  0.519900  0.968600  1.0  -0.7853
  O  O721  1  0.963400  0.397900  0.914400  1.0  -0.7042
  O  O722  1  0.005500  0.728900  0.958300  1.0  -0.6583
  O  O723  1  0.067200  0.685800  0.908500  1.0  -0.6877
  O  O724  1  0.007000  0.708000  0.855900  1.0  -0.7289
  O  O725  1  0.940600  0.753400  0.905900  1.0  -0.7735
  O  O726  1  0.061800  0.409100  0.905700  1.0  -0.6766
  O  O727  1  0.901900  0.693900  0.969800  1.0  -0.7254
  O  O728  1  0.851200  0.823900  0.925500  1.0  -0.8286
  O  O729  1  0.871300  0.673600  0.869800  1.0  -0.7544
  O  O730  1  0.934000  0.460400  0.039900  1.0  -0.7509
  O  O731  1  0.928100  0.314400  0.981400  1.0  -0.6843
  O  O732  1  0.863200  0.493300  0.979500  1.0  -0.6695
  O  O733  1  0.978800  0.216000  0.935600  1.0  -0.686
  O  O734  1  0.920700  0.249800  0.881900  1.0  -0.7289
  O  O735  1  0.867200  0.352300  0.926500  1.0  -0.7074
  O  O736  1  0.030100  0.349900  0.970800  1.0  -0.7476
  O  O737  1  0.009700  0.275600  0.873000  1.0  -0.7094
  O  O738  1  0.907100  0.416300  0.845000  1.0  -0.6891
  O  O739  1  0.940500  0.592400  0.835100  1.0  -0.7041
  O  O740  1  0.836400  0.491500  0.879200  1.0  -0.738
  O  O741  1  0.955800  0.255000  0.810500  1.0  -0.7229
  O  O742  1  0.019300  0.601100  0.789800  1.0  -0.6933
  O  O743  1  0.062800  0.551800  0.857500  1.0  -0.6948
  O  O744  1  0.831700  0.623900  0.931300  1.0  -0.6745
  O  O745  1  0.995900  0.441000  0.837100  1.0  -0.7504
  O  O746  1  0.782300  0.445100  0.942100  1.0  -0.7649
  O  O747  1  0.494600  0.930800  0.094700  1.0  -0.7523
  O  O748  1  0.411000  0.954800  0.085200  1.0  -0.6997
  O  O749  1  0.466100  0.980100  0.031400  1.0  -0.7854
  O  O750  1  0.463400  0.102100  0.085600  1.0  -0.7027
  O  O751  1  0.505500  0.771100  0.041700  1.0  -0.6589
  O  O752  1  0.567200  0.814200  0.091500  1.0  -0.6881
  O  O753  1  0.507000  0.792000  0.144100  1.0  -0.7285
  O  O754  1  0.440600  0.746600  0.094100  1.0  -0.7743
  O  O755  1  0.561800  0.090900  0.094300  1.0  -0.6778
  O  O756  1  0.401900  0.806100  0.030200  1.0  -0.7248
  O  O757  1  0.351200  0.676100  0.074500  1.0  -0.8265
  O  O758  1  0.371300  0.826400  0.130200  1.0  -0.756
  O  O759  1  0.434000  0.039600  0.960100  1.0  -0.7503
  O  O760  1  0.428100  0.185600  0.018600  1.0  -0.6851
  O  O761  1  0.363200  0.006700  0.020500  1.0  -0.6679
  O  O762  1  0.478800  0.284000  0.064400  1.0  -0.6778
  O  O763  1  0.420700  0.250200  0.118100  1.0  -0.7296
  O  O764  1  0.367200  0.147700  0.073500  1.0  -0.7066
  O  O765  1  0.530100  0.150100  0.029200  1.0  -0.7453
  O  O766  1  0.509700  0.224400  0.127000  1.0  -0.7086
  O  O767  1  0.407100  0.083700  0.155000  1.0  -0.6891
  O  O768  1  0.440500  0.907600  0.164900  1.0  -0.7035
  O  O769  1  0.336400  0.008500  0.120800  1.0  -0.7369
  O  O770  1  0.455800  0.245000  0.189500  1.0  -0.7222
  O  O771  1  0.519300  0.898900  0.210200  1.0  -0.6926
  O  O772  1  0.562800  0.948200  0.142500  1.0  -0.6959
  O  O773  1  0.331700  0.876100  0.068700  1.0  -0.6743
  O  O774  1  0.495900  0.059000  0.162900  1.0  -0.7512
  O  O775  1  0.282300  0.054900  0.057900  1.0  -0.7645
  O  O776  1  0.005400  0.069200  0.594700  1.0  -0.7522
  O  O777  1  0.089000  0.045200  0.585200  1.0  -0.7001
  O  O778  1  0.033900  0.019900  0.531400  1.0  -0.7848
  O  O779  1  0.036600  0.897900  0.585600  1.0  -0.7035
  O  O780  1  0.994500  0.228900  0.541700  1.0  -0.6584
  O  O781  1  0.932800  0.185800  0.591500  1.0  -0.6878
  O  O782  1  0.993000  0.208000  0.644100  1.0  -0.728
  O  O783  1  0.059400  0.253400  0.594100  1.0  -0.7715
  O  O784  1  0.938200  0.909100  0.594300  1.0  -0.6792
  O  O785  1  0.098100  0.193900  0.530200  1.0  -0.7251
  O  O786  1  0.148800  0.323900  0.574500  1.0  -0.8271
  O  O787  1  0.128700  0.173600  0.630200  1.0  -0.7523
  O  O788  1  0.066000  0.960400  0.460100  1.0  -0.7496
  O  O789  1  0.071900  0.814400  0.518600  1.0  -0.6837
  O  O790  1  0.136800  0.993300  0.520500  1.0  -0.6683
  O  O791  1  0.021200  0.716000  0.564400  1.0  -0.6853
  O  O792  1  0.079300  0.749800  0.618100  1.0  -0.7281
  O  O793  1  0.132800  0.852300  0.573500  1.0  -0.7077
  O  O794  1  0.969900  0.849900  0.529200  1.0  -0.7472
  O  O795  1  0.990300  0.775600  0.627000  1.0  -0.7102
  O  O796  1  0.092900  0.916300  0.655000  1.0  -0.6866
  O  O797  1  0.059500  0.092400  0.664900  1.0  -0.7029
  O  O798  1  0.163600  0.991500  0.620800  1.0  -0.7374
  O  O799  1  0.044200  0.755000  0.689500  1.0  -0.7226
  O  O800  1  0.980700  0.101100  0.710200  1.0  -0.6932
  O  O801  1  0.937200  0.051800  0.642500  1.0  -0.6958
  O  O802  1  0.168300  0.123900  0.568700  1.0  -0.6734
  O  O803  1  0.004100  0.941000  0.662900  1.0  -0.7503
  O  O804  1  0.217700  0.945100  0.557900  1.0  -0.7655
  O  O805  1  0.494600  0.569200  0.594700  1.0  -0.7524
  O  O806  1  0.411000  0.545200  0.585200  1.0  -0.6997
  O  O807  1  0.466100  0.519900  0.531400  1.0  -0.7854
  O  O808  1  0.463400  0.397900  0.585600  1.0  -0.7035
  O  O809  1  0.505500  0.728900  0.541700  1.0  -0.6583
  O  O810  1  0.567200  0.685800  0.591500  1.0  -0.688
  O  O811  1  0.507000  0.708000  0.644100  1.0  -0.7279
  O  O812  1  0.440600  0.753400  0.594100  1.0  -0.7724
  O  O813  1  0.561800  0.409100  0.594300  1.0  -0.6772
  O  O814  1  0.401900  0.693900  0.530200  1.0  -0.7251
  O  O815  1  0.351200  0.823900  0.574500  1.0  -0.8273
  O  O816  1  0.371300  0.673600  0.630200  1.0  -0.7524
  O  O817  1  0.434000  0.460400  0.460100  1.0  -0.7504
  O  O818  1  0.428100  0.314400  0.518600  1.0  -0.684
  O  O819  1  0.363200  0.493300  0.520500  1.0  -0.6681
  O  O820  1  0.478800  0.216000  0.564400  1.0  -0.6855
  O  O821  1  0.420700  0.249800  0.618100  1.0  -0.7291
  O  O822  1  0.367200  0.352300  0.573500  1.0  -0.7074
  O  O823  1  0.530100  0.349900  0.529200  1.0  -0.747
  O  O824  1  0.509700  0.275600  0.627000  1.0  -0.7094
  O  O825  1  0.407100  0.416300  0.655000  1.0  -0.689
  O  O826  1  0.440500  0.592400  0.664900  1.0  -0.7035
  O  O827  1  0.336400  0.491500  0.620800  1.0  -0.7372
  O  O828  1  0.455800  0.255000  0.689500  1.0  -0.7224
  O  O829  1  0.519300  0.601100  0.710200  1.0  -0.693
  O  O830  1  0.562800  0.551800  0.642500  1.0  -0.695
  O  O831  1  0.331700  0.623900  0.568700  1.0  -0.6739
  O  O832  1  0.495900  0.441000  0.662900  1.0  -0.7517
  O  O833  1  0.282300  0.445100  0.557900  1.0  -0.765
  O  O834  1  0.005400  0.430800  0.094700  1.0  -0.7523
  O  O835  1  0.089000  0.454800  0.085200  1.0  -0.6998
  O  O836  1  0.033900  0.480100  0.031400  1.0  -0.7848
  O  O837  1  0.036600  0.602100  0.085600  1.0  -0.7021
  O  O838  1  0.994500  0.271100  0.041700  1.0  -0.6589
  O  O839  1  0.932800  0.314200  0.091500  1.0  -0.6875
  O  O840  1  0.993000  0.292000  0.144100  1.0  -0.7289
  O  O841  1  0.059400  0.246600  0.094100  1.0  -0.7737
  O  O842  1  0.938200  0.590900  0.094300  1.0  -0.6796
  O  O843  1  0.098100  0.306100  0.030200  1.0  -0.7249
  O  O844  1  0.148800  0.176100  0.074500  1.0  -0.8262
  O  O845  1  0.128700  0.326400  0.130200  1.0  -0.7551
  O  O846  1  0.066000  0.539600  0.960100  1.0  -0.7497
  O  O847  1  0.071900  0.685600  0.018600  1.0  -0.6846
  O  O848  1  0.136800  0.506700  0.020500  1.0  -0.668
  O  O849  1  0.021200  0.784000  0.064400  1.0  -0.6772
  O  O850  1  0.079300  0.750200  0.118100  1.0  -0.7294
  O  O851  1  0.132800  0.647700  0.073500  1.0  -0.7065
  O  O852  1  0.969900  0.650100  0.029200  1.0  -0.746
  O  O853  1  0.990300  0.724400  0.127000  1.0  -0.7093
  O  O854  1  0.092900  0.583700  0.155000  1.0  -0.6867
  O  O855  1  0.059500  0.407600  0.164900  1.0  -0.7031
  O  O856  1  0.163600  0.508500  0.120800  1.0  -0.7373
  O  O857  1  0.044200  0.745000  0.189500  1.0  -0.7222
  O  O858  1  0.980700  0.398900  0.210200  1.0  -0.6929
  O  O859  1  0.937200  0.448200  0.142500  1.0  -0.6967
  O  O860  1  0.168300  0.376100  0.068700  1.0  -0.6741
  O  O861  1  0.004100  0.559000  0.162900  1.0  -0.7498
  O  O862  1  0.217700  0.554900  0.057900  1.0  -0.7652
  O  O863  1  0.505400  0.069200  0.905300  1.0  -0.7525
  O  O864  1  0.589000  0.045200  0.914800  1.0  -0.7003
  O  O865  1  0.533900  0.019900  0.968600  1.0  -0.7846
  O  O866  1  0.536600  0.897900  0.914400  1.0  -0.7043
  O  O867  1  0.494500  0.228900  0.958300  1.0  -0.6584
  O  O868  1  0.432800  0.185800  0.908500  1.0  -0.6874
  O  O869  1  0.493000  0.208000  0.855900  1.0  -0.7288
  O  O870  1  0.559400  0.253400  0.905900  1.0  -0.7725
  O  O871  1  0.438200  0.909100  0.905700  1.0  -0.6781
  O  O872  1  0.598100  0.193900  0.969800  1.0  -0.7255
  O  O873  1  0.648800  0.323900  0.925500  1.0  -0.8285
  O  O874  1  0.628700  0.173600  0.869800  1.0  -0.7538
  O  O875  1  0.566000  0.960400  0.039900  1.0  -0.7499
  O  O876  1  0.571900  0.814400  0.981400  1.0  -0.6847
  O  O877  1  0.636800  0.993300  0.979500  1.0  -0.6698
  O  O878  1  0.521200  0.716000  0.935600  1.0  -0.6852
  O  O879  1  0.579300  0.749800  0.881900  1.0  -0.7276
  O  O880  1  0.632800  0.852300  0.926500  1.0  -0.7067
  O  O881  1  0.469900  0.849900  0.970800  1.0  -0.7476
  O  O882  1  0.490300  0.775600  0.873000  1.0  -0.7103
  O  O883  1  0.592900  0.916300  0.845000  1.0  -0.6858
  O  O884  1  0.559500  0.092400  0.835100  1.0  -0.7035
  O  O885  1  0.663600  0.991500  0.879200  1.0  -0.736
  O  O886  1  0.544200  0.755000  0.810500  1.0  -0.7229
  O  O887  1  0.480700  0.101100  0.789800  1.0  -0.6935
  O  O888  1  0.437200  0.051800  0.857500  1.0  -0.6955
  O  O889  1  0.668300  0.123900  0.931300  1.0  -0.6741
  O  O890  1  0.504100  0.941000  0.837100  1.0  -0.7493
  O  O891  1  0.717700  0.945100  0.942100  1.0  -0.7651
  O  O892  1  0.994600  0.930800  0.405300  1.0  -0.7528
  O  O893  1  0.911000  0.954800  0.414800  1.0  -0.7003
  O  O894  1  0.966100  0.980100  0.468600  1.0  -0.785
  O  O895  1  0.963400  0.102100  0.414400  1.0  -0.7033
  O  O896  1  0.005500  0.771100  0.458300  1.0  -0.6594
  O  O897  1  0.067200  0.814200  0.408500  1.0  -0.6881
  O  O898  1  0.007000  0.792000  0.355900  1.0  -0.7295
  O  O899  1  0.940600  0.746600  0.405900  1.0  -0.7756
  O  O900  1  0.061800  0.090900  0.405700  1.0  -0.6769
  O  O901  1  0.901900  0.806100  0.469800  1.0  -0.7248
  O  O902  1  0.851200  0.676100  0.425500  1.0  -0.8255
  O  O903  1  0.871300  0.826400  0.369800  1.0  -0.7536
  O  O904  1  0.934000  0.039600  0.539900  1.0  -0.7509
  O  O905  1  0.928100  0.185600  0.481400  1.0  -0.6851
  O  O906  1  0.863200  0.006700  0.479500  1.0  -0.6696
  O  O907  1  0.978800  0.284000  0.435600  1.0  -0.6772
  O  O908  1  0.920700  0.250200  0.381900  1.0  -0.7298
  O  O909  1  0.867200  0.147700  0.426500  1.0  -0.7069
  O  O910  1  0.030100  0.150100  0.470800  1.0  -0.7457
  O  O911  1  0.009700  0.224400  0.373000  1.0  -0.7085
  O  O912  1  0.907100  0.083700  0.345000  1.0  -0.6891
  O  O913  1  0.940500  0.907600  0.335100  1.0  -0.704
  O  O914  1  0.836400  0.008500  0.379200  1.0  -0.7373
  O  O915  1  0.955800  0.245000  0.310500  1.0  -0.7226
  O  O916  1  0.019300  0.898900  0.289800  1.0  -0.6928
  O  O917  1  0.062800  0.948200  0.357500  1.0  -0.6956
  O  O918  1  0.831700  0.876100  0.431300  1.0  -0.6745
  O  O919  1  0.995900  0.059000  0.337100  1.0  -0.7496
  O  O920  1  0.782300  0.054900  0.442100  1.0  -0.7648
