# generated using pymatgen
data_Cd3H13C22(N2O3)3
_symmetry_space_group_name_H-M   'P 1'
_cell_length_a   20.74710000
_cell_length_b   26.27640000
_cell_length_c   36.89430000
_cell_angle_alpha   90.00000000
_cell_angle_beta   90.00000000
_cell_angle_gamma   90.00000000
_symmetry_Int_Tables_number   1
_chemical_formula_structural   Cd3H13C22(N2O3)3
_chemical_formula_sum   'Cd48 H208 C352 N96 O144'
_cell_volume   20113.26332557
_cell_formula_units_Z   16
loop_
 _symmetry_equiv_pos_site_id
 _symmetry_equiv_pos_as_xyz
  1  'x, y, z'
loop_
 _atom_site_type_symbol
 _atom_site_label
 _atom_site_symmetry_multiplicity
 _atom_site_fract_x
 _atom_site_fract_y
 _atom_site_fract_z
 _atom_site_occupancy
 _atom_site_charge
  Cd  Cd1  1  0.202510  0.939400  0.151260  1.0  1.0497
  Cd  Cd2  1  0.079230  0.163440  0.150470  1.0  1.0349
  Cd  Cd3  1  0.702510  0.439400  0.151260  1.0  1.0497
  Cd  Cd4  1  0.579230  0.663440  0.150470  1.0  1.0349
  Cd  Cd5  1  0.797490  0.060600  0.151260  1.0  1.0499
  Cd  Cd6  1  0.920770  0.836560  0.150470  1.0  1.0338
  Cd  Cd7  1  0.297490  0.560600  0.151260  1.0  1.0499
  Cd  Cd8  1  0.420770  0.336560  0.150470  1.0  1.0338
  Cd  Cd9  1  0.797490  0.939400  0.348740  1.0  1.0491
  Cd  Cd10  1  0.920770  0.163440  0.349530  1.0  1.036
  Cd  Cd11  1  0.297490  0.439400  0.348740  1.0  1.0491
  Cd  Cd12  1  0.420770  0.663440  0.349530  1.0  1.036
  Cd  Cd13  1  0.202510  0.060600  0.348740  1.0  1.0495
  Cd  Cd14  1  0.079230  0.836560  0.349530  1.0  1.0344
  Cd  Cd15  1  0.702510  0.560600  0.348740  1.0  1.0495
  Cd  Cd16  1  0.579230  0.336560  0.349530  1.0  1.0344
  Cd  Cd17  1  0.797490  0.060600  0.848740  1.0  1.0494
  Cd  Cd18  1  0.920770  0.836560  0.849530  1.0  1.0347
  Cd  Cd19  1  0.297490  0.560600  0.848740  1.0  1.0494
  Cd  Cd20  1  0.420770  0.336560  0.849530  1.0  1.0347
  Cd  Cd21  1  0.202510  0.939400  0.848740  1.0  1.0493
  Cd  Cd22  1  0.079230  0.163440  0.849530  1.0  1.0358
  Cd  Cd23  1  0.702510  0.439400  0.848740  1.0  1.0493
  Cd  Cd24  1  0.579230  0.663440  0.849530  1.0  1.0358
  Cd  Cd25  1  0.202510  0.060600  0.651260  1.0  1.0496
  Cd  Cd26  1  0.079230  0.836560  0.650470  1.0  1.0336
  Cd  Cd27  1  0.702510  0.560600  0.651260  1.0  1.0496
  Cd  Cd28  1  0.579230  0.336560  0.650470  1.0  1.0336
  Cd  Cd29  1  0.797490  0.939400  0.651260  1.0  1.0497
  Cd  Cd30  1  0.920770  0.163440  0.650470  1.0  1.0351
  Cd  Cd31  1  0.297490  0.439400  0.651260  1.0  1.0497
  Cd  Cd32  1  0.420770  0.663440  0.650470  1.0  1.0351
  Cd  Cd33  1  0.231510  0.000000  0.250000  1.0  0.996
  Cd  Cd34  1  0.731510  0.500000  0.250000  1.0  0.996
  Cd  Cd35  1  0.768490  0.000000  0.250000  1.0  0.9963
  Cd  Cd36  1  0.268490  0.500000  0.250000  1.0  0.9963
  Cd  Cd37  1  0.768490  0.000000  0.750000  1.0  0.9963
  Cd  Cd38  1  0.268490  0.500000  0.750000  1.0  0.9963
  Cd  Cd39  1  0.231510  0.000000  0.750000  1.0  0.996
  Cd  Cd40  1  0.731510  0.500000  0.750000  1.0  0.996
  Cd  Cd41  1  0.000000  0.191090  0.250000  1.0  0.9388
  Cd  Cd42  1  0.500000  0.691090  0.250000  1.0  0.9388
  Cd  Cd43  1  0.000000  0.808910  0.250000  1.0  0.9385
  Cd  Cd44  1  0.500000  0.308910  0.250000  1.0  0.9385
  Cd  Cd45  1  0.000000  0.808910  0.750000  1.0  0.9385
  Cd  Cd46  1  0.500000  0.308910  0.750000  1.0  0.9385
  Cd  Cd47  1  0.000000  0.191090  0.750000  1.0  0.9388
  Cd  Cd48  1  0.500000  0.691090  0.750000  1.0  0.9388
  H  H49  1  0.119300  0.041900  0.128800  1.0  0.0864
  H  H50  1  0.444200  0.999400  0.195700  1.0  0.1191
  H  H51  1  0.156400  0.106300  0.220600  1.0  0.0972
  H  H52  1  0.943900  0.108000  0.127400  1.0  0.0756
  H  H53  1  0.214100  0.382500  0.221900  1.0  0.1117
  H  H54  1  0.186300  0.299100  0.310100  1.0  0.1218
  H  H55  1  0.168600  0.319400  0.186600  1.0  0.1234
  H  H56  1  0.146300  0.233700  0.274800  1.0  0.1049
  H  H57  1  0.028300  0.085300  0.031400  1.0  0.1086
  H  H58  1  0.102200  0.975400  0.031500  1.0  0.1105
  H  H59  1  0.257900  0.884500  0.031600  1.0  0.116
  H  H60  1  0.863600  0.139000  0.218600  1.0  0.0994
  H  H61  1  0.127600  0.213800  0.032500  1.0  0.1146
  H  H62  1  0.619300  0.541900  0.128800  1.0  0.0864
  H  H63  1  0.944200  0.499400  0.195700  1.0  0.1191
  H  H64  1  0.656400  0.606300  0.220600  1.0  0.0972
  H  H65  1  0.443900  0.608000  0.127400  1.0  0.0756
  H  H66  1  0.714100  0.882500  0.221900  1.0  0.1117
  H  H67  1  0.686300  0.799100  0.310100  1.0  0.1218
  H  H68  1  0.668600  0.819400  0.186600  1.0  0.1234
  H  H69  1  0.646300  0.733700  0.274800  1.0  0.1049
  H  H70  1  0.528300  0.585300  0.031400  1.0  0.1086
  H  H71  1  0.602200  0.475400  0.031500  1.0  0.1105
  H  H72  1  0.757900  0.384500  0.031600  1.0  0.116
  H  H73  1  0.363600  0.639000  0.218600  1.0  0.0994
  H  H74  1  0.627600  0.713800  0.032500  1.0  0.1146
  H  H75  1  0.880700  0.958100  0.128800  1.0  0.0866
  H  H76  1  0.555800  0.000600  0.195700  1.0  0.1193
  H  H77  1  0.843600  0.893700  0.220600  1.0  0.0974
  H  H78  1  0.056100  0.892000  0.127400  1.0  0.0754
  H  H79  1  0.785900  0.617500  0.221900  1.0  0.1114
  H  H80  1  0.813700  0.700900  0.310100  1.0  0.1207
  H  H81  1  0.831400  0.680600  0.186600  1.0  0.1241
  H  H82  1  0.853700  0.766300  0.274800  1.0  0.1042
  H  H83  1  0.971700  0.914700  0.031400  1.0  0.1083
  H  H84  1  0.897800  0.024600  0.031500  1.0  0.1107
  H  H85  1  0.742100  0.115500  0.031600  1.0  0.1159
  H  H86  1  0.136400  0.861000  0.218600  1.0  0.0993
  H  H87  1  0.872400  0.786200  0.032500  1.0  0.1145
  H  H88  1  0.380700  0.458100  0.128800  1.0  0.0866
  H  H89  1  0.055800  0.500600  0.195700  1.0  0.1193
  H  H90  1  0.343600  0.393700  0.220600  1.0  0.0974
  H  H91  1  0.556100  0.392000  0.127400  1.0  0.0754
  H  H92  1  0.285900  0.117500  0.221900  1.0  0.1114
  H  H93  1  0.313700  0.200900  0.310100  1.0  0.1207
  H  H94  1  0.331400  0.180600  0.186600  1.0  0.1241
  H  H95  1  0.353700  0.266300  0.274800  1.0  0.1042
  H  H96  1  0.471700  0.414700  0.031400  1.0  0.1083
  H  H97  1  0.397800  0.524600  0.031500  1.0  0.1107
  H  H98  1  0.242100  0.615500  0.031600  1.0  0.1159
  H  H99  1  0.636400  0.361000  0.218600  1.0  0.0993
  H  H100  1  0.372400  0.286200  0.032500  1.0  0.1145
  H  H101  1  0.880700  0.041900  0.371200  1.0  0.0873
  H  H102  1  0.555800  0.999400  0.304300  1.0  0.12
  H  H103  1  0.843600  0.106300  0.279400  1.0  0.0974
  H  H104  1  0.056100  0.108000  0.372600  1.0  0.0763
  H  H105  1  0.785900  0.382500  0.278100  1.0  0.1115
  H  H106  1  0.813700  0.299100  0.189900  1.0  0.123
  H  H107  1  0.831400  0.319400  0.313400  1.0  0.1228
  H  H108  1  0.853700  0.233700  0.225200  1.0  0.105
  H  H109  1  0.971700  0.085300  0.468600  1.0  0.1085
  H  H110  1  0.897800  0.975400  0.468500  1.0  0.1107
  H  H111  1  0.742100  0.884500  0.468400  1.0  0.1157
  H  H112  1  0.136400  0.139000  0.281400  1.0  0.099
  H  H113  1  0.872400  0.213800  0.467500  1.0  0.1149
  H  H114  1  0.380700  0.541900  0.371200  1.0  0.0873
  H  H115  1  0.055800  0.499400  0.304300  1.0  0.12
  H  H116  1  0.343600  0.606300  0.279400  1.0  0.0974
  H  H117  1  0.556100  0.608000  0.372600  1.0  0.0763
  H  H118  1  0.285900  0.882500  0.278100  1.0  0.1115
  H  H119  1  0.313700  0.799100  0.189900  1.0  0.123
  H  H120  1  0.331400  0.819400  0.313400  1.0  0.1228
  H  H121  1  0.353700  0.733700  0.225200  1.0  0.105
  H  H122  1  0.471700  0.585300  0.468600  1.0  0.1085
  H  H123  1  0.397800  0.475400  0.468500  1.0  0.1107
  H  H124  1  0.242100  0.384500  0.468400  1.0  0.1157
  H  H125  1  0.636400  0.639000  0.281400  1.0  0.099
  H  H126  1  0.372400  0.713800  0.467500  1.0  0.1149
  H  H127  1  0.119300  0.958100  0.371200  1.0  0.0869
  H  H128  1  0.444200  0.000600  0.304300  1.0  0.1194
  H  H129  1  0.156400  0.893700  0.279400  1.0  0.0978
  H  H130  1  0.943900  0.892000  0.372600  1.0  0.0761
  H  H131  1  0.214100  0.617500  0.278100  1.0  0.1118
  H  H132  1  0.186300  0.700900  0.189900  1.0  0.1225
  H  H133  1  0.168600  0.680600  0.313400  1.0  0.1239
  H  H134  1  0.146300  0.766300  0.225200  1.0  0.1047
  H  H135  1  0.028300  0.914700  0.468600  1.0  0.1089
  H  H136  1  0.102200  0.024600  0.468500  1.0  0.1105
  H  H137  1  0.257900  0.115500  0.468400  1.0  0.1169
  H  H138  1  0.863600  0.861000  0.281400  1.0  0.0994
  H  H139  1  0.127600  0.786200  0.467500  1.0  0.1149
  H  H140  1  0.619300  0.458100  0.371200  1.0  0.0869
  H  H141  1  0.944200  0.500600  0.304300  1.0  0.1194
  H  H142  1  0.656400  0.393700  0.279400  1.0  0.0978
  H  H143  1  0.443900  0.392000  0.372600  1.0  0.0761
  H  H144  1  0.714100  0.117500  0.278100  1.0  0.1118
  H  H145  1  0.686300  0.200900  0.189900  1.0  0.1225
  H  H146  1  0.668600  0.180600  0.313400  1.0  0.1239
  H  H147  1  0.646300  0.266300  0.225200  1.0  0.1047
  H  H148  1  0.528300  0.414700  0.468600  1.0  0.1089
  H  H149  1  0.602200  0.524600  0.468500  1.0  0.1105
  H  H150  1  0.757900  0.615500  0.468400  1.0  0.1169
  H  H151  1  0.363600  0.361000  0.281400  1.0  0.0994
  H  H152  1  0.627600  0.286200  0.467500  1.0  0.1149
  H  H153  1  0.880700  0.958100  0.871200  1.0  0.087
  H  H154  1  0.555800  0.000600  0.804300  1.0  0.1201
  H  H155  1  0.843600  0.893700  0.779400  1.0  0.0976
  H  H156  1  0.056100  0.892000  0.872600  1.0  0.0761
  H  H157  1  0.785900  0.617500  0.778100  1.0  0.1116
  H  H158  1  0.813700  0.700900  0.689900  1.0  0.1229
  H  H159  1  0.831400  0.680600  0.813400  1.0  0.1228
  H  H160  1  0.853700  0.766300  0.725200  1.0  0.1043
  H  H161  1  0.971700  0.914700  0.968600  1.0  0.1087
  H  H162  1  0.897800  0.024600  0.968500  1.0  0.1105
  H  H163  1  0.742100  0.115500  0.968400  1.0  0.1162
  H  H164  1  0.136400  0.861000  0.781400  1.0  0.099
  H  H165  1  0.872400  0.786200  0.967500  1.0  0.1146
  H  H166  1  0.380700  0.458100  0.871200  1.0  0.087
  H  H167  1  0.055800  0.500600  0.804300  1.0  0.1201
  H  H168  1  0.343600  0.393700  0.779400  1.0  0.0976
  H  H169  1  0.556100  0.392000  0.872600  1.0  0.0761
  H  H170  1  0.285900  0.117500  0.778100  1.0  0.1116
  H  H171  1  0.313700  0.200900  0.689900  1.0  0.1229
  H  H172  1  0.331400  0.180600  0.813400  1.0  0.1228
  H  H173  1  0.353700  0.266300  0.725200  1.0  0.1043
  H  H174  1  0.471700  0.414700  0.968600  1.0  0.1087
  H  H175  1  0.397800  0.524600  0.968500  1.0  0.1105
  H  H176  1  0.242100  0.615500  0.968400  1.0  0.1162
  H  H177  1  0.636400  0.361000  0.781400  1.0  0.099
  H  H178  1  0.372400  0.286200  0.967500  1.0  0.1146
  H  H179  1  0.119300  0.041900  0.871200  1.0  0.0872
  H  H180  1  0.444200  0.999400  0.804300  1.0  0.1194
  H  H181  1  0.156400  0.106300  0.779400  1.0  0.0976
  H  H182  1  0.943900  0.108000  0.872600  1.0  0.0763
  H  H183  1  0.214100  0.382500  0.778100  1.0  0.1115
  H  H184  1  0.186300  0.299100  0.689900  1.0  0.1225
  H  H185  1  0.168600  0.319400  0.813400  1.0  0.1236
  H  H186  1  0.146300  0.233700  0.725200  1.0  0.1049
  H  H187  1  0.028300  0.085300  0.968600  1.0  0.1087
  H  H188  1  0.102200  0.975400  0.968500  1.0  0.1109
  H  H189  1  0.257900  0.884500  0.968400  1.0  0.1161
  H  H190  1  0.863600  0.139000  0.781400  1.0  0.0994
  H  H191  1  0.127600  0.213800  0.967500  1.0  0.1151
  H  H192  1  0.619300  0.541900  0.871200  1.0  0.0872
  H  H193  1  0.944200  0.499400  0.804300  1.0  0.1194
  H  H194  1  0.656400  0.606300  0.779400  1.0  0.0976
  H  H195  1  0.443900  0.608000  0.872600  1.0  0.0763
  H  H196  1  0.714100  0.882500  0.778100  1.0  0.1115
  H  H197  1  0.686300  0.799100  0.689900  1.0  0.1225
  H  H198  1  0.668600  0.819400  0.813400  1.0  0.1236
  H  H199  1  0.646300  0.733700  0.725200  1.0  0.1049
  H  H200  1  0.528300  0.585300  0.968600  1.0  0.1087
  H  H201  1  0.602200  0.475400  0.968500  1.0  0.1109
  H  H202  1  0.757900  0.384500  0.968400  1.0  0.1161
  H  H203  1  0.363600  0.639000  0.781400  1.0  0.0994
  H  H204  1  0.627600  0.713800  0.967500  1.0  0.1151
  H  H205  1  0.119300  0.958100  0.628800  1.0  0.0865
  H  H206  1  0.444200  0.000600  0.695700  1.0  0.1192
  H  H207  1  0.156400  0.893700  0.720600  1.0  0.0976
  H  H208  1  0.943900  0.892000  0.627400  1.0  0.0755
  H  H209  1  0.214100  0.617500  0.721900  1.0  0.1115
  H  H210  1  0.186300  0.700900  0.810100  1.0  0.1215
  H  H211  1  0.168600  0.680600  0.686600  1.0  0.1231
  H  H212  1  0.146300  0.766300  0.774800  1.0  0.1048
  H  H213  1  0.028300  0.914700  0.531400  1.0  0.1085
  H  H214  1  0.102200  0.024600  0.531500  1.0  0.1105
  H  H215  1  0.257900  0.115500  0.531600  1.0  0.1164
  H  H216  1  0.863600  0.861000  0.718600  1.0  0.0994
  H  H217  1  0.127600  0.786200  0.532500  1.0  0.1145
  H  H218  1  0.619300  0.458100  0.628800  1.0  0.0865
  H  H219  1  0.944200  0.500600  0.695700  1.0  0.1192
  H  H220  1  0.656400  0.393700  0.720600  1.0  0.0976
  H  H221  1  0.443900  0.392000  0.627400  1.0  0.0755
  H  H222  1  0.714100  0.117500  0.721900  1.0  0.1115
  H  H223  1  0.686300  0.200900  0.810100  1.0  0.1215
  H  H224  1  0.668600  0.180600  0.686600  1.0  0.1231
  H  H225  1  0.646300  0.266300  0.774800  1.0  0.1048
  H  H226  1  0.528300  0.414700  0.531400  1.0  0.1085
  H  H227  1  0.602200  0.524600  0.531500  1.0  0.1105
  H  H228  1  0.757900  0.615500  0.531600  1.0  0.1164
  H  H229  1  0.363600  0.361000  0.718600  1.0  0.0994
  H  H230  1  0.627600  0.286200  0.532500  1.0  0.1145
  H  H231  1  0.880700  0.041900  0.628800  1.0  0.0866
  H  H232  1  0.555800  0.999400  0.695700  1.0  0.1192
  H  H233  1  0.843600  0.106300  0.720600  1.0  0.0971
  H  H234  1  0.056100  0.108000  0.627400  1.0  0.0755
  H  H235  1  0.785900  0.382500  0.721900  1.0  0.1118
  H  H236  1  0.813700  0.299100  0.810100  1.0  0.121
  H  H237  1  0.831400  0.319400  0.686600  1.0  0.1242
  H  H238  1  0.853700  0.233700  0.774800  1.0  0.1045
  H  H239  1  0.971700  0.085300  0.531400  1.0  0.1085
  H  H240  1  0.897800  0.975400  0.531500  1.0  0.1105
  H  H241  1  0.742100  0.884500  0.531600  1.0  0.1158
  H  H242  1  0.136400  0.139000  0.718600  1.0  0.0993
  H  H243  1  0.872400  0.213800  0.532500  1.0  0.1145
  H  H244  1  0.380700  0.541900  0.628800  1.0  0.0866
  H  H245  1  0.055800  0.499400  0.695700  1.0  0.1192
  H  H246  1  0.343600  0.606300  0.720600  1.0  0.0971
  H  H247  1  0.556100  0.608000  0.627400  1.0  0.0755
  H  H248  1  0.285900  0.882500  0.721900  1.0  0.1118
  H  H249  1  0.313700  0.799100  0.810100  1.0  0.121
  H  H250  1  0.331400  0.819400  0.686600  1.0  0.1242
  H  H251  1  0.353700  0.733700  0.774800  1.0  0.1045
  H  H252  1  0.471700  0.585300  0.531400  1.0  0.1085
  H  H253  1  0.397800  0.475400  0.531500  1.0  0.1105
  H  H254  1  0.242100  0.384500  0.531600  1.0  0.1158
  H  H255  1  0.636400  0.639000  0.718600  1.0  0.0993
  H  H256  1  0.372400  0.713800  0.532500  1.0  0.1145
  C  C257  1  0.133600  0.047500  0.152370  1.0  0.253
  C  C258  1  0.153400  0.269700  0.227140  1.0  -0.1009
  C  C259  1  0.466600  0.999800  0.217500  1.0  -0.0557
  C  C260  1  0.153500  0.082600  0.201920  1.0  0.2774
  C  C261  1  0.936400  0.120400  0.150600  1.0  0.2383
  C  C262  1  0.186800  0.934600  0.078490  1.0  0.7151
  C  C263  1  0.183500  0.932000  0.038000  1.0  -0.114
  C  C264  1  0.126000  0.228700  0.204700  1.0  0.6741
  C  C265  1  0.199700  0.352600  0.232700  1.0  -0.0287
  C  C266  1  0.184000  0.302900  0.285000  1.0  -0.0289
  C  C267  1  0.173100  0.314600  0.211500  1.0  -0.0618
  C  C268  1  0.159200  0.264000  0.263900  1.0  -0.0112
  C  C269  1  0.204900  0.346600  0.269330  1.0  -0.0993
  C  C270  1  0.047500  0.112100  0.018930  1.0  -0.0493
  C  C271  1  0.134300  0.958300  0.018900  1.0  -0.0408
  C  C272  1  0.227600  0.903800  0.019100  1.0  -0.0416
  C  C273  1  0.075500  0.151100  0.037800  1.0  -0.1269
  C  C274  1  0.233900  0.386500  0.293110  1.0  0.6953
  C  C275  1  0.893400  0.137200  0.199700  1.0  0.2348
  C  C276  1  0.077500  0.151200  0.078600  1.0  0.6961
  C  C277  1  0.106300  0.188200  0.019900  1.0  -0.0492
  C  C278  1  0.633600  0.547500  0.152370  1.0  0.253
  C  C279  1  0.653400  0.769700  0.227140  1.0  -0.1009
  C  C280  1  0.966600  0.499800  0.217500  1.0  -0.0557
  C  C281  1  0.653500  0.582600  0.201920  1.0  0.2774
  C  C282  1  0.436400  0.620400  0.150600  1.0  0.2383
  C  C283  1  0.686800  0.434600  0.078490  1.0  0.7151
  C  C284  1  0.683500  0.432000  0.038000  1.0  -0.114
  C  C285  1  0.626000  0.728700  0.204700  1.0  0.6741
  C  C286  1  0.699700  0.852600  0.232700  1.0  -0.0287
  C  C287  1  0.684000  0.802900  0.285000  1.0  -0.0289
  C  C288  1  0.673100  0.814600  0.211500  1.0  -0.0618
  C  C289  1  0.659200  0.764000  0.263900  1.0  -0.0112
  C  C290  1  0.704900  0.846600  0.269330  1.0  -0.0993
  C  C291  1  0.547500  0.612100  0.018930  1.0  -0.0493
  C  C292  1  0.634300  0.458300  0.018900  1.0  -0.0408
  C  C293  1  0.727600  0.403800  0.019100  1.0  -0.0416
  C  C294  1  0.575500  0.651100  0.037800  1.0  -0.1269
  C  C295  1  0.733900  0.886500  0.293110  1.0  0.6953
  C  C296  1  0.393400  0.637200  0.199700  1.0  0.2348
  C  C297  1  0.577500  0.651200  0.078600  1.0  0.6961
  C  C298  1  0.606300  0.688200  0.019900  1.0  -0.0492
  C  C299  1  0.866400  0.952500  0.152370  1.0  0.2528
  C  C300  1  0.846600  0.730300  0.227140  1.0  -0.0988
  C  C301  1  0.533400  0.000200  0.217500  1.0  -0.0555
  C  C302  1  0.846500  0.917400  0.201920  1.0  0.2773
  C  C303  1  0.063600  0.879600  0.150600  1.0  0.2387
  C  C304  1  0.813200  0.065400  0.078490  1.0  0.7133
  C  C305  1  0.816500  0.068000  0.038000  1.0  -0.1144
  C  C306  1  0.874000  0.771300  0.204700  1.0  0.6742
  C  C307  1  0.800300  0.647400  0.232700  1.0  -0.028
  C  C308  1  0.816000  0.697100  0.285000  1.0  -0.0297
  C  C309  1  0.826900  0.685400  0.211500  1.0  -0.0615
  C  C310  1  0.840800  0.736000  0.263900  1.0  -0.012
  C  C311  1  0.795100  0.653400  0.269330  1.0  -0.0984
  C  C312  1  0.952500  0.887900  0.018930  1.0  -0.048
  C  C313  1  0.865700  0.041700  0.018900  1.0  -0.0417
  C  C314  1  0.772400  0.096200  0.019100  1.0  -0.0428
  C  C315  1  0.924500  0.848900  0.037800  1.0  -0.1284
  C  C316  1  0.766100  0.613500  0.293110  1.0  0.6966
  C  C317  1  0.106600  0.862800  0.199700  1.0  0.2354
  C  C318  1  0.922500  0.848800  0.078600  1.0  0.6975
  C  C319  1  0.893700  0.811800  0.019900  1.0  -0.0495
  C  C320  1  0.366400  0.452500  0.152370  1.0  0.2528
  C  C321  1  0.346600  0.230300  0.227140  1.0  -0.0988
  C  C322  1  0.033400  0.500200  0.217500  1.0  -0.0555
  C  C323  1  0.346500  0.417400  0.201920  1.0  0.2773
  C  C324  1  0.563600  0.379600  0.150600  1.0  0.2387
  C  C325  1  0.313200  0.565400  0.078490  1.0  0.7133
  C  C326  1  0.316500  0.568000  0.038000  1.0  -0.1144
  C  C327  1  0.374000  0.271300  0.204700  1.0  0.6742
  C  C328  1  0.300300  0.147400  0.232700  1.0  -0.028
  C  C329  1  0.316000  0.197100  0.285000  1.0  -0.0297
  C  C330  1  0.326900  0.185400  0.211500  1.0  -0.0615
  C  C331  1  0.340800  0.236000  0.263900  1.0  -0.012
  C  C332  1  0.295100  0.153400  0.269330  1.0  -0.0984
  C  C333  1  0.452500  0.387900  0.018930  1.0  -0.048
  C  C334  1  0.365700  0.541700  0.018900  1.0  -0.0417
  C  C335  1  0.272400  0.596200  0.019100  1.0  -0.0428
  C  C336  1  0.424500  0.348900  0.037800  1.0  -0.1284
  C  C337  1  0.266100  0.113500  0.293110  1.0  0.6966
  C  C338  1  0.606600  0.362800  0.199700  1.0  0.2354
  C  C339  1  0.422500  0.348800  0.078600  1.0  0.6975
  C  C340  1  0.393700  0.311800  0.019900  1.0  -0.0495
  C  C341  1  0.866400  0.047500  0.347630  1.0  0.2526
  C  C342  1  0.846600  0.269700  0.272860  1.0  -0.0992
  C  C343  1  0.533400  0.999800  0.282500  1.0  -0.056
  C  C344  1  0.846500  0.082600  0.298080  1.0  0.277
  C  C345  1  0.063600  0.120400  0.349400  1.0  0.2383
  C  C346  1  0.813200  0.934600  0.421510  1.0  0.712
  C  C347  1  0.816500  0.932000  0.462000  1.0  -0.1145
  C  C348  1  0.874000  0.228700  0.295300  1.0  0.6745
  C  C349  1  0.800300  0.352600  0.267300  1.0  -0.0291
  C  C350  1  0.816000  0.302900  0.215000  1.0  -0.0308
  C  C351  1  0.826900  0.314600  0.288500  1.0  -0.0624
  C  C352  1  0.840800  0.264000  0.236100  1.0  -0.013
  C  C353  1  0.795100  0.346600  0.230670  1.0  -0.099
  C  C354  1  0.952500  0.112100  0.481070  1.0  -0.0491
  C  C355  1  0.865700  0.958300  0.481100  1.0  -0.0412
  C  C356  1  0.772400  0.903800  0.480900  1.0  -0.0429
  C  C357  1  0.924500  0.151100  0.462200  1.0  -0.1257
  C  C358  1  0.766100  0.386500  0.206890  1.0  0.6975
  C  C359  1  0.106600  0.137200  0.300300  1.0  0.2348
  C  C360  1  0.922500  0.151200  0.421400  1.0  0.6978
  C  C361  1  0.893700  0.188200  0.480100  1.0  -0.0497
  C  C362  1  0.366400  0.547500  0.347630  1.0  0.2526
  C  C363  1  0.346600  0.769700  0.272860  1.0  -0.0992
  C  C364  1  0.033400  0.499800  0.282500  1.0  -0.056
  C  C365  1  0.346500  0.582600  0.298080  1.0  0.277
  C  C366  1  0.563600  0.620400  0.349400  1.0  0.2383
  C  C367  1  0.313200  0.434600  0.421510  1.0  0.712
  C  C368  1  0.316500  0.432000  0.462000  1.0  -0.1145
  C  C369  1  0.374000  0.728700  0.295300  1.0  0.6745
  C  C370  1  0.300300  0.852600  0.267300  1.0  -0.0291
  C  C371  1  0.316000  0.802900  0.215000  1.0  -0.0308
  C  C372  1  0.326900  0.814600  0.288500  1.0  -0.0624
  C  C373  1  0.340800  0.764000  0.236100  1.0  -0.013
  C  C374  1  0.295100  0.846600  0.230670  1.0  -0.099
  C  C375  1  0.452500  0.612100  0.481070  1.0  -0.0491
  C  C376  1  0.365700  0.458300  0.481100  1.0  -0.0412
  C  C377  1  0.272400  0.403800  0.480900  1.0  -0.0429
  C  C378  1  0.424500  0.651100  0.462200  1.0  -0.1257
  C  C379  1  0.266100  0.886500  0.206890  1.0  0.6975
  C  C380  1  0.606600  0.637200  0.300300  1.0  0.2348
  C  C381  1  0.422500  0.651200  0.421400  1.0  0.6978
  C  C382  1  0.393700  0.688200  0.480100  1.0  -0.0497
  C  C383  1  0.133600  0.952500  0.347630  1.0  0.2526
  C  C384  1  0.153400  0.730300  0.272860  1.0  -0.0993
  C  C385  1  0.466600  0.000200  0.282500  1.0  -0.057
  C  C386  1  0.153500  0.917400  0.298080  1.0  0.2781
  C  C387  1  0.936400  0.879600  0.349400  1.0  0.2388
  C  C388  1  0.186800  0.065400  0.421510  1.0  0.7135
  C  C389  1  0.183500  0.068000  0.462000  1.0  -0.1139
  C  C390  1  0.126000  0.771300  0.295300  1.0  0.6734
  C  C391  1  0.199700  0.647400  0.267300  1.0  -0.0281
  C  C392  1  0.184000  0.697100  0.215000  1.0  -0.0296
  C  C393  1  0.173100  0.685400  0.288500  1.0  -0.0641
  C  C394  1  0.159200  0.736000  0.236100  1.0  -0.0119
  C  C395  1  0.204900  0.653400  0.230670  1.0  -0.0997
  C  C396  1  0.047500  0.887900  0.481070  1.0  -0.0492
  C  C397  1  0.134300  0.041700  0.481100  1.0  -0.0413
  C  C398  1  0.227600  0.096200  0.480900  1.0  -0.0414
  C  C399  1  0.075500  0.848900  0.462200  1.0  -0.126
  C  C400  1  0.233900  0.613500  0.206890  1.0  0.6973
  C  C401  1  0.893400  0.862800  0.300300  1.0  0.2339
  C  C402  1  0.077500  0.848800  0.421400  1.0  0.6967
  C  C403  1  0.106300  0.811800  0.480100  1.0  -0.0513
  C  C404  1  0.633600  0.452500  0.347630  1.0  0.2526
  C  C405  1  0.653400  0.230300  0.272860  1.0  -0.0993
  C  C406  1  0.966600  0.500200  0.282500  1.0  -0.057
  C  C407  1  0.653500  0.417400  0.298080  1.0  0.2781
  C  C408  1  0.436400  0.379600  0.349400  1.0  0.2388
  C  C409  1  0.686800  0.565400  0.421510  1.0  0.7135
  C  C410  1  0.683500  0.568000  0.462000  1.0  -0.1139
  C  C411  1  0.626000  0.271300  0.295300  1.0  0.6734
  C  C412  1  0.699700  0.147400  0.267300  1.0  -0.0281
  C  C413  1  0.684000  0.197100  0.215000  1.0  -0.0296
  C  C414  1  0.673100  0.185400  0.288500  1.0  -0.0641
  C  C415  1  0.659200  0.236000  0.236100  1.0  -0.0119
  C  C416  1  0.704900  0.153400  0.230670  1.0  -0.0997
  C  C417  1  0.547500  0.387900  0.481070  1.0  -0.0492
  C  C418  1  0.634300  0.541700  0.481100  1.0  -0.0413
  C  C419  1  0.727600  0.596200  0.480900  1.0  -0.0414
  C  C420  1  0.575500  0.348900  0.462200  1.0  -0.126
  C  C421  1  0.733900  0.113500  0.206890  1.0  0.6973
  C  C422  1  0.393400  0.362800  0.300300  1.0  0.2339
  C  C423  1  0.577500  0.348800  0.421400  1.0  0.6967
  C  C424  1  0.606300  0.311800  0.480100  1.0  -0.0513
  C  C425  1  0.866400  0.952500  0.847630  1.0  0.2524
  C  C426  1  0.846600  0.730300  0.772860  1.0  -0.0994
  C  C427  1  0.533400  0.000200  0.782500  1.0  -0.056
  C  C428  1  0.846500  0.917400  0.798080  1.0  0.2772
  C  C429  1  0.063600  0.879600  0.849400  1.0  0.2385
  C  C430  1  0.813200  0.065400  0.921510  1.0  0.7122
  C  C431  1  0.816500  0.068000  0.962000  1.0  -0.1148
  C  C432  1  0.874000  0.771300  0.795300  1.0  0.6752
  C  C433  1  0.800300  0.647400  0.767300  1.0  -0.0285
  C  C434  1  0.816000  0.697100  0.715000  1.0  -0.0316
  C  C435  1  0.826900  0.685400  0.788500  1.0  -0.0638
  C  C436  1  0.840800  0.736000  0.736100  1.0  -0.0132
  C  C437  1  0.795100  0.653400  0.730670  1.0  -0.0991
  C  C438  1  0.952500  0.887900  0.981070  1.0  -0.0487
  C  C439  1  0.865700  0.041700  0.981100  1.0  -0.0433
  C  C440  1  0.772400  0.096200  0.980900  1.0  -0.0434
  C  C441  1  0.924500  0.848900  0.962200  1.0  -0.1263
  C  C442  1  0.766100  0.613500  0.706890  1.0  0.697
  C  C443  1  0.106600  0.862800  0.800300  1.0  0.2348
  C  C444  1  0.922500  0.848800  0.921400  1.0  0.6974
  C  C445  1  0.893700  0.811800  0.980100  1.0  -0.05
  C  C446  1  0.366400  0.452500  0.847630  1.0  0.2524
  C  C447  1  0.346600  0.230300  0.772860  1.0  -0.0994
  C  C448  1  0.033400  0.500200  0.782500  1.0  -0.056
  C  C449  1  0.346500  0.417400  0.798080  1.0  0.2772
  C  C450  1  0.563600  0.379600  0.849400  1.0  0.2385
  C  C451  1  0.313200  0.565400  0.921510  1.0  0.7122
  C  C452  1  0.316500  0.568000  0.962000  1.0  -0.1148
  C  C453  1  0.374000  0.271300  0.795300  1.0  0.6752
  C  C454  1  0.300300  0.147400  0.767300  1.0  -0.0285
  C  C455  1  0.316000  0.197100  0.715000  1.0  -0.0316
  C  C456  1  0.326900  0.185400  0.788500  1.0  -0.0638
  C  C457  1  0.340800  0.236000  0.736100  1.0  -0.0132
  C  C458  1  0.295100  0.153400  0.730670  1.0  -0.0991
  C  C459  1  0.452500  0.387900  0.981070  1.0  -0.0487
  C  C460  1  0.365700  0.541700  0.981100  1.0  -0.0433
  C  C461  1  0.272400  0.596200  0.980900  1.0  -0.0434
  C  C462  1  0.424500  0.348900  0.962200  1.0  -0.1263
  C  C463  1  0.266100  0.113500  0.706890  1.0  0.697
  C  C464  1  0.606600  0.362800  0.800300  1.0  0.2348
  C  C465  1  0.422500  0.348800  0.921400  1.0  0.6974
  C  C466  1  0.393700  0.311800  0.980100  1.0  -0.05
  C  C467  1  0.133600  0.047500  0.847630  1.0  0.2525
  C  C468  1  0.153400  0.269700  0.772860  1.0  -0.0984
  C  C469  1  0.466600  0.999800  0.782500  1.0  -0.057
  C  C470  1  0.153500  0.082600  0.798080  1.0  0.2778
  C  C471  1  0.936400  0.120400  0.849400  1.0  0.2385
  C  C472  1  0.186800  0.934600  0.921510  1.0  0.7133
  C  C473  1  0.183500  0.932000  0.962000  1.0  -0.1138
  C  C474  1  0.126000  0.228700  0.795300  1.0  0.6728
  C  C475  1  0.199700  0.352600  0.767300  1.0  -0.0288
  C  C476  1  0.184000  0.302900  0.715000  1.0  -0.0292
  C  C477  1  0.173100  0.314600  0.788500  1.0  -0.063
  C  C478  1  0.159200  0.264000  0.736100  1.0  -0.0116
  C  C479  1  0.204900  0.346600  0.730670  1.0  -0.0993
  C  C480  1  0.047500  0.112100  0.981070  1.0  -0.0498
  C  C481  1  0.134300  0.958300  0.981100  1.0  -0.0414
  C  C482  1  0.227600  0.903800  0.980900  1.0  -0.0426
  C  C483  1  0.075500  0.151100  0.962200  1.0  -0.1254
  C  C484  1  0.233900  0.386500  0.706890  1.0  0.6981
  C  C485  1  0.893400  0.137200  0.800300  1.0  0.2338
  C  C486  1  0.077500  0.151200  0.921400  1.0  0.6969
  C  C487  1  0.106300  0.188200  0.980100  1.0  -0.0505
  C  C488  1  0.633600  0.547500  0.847630  1.0  0.2525
  C  C489  1  0.653400  0.769700  0.772860  1.0  -0.0984
  C  C490  1  0.966600  0.499800  0.782500  1.0  -0.057
  C  C491  1  0.653500  0.582600  0.798080  1.0  0.2778
  C  C492  1  0.436400  0.620400  0.849400  1.0  0.2385
  C  C493  1  0.686800  0.434600  0.921510  1.0  0.7133
  C  C494  1  0.683500  0.432000  0.962000  1.0  -0.1138
  C  C495  1  0.626000  0.728700  0.795300  1.0  0.6728
  C  C496  1  0.699700  0.852600  0.767300  1.0  -0.0288
  C  C497  1  0.684000  0.802900  0.715000  1.0  -0.0292
  C  C498  1  0.673100  0.814600  0.788500  1.0  -0.063
  C  C499  1  0.659200  0.764000  0.736100  1.0  -0.0116
  C  C500  1  0.704900  0.846600  0.730670  1.0  -0.0993
  C  C501  1  0.547500  0.612100  0.981070  1.0  -0.0498
  C  C502  1  0.634300  0.458300  0.981100  1.0  -0.0414
  C  C503  1  0.727600  0.403800  0.980900  1.0  -0.0426
  C  C504  1  0.575500  0.651100  0.962200  1.0  -0.1254
  C  C505  1  0.733900  0.886500  0.706890  1.0  0.6981
  C  C506  1  0.393400  0.637200  0.800300  1.0  0.2338
  C  C507  1  0.577500  0.651200  0.921400  1.0  0.6969
  C  C508  1  0.606300  0.688200  0.980100  1.0  -0.0505
  C  C509  1  0.133600  0.952500  0.652370  1.0  0.2532
  C  C510  1  0.153400  0.730300  0.727140  1.0  -0.1001
  C  C511  1  0.466600  0.000200  0.717500  1.0  -0.0557
  C  C512  1  0.153500  0.917400  0.701920  1.0  0.2771
  C  C513  1  0.936400  0.879600  0.650600  1.0  0.2384
  C  C514  1  0.186800  0.065400  0.578490  1.0  0.7154
  C  C515  1  0.183500  0.068000  0.538000  1.0  -0.1137
  C  C516  1  0.126000  0.771300  0.704700  1.0  0.6742
  C  C517  1  0.199700  0.647400  0.732700  1.0  -0.0279
  C  C518  1  0.184000  0.697100  0.785000  1.0  -0.0292
  C  C519  1  0.173100  0.685400  0.711500  1.0  -0.0602
  C  C520  1  0.159200  0.736000  0.763900  1.0  -0.0112
  C  C521  1  0.204900  0.653400  0.769330  1.0  -0.0984
  C  C522  1  0.047500  0.887900  0.518930  1.0  -0.0488
  C  C523  1  0.134300  0.041700  0.518900  1.0  -0.042
  C  C524  1  0.227600  0.096200  0.519100  1.0  -0.0403
  C  C525  1  0.075500  0.848900  0.537800  1.0  -0.1276
  C  C526  1  0.233900  0.613500  0.793110  1.0  0.6949
  C  C527  1  0.893400  0.862800  0.699700  1.0  0.2349
  C  C528  1  0.077500  0.848800  0.578600  1.0  0.6965
  C  C529  1  0.106300  0.811800  0.519900  1.0  -0.0502
  C  C530  1  0.633600  0.452500  0.652370  1.0  0.2532
  C  C531  1  0.653400  0.230300  0.727140  1.0  -0.1001
  C  C532  1  0.966600  0.500200  0.717500  1.0  -0.0557
  C  C533  1  0.653500  0.417400  0.701920  1.0  0.2771
  C  C534  1  0.436400  0.379600  0.650600  1.0  0.2384
  C  C535  1  0.686800  0.565400  0.578490  1.0  0.7154
  C  C536  1  0.683500  0.568000  0.538000  1.0  -0.1137
  C  C537  1  0.626000  0.271300  0.704700  1.0  0.6742
  C  C538  1  0.699700  0.147400  0.732700  1.0  -0.0279
  C  C539  1  0.684000  0.197100  0.785000  1.0  -0.0292
  C  C540  1  0.673100  0.185400  0.711500  1.0  -0.0602
  C  C541  1  0.659200  0.236000  0.763900  1.0  -0.0112
  C  C542  1  0.704900  0.153400  0.769330  1.0  -0.0984
  C  C543  1  0.547500  0.387900  0.518930  1.0  -0.0488
  C  C544  1  0.634300  0.541700  0.518900  1.0  -0.042
  C  C545  1  0.727600  0.596200  0.519100  1.0  -0.0403
  C  C546  1  0.575500  0.348900  0.537800  1.0  -0.1276
  C  C547  1  0.733900  0.113500  0.793110  1.0  0.6949
  C  C548  1  0.393400  0.362800  0.699700  1.0  0.2349
  C  C549  1  0.577500  0.348800  0.578600  1.0  0.6965
  C  C550  1  0.606300  0.311800  0.519900  1.0  -0.0502
  C  C551  1  0.866400  0.047500  0.652370  1.0  0.2527
  C  C552  1  0.846600  0.269700  0.727140  1.0  -0.1001
  C  C553  1  0.533400  0.999800  0.717500  1.0  -0.0555
  C  C554  1  0.846500  0.082600  0.701920  1.0  0.2775
  C  C555  1  0.063600  0.120400  0.650600  1.0  0.2385
  C  C556  1  0.813200  0.934600  0.578490  1.0  0.7131
  C  C557  1  0.816500  0.932000  0.538000  1.0  -0.1145
  C  C558  1  0.874000  0.228700  0.704700  1.0  0.6739
  C  C559  1  0.800300  0.352600  0.732700  1.0  -0.0292
  C  C560  1  0.816000  0.302900  0.785000  1.0  -0.0294
  C  C561  1  0.826900  0.314600  0.711500  1.0  -0.0626
  C  C562  1  0.840800  0.264000  0.763900  1.0  -0.0126
  C  C563  1  0.795100  0.346600  0.769330  1.0  -0.0994
  C  C564  1  0.952500  0.112100  0.518930  1.0  -0.0481
  C  C565  1  0.865700  0.958300  0.518900  1.0  -0.0422
  C  C566  1  0.772400  0.903800  0.519100  1.0  -0.0423
  C  C567  1  0.924500  0.151100  0.537800  1.0  -0.1282
  C  C568  1  0.766100  0.386500  0.793110  1.0  0.6966
  C  C569  1  0.106600  0.137200  0.699700  1.0  0.2354
  C  C570  1  0.922500  0.151200  0.578600  1.0  0.6974
  C  C571  1  0.893700  0.188200  0.519900  1.0  -0.0492
  C  C572  1  0.366400  0.547500  0.652370  1.0  0.2527
  C  C573  1  0.346600  0.769700  0.727140  1.0  -0.1001
  C  C574  1  0.033400  0.499800  0.717500  1.0  -0.0555
  C  C575  1  0.346500  0.582600  0.701920  1.0  0.2775
  C  C576  1  0.563600  0.620400  0.650600  1.0  0.2385
  C  C577  1  0.313200  0.434600  0.578490  1.0  0.7131
  C  C578  1  0.316500  0.432000  0.538000  1.0  -0.1145
  C  C579  1  0.374000  0.728700  0.704700  1.0  0.6739
  C  C580  1  0.300300  0.852600  0.732700  1.0  -0.0292
  C  C581  1  0.316000  0.802900  0.785000  1.0  -0.0294
  C  C582  1  0.326900  0.814600  0.711500  1.0  -0.0626
  C  C583  1  0.340800  0.764000  0.763900  1.0  -0.0126
  C  C584  1  0.295100  0.846600  0.769330  1.0  -0.0994
  C  C585  1  0.452500  0.612100  0.518930  1.0  -0.0481
  C  C586  1  0.365700  0.458300  0.518900  1.0  -0.0422
  C  C587  1  0.272400  0.403800  0.519100  1.0  -0.0423
  C  C588  1  0.424500  0.651100  0.537800  1.0  -0.1282
  C  C589  1  0.266100  0.886500  0.793110  1.0  0.6966
  C  C590  1  0.606600  0.637200  0.699700  1.0  0.2354
  C  C591  1  0.422500  0.651200  0.578600  1.0  0.6974
  C  C592  1  0.393700  0.688200  0.519900  1.0  -0.0492
  C  C593  1  0.358700  0.000000  0.250000  1.0  0.6666
  C  C594  1  0.433100  0.000000  0.250000  1.0  -0.1227
  C  C595  1  0.858700  0.500000  0.250000  1.0  0.6666
  C  C596  1  0.933100  0.500000  0.250000  1.0  -0.1227
  C  C597  1  0.641300  0.000000  0.250000  1.0  0.6654
  C  C598  1  0.566900  0.000000  0.250000  1.0  -0.122
  C  C599  1  0.141300  0.500000  0.250000  1.0  0.6654
  C  C600  1  0.066900  0.500000  0.250000  1.0  -0.122
  C  C601  1  0.641300  0.000000  0.750000  1.0  0.6654
  C  C602  1  0.566900  0.000000  0.750000  1.0  -0.122
  C  C603  1  0.141300  0.500000  0.750000  1.0  0.6654
  C  C604  1  0.066900  0.500000  0.750000  1.0  -0.122
  C  C605  1  0.358700  0.000000  0.750000  1.0  0.6666
  C  C606  1  0.433100  0.000000  0.750000  1.0  -0.1227
  C  C607  1  0.858700  0.500000  0.750000  1.0  0.6666
  C  C608  1  0.933100  0.500000  0.750000  1.0  -0.1227
  N  N609  1  0.126900  0.093100  0.169850  1.0  -0.4329
  N  N610  1  0.882100  0.112200  0.168360  1.0  -0.4207
  N  N611  1  0.162100  0.012400  0.172070  1.0  -0.3223
  N  N612  1  0.175300  0.035700  0.204650  1.0  -0.3051
  N  N613  1  0.979100  0.147600  0.168430  1.0  -0.3226
  N  N614  1  0.950100  0.158700  0.201030  1.0  -0.2487
  N  N615  1  0.626900  0.593100  0.169850  1.0  -0.4329
  N  N616  1  0.382100  0.612200  0.168360  1.0  -0.4207
  N  N617  1  0.662100  0.512400  0.172070  1.0  -0.3223
  N  N618  1  0.675300  0.535700  0.204650  1.0  -0.3051
  N  N619  1  0.479100  0.647600  0.168430  1.0  -0.3226
  N  N620  1  0.450100  0.658700  0.201030  1.0  -0.2487
  N  N621  1  0.873100  0.906900  0.169850  1.0  -0.4341
  N  N622  1  0.117900  0.887800  0.168360  1.0  -0.4224
  N  N623  1  0.837900  0.987600  0.172070  1.0  -0.3225
  N  N624  1  0.824700  0.964300  0.204650  1.0  -0.3056
  N  N625  1  0.020900  0.852400  0.168430  1.0  -0.3221
  N  N626  1  0.049900  0.841300  0.201030  1.0  -0.2483
  N  N627  1  0.373100  0.406900  0.169850  1.0  -0.4341
  N  N628  1  0.617900  0.387800  0.168360  1.0  -0.4224
  N  N629  1  0.337900  0.487600  0.172070  1.0  -0.3225
  N  N630  1  0.324700  0.464300  0.204650  1.0  -0.3056
  N  N631  1  0.520900  0.352400  0.168430  1.0  -0.3221
  N  N632  1  0.549900  0.341300  0.201030  1.0  -0.2483
  N  N633  1  0.873100  0.093100  0.330150  1.0  -0.4316
  N  N634  1  0.117900  0.112200  0.331640  1.0  -0.422
  N  N635  1  0.837900  0.012400  0.327930  1.0  -0.3234
  N  N636  1  0.824700  0.035700  0.295350  1.0  -0.3035
  N  N637  1  0.020900  0.147600  0.331570  1.0  -0.322
  N  N638  1  0.049900  0.158700  0.298970  1.0  -0.2526
  N  N639  1  0.373100  0.593100  0.330150  1.0  -0.4316
  N  N640  1  0.617900  0.612200  0.331640  1.0  -0.422
  N  N641  1  0.337900  0.512400  0.327930  1.0  -0.3234
  N  N642  1  0.324700  0.535700  0.295350  1.0  -0.3035
  N  N643  1  0.520900  0.647600  0.331570  1.0  -0.322
  N  N644  1  0.549900  0.658700  0.298970  1.0  -0.2526
  N  N645  1  0.126900  0.906900  0.330150  1.0  -0.4339
  N  N646  1  0.882100  0.887800  0.331640  1.0  -0.4209
  N  N647  1  0.162100  0.987600  0.327930  1.0  -0.322
  N  N648  1  0.175300  0.964300  0.295350  1.0  -0.3043
  N  N649  1  0.979100  0.852400  0.331570  1.0  -0.3217
  N  N650  1  0.950100  0.841300  0.298970  1.0  -0.2535
  N  N651  1  0.626900  0.406900  0.330150  1.0  -0.4339
  N  N652  1  0.382100  0.387800  0.331640  1.0  -0.4209
  N  N653  1  0.662100  0.487600  0.327930  1.0  -0.322
  N  N654  1  0.675300  0.464300  0.295350  1.0  -0.3043
  N  N655  1  0.479100  0.352400  0.331570  1.0  -0.3217
  N  N656  1  0.450100  0.341300  0.298970  1.0  -0.2535
  N  N657  1  0.873100  0.906900  0.830150  1.0  -0.433
  N  N658  1  0.117900  0.887800  0.831640  1.0  -0.4226
  N  N659  1  0.837900  0.987600  0.827930  1.0  -0.3225
  N  N660  1  0.824700  0.964300  0.795350  1.0  -0.3046
  N  N661  1  0.020900  0.852400  0.831570  1.0  -0.3225
  N  N662  1  0.049900  0.841300  0.798970  1.0  -0.2476
  N  N663  1  0.373100  0.406900  0.830150  1.0  -0.433
  N  N664  1  0.617900  0.387800  0.831640  1.0  -0.4226
  N  N665  1  0.337900  0.487600  0.827930  1.0  -0.3225
  N  N666  1  0.324700  0.464300  0.795350  1.0  -0.3046
  N  N667  1  0.520900  0.352400  0.831570  1.0  -0.3225
  N  N668  1  0.549900  0.341300  0.798970  1.0  -0.2476
  N  N669  1  0.126900  0.093100  0.830150  1.0  -0.4323
  N  N670  1  0.882100  0.112200  0.831640  1.0  -0.4208
  N  N671  1  0.162100  0.012400  0.827930  1.0  -0.3224
  N  N672  1  0.175300  0.035700  0.795350  1.0  -0.3025
  N  N673  1  0.979100  0.147600  0.831570  1.0  -0.323
  N  N674  1  0.950100  0.158700  0.798970  1.0  -0.2495
  N  N675  1  0.626900  0.593100  0.830150  1.0  -0.4323
  N  N676  1  0.382100  0.612200  0.831640  1.0  -0.4208
  N  N677  1  0.662100  0.512400  0.827930  1.0  -0.3224
  N  N678  1  0.675300  0.535700  0.795350  1.0  -0.3025
  N  N679  1  0.479100  0.647600  0.831570  1.0  -0.323
  N  N680  1  0.450100  0.658700  0.798970  1.0  -0.2495
  N  N681  1  0.126900  0.906900  0.669850  1.0  -0.4349
  N  N682  1  0.882100  0.887800  0.668360  1.0  -0.4202
  N  N683  1  0.162100  0.987600  0.672070  1.0  -0.3219
  N  N684  1  0.175300  0.964300  0.704650  1.0  -0.3051
  N  N685  1  0.979100  0.852400  0.668430  1.0  -0.3212
  N  N686  1  0.950100  0.841300  0.701030  1.0  -0.2536
  N  N687  1  0.626900  0.406900  0.669850  1.0  -0.4349
  N  N688  1  0.382100  0.387800  0.668360  1.0  -0.4202
  N  N689  1  0.662100  0.487600  0.672070  1.0  -0.3219
  N  N690  1  0.675300  0.464300  0.704650  1.0  -0.3051
  N  N691  1  0.479100  0.352400  0.668430  1.0  -0.3212
  N  N692  1  0.450100  0.341300  0.701030  1.0  -0.2536
  N  N693  1  0.873100  0.093100  0.669850  1.0  -0.4323
  N  N694  1  0.117900  0.112200  0.668360  1.0  -0.4227
  N  N695  1  0.837900  0.012400  0.672070  1.0  -0.3234
  N  N696  1  0.824700  0.035700  0.704650  1.0  -0.3062
  N  N697  1  0.020900  0.147600  0.668430  1.0  -0.3216
  N  N698  1  0.049900  0.158700  0.701030  1.0  -0.253
  N  N699  1  0.373100  0.593100  0.669850  1.0  -0.4323
  N  N700  1  0.617900  0.612200  0.668360  1.0  -0.4227
  N  N701  1  0.337900  0.512400  0.672070  1.0  -0.3234
  N  N702  1  0.324700  0.535700  0.704650  1.0  -0.3062
  N  N703  1  0.520900  0.647600  0.668430  1.0  -0.3216
  N  N704  1  0.549900  0.658700  0.701030  1.0  -0.253
  O  O705  1  0.098300  0.191110  0.219220  1.0  -0.7089
  O  O706  1  0.268000  0.421550  0.279000  1.0  -0.6889
  O  O707  1  0.226500  0.382100  0.326680  1.0  -0.6373
  O  O708  1  0.332700  0.012000  0.221220  1.0  -0.5867
  O  O709  1  0.146700  0.961000  0.095230  1.0  -0.6599
  O  O710  1  0.052500  0.117900  0.094600  1.0  -0.5751
  O  O711  1  0.130900  0.231700  0.170690  1.0  -0.6058
  O  O712  1  0.228900  0.909900  0.094500  1.0  -0.6011
  O  O713  1  0.097000  0.188900  0.094800  1.0  -0.5663
  O  O714  1  0.598300  0.691110  0.219220  1.0  -0.7089
  O  O715  1  0.768000  0.921550  0.279000  1.0  -0.6889
  O  O716  1  0.726500  0.882100  0.326680  1.0  -0.6373
  O  O717  1  0.832700  0.512000  0.221220  1.0  -0.5867
  O  O718  1  0.646700  0.461000  0.095230  1.0  -0.6599
  O  O719  1  0.552500  0.617900  0.094600  1.0  -0.5751
  O  O720  1  0.630900  0.731700  0.170690  1.0  -0.6058
  O  O721  1  0.728900  0.409900  0.094500  1.0  -0.6011
  O  O722  1  0.597000  0.688900  0.094800  1.0  -0.5663
  O  O723  1  0.901700  0.808890  0.219220  1.0  -0.7084
  O  O724  1  0.732000  0.578450  0.279000  1.0  -0.6888
  O  O725  1  0.773500  0.617900  0.326680  1.0  -0.6395
  O  O726  1  0.667300  0.988000  0.221220  1.0  -0.5874
  O  O727  1  0.853300  0.039000  0.095230  1.0  -0.6599
  O  O728  1  0.947500  0.882100  0.094600  1.0  -0.5763
  O  O729  1  0.869100  0.768300  0.170690  1.0  -0.6052
  O  O730  1  0.771100  0.090100  0.094500  1.0  -0.5995
  O  O731  1  0.903000  0.811100  0.094800  1.0  -0.5676
  O  O732  1  0.401700  0.308890  0.219220  1.0  -0.7084
  O  O733  1  0.232000  0.078450  0.279000  1.0  -0.6888
  O  O734  1  0.273500  0.117900  0.326680  1.0  -0.6395
  O  O735  1  0.167300  0.488000  0.221220  1.0  -0.5874
  O  O736  1  0.353300  0.539000  0.095230  1.0  -0.6599
  O  O737  1  0.447500  0.382100  0.094600  1.0  -0.5763
  O  O738  1  0.369100  0.268300  0.170690  1.0  -0.6052
  O  O739  1  0.271100  0.590100  0.094500  1.0  -0.5995
  O  O740  1  0.403000  0.311100  0.094800  1.0  -0.5676
  O  O741  1  0.901700  0.191110  0.280780  1.0  -0.7065
  O  O742  1  0.732000  0.421550  0.221000  1.0  -0.6887
  O  O743  1  0.773500  0.382100  0.173320  1.0  -0.636
  O  O744  1  0.667300  0.012000  0.278780  1.0  -0.5901
  O  O745  1  0.853300  0.961000  0.404770  1.0  -0.6614
  O  O746  1  0.947500  0.117900  0.405400  1.0  -0.5762
  O  O747  1  0.869100  0.231700  0.329310  1.0  -0.6052
  O  O748  1  0.771100  0.909900  0.405500  1.0  -0.6001
  O  O749  1  0.903000  0.188900  0.405200  1.0  -0.5689
  O  O750  1  0.401700  0.691110  0.280780  1.0  -0.7065
  O  O751  1  0.232000  0.921550  0.221000  1.0  -0.6887
  O  O752  1  0.273500  0.882100  0.173320  1.0  -0.636
  O  O753  1  0.167300  0.512000  0.278780  1.0  -0.5901
  O  O754  1  0.353300  0.461000  0.404770  1.0  -0.6614
  O  O755  1  0.447500  0.617900  0.405400  1.0  -0.5762
  O  O756  1  0.369100  0.731700  0.329310  1.0  -0.6052
  O  O757  1  0.271100  0.409900  0.405500  1.0  -0.6001
  O  O758  1  0.403000  0.688900  0.405200  1.0  -0.5689
  O  O759  1  0.098300  0.808890  0.280780  1.0  -0.7086
  O  O760  1  0.268000  0.578450  0.221000  1.0  -0.6899
  O  O761  1  0.226500  0.617900  0.173320  1.0  -0.6364
  O  O762  1  0.332700  0.988000  0.278780  1.0  -0.589
  O  O763  1  0.146700  0.039000  0.404770  1.0  -0.6596
  O  O764  1  0.052500  0.882100  0.405400  1.0  -0.5754
  O  O765  1  0.130900  0.768300  0.329310  1.0  -0.6056
  O  O766  1  0.228900  0.090100  0.405500  1.0  -0.603
  O  O767  1  0.097000  0.811100  0.405200  1.0  -0.5677
  O  O768  1  0.598300  0.308890  0.280780  1.0  -0.7086
  O  O769  1  0.768000  0.078450  0.221000  1.0  -0.6899
  O  O770  1  0.726500  0.117900  0.173320  1.0  -0.6364
  O  O771  1  0.832700  0.488000  0.278780  1.0  -0.589
  O  O772  1  0.646700  0.539000  0.404770  1.0  -0.6596
  O  O773  1  0.552500  0.382100  0.405400  1.0  -0.5754
  O  O774  1  0.630900  0.268300  0.329310  1.0  -0.6056
  O  O775  1  0.728900  0.590100  0.405500  1.0  -0.603
  O  O776  1  0.597000  0.311100  0.405200  1.0  -0.5677
  O  O777  1  0.901700  0.808890  0.780780  1.0  -0.7071
  O  O778  1  0.732000  0.578450  0.721000  1.0  -0.6898
  O  O779  1  0.773500  0.617900  0.673320  1.0  -0.6363
  O  O780  1  0.667300  0.988000  0.778780  1.0  -0.59
  O  O781  1  0.853300  0.039000  0.904770  1.0  -0.6603
  O  O782  1  0.947500  0.882100  0.905400  1.0  -0.5765
  O  O783  1  0.869100  0.768300  0.829310  1.0  -0.6063
  O  O784  1  0.771100  0.090100  0.905500  1.0  -0.6005
  O  O785  1  0.903000  0.811100  0.905200  1.0  -0.5678
  O  O786  1  0.401700  0.308890  0.780780  1.0  -0.7071
  O  O787  1  0.232000  0.078450  0.721000  1.0  -0.6898
  O  O788  1  0.273500  0.117900  0.673320  1.0  -0.6363
  O  O789  1  0.167300  0.488000  0.778780  1.0  -0.59
  O  O790  1  0.353300  0.539000  0.904770  1.0  -0.6603
  O  O791  1  0.447500  0.382100  0.905400  1.0  -0.5765
  O  O792  1  0.369100  0.268300  0.829310  1.0  -0.6063
  O  O793  1  0.271100  0.590100  0.905500  1.0  -0.6005
  O  O794  1  0.403000  0.311100  0.905200  1.0  -0.5678
  O  O795  1  0.098300  0.191110  0.780780  1.0  -0.7077
  O  O796  1  0.268000  0.421550  0.721000  1.0  -0.6894
  O  O797  1  0.226500  0.382100  0.673320  1.0  -0.6363
  O  O798  1  0.332700  0.012000  0.778780  1.0  -0.589
  O  O799  1  0.146700  0.961000  0.904770  1.0  -0.6601
  O  O800  1  0.052500  0.117900  0.905400  1.0  -0.5754
  O  O801  1  0.130900  0.231700  0.829310  1.0  -0.6042
  O  O802  1  0.228900  0.909900  0.905500  1.0  -0.6018
  O  O803  1  0.097000  0.188900  0.905200  1.0  -0.5682
  O  O804  1  0.598300  0.691110  0.780780  1.0  -0.7077
  O  O805  1  0.768000  0.921550  0.721000  1.0  -0.6894
  O  O806  1  0.726500  0.882100  0.673320  1.0  -0.6363
  O  O807  1  0.832700  0.512000  0.778780  1.0  -0.589
  O  O808  1  0.646700  0.461000  0.904770  1.0  -0.6601
  O  O809  1  0.552500  0.617900  0.905400  1.0  -0.5754
  O  O810  1  0.630900  0.731700  0.829310  1.0  -0.6042
  O  O811  1  0.728900  0.409900  0.905500  1.0  -0.6018
  O  O812  1  0.597000  0.688900  0.905200  1.0  -0.5682
  O  O813  1  0.098300  0.808890  0.719220  1.0  -0.7098
  O  O814  1  0.268000  0.578450  0.779000  1.0  -0.6891
  O  O815  1  0.226500  0.617900  0.826680  1.0  -0.6372
  O  O816  1  0.332700  0.988000  0.721220  1.0  -0.5873
  O  O817  1  0.146700  0.039000  0.595230  1.0  -0.6595
  O  O818  1  0.052500  0.882100  0.594600  1.0  -0.5754
  O  O819  1  0.130900  0.768300  0.670690  1.0  -0.6044
  O  O820  1  0.228900  0.090100  0.594500  1.0  -0.6023
  O  O821  1  0.097000  0.811100  0.594800  1.0  -0.5674
  O  O822  1  0.598300  0.308890  0.719220  1.0  -0.7098
  O  O823  1  0.768000  0.078450  0.779000  1.0  -0.6891
  O  O824  1  0.726500  0.117900  0.826680  1.0  -0.6372
  O  O825  1  0.832700  0.488000  0.721220  1.0  -0.5873
  O  O826  1  0.646700  0.539000  0.595230  1.0  -0.6595
  O  O827  1  0.552500  0.382100  0.594600  1.0  -0.5754
  O  O828  1  0.630900  0.268300  0.670690  1.0  -0.6044
  O  O829  1  0.728900  0.590100  0.594500  1.0  -0.6023
  O  O830  1  0.597000  0.311100  0.594800  1.0  -0.5674
  O  O831  1  0.901700  0.191110  0.719220  1.0  -0.7078
  O  O832  1  0.732000  0.421550  0.779000  1.0  -0.6879
  O  O833  1  0.773500  0.382100  0.826680  1.0  -0.6395
  O  O834  1  0.667300  0.012000  0.721220  1.0  -0.5869
  O  O835  1  0.853300  0.961000  0.595230  1.0  -0.6611
  O  O836  1  0.947500  0.117900  0.594600  1.0  -0.5757
  O  O837  1  0.869100  0.231700  0.670690  1.0  -0.6062
  O  O838  1  0.771100  0.909900  0.594500  1.0  -0.5992
  O  O839  1  0.903000  0.188900  0.594800  1.0  -0.5675
  O  O840  1  0.401700  0.691110  0.719220  1.0  -0.7078
  O  O841  1  0.232000  0.921550  0.779000  1.0  -0.6879
  O  O842  1  0.273500  0.882100  0.826680  1.0  -0.6395
  O  O843  1  0.167300  0.512000  0.721220  1.0  -0.5869
  O  O844  1  0.353300  0.461000  0.595230  1.0  -0.6611
  O  O845  1  0.447500  0.617900  0.594600  1.0  -0.5757
  O  O846  1  0.369100  0.731700  0.670690  1.0  -0.6062
  O  O847  1  0.271100  0.409900  0.594500  1.0  -0.5992
  O  O848  1  0.403000  0.688900  0.594800  1.0  -0.5675
