# generated using pymatgen
data_Zn4H36C60O13
_symmetry_space_group_name_H-M   'P 1'
_cell_length_a   23.45200000
_cell_length_b   23.45200000
_cell_length_c   79.27000000
_cell_angle_alpha   90.00000000
_cell_angle_beta   90.00000000
_cell_angle_gamma   120.00000000
_symmetry_Int_Tables_number   1
_chemical_formula_structural   Zn4H36C60O13
_chemical_formula_sum   'Zn48 H432 C720 O156'
_cell_volume   37757.15483711
_cell_formula_units_Z   12
loop_
 _symmetry_equiv_pos_site_id
 _symmetry_equiv_pos_as_xyz
  1  'x, y, z'
loop_
 _atom_site_type_symbol
 _atom_site_label
 _atom_site_symmetry_multiplicity
 _atom_site_fract_x
 _atom_site_fract_y
 _atom_site_fract_z
 _atom_site_occupancy
 _atom_site_charge
  Zn  Zn1  1  0.082580  0.070070  0.148300  1.0  1.0493
  Zn  Zn2  1  0.749240  0.403400  0.481630  1.0  1.0493
  Zn  Zn3  1  0.415910  0.736740  0.814970  1.0  1.0493
  Zn  Zn4  1  0.929930  0.012510  0.148300  1.0  1.0494
  Zn  Zn5  1  0.596600  0.345840  0.481630  1.0  1.0497
  Zn  Zn6  1  0.263260  0.679170  0.814970  1.0  1.0495
  Zn  Zn7  1  0.987490  0.917420  0.148300  1.0  1.0491
  Zn  Zn8  1  0.654160  0.250760  0.481630  1.0  1.0495
  Zn  Zn9  1  0.320830  0.584090  0.814970  1.0  1.0495
  Zn  Zn10  1  0.929930  0.917420  0.648300  1.0  1.0491
  Zn  Zn11  1  0.596600  0.250760  0.981630  1.0  1.049
  Zn  Zn12  1  0.263260  0.584090  0.314970  1.0  1.0491
  Zn  Zn13  1  0.987490  0.070070  0.648300  1.0  1.0493
  Zn  Zn14  1  0.654160  0.403400  0.981630  1.0  1.0496
  Zn  Zn15  1  0.320830  0.736740  0.314970  1.0  1.0494
  Zn  Zn16  1  0.082580  0.012510  0.648300  1.0  1.0494
  Zn  Zn17  1  0.749240  0.345840  0.981630  1.0  1.0497
  Zn  Zn18  1  0.415910  0.679170  0.314970  1.0  1.0497
  Zn  Zn19  1  0.000000  0.000000  0.182390  1.0  1.0475
  Zn  Zn20  1  0.666667  0.333333  0.515730  1.0  1.0376
  Zn  Zn21  1  0.333333  0.666667  0.849060  1.0  1.0529
  Zn  Zn22  1  0.000000  0.000000  0.682390  1.0  1.0475
  Zn  Zn23  1  0.666667  0.333333  0.015730  1.0  1.0376
  Zn  Zn24  1  0.333333  0.666667  0.349060  1.0  1.0529
  Zn  Zn25  1  0.653560  0.404390  0.209090  1.0  1.1144
  Zn  Zn26  1  0.320230  0.737720  0.542430  1.0  1.1143
  Zn  Zn27  1  0.986900  0.071050  0.875760  1.0  1.1145
  Zn  Zn28  1  0.595610  0.249180  0.209090  1.0  1.1136
  Zn  Zn29  1  0.262280  0.582510  0.542430  1.0  1.1136
  Zn  Zn30  1  0.928950  0.915840  0.875760  1.0  1.1139
  Zn  Zn31  1  0.750820  0.346440  0.209090  1.0  1.1125
  Zn  Zn32  1  0.417490  0.679770  0.542430  1.0  1.1128
  Zn  Zn33  1  0.084160  0.013100  0.875760  1.0  1.113
  Zn  Zn34  1  0.595610  0.346440  0.709090  1.0  1.1137
  Zn  Zn35  1  0.262280  0.679770  0.042430  1.0  1.1136
  Zn  Zn36  1  0.928950  0.013100  0.375760  1.0  1.1138
  Zn  Zn37  1  0.750820  0.404390  0.709090  1.0  1.1131
  Zn  Zn38  1  0.417490  0.737720  0.042430  1.0  1.1132
  Zn  Zn39  1  0.084160  0.071050  0.375760  1.0  1.1135
  Zn  Zn40  1  0.653560  0.249180  0.709090  1.0  1.1135
  Zn  Zn41  1  0.320230  0.582510  0.042430  1.0  1.1137
  Zn  Zn42  1  0.986900  0.915840  0.375760  1.0  1.1139
  Zn  Zn43  1  0.666667  0.333333  0.241890  1.0  1.0231
  Zn  Zn44  1  0.333333  0.666667  0.575220  1.0  1.0231
  Zn  Zn45  1  0.000000  0.000000  0.908550  1.0  1.0235
  Zn  Zn46  1  0.666667  0.333333  0.741890  1.0  1.0231
  Zn  Zn47  1  0.333333  0.666667  0.075220  1.0  1.0231
  Zn  Zn48  1  0.000000  0.000000  0.408550  1.0  1.0235
  H  H49  1  0.253600  0.215000  0.173200  1.0  0.0786
  H  H50  1  0.143600  0.148800  0.212600  1.0  0.095
  H  H51  1  0.239500  0.062900  0.119300  1.0  0.1177
  H  H52  1  0.085500  0.883800  0.108100  1.0  0.0853
  H  H53  1  0.335500  0.291700  0.188000  1.0  0.0813
  H  H54  1  0.228100  0.223900  0.229800  1.0  0.1318
  H  H55  1  0.297200  0.039600  0.098800  1.0  0.1063
  H  H56  1  0.139700  0.873700  0.085800  1.0  0.1022
  H  H57  1  0.420100  0.310100  0.210300  1.0  0.1169
  H  H58  1  0.292400  0.344000  0.236200  1.0  0.1122
  H  H59  1  0.201100  0.844500  0.075000  1.0  0.1253
  H  H60  1  0.500700  0.397900  0.221600  1.0  0.0901
  H  H61  1  0.920270  0.548330  0.506530  1.0  0.0786
  H  H62  1  0.810270  0.482130  0.545930  1.0  0.095
  H  H63  1  0.906170  0.396230  0.452630  1.0  0.1177
  H  H64  1  0.752170  0.217130  0.441430  1.0  0.0853
  H  H65  1  0.002170  0.625030  0.521330  1.0  0.0813
  H  H66  1  0.894770  0.557230  0.563130  1.0  0.1318
  H  H67  1  0.963870  0.372930  0.432130  1.0  0.1062
  H  H68  1  0.806370  0.207030  0.419130  1.0  0.102
  H  H69  1  0.086770  0.643430  0.543630  1.0  0.1169
  H  H70  1  0.959070  0.677330  0.569530  1.0  0.1122
  H  H71  1  0.867770  0.177830  0.408330  1.0  0.1251
  H  H72  1  0.167370  0.731230  0.554930  1.0  0.0901
  H  H73  1  0.586930  0.881670  0.839870  1.0  0.0786
  H  H74  1  0.476930  0.815470  0.879270  1.0  0.0949
  H  H75  1  0.572830  0.729570  0.785970  1.0  0.1177
  H  H76  1  0.418830  0.550470  0.774770  1.0  0.0853
  H  H77  1  0.668830  0.958370  0.854670  1.0  0.0813
  H  H78  1  0.561430  0.890570  0.896470  1.0  0.1306
  H  H79  1  0.630530  0.706270  0.765470  1.0  0.1063
  H  H80  1  0.473030  0.540370  0.752470  1.0  0.1033
  H  H81  1  0.753430  0.976770  0.876970  1.0  0.1169
  H  H82  1  0.625730  0.010670  0.902870  1.0  0.1124
  H  H83  1  0.534430  0.511170  0.741670  1.0  0.1253
  H  H84  1  0.834030  0.064570  0.888270  1.0  0.09
  H  H85  1  0.785000  0.038600  0.173200  1.0  0.0778
  H  H86  1  0.851200  0.994800  0.212600  1.0  0.0956
  H  H87  1  0.937100  0.176600  0.119300  1.0  0.1197
  H  H88  1  0.116200  0.201700  0.108100  1.0  0.0859
  H  H89  1  0.708300  0.043800  0.188000  1.0  0.0818
  H  H90  1  0.776100  0.004200  0.229800  1.0  0.1301
  H  H91  1  0.960400  0.257600  0.098800  1.0  0.1062
  H  H92  1  0.126300  0.266000  0.085800  1.0  0.1018
  H  H93  1  0.689900  0.110000  0.210300  1.0  0.117
  H  H94  1  0.656000  0.948400  0.236200  1.0  0.1111
  H  H95  1  0.155500  0.356600  0.075000  1.0  0.1248
  H  H96  1  0.602100  0.102800  0.221600  1.0  0.0907
  H  H97  1  0.451670  0.371930  0.506530  1.0  0.0778
  H  H98  1  0.517870  0.328130  0.545930  1.0  0.0956
  H  H99  1  0.603770  0.509930  0.452630  1.0  0.1197
  H  H100  1  0.782870  0.535030  0.441430  1.0  0.0859
  H  H101  1  0.374970  0.377130  0.521330  1.0  0.0818
  H  H102  1  0.442770  0.337530  0.563130  1.0  0.1301
  H  H103  1  0.627070  0.590930  0.432130  1.0  0.1061
  H  H104  1  0.792970  0.599330  0.419130  1.0  0.1037
  H  H105  1  0.356570  0.443330  0.543630  1.0  0.117
  H  H106  1  0.322670  0.281730  0.569530  1.0  0.1111
  H  H107  1  0.822170  0.689930  0.408330  1.0  0.1247
  H  H108  1  0.268770  0.436130  0.554930  1.0  0.0907
  H  H109  1  0.118330  0.705270  0.839870  1.0  0.0778
  H  H110  1  0.184530  0.661470  0.879270  1.0  0.0949
  H  H111  1  0.270430  0.843270  0.785970  1.0  0.1197
  H  H112  1  0.449530  0.868370  0.774770  1.0  0.0859
  H  H113  1  0.041630  0.710470  0.854670  1.0  0.0818
  H  H114  1  0.109430  0.670870  0.896470  1.0  0.1301
  H  H115  1  0.293730  0.924270  0.765470  1.0  0.1062
  H  H116  1  0.459630  0.932670  0.752470  1.0  0.1018
  H  H117  1  0.023230  0.776670  0.876970  1.0  0.1169
  H  H118  1  0.989330  0.615070  0.902870  1.0  0.1109
  H  H119  1  0.488830  0.023270  0.741670  1.0  0.1248
  H  H120  1  0.935430  0.769470  0.888270  1.0  0.0904
  H  H121  1  0.961400  0.746400  0.173200  1.0  0.0787
  H  H122  1  0.005200  0.856400  0.212600  1.0  0.0956
  H  H123  1  0.823400  0.760500  0.119300  1.0  0.1204
  H  H124  1  0.798300  0.914500  0.108100  1.0  0.0854
  H  H125  1  0.956200  0.664500  0.188000  1.0  0.0824
  H  H126  1  0.995800  0.771900  0.229800  1.0  0.1307
  H  H127  1  0.742400  0.702800  0.098800  1.0  0.1058
  H  H128  1  0.734000  0.860300  0.085800  1.0  0.1021
  H  H129  1  0.890000  0.579900  0.210300  1.0  0.1178
  H  H130  1  0.051600  0.707600  0.236200  1.0  0.1109
  H  H131  1  0.643400  0.798900  0.075000  1.0  0.1254
  H  H132  1  0.897200  0.499300  0.221600  1.0  0.0915
  H  H133  1  0.628070  0.079730  0.506530  1.0  0.0787
  H  H134  1  0.671870  0.189730  0.545930  1.0  0.0956
  H  H135  1  0.490070  0.093830  0.452630  1.0  0.1204
  H  H136  1  0.464970  0.247830  0.441430  1.0  0.0854
  H  H137  1  0.622870  0.997830  0.521330  1.0  0.0824
  H  H138  1  0.662470  0.105230  0.563130  1.0  0.1307
  H  H139  1  0.409070  0.036130  0.432130  1.0  0.1057
  H  H140  1  0.400670  0.193630  0.419130  1.0  0.1038
  H  H141  1  0.556670  0.913230  0.543630  1.0  0.1178
  H  H142  1  0.718270  0.040930  0.569530  1.0  0.1109
  H  H143  1  0.310070  0.132230  0.408330  1.0  0.1253
  H  H144  1  0.563870  0.832630  0.554930  1.0  0.0915
  H  H145  1  0.294730  0.413070  0.839870  1.0  0.0787
  H  H146  1  0.338530  0.523070  0.879270  1.0  0.0959
  H  H147  1  0.156730  0.427170  0.785970  1.0  0.1204
  H  H148  1  0.131630  0.581170  0.774770  1.0  0.0854
  H  H149  1  0.289530  0.331170  0.854670  1.0  0.0824
  H  H150  1  0.329130  0.438570  0.896470  1.0  0.1306
  H  H151  1  0.075730  0.369470  0.765470  1.0  0.1058
  H  H152  1  0.067330  0.526970  0.752470  1.0  0.1022
  H  H153  1  0.223330  0.246570  0.876970  1.0  0.1178
  H  H154  1  0.384930  0.374270  0.902870  1.0  0.1109
  H  H155  1  0.976730  0.465570  0.741670  1.0  0.1254
  H  H156  1  0.230530  0.165970  0.888270  1.0  0.0912
  H  H157  1  0.785000  0.746400  0.673200  1.0  0.0782
  H  H158  1  0.851200  0.856400  0.712600  1.0  0.0957
  H  H159  1  0.937100  0.760500  0.619300  1.0  0.1198
  H  H160  1  0.116200  0.914500  0.608100  1.0  0.0856
  H  H161  1  0.708300  0.664500  0.688000  1.0  0.0825
  H  H162  1  0.776100  0.771900  0.729800  1.0  0.1318
  H  H163  1  0.960400  0.702800  0.598800  1.0  0.106
  H  H164  1  0.126300  0.860300  0.585800  1.0  0.1036
  H  H165  1  0.689900  0.579900  0.710300  1.0  0.1181
  H  H166  1  0.656000  0.707600  0.736200  1.0  0.111
  H  H167  1  0.155500  0.798900  0.575000  1.0  0.1256
  H  H168  1  0.602100  0.499300  0.721600  1.0  0.0915
  H  H169  1  0.451670  0.079730  0.006530  1.0  0.0782
  H  H170  1  0.517870  0.189730  0.045930  1.0  0.0957
  H  H171  1  0.603770  0.093830  0.952630  1.0  0.1207
  H  H172  1  0.782870  0.247830  0.941430  1.0  0.0856
  H  H173  1  0.374970  0.997830  0.021330  1.0  0.0825
  H  H174  1  0.442770  0.105230  0.063130  1.0  0.1318
  H  H175  1  0.627070  0.036130  0.932130  1.0  0.1059
  H  H176  1  0.792970  0.193630  0.919130  1.0  0.1019
  H  H177  1  0.356570  0.913230  0.043630  1.0  0.1181
  H  H178  1  0.322670  0.040930  0.069530  1.0  0.111
  H  H179  1  0.822170  0.132230  0.908330  1.0  0.1255
  H  H180  1  0.268770  0.832630  0.054930  1.0  0.0915
  H  H181  1  0.118330  0.413070  0.339870  1.0  0.0782
  H  H182  1  0.184530  0.523070  0.379270  1.0  0.0958
  H  H183  1  0.270430  0.427170  0.285970  1.0  0.1198
  H  H184  1  0.449530  0.581170  0.274770  1.0  0.0856
  H  H185  1  0.041630  0.331170  0.354670  1.0  0.0825
  H  H186  1  0.109430  0.438570  0.396470  1.0  0.1305
  H  H187  1  0.293730  0.369470  0.265470  1.0  0.106
  H  H188  1  0.459630  0.526970  0.252470  1.0  0.1036
  H  H189  1  0.023230  0.246570  0.376970  1.0  0.118
  H  H190  1  0.989330  0.374270  0.402870  1.0  0.1112
  H  H191  1  0.488830  0.465570  0.241670  1.0  0.1256
  H  H192  1  0.935430  0.165970  0.388270  1.0  0.0914
  H  H193  1  0.961400  0.215000  0.673200  1.0  0.0786
  H  H194  1  0.005200  0.148800  0.712600  1.0  0.0957
  H  H195  1  0.823400  0.062900  0.619300  1.0  0.1178
  H  H196  1  0.798300  0.883800  0.608100  1.0  0.086
  H  H197  1  0.956200  0.291700  0.688000  1.0  0.0817
  H  H198  1  0.995800  0.223900  0.729800  1.0  0.1301
  H  H199  1  0.742400  0.039600  0.598800  1.0  0.1067
  H  H200  1  0.734000  0.873700  0.585800  1.0  0.1022
  H  H201  1  0.890000  0.310100  0.710300  1.0  0.1167
  H  H202  1  0.051600  0.344000  0.736200  1.0  0.1115
  H  H203  1  0.643400  0.844500  0.575000  1.0  0.1252
  H  H204  1  0.897200  0.397900  0.721600  1.0  0.0907
  H  H205  1  0.628070  0.548330  0.006530  1.0  0.0786
  H  H206  1  0.671870  0.482130  0.045930  1.0  0.0957
  H  H207  1  0.490070  0.396230  0.952630  1.0  0.1178
  H  H208  1  0.464970  0.217130  0.941430  1.0  0.086
  H  H209  1  0.622870  0.625030  0.021330  1.0  0.0817
  H  H210  1  0.662470  0.557230  0.063130  1.0  0.1301
  H  H211  1  0.409070  0.372930  0.932130  1.0  0.1067
  H  H212  1  0.400670  0.207030  0.919130  1.0  0.1034
  H  H213  1  0.556670  0.643430  0.043630  1.0  0.1167
  H  H214  1  0.718270  0.677330  0.069530  1.0  0.1115
  H  H215  1  0.310070  0.177830  0.908330  1.0  0.125
  H  H216  1  0.563870  0.731230  0.054930  1.0  0.0907
  H  H217  1  0.294730  0.881670  0.339870  1.0  0.0786
  H  H218  1  0.338530  0.815470  0.379270  1.0  0.095
  H  H219  1  0.156730  0.729570  0.285970  1.0  0.1178
  H  H220  1  0.131630  0.550470  0.274770  1.0  0.086
  H  H221  1  0.289530  0.958370  0.354670  1.0  0.0817
  H  H222  1  0.329130  0.890570  0.396470  1.0  0.1301
  H  H223  1  0.075730  0.706270  0.265470  1.0  0.1067
  H  H224  1  0.067330  0.540370  0.252470  1.0  0.1022
  H  H225  1  0.223330  0.976770  0.376970  1.0  0.1166
  H  H226  1  0.384930  0.010670  0.402870  1.0  0.1113
  H  H227  1  0.976730  0.511170  0.241670  1.0  0.1252
  H  H228  1  0.230530  0.064570  0.388270  1.0  0.0904
  H  H229  1  0.253600  0.038600  0.673200  1.0  0.0786
  H  H230  1  0.143600  0.994800  0.712600  1.0  0.0954
  H  H231  1  0.239500  0.176600  0.619300  1.0  0.1196
  H  H232  1  0.085500  0.201700  0.608100  1.0  0.0851
  H  H233  1  0.335500  0.043800  0.688000  1.0  0.0814
  H  H234  1  0.228100  0.004200  0.729800  1.0  0.1307
  H  H235  1  0.297200  0.257600  0.598800  1.0  0.1064
  H  H236  1  0.139700  0.266000  0.585800  1.0  0.1021
  H  H237  1  0.420100  0.110000  0.710300  1.0  0.117
  H  H238  1  0.292400  0.948400  0.736200  1.0  0.1108
  H  H239  1  0.201100  0.356600  0.575000  1.0  0.1262
  H  H240  1  0.500700  0.102800  0.721600  1.0  0.0902
  H  H241  1  0.920270  0.371930  0.006530  1.0  0.0786
  H  H242  1  0.810270  0.328130  0.045930  1.0  0.0954
  H  H243  1  0.906170  0.509930  0.952630  1.0  0.1205
  H  H244  1  0.752170  0.535030  0.941430  1.0  0.0851
  H  H245  1  0.002170  0.377130  0.021330  1.0  0.0814
  H  H246  1  0.894770  0.337530  0.063130  1.0  0.1307
  H  H247  1  0.963870  0.590930  0.932130  1.0  0.1063
  H  H248  1  0.806370  0.599330  0.919130  1.0  0.1041
  H  H249  1  0.086770  0.443330  0.043630  1.0  0.117
  H  H250  1  0.959070  0.281730  0.069530  1.0  0.1108
  H  H251  1  0.867770  0.689930  0.908330  1.0  0.1261
  H  H252  1  0.167370  0.436130  0.054930  1.0  0.0902
  H  H253  1  0.586930  0.705270  0.339870  1.0  0.0786
  H  H254  1  0.476930  0.661470  0.379270  1.0  0.0958
  H  H255  1  0.572830  0.843270  0.285970  1.0  0.1196
  H  H256  1  0.418830  0.868370  0.274770  1.0  0.0851
  H  H257  1  0.668830  0.710470  0.354670  1.0  0.0814
  H  H258  1  0.561430  0.670870  0.396470  1.0  0.1306
  H  H259  1  0.630530  0.924270  0.265470  1.0  0.1064
  H  H260  1  0.473030  0.932670  0.252470  1.0  0.1021
  H  H261  1  0.753430  0.776670  0.376970  1.0  0.117
  H  H262  1  0.625730  0.615070  0.402870  1.0  0.1108
  H  H263  1  0.534430  0.023270  0.241670  1.0  0.1262
  H  H264  1  0.834030  0.769470  0.388270  1.0  0.09
  H  H265  1  0.450900  0.209600  0.172400  1.0  0.0928
  H  H266  1  0.375600  0.194300  0.151800  1.0  0.12
  H  H267  1  0.421100  0.379900  0.157500  1.0  0.1077
  H  H268  1  0.503300  0.396200  0.175700  1.0  0.101
  H  H269  1  0.280900  0.178800  0.142500  1.0  0.1114
  H  H270  1  0.207000  0.164100  0.121400  1.0  0.0942
  H  H271  1  0.222600  0.248700  0.104000  1.0  0.107
  H  H272  1  0.380500  0.371700  0.131600  1.0  0.1086
  H  H273  1  0.283000  0.330300  0.083100  1.0  0.1228
  H  H274  1  0.280900  0.412500  0.068700  1.0  0.1012
  H  H275  1  0.341600  0.529800  0.109800  1.0  0.1201
  H  H276  1  0.346000  0.445300  0.124600  1.0  0.1172
  H  H277  1  0.117570  0.542930  0.505730  1.0  0.0928
  H  H278  1  0.042270  0.527630  0.485130  1.0  0.12
  H  H279  1  0.087770  0.713230  0.490830  1.0  0.1077
  H  H280  1  0.169970  0.729530  0.509030  1.0  0.101
  H  H281  1  0.947570  0.512130  0.475830  1.0  0.1114
  H  H282  1  0.873670  0.497430  0.454730  1.0  0.0942
  H  H283  1  0.889270  0.582030  0.437330  1.0  0.107
  H  H284  1  0.047170  0.705030  0.464930  1.0  0.1086
  H  H285  1  0.949670  0.663630  0.416430  1.0  0.1229
  H  H286  1  0.947570  0.745830  0.402030  1.0  0.1013
  H  H287  1  0.008270  0.863130  0.443130  1.0  0.1201
  H  H288  1  0.012670  0.778630  0.457930  1.0  0.1162
  H  H289  1  0.784230  0.876270  0.839070  1.0  0.093
  H  H290  1  0.708930  0.860970  0.818470  1.0  0.12
  H  H291  1  0.754430  0.046570  0.824170  1.0  0.109
  H  H292  1  0.836630  0.062870  0.842370  1.0  0.101
  H  H293  1  0.614230  0.845470  0.809170  1.0  0.1114
  H  H294  1  0.540330  0.830770  0.788070  1.0  0.0942
  H  H295  1  0.555930  0.915370  0.770670  1.0  0.107
  H  H296  1  0.713830  0.038370  0.798270  1.0  0.1086
  H  H297  1  0.616330  0.996970  0.749770  1.0  0.1228
  H  H298  1  0.614230  0.079170  0.735370  1.0  0.1012
  H  H299  1  0.674930  0.196470  0.776470  1.0  0.1201
  H  H300  1  0.679330  0.111970  0.791270  1.0  0.1172
  H  H301  1  0.790400  0.241300  0.172400  1.0  0.0932
  H  H302  1  0.805700  0.181300  0.151800  1.0  0.1213
  H  H303  1  0.620100  0.041200  0.157500  1.0  0.1081
  H  H304  1  0.603800  0.107100  0.175700  1.0  0.1016
  H  H305  1  0.821200  0.102100  0.142500  1.0  0.1105
  H  H306  1  0.835900  0.042900  0.121400  1.0  0.095
  H  H307  1  0.751300  0.973900  0.104000  1.0  0.1067
  H  H308  1  0.628300  0.008800  0.131600  1.0  0.1098
  H  H309  1  0.669700  0.952700  0.083100  1.0  0.1254
  H  H310  1  0.587500  0.868400  0.068700  1.0  0.1012
  H  H311  1  0.470200  0.811800  0.109800  1.0  0.1203
  H  H312  1  0.554700  0.900700  0.124600  1.0  0.1166
  H  H313  1  0.457070  0.574630  0.505730  1.0  0.0932
  H  H314  1  0.472370  0.514630  0.485130  1.0  0.1213
  H  H315  1  0.286770  0.374530  0.490830  1.0  0.1081
  H  H316  1  0.270470  0.440430  0.509030  1.0  0.1016
  H  H317  1  0.487870  0.435430  0.475830  1.0  0.1105
  H  H318  1  0.502570  0.376230  0.454730  1.0  0.095
  H  H319  1  0.417970  0.307230  0.437330  1.0  0.1067
  H  H320  1  0.294970  0.342130  0.464930  1.0  0.1098
  H  H321  1  0.336370  0.286030  0.416430  1.0  0.1237
  H  H322  1  0.254170  0.201730  0.402030  1.0  0.1013
  H  H323  1  0.136870  0.145130  0.443130  1.0  0.1203
  H  H324  1  0.221370  0.234030  0.457930  1.0  0.1166
  H  H325  1  0.123730  0.907970  0.839070  1.0  0.0935
  H  H326  1  0.139030  0.847970  0.818470  1.0  0.1213
  H  H327  1  0.953430  0.707870  0.824170  1.0  0.1092
  H  H328  1  0.937130  0.773770  0.842370  1.0  0.1016
  H  H329  1  0.154530  0.768770  0.809170  1.0  0.1105
  H  H330  1  0.169230  0.709570  0.788070  1.0  0.095
  H  H331  1  0.084630  0.640570  0.770670  1.0  0.1067
  H  H332  1  0.961630  0.675470  0.798270  1.0  0.1098
  H  H333  1  0.003030  0.619370  0.749770  1.0  0.1235
  H  H334  1  0.920830  0.535070  0.735370  1.0  0.1012
  H  H335  1  0.803530  0.478470  0.776470  1.0  0.1202
  H  H336  1  0.888030  0.567370  0.791270  1.0  0.1166
  H  H337  1  0.758700  0.549100  0.172400  1.0  0.0941
  H  H338  1  0.818700  0.624400  0.151800  1.0  0.1201
  H  H339  1  0.958800  0.578900  0.157500  1.0  0.1072
  H  H340  1  0.892900  0.496700  0.175700  1.0  0.1019
  H  H341  1  0.897900  0.719100  0.142500  1.0  0.1109
  H  H342  1  0.957100  0.793000  0.121400  1.0  0.0951
  H  H343  1  0.026100  0.777400  0.104000  1.0  0.1064
  H  H344  1  0.991200  0.619500  0.131600  1.0  0.1085
  H  H345  1  0.047300  0.717000  0.083100  1.0  0.1244
  H  H346  1  0.131600  0.719100  0.068700  1.0  0.1016
  H  H347  1  0.188200  0.658400  0.109800  1.0  0.1218
  H  H348  1  0.099300  0.654000  0.124600  1.0  0.1155
  H  H349  1  0.425370  0.882430  0.505730  1.0  0.0941
  H  H350  1  0.485370  0.957730  0.485130  1.0  0.1201
  H  H351  1  0.625470  0.912230  0.490830  1.0  0.1072
  H  H352  1  0.559570  0.830030  0.509030  1.0  0.1019
  H  H353  1  0.564570  0.052430  0.475830  1.0  0.1109
  H  H354  1  0.623770  0.126330  0.454730  1.0  0.0951
  H  H355  1  0.692770  0.110730  0.437330  1.0  0.1064
  H  H356  1  0.657870  0.952830  0.464930  1.0  0.1084
  H  H357  1  0.713970  0.050330  0.416430  1.0  0.1226
  H  H358  1  0.798270  0.052430  0.402030  1.0  0.1016
  H  H359  1  0.854870  0.991730  0.443130  1.0  0.1218
  H  H360  1  0.765970  0.987330  0.457930  1.0  0.1145
  H  H361  1  0.092030  0.215770  0.839070  1.0  0.0943
  H  H362  1  0.152030  0.291070  0.818470  1.0  0.1201
  H  H363  1  0.292130  0.245570  0.824170  1.0  0.1082
  H  H364  1  0.226230  0.163370  0.842370  1.0  0.1019
  H  H365  1  0.231230  0.385770  0.809170  1.0  0.1109
  H  H366  1  0.290430  0.459670  0.788070  1.0  0.0951
  H  H367  1  0.359430  0.444070  0.770670  1.0  0.1064
  H  H368  1  0.324530  0.286170  0.798270  1.0  0.1085
  H  H369  1  0.380630  0.383670  0.749770  1.0  0.1226
  H  H370  1  0.464930  0.385770  0.735370  1.0  0.1016
  H  H371  1  0.521530  0.325070  0.776470  1.0  0.1202
  H  H372  1  0.432630  0.320670  0.791270  1.0  0.1155
  H  H373  1  0.790400  0.549100  0.672400  1.0  0.0935
  H  H374  1  0.805700  0.624400  0.651800  1.0  0.1202
  H  H375  1  0.620100  0.578900  0.657500  1.0  0.1086
  H  H376  1  0.603800  0.496700  0.675700  1.0  0.1014
  H  H377  1  0.821200  0.719100  0.642500  1.0  0.1105
  H  H378  1  0.835900  0.793000  0.621400  1.0  0.0932
  H  H379  1  0.751300  0.777400  0.604000  1.0  0.1062
  H  H380  1  0.628300  0.619500  0.631600  1.0  0.1079
  H  H381  1  0.669700  0.717000  0.583100  1.0  0.1232
  H  H382  1  0.587500  0.719100  0.568700  1.0  0.102
  H  H383  1  0.470200  0.658400  0.609800  1.0  0.1201
  H  H384  1  0.554700  0.654000  0.624600  1.0  0.1163
  H  H385  1  0.457070  0.882430  0.005730  1.0  0.0935
  H  H386  1  0.472370  0.957730  0.985130  1.0  0.1202
  H  H387  1  0.286770  0.912230  0.990830  1.0  0.1086
  H  H388  1  0.270470  0.830030  0.009030  1.0  0.1002
  H  H389  1  0.487870  0.052430  0.975830  1.0  0.1105
  H  H390  1  0.502570  0.126330  0.954730  1.0  0.0932
  H  H391  1  0.417970  0.110730  0.937330  1.0  0.1062
  H  H392  1  0.294970  0.952830  0.964930  1.0  0.1079
  H  H393  1  0.336370  0.050330  0.916430  1.0  0.1233
  H  H394  1  0.254170  0.052430  0.902030  1.0  0.102
  H  H395  1  0.136870  0.991730  0.943130  1.0  0.1201
  H  H396  1  0.221370  0.987330  0.957930  1.0  0.1159
  H  H397  1  0.123730  0.215770  0.339070  1.0  0.0936
  H  H398  1  0.139030  0.291070  0.318470  1.0  0.1202
  H  H399  1  0.953430  0.245570  0.324170  1.0  0.1096
  H  H400  1  0.937130  0.163370  0.342370  1.0  0.1014
  H  H401  1  0.154530  0.385770  0.309170  1.0  0.1105
  H  H402  1  0.169230  0.459670  0.288070  1.0  0.0932
  H  H403  1  0.084630  0.444070  0.270670  1.0  0.1062
  H  H404  1  0.961630  0.286170  0.298270  1.0  0.1079
  H  H405  1  0.003030  0.383670  0.249770  1.0  0.1232
  H  H406  1  0.920830  0.385770  0.235370  1.0  0.102
  H  H407  1  0.803530  0.325070  0.276470  1.0  0.1202
  H  H408  1  0.888030  0.320670  0.291270  1.0  0.1163
  H  H409  1  0.758700  0.209600  0.672400  1.0  0.0924
  H  H410  1  0.818700  0.194300  0.651800  1.0  0.1193
  H  H411  1  0.958800  0.379900  0.657500  1.0  0.1081
  H  H412  1  0.892900  0.396200  0.675700  1.0  0.1012
  H  H413  1  0.897900  0.178800  0.642500  1.0  0.1115
  H  H414  1  0.957100  0.164100  0.621400  1.0  0.0944
  H  H415  1  0.026100  0.248700  0.604000  1.0  0.1069
  H  H416  1  0.991200  0.371700  0.631600  1.0  0.1088
  H  H417  1  0.047300  0.330300  0.583100  1.0  0.1222
  H  H418  1  0.131600  0.412500  0.568700  1.0  0.1007
  H  H419  1  0.188200  0.529800  0.609800  1.0  0.121
  H  H420  1  0.099300  0.445300  0.624600  1.0  0.1169
  H  H421  1  0.425370  0.542930  0.005730  1.0  0.0924
  H  H422  1  0.485370  0.527630  0.985130  1.0  0.1193
  H  H423  1  0.625470  0.713230  0.990830  1.0  0.1081
  H  H424  1  0.559570  0.729530  0.009030  1.0  0.0997
  H  H425  1  0.564570  0.512130  0.975830  1.0  0.1115
  H  H426  1  0.623770  0.497430  0.954730  1.0  0.0944
  H  H427  1  0.692770  0.582030  0.937330  1.0  0.1069
  H  H428  1  0.657870  0.705030  0.964930  1.0  0.1088
  H  H429  1  0.713970  0.663630  0.916430  1.0  0.1223
  H  H430  1  0.798270  0.745830  0.902030  1.0  0.1007
  H  H431  1  0.854870  0.863130  0.943130  1.0  0.1203
  H  H432  1  0.765970  0.778630  0.957930  1.0  0.1169
  H  H433  1  0.092030  0.876270  0.339070  1.0  0.0926
  H  H434  1  0.152030  0.860970  0.318470  1.0  0.1193
  H  H435  1  0.292130  0.046570  0.324170  1.0  0.1093
  H  H436  1  0.226230  0.062870  0.342370  1.0  0.1011
  H  H437  1  0.231230  0.845470  0.309170  1.0  0.1115
  H  H438  1  0.290430  0.830770  0.288070  1.0  0.0944
  H  H439  1  0.359430  0.915370  0.270670  1.0  0.1069
  H  H440  1  0.324530  0.038370  0.298270  1.0  0.1088
  H  H441  1  0.380630  0.996970  0.249770  1.0  0.1222
  H  H442  1  0.464930  0.079170  0.235370  1.0  0.1007
  H  H443  1  0.521530  0.196470  0.276470  1.0  0.121
  H  H444  1  0.432630  0.111970  0.291270  1.0  0.1169
  H  H445  1  0.450900  0.241300  0.672400  1.0  0.0935
  H  H446  1  0.375600  0.181300  0.651800  1.0  0.1213
  H  H447  1  0.421100  0.041200  0.657500  1.0  0.1087
  H  H448  1  0.503300  0.107100  0.675700  1.0  0.102
  H  H449  1  0.280900  0.102100  0.642500  1.0  0.1108
  H  H450  1  0.207000  0.042900  0.621400  1.0  0.0969
  H  H451  1  0.222600  0.973900  0.604000  1.0  0.1073
  H  H452  1  0.380500  0.008800  0.631600  1.0  0.1094
  H  H453  1  0.283000  0.952700  0.583100  1.0  0.1236
  H  H454  1  0.280900  0.868400  0.568700  1.0  0.1014
  H  H455  1  0.341600  0.811800  0.609800  1.0  0.1213
  H  H456  1  0.346000  0.900700  0.624600  1.0  0.1161
  H  H457  1  0.117570  0.574630  0.005730  1.0  0.0935
  H  H458  1  0.042270  0.514630  0.985130  1.0  0.1213
  H  H459  1  0.087770  0.374530  0.990830  1.0  0.1087
  H  H460  1  0.169970  0.440430  0.009030  1.0  0.102
  H  H461  1  0.947570  0.435430  0.975830  1.0  0.1108
  H  H462  1  0.873670  0.376230  0.954730  1.0  0.0969
  H  H463  1  0.889270  0.307230  0.937330  1.0  0.1073
  H  H464  1  0.047170  0.342130  0.964930  1.0  0.1093
  H  H465  1  0.949670  0.286030  0.916430  1.0  0.1237
  H  H466  1  0.947570  0.201730  0.902030  1.0  0.1015
  H  H467  1  0.008270  0.145130  0.943130  1.0  0.1196
  H  H468  1  0.012670  0.234030  0.957930  1.0  0.1159
  H  H469  1  0.784230  0.907970  0.339070  1.0  0.0938
  H  H470  1  0.708930  0.847970  0.318470  1.0  0.1213
  H  H471  1  0.754430  0.707870  0.324170  1.0  0.1098
  H  H472  1  0.836630  0.773770  0.342370  1.0  0.102
  H  H473  1  0.614230  0.768770  0.309170  1.0  0.1108
  H  H474  1  0.540330  0.709570  0.288070  1.0  0.0969
  H  H475  1  0.555930  0.640570  0.270670  1.0  0.1073
  H  H476  1  0.713830  0.675470  0.298270  1.0  0.1094
  H  H477  1  0.616330  0.619370  0.249770  1.0  0.1236
  H  H478  1  0.614230  0.535070  0.235370  1.0  0.1014
  H  H479  1  0.674930  0.478470  0.276470  1.0  0.1197
  H  H480  1  0.679330  0.567370  0.291270  1.0  0.1161
  C  C481  1  0.131600  0.123600  0.180000  1.0  0.6912
  C  C482  1  0.110800  0.986500  0.128330  1.0  0.7232
  C  C483  1  0.189300  0.177000  0.190700  1.0  -0.1088
  C  C484  1  0.154400  0.977300  0.115120  1.0  -0.1114
  C  C485  1  0.246500  0.218000  0.184630  1.0  -0.057
  C  C486  1  0.183200  0.179300  0.207670  1.0  -0.0548
  C  C487  1  0.219100  0.024700  0.112840  1.0  -0.0751
  C  C488  1  0.127200  0.918300  0.105390  1.0  -0.0677
  C  C489  1  0.296200  0.264200  0.193590  1.0  -0.1741
  C  C490  1  0.233300  0.224900  0.218140  1.0  -0.1862
  C  C491  1  0.252200  0.011300  0.100130  1.0  -0.1445
  C  C492  1  0.159900  0.911200  0.092520  1.0  -0.1427
  C  C493  1  0.293000  0.273200  0.210170  1.0  0.0794
  C  C494  1  0.220800  0.957600  0.089340  1.0  0.0535
  C  C495  1  0.346400  0.320700  0.220530  1.0  0.0524
  C  C496  1  0.260300  0.945700  0.076150  1.0  0.0202
  C  C497  1  0.411100  0.336100  0.217520  1.0  -0.2149
  C  C498  1  0.335500  0.355300  0.233560  1.0  -0.0943
  C  C499  1  0.238800  0.880700  0.070780  1.0  -0.1701
  C  C500  1  0.458200  0.386600  0.224800  1.0  -0.099
  C  C501  1  0.798270  0.456930  0.513330  1.0  0.6912
  C  C502  1  0.777470  0.319830  0.461660  1.0  0.7232
  C  C503  1  0.855970  0.510330  0.524030  1.0  -0.1088
  C  C504  1  0.821070  0.310630  0.448450  1.0  -0.1114
  C  C505  1  0.913170  0.551330  0.517960  1.0  -0.057
  C  C506  1  0.849870  0.512630  0.541000  1.0  -0.0548
  C  C507  1  0.885770  0.358030  0.446170  1.0  -0.0751
  C  C508  1  0.793870  0.251630  0.438720  1.0  -0.0677
  C  C509  1  0.962870  0.597530  0.526920  1.0  -0.1741
  C  C510  1  0.899970  0.558230  0.551470  1.0  -0.1862
  C  C511  1  0.918870  0.344630  0.433460  1.0  -0.1445
  C  C512  1  0.826570  0.244530  0.425850  1.0  -0.1427
  C  C513  1  0.959670  0.606530  0.543500  1.0  0.0794
  C  C514  1  0.887470  0.290930  0.422670  1.0  0.0535
  C  C515  1  0.013070  0.654030  0.553860  1.0  0.0524
  C  C516  1  0.926970  0.279030  0.409480  1.0  0.0218
  C  C517  1  0.077770  0.669430  0.550850  1.0  -0.2149
  C  C518  1  0.002170  0.688630  0.566890  1.0  -0.0943
  C  C519  1  0.905470  0.214030  0.404110  1.0  -0.1698
  C  C520  1  0.124870  0.719930  0.558130  1.0  -0.099
  C  C521  1  0.464930  0.790270  0.846670  1.0  0.6912
  C  C522  1  0.444130  0.653170  0.795000  1.0  0.7231
  C  C523  1  0.522630  0.843670  0.857370  1.0  -0.1089
  C  C524  1  0.487730  0.643970  0.781790  1.0  -0.1114
  C  C525  1  0.579830  0.884670  0.851300  1.0  -0.057
  C  C526  1  0.516530  0.845970  0.874340  1.0  -0.0548
  C  C527  1  0.552430  0.691370  0.779510  1.0  -0.0751
  C  C528  1  0.460530  0.584970  0.772060  1.0  -0.0677
  C  C529  1  0.629530  0.930870  0.860260  1.0  -0.1741
  C  C530  1  0.566630  0.891570  0.884810  1.0  -0.1862
  C  C531  1  0.585530  0.677970  0.766800  1.0  -0.1445
  C  C532  1  0.493230  0.577870  0.759190  1.0  -0.1427
  C  C533  1  0.626330  0.939870  0.876840  1.0  0.0794
  C  C534  1  0.554130  0.624270  0.756010  1.0  0.0535
  C  C535  1  0.679730  0.987370  0.887200  1.0  0.0522
  C  C536  1  0.593630  0.612370  0.742820  1.0  0.0202
  C  C537  1  0.744430  0.002770  0.884190  1.0  -0.2149
  C  C538  1  0.668830  0.021970  0.900230  1.0  -0.094
  C  C539  1  0.572130  0.547370  0.737450  1.0  -0.1701
  C  C540  1  0.791530  0.053270  0.891470  1.0  -0.0995
  C  C541  1  0.876400  0.008000  0.180000  1.0  0.6934
  C  C542  1  0.013500  0.124300  0.128330  1.0  0.7227
  C  C543  1  0.823000  0.012300  0.190700  1.0  -0.1104
  C  C544  1  0.022700  0.177100  0.115120  1.0  -0.1122
  C  C545  1  0.782000  0.028500  0.184630  1.0  -0.0565
  C  C546  1  0.820700  0.003900  0.207670  1.0  -0.0487
  C  C547  1  0.975300  0.194400  0.112840  1.0  -0.0768
  C  C548  1  0.081700  0.208900  0.105390  1.0  -0.0666
  C  C549  1  0.735800  0.032000  0.193590  1.0  -0.1735
  C  C550  1  0.775100  0.008400  0.218140  1.0  -0.1843
  C  C551  1  0.988700  0.240900  0.100130  1.0  -0.144
  C  C552  1  0.088800  0.248700  0.092520  1.0  -0.1432
  C  C553  1  0.726800  0.019800  0.210170  1.0  0.0795
  C  C554  1  0.042400  0.263200  0.089340  1.0  0.0511
  C  C555  1  0.679300  0.025700  0.220530  1.0  0.0522
  C  C556  1  0.054300  0.314600  0.076150  1.0  0.0186
  C  C557  1  0.663900  0.075000  0.217520  1.0  -0.2169
  C  C558  1  0.644700  0.980200  0.233560  1.0  -0.0923
  C  C559  1  0.119300  0.358100  0.070780  1.0  -0.1698
  C  C560  1  0.613400  0.071600  0.224800  1.0  -0.1002
  C  C561  1  0.543070  0.341330  0.513330  1.0  0.6934
  C  C562  1  0.680170  0.457630  0.461660  1.0  0.7227
  C  C563  1  0.489670  0.345630  0.524030  1.0  -0.1104
  C  C564  1  0.689370  0.510430  0.448450  1.0  -0.1122
  C  C565  1  0.448670  0.361830  0.517960  1.0  -0.0565
  C  C566  1  0.487370  0.337230  0.541000  1.0  -0.0487
  C  C567  1  0.641970  0.527730  0.446170  1.0  -0.0768
  C  C568  1  0.748370  0.542230  0.438720  1.0  -0.0666
  C  C569  1  0.402470  0.365330  0.526920  1.0  -0.1735
  C  C570  1  0.441770  0.341730  0.551470  1.0  -0.1843
  C  C571  1  0.655370  0.574230  0.433460  1.0  -0.1441
  C  C572  1  0.755470  0.582030  0.425850  1.0  -0.1432
  C  C573  1  0.393470  0.353130  0.543500  1.0  0.0795
  C  C574  1  0.709070  0.596530  0.422670  1.0  0.0511
  C  C575  1  0.345970  0.359030  0.553860  1.0  0.0522
  C  C576  1  0.720970  0.647930  0.409480  1.0  0.0187
  C  C577  1  0.330570  0.408330  0.550850  1.0  -0.2169
  C  C578  1  0.311370  0.313530  0.566890  1.0  -0.0923
  C  C579  1  0.785970  0.691430  0.404110  1.0  -0.1694
  C  C580  1  0.280070  0.404930  0.558130  1.0  -0.1002
  C  C581  1  0.209730  0.674670  0.846670  1.0  0.6934
  C  C582  1  0.346830  0.790970  0.795000  1.0  0.7227
  C  C583  1  0.156330  0.678970  0.857370  1.0  -0.1105
  C  C584  1  0.356030  0.843770  0.781790  1.0  -0.1122
  C  C585  1  0.115330  0.695170  0.851300  1.0  -0.0565
  C  C586  1  0.154030  0.670570  0.874340  1.0  -0.0487
  C  C587  1  0.308630  0.861070  0.779510  1.0  -0.0768
  C  C588  1  0.415030  0.875570  0.772060  1.0  -0.0666
  C  C589  1  0.069130  0.698670  0.860260  1.0  -0.1735
  C  C590  1  0.108430  0.675070  0.884810  1.0  -0.1843
  C  C591  1  0.322030  0.907570  0.766800  1.0  -0.144
  C  C592  1  0.422130  0.915370  0.759190  1.0  -0.1432
  C  C593  1  0.060130  0.686470  0.876840  1.0  0.0795
  C  C594  1  0.375730  0.929870  0.756010  1.0  0.0511
  C  C595  1  0.012630  0.692370  0.887200  1.0  0.052
  C  C596  1  0.387630  0.981270  0.742820  1.0  0.0186
  C  C597  1  0.997230  0.741670  0.884190  1.0  -0.217
  C  C598  1  0.978030  0.646870  0.900230  1.0  -0.0914
  C  C599  1  0.452630  0.024770  0.737450  1.0  -0.1698
  C  C600  1  0.946730  0.738270  0.891470  1.0  -0.1008
  C  C601  1  0.992000  0.868400  0.180000  1.0  0.6948
  C  C602  1  0.875700  0.889200  0.128330  1.0  0.7218
  C  C603  1  0.987700  0.810700  0.190700  1.0  -0.1024
  C  C604  1  0.822900  0.845600  0.115120  1.0  -0.1136
  C  C605  1  0.971500  0.753500  0.184630  1.0  -0.0569
  C  C606  1  0.996100  0.816800  0.207670  1.0  -0.0555
  C  C607  1  0.805600  0.780900  0.112840  1.0  -0.0759
  C  C608  1  0.791100  0.872800  0.105390  1.0  -0.0662
  C  C609  1  0.968000  0.703800  0.193590  1.0  -0.1745
  C  C610  1  0.991600  0.766700  0.218140  1.0  -0.1852
  C  C611  1  0.759100  0.747800  0.100130  1.0  -0.1444
  C  C612  1  0.751300  0.840100  0.092520  1.0  -0.1434
  C  C613  1  0.980200  0.707000  0.210170  1.0  0.0802
  C  C614  1  0.736800  0.779200  0.089340  1.0  0.052
  C  C615  1  0.974300  0.653600  0.220530  1.0  0.0541
  C  C616  1  0.685400  0.739700  0.076150  1.0  0.0192
  C  C617  1  0.925000  0.588900  0.217520  1.0  -0.2179
  C  C618  1  0.019800  0.664500  0.233560  1.0  -0.0922
  C  C619  1  0.641900  0.761200  0.070780  1.0  -0.1702
  C  C620  1  0.928400  0.541800  0.224800  1.0  -0.0982
  C  C621  1  0.658670  0.201730  0.513330  1.0  0.6948
  C  C622  1  0.542370  0.222530  0.461660  1.0  0.7218
  C  C623  1  0.654370  0.144030  0.524030  1.0  -0.1024
  C  C624  1  0.489570  0.178930  0.448450  1.0  -0.1136
  C  C625  1  0.638170  0.086830  0.517960  1.0  -0.0569
  C  C626  1  0.662770  0.150130  0.541000  1.0  -0.0555
  C  C627  1  0.472270  0.114230  0.446170  1.0  -0.0759
  C  C628  1  0.457770  0.206130  0.438720  1.0  -0.0662
  C  C629  1  0.634670  0.037130  0.526920  1.0  -0.1745
  C  C630  1  0.658270  0.100030  0.551470  1.0  -0.1852
  C  C631  1  0.425770  0.081130  0.433460  1.0  -0.1445
  C  C632  1  0.417970  0.173430  0.425850  1.0  -0.1434
  C  C633  1  0.646870  0.040330  0.543500  1.0  0.0802
  C  C634  1  0.403470  0.112530  0.422670  1.0  0.052
  C  C635  1  0.640970  0.986930  0.553860  1.0  0.0541
  C  C636  1  0.352070  0.073030  0.409480  1.0  0.0186
  C  C637  1  0.591670  0.922230  0.550850  1.0  -0.2179
  C  C638  1  0.686470  0.997830  0.566890  1.0  -0.0922
  C  C639  1  0.308570  0.094530  0.404110  1.0  -0.1699
  C  C640  1  0.595070  0.875130  0.558130  1.0  -0.0982
  C  C641  1  0.325330  0.535070  0.846670  1.0  0.6948
  C  C642  1  0.209030  0.555870  0.795000  1.0  0.7218
  C  C643  1  0.321030  0.477370  0.857370  1.0  -0.1025
  C  C644  1  0.156230  0.512270  0.781790  1.0  -0.1136
  C  C645  1  0.304830  0.420170  0.851300  1.0  -0.0569
  C  C646  1  0.329430  0.483470  0.874340  1.0  -0.0555
  C  C647  1  0.138930  0.447570  0.779510  1.0  -0.0759
  C  C648  1  0.124430  0.539470  0.772060  1.0  -0.0662
  C  C649  1  0.301330  0.370470  0.860260  1.0  -0.1745
  C  C650  1  0.324930  0.433370  0.884810  1.0  -0.1852
  C  C651  1  0.092430  0.414470  0.766800  1.0  -0.1444
  C  C652  1  0.084630  0.506770  0.759190  1.0  -0.1434
  C  C653  1  0.313530  0.373670  0.876840  1.0  0.0803
  C  C654  1  0.070130  0.445870  0.756010  1.0  0.052
  C  C655  1  0.307630  0.320270  0.887200  1.0  0.054
  C  C656  1  0.018730  0.406370  0.742820  1.0  0.0192
  C  C657  1  0.258330  0.255570  0.884190  1.0  -0.2179
  C  C658  1  0.353130  0.331170  0.900230  1.0  -0.0922
  C  C659  1  0.975230  0.427870  0.737450  1.0  -0.1702
  C  C660  1  0.261730  0.208470  0.891470  1.0  -0.0989
  C  C661  1  0.876400  0.868400  0.680000  1.0  0.6942
  C  C662  1  0.013500  0.889200  0.628330  1.0  0.7219
  C  C663  1  0.823000  0.810700  0.690700  1.0  -0.1021
  C  C664  1  0.022700  0.845600  0.615120  1.0  -0.1131
  C  C665  1  0.782000  0.753500  0.684630  1.0  -0.0566
  C  C666  1  0.820700  0.816800  0.707670  1.0  -0.0537
  C  C667  1  0.975300  0.780900  0.612840  1.0  -0.0759
  C  C668  1  0.081700  0.872800  0.605390  1.0  -0.0673
  C  C669  1  0.735800  0.703800  0.693590  1.0  -0.174
  C  C670  1  0.775100  0.766700  0.718140  1.0  -0.1843
  C  C671  1  0.988700  0.747800  0.600130  1.0  -0.1446
  C  C672  1  0.088800  0.840100  0.592520  1.0  -0.1447
  C  C673  1  0.726800  0.707000  0.710170  1.0  0.08
  C  C674  1  0.042400  0.779200  0.589340  1.0  0.0514
  C  C675  1  0.679300  0.653600  0.720530  1.0  0.0541
  C  C676  1  0.054300  0.739700  0.576150  1.0  0.0184
  C  C677  1  0.663900  0.588900  0.717520  1.0  -0.2156
  C  C678  1  0.644700  0.664500  0.733560  1.0  -0.0914
  C  C679  1  0.119300  0.761200  0.570780  1.0  -0.1685
  C  C680  1  0.613400  0.541800  0.724800  1.0  -0.1001
  C  C681  1  0.543070  0.201730  0.013330  1.0  0.6942
  C  C682  1  0.680170  0.222530  0.961660  1.0  0.7219
  C  C683  1  0.489670  0.144030  0.024030  1.0  -0.1021
  C  C684  1  0.689370  0.178930  0.948450  1.0  -0.1131
  C  C685  1  0.448670  0.086830  0.017960  1.0  -0.0566
  C  C686  1  0.487370  0.150130  0.041000  1.0  -0.0537
  C  C687  1  0.641970  0.114230  0.946170  1.0  -0.0759
  C  C688  1  0.748370  0.206130  0.938720  1.0  -0.0673
  C  C689  1  0.402470  0.037130  0.026920  1.0  -0.174
  C  C690  1  0.441770  0.100030  0.051470  1.0  -0.1843
  C  C691  1  0.655370  0.081130  0.933460  1.0  -0.1446
  C  C692  1  0.755470  0.173430  0.925850  1.0  -0.1447
  C  C693  1  0.393470  0.040330  0.043500  1.0  0.08
  C  C694  1  0.709070  0.112530  0.922670  1.0  0.0514
  C  C695  1  0.345970  0.986930  0.053860  1.0  0.0541
  C  C696  1  0.720970  0.073030  0.909480  1.0  0.02
  C  C697  1  0.330570  0.922230  0.050850  1.0  -0.2156
  C  C698  1  0.311370  0.997830  0.066890  1.0  -0.0914
  C  C699  1  0.785970  0.094530  0.904110  1.0  -0.1683
  C  C700  1  0.280070  0.875130  0.058130  1.0  -0.1001
  C  C701  1  0.209730  0.535070  0.346670  1.0  0.6942
  C  C702  1  0.346830  0.555870  0.295000  1.0  0.7219
  C  C703  1  0.156330  0.477370  0.357370  1.0  -0.1022
  C  C704  1  0.356030  0.512270  0.281790  1.0  -0.1131
  C  C705  1  0.115330  0.420170  0.351300  1.0  -0.0566
  C  C706  1  0.154030  0.483470  0.374340  1.0  -0.0537
  C  C707  1  0.308630  0.447570  0.279510  1.0  -0.0759
  C  C708  1  0.415030  0.539470  0.272060  1.0  -0.0673
  C  C709  1  0.069130  0.370470  0.360260  1.0  -0.174
  C  C710  1  0.108430  0.433370  0.384810  1.0  -0.1844
  C  C711  1  0.322030  0.414470  0.266800  1.0  -0.1446
  C  C712  1  0.422130  0.506770  0.259190  1.0  -0.1447
  C  C713  1  0.060130  0.373670  0.376840  1.0  0.08
  C  C714  1  0.375730  0.445870  0.256010  1.0  0.0514
  C  C715  1  0.012630  0.320270  0.387200  1.0  0.0538
  C  C716  1  0.387630  0.406370  0.242820  1.0  0.0184
  C  C717  1  0.997230  0.255570  0.384190  1.0  -0.2156
  C  C718  1  0.978030  0.331170  0.400230  1.0  -0.0912
  C  C719  1  0.452630  0.427870  0.237450  1.0  -0.1685
  C  C720  1  0.946730  0.208470  0.391470  1.0  -0.1007
  C  C721  1  0.992000  0.123600  0.680000  1.0  0.6925
  C  C722  1  0.875700  0.986500  0.628330  1.0  0.7224
  C  C723  1  0.987700  0.177000  0.690700  1.0  -0.1045
  C  C724  1  0.822900  0.977300  0.615120  1.0  -0.1126
  C  C725  1  0.971500  0.218000  0.684630  1.0  -0.0578
  C  C726  1  0.996100  0.179300  0.707670  1.0  -0.0532
  C  C727  1  0.805600  0.024700  0.612840  1.0  -0.0752
  C  C728  1  0.791100  0.918300  0.605390  1.0  -0.0677
  C  C729  1  0.968000  0.264200  0.693590  1.0  -0.1721
  C  C730  1  0.991600  0.224900  0.718140  1.0  -0.1845
  C  C731  1  0.759100  0.011300  0.600130  1.0  -0.1445
  C  C732  1  0.751300  0.911200  0.592520  1.0  -0.143
  C  C733  1  0.980200  0.273200  0.710170  1.0  0.0792
  C  C734  1  0.736800  0.957600  0.589340  1.0  0.0531
  C  C735  1  0.974300  0.320700  0.720530  1.0  0.0525
  C  C736  1  0.685400  0.945700  0.576150  1.0  0.0202
  C  C737  1  0.925000  0.336100  0.717520  1.0  -0.2158
  C  C738  1  0.019800  0.355300  0.733560  1.0  -0.0914
  C  C739  1  0.641900  0.880700  0.570780  1.0  -0.1682
  C  C740  1  0.928400  0.386600  0.724800  1.0  -0.0981
  C  C741  1  0.658670  0.456930  0.013330  1.0  0.6925
  C  C742  1  0.542370  0.319830  0.961660  1.0  0.7224
  C  C743  1  0.654370  0.510330  0.024030  1.0  -0.1045
  C  C744  1  0.489570  0.310630  0.948450  1.0  -0.1126
  C  C745  1  0.638170  0.551330  0.017960  1.0  -0.0578
  C  C746  1  0.662770  0.512630  0.041000  1.0  -0.0532
  C  C747  1  0.472270  0.358030  0.946170  1.0  -0.0752
  C  C748  1  0.457770  0.251630  0.938720  1.0  -0.0677
  C  C749  1  0.634670  0.597530  0.026920  1.0  -0.1721
  C  C750  1  0.658270  0.558230  0.051470  1.0  -0.1845
  C  C751  1  0.425770  0.344630  0.933460  1.0  -0.1445
  C  C752  1  0.417970  0.244530  0.925850  1.0  -0.143
  C  C753  1  0.646870  0.606530  0.043500  1.0  0.0792
  C  C754  1  0.403470  0.290930  0.922670  1.0  0.0531
  C  C755  1  0.640970  0.654030  0.053860  1.0  0.0525
  C  C756  1  0.352070  0.279030  0.909480  1.0  0.0202
  C  C757  1  0.591670  0.669430  0.050850  1.0  -0.2158
  C  C758  1  0.686470  0.688630  0.066890  1.0  -0.0914
  C  C759  1  0.308570  0.214030  0.904110  1.0  -0.1678
  C  C760  1  0.595070  0.719930  0.058130  1.0  -0.0981
  C  C761  1  0.325330  0.790270  0.346670  1.0  0.6925
  C  C762  1  0.209030  0.653170  0.295000  1.0  0.7224
  C  C763  1  0.321030  0.843670  0.357370  1.0  -0.1046
  C  C764  1  0.156230  0.643970  0.281790  1.0  -0.1126
  C  C765  1  0.304830  0.884670  0.351300  1.0  -0.0578
  C  C766  1  0.329430  0.845970  0.374340  1.0  -0.0532
  C  C767  1  0.138930  0.691370  0.279510  1.0  -0.0752
  C  C768  1  0.124430  0.584970  0.272060  1.0  -0.0677
  C  C769  1  0.301330  0.930870  0.360260  1.0  -0.172
  C  C770  1  0.324930  0.891570  0.384810  1.0  -0.1845
  C  C771  1  0.092430  0.677970  0.266800  1.0  -0.1445
  C  C772  1  0.084630  0.577870  0.259190  1.0  -0.143
  C  C773  1  0.313530  0.939870  0.376840  1.0  0.0792
  C  C774  1  0.070130  0.624270  0.256010  1.0  0.0531
  C  C775  1  0.307630  0.987370  0.387200  1.0  0.0524
  C  C776  1  0.018730  0.612370  0.242820  1.0  0.0202
  C  C777  1  0.258330  0.002770  0.384190  1.0  -0.2159
  C  C778  1  0.353130  0.021970  0.400230  1.0  -0.0906
  C  C779  1  0.975230  0.547370  0.237450  1.0  -0.1682
  C  C780  1  0.261730  0.053270  0.391470  1.0  -0.0987
  C  C781  1  0.131600  0.008000  0.680000  1.0  0.6921
  C  C782  1  0.110800  0.124300  0.628330  1.0  0.7231
  C  C783  1  0.189300  0.012300  0.690700  1.0  -0.1102
  C  C784  1  0.154400  0.177100  0.615120  1.0  -0.1125
  C  C785  1  0.246500  0.028500  0.684630  1.0  -0.0563
  C  C786  1  0.183200  0.003900  0.707670  1.0  -0.0518
  C  C787  1  0.219100  0.194400  0.612840  1.0  -0.0764
  C  C788  1  0.127200  0.208900  0.605390  1.0  -0.0669
  C  C789  1  0.296200  0.032000  0.693590  1.0  -0.1737
  C  C790  1  0.233300  0.008400  0.718140  1.0  -0.1845
  C  C791  1  0.252200  0.240900  0.600130  1.0  -0.1416
  C  C792  1  0.159900  0.248700  0.592520  1.0  -0.1427
  C  C793  1  0.293000  0.019800  0.710170  1.0  0.0792
  C  C794  1  0.220800  0.263200  0.589340  1.0  0.0523
  C  C795  1  0.346400  0.025700  0.720530  1.0  0.0517
  C  C796  1  0.260300  0.314600  0.576150  1.0  0.0194
  C  C797  1  0.411100  0.075000  0.717520  1.0  -0.2169
  C  C798  1  0.335500  0.980200  0.733560  1.0  -0.0917
  C  C799  1  0.238800  0.358100  0.570780  1.0  -0.1714
  C  C800  1  0.458200  0.071600  0.724800  1.0  -0.1007
  C  C801  1  0.798270  0.341330  0.013330  1.0  0.6921
  C  C802  1  0.777470  0.457630  0.961660  1.0  0.7231
  C  C803  1  0.855970  0.345630  0.024030  1.0  -0.1102
  C  C804  1  0.821070  0.510430  0.948450  1.0  -0.1125
  C  C805  1  0.913170  0.361830  0.017960  1.0  -0.0563
  C  C806  1  0.849870  0.337230  0.041000  1.0  -0.0518
  C  C807  1  0.885770  0.527730  0.946170  1.0  -0.0764
  C  C808  1  0.793870  0.542230  0.938720  1.0  -0.0669
  C  C809  1  0.962870  0.365330  0.026920  1.0  -0.1737
  C  C810  1  0.899970  0.341730  0.051470  1.0  -0.1845
  C  C811  1  0.918870  0.574230  0.933460  1.0  -0.1416
  C  C812  1  0.826570  0.582030  0.925850  1.0  -0.1427
  C  C813  1  0.959670  0.353130  0.043500  1.0  0.0792
  C  C814  1  0.887470  0.596530  0.922670  1.0  0.0523
  C  C815  1  0.013070  0.359030  0.053860  1.0  0.0517
  C  C816  1  0.926970  0.647930  0.909480  1.0  0.0188
  C  C817  1  0.077770  0.408330  0.050850  1.0  -0.2169
  C  C818  1  0.002170  0.313530  0.066890  1.0  -0.0917
  C  C819  1  0.905470  0.691430  0.904110  1.0  -0.1711
  C  C820  1  0.124870  0.404930  0.058130  1.0  -0.1007
  C  C821  1  0.464930  0.674670  0.346670  1.0  0.6921
  C  C822  1  0.444130  0.790970  0.295000  1.0  0.7231
  C  C823  1  0.522630  0.678970  0.357370  1.0  -0.1103
  C  C824  1  0.487730  0.843770  0.281790  1.0  -0.1125
  C  C825  1  0.579830  0.695170  0.351300  1.0  -0.0563
  C  C826  1  0.516530  0.670570  0.374340  1.0  -0.0518
  C  C827  1  0.552430  0.861070  0.279510  1.0  -0.0764
  C  C828  1  0.460530  0.875570  0.272060  1.0  -0.0669
  C  C829  1  0.629530  0.698670  0.360260  1.0  -0.1736
  C  C830  1  0.566630  0.675070  0.384810  1.0  -0.1845
  C  C831  1  0.585530  0.907570  0.266800  1.0  -0.1416
  C  C832  1  0.493230  0.915370  0.259190  1.0  -0.1427
  C  C833  1  0.626330  0.686470  0.376840  1.0  0.0792
  C  C834  1  0.554130  0.929870  0.256010  1.0  0.0523
  C  C835  1  0.679730  0.692370  0.387200  1.0  0.0516
  C  C836  1  0.593630  0.981270  0.242820  1.0  0.0194
  C  C837  1  0.744430  0.741670  0.384190  1.0  -0.2169
  C  C838  1  0.668830  0.646870  0.400230  1.0  -0.0918
  C  C839  1  0.572130  0.024770  0.237450  1.0  -0.1714
  C  C840  1  0.791530  0.738270  0.391470  1.0  -0.1015
  C  C841  1  0.539050  0.313530  0.188570  1.0  0.7317
  C  C842  1  0.489130  0.305220  0.175890  1.0  -0.1054
  C  C843  1  0.447700  0.245780  0.168830  1.0  -0.0147
  C  C844  1  0.400900  0.235660  0.156650  1.0  -0.1783
  C  C845  1  0.392280  0.287160  0.151740  1.0  0.1828
  C  C846  1  0.428750  0.345390  0.159680  1.0  -0.1509
  C  C847  1  0.477340  0.354540  0.171060  1.0  -0.03
  C  C848  1  0.341510  0.276250  0.138890  1.0  0.0739
  C  C849  1  0.287510  0.214470  0.135900  1.0  -0.1657
  C  C850  1  0.243190  0.205740  0.123110  1.0  -0.115
  C  C851  1  0.251260  0.256810  0.112950  1.0  -0.1227
  C  C852  1  0.302060  0.320410  0.116060  1.0  0.063
  C  C853  1  0.346550  0.329290  0.129200  1.0  -0.0932
  C  C854  1  0.308750  0.376600  0.105720  1.0  0.043
  C  C855  1  0.293520  0.369500  0.088610  1.0  -0.1089
  C  C856  1  0.294000  0.419300  0.079920  1.0  -0.028
  C  C857  1  0.313000  0.479400  0.087030  1.0  -0.1183
  C  C858  1  0.330700  0.490100  0.104570  1.0  -0.0641
  C  C859  1  0.331100  0.438700  0.113510  1.0  -0.1052
  C  C860  1  0.315000  0.534500  0.077520  1.0  0.6292
  C  C861  1  0.205720  0.646860  0.521900  1.0  0.7317
  C  C862  1  0.155800  0.638550  0.509220  1.0  -0.1054
  C  C863  1  0.114370  0.579110  0.502160  1.0  -0.0173
  C  C864  1  0.067570  0.568990  0.489980  1.0  -0.1783
  C  C865  1  0.058950  0.620490  0.485070  1.0  0.1828
  C  C866  1  0.095420  0.678720  0.493010  1.0  -0.1509
  C  C867  1  0.144010  0.687870  0.504390  1.0  -0.03
  C  C868  1  0.008180  0.609580  0.472220  1.0  0.0739
  C  C869  1  0.954180  0.547800  0.469230  1.0  -0.1657
  C  C870  1  0.909860  0.539070  0.456440  1.0  -0.1152
  C  C871  1  0.917930  0.590140  0.446280  1.0  -0.1231
  C  C872  1  0.968730  0.653740  0.449390  1.0  0.063
  C  C873  1  0.013220  0.662620  0.462530  1.0  -0.0932
  C  C874  1  0.975420  0.709930  0.439050  1.0  0.043
  C  C875  1  0.960190  0.702830  0.421940  1.0  -0.1089
  C  C876  1  0.960670  0.752630  0.413250  1.0  -0.028
  C  C877  1  0.979670  0.812730  0.420360  1.0  -0.1183
  C  C878  1  0.997370  0.823430  0.437900  1.0  -0.0641
  C  C879  1  0.997770  0.772030  0.446840  1.0  -0.1052
  C  C880  1  0.981670  0.867830  0.410850  1.0  0.6293
  C  C881  1  0.872380  0.980200  0.855240  1.0  0.7314
  C  C882  1  0.822460  0.971890  0.842560  1.0  -0.1054
  C  C883  1  0.781030  0.912450  0.835500  1.0  -0.0147
  C  C884  1  0.734230  0.902330  0.823320  1.0  -0.1783
  C  C885  1  0.725610  0.953830  0.818410  1.0  0.1828
  C  C886  1  0.762080  0.012060  0.826350  1.0  -0.1509
  C  C887  1  0.810670  0.021210  0.837730  1.0  -0.03
  C  C888  1  0.674840  0.942920  0.805560  1.0  0.0739
  C  C889  1  0.620840  0.881140  0.802570  1.0  -0.1657
  C  C890  1  0.576520  0.872410  0.789780  1.0  -0.115
  C  C891  1  0.584590  0.923480  0.779620  1.0  -0.1227
  C  C892  1  0.635390  0.987080  0.782730  1.0  0.063
  C  C893  1  0.679880  0.995960  0.795870  1.0  -0.0932
  C  C894  1  0.642080  0.043270  0.772390  1.0  0.043
  C  C895  1  0.626850  0.036170  0.755280  1.0  -0.1089
  C  C896  1  0.627330  0.085970  0.746590  1.0  -0.028
  C  C897  1  0.646330  0.146070  0.753700  1.0  -0.1183
  C  C898  1  0.664030  0.156770  0.771240  1.0  -0.0641
  C  C899  1  0.664430  0.105370  0.780180  1.0  -0.1052
  C  C900  1  0.648330  0.201170  0.744190  1.0  0.6292
  C  C901  1  0.686470  0.225520  0.188570  1.0  0.7296
  C  C902  1  0.694780  0.183910  0.175890  1.0  -0.1049
  C  C903  1  0.754220  0.201920  0.168830  1.0  -0.0201
  C  C904  1  0.764340  0.165240  0.156650  1.0  -0.1832
  C  C905  1  0.712840  0.105120  0.151740  1.0  0.1832
  C  C906  1  0.654610  0.083360  0.159680  1.0  -0.1499
  C  C907  1  0.645460  0.122800  0.171060  1.0  -0.0265
  C  C908  1  0.723750  0.065260  0.138890  1.0  0.0743
  C  C909  1  0.785530  0.073040  0.135900  1.0  -0.1632
  C  C910  1  0.794260  0.037450  0.123110  1.0  -0.1149
  C  C911  1  0.743190  0.994450  0.112950  1.0  -0.1235
  C  C912  1  0.679590  0.981650  0.116060  1.0  0.0632
  C  C913  1  0.670710  0.017260  0.129200  1.0  -0.0981
  C  C914  1  0.623400  0.932150  0.105720  1.0  0.0431
  C  C915  1  0.630500  0.924020  0.088610  1.0  -0.1112
  C  C916  1  0.580700  0.874700  0.079920  1.0  -0.0286
  C  C917  1  0.520600  0.833600  0.087030  1.0  -0.1203
  C  C918  1  0.509900  0.840600  0.104570  1.0  -0.0652
  C  C919  1  0.561300  0.892400  0.113510  1.0  -0.1017
  C  C920  1  0.465500  0.780500  0.077520  1.0  0.6298
  C  C921  1  0.353140  0.558850  0.521900  1.0  0.7296
  C  C922  1  0.361450  0.517240  0.509220  1.0  -0.1049
  C  C923  1  0.420890  0.535250  0.502160  1.0  -0.0179
  C  C924  1  0.431010  0.498570  0.489980  1.0  -0.1832
  C  C925  1  0.379510  0.438450  0.485070  1.0  0.1832
  C  C926  1  0.321280  0.416690  0.493010  1.0  -0.1499
  C  C927  1  0.312130  0.456130  0.504390  1.0  -0.0266
  C  C928  1  0.390420  0.398590  0.472220  1.0  0.0743
  C  C929  1  0.452200  0.406370  0.469230  1.0  -0.1632
  C  C930  1  0.460930  0.370780  0.456440  1.0  -0.1149
  C  C931  1  0.409860  0.327780  0.446280  1.0  -0.1235
  C  C932  1  0.346260  0.314980  0.449390  1.0  0.0632
  C  C933  1  0.337380  0.350590  0.462530  1.0  -0.0981
  C  C934  1  0.290070  0.265480  0.439050  1.0  0.043
  C  C935  1  0.297170  0.257350  0.421940  1.0  -0.1112
  C  C936  1  0.247370  0.208030  0.413250  1.0  -0.0286
  C  C937  1  0.187270  0.166930  0.420360  1.0  -0.1203
  C  C938  1  0.176570  0.173930  0.437900  1.0  -0.0652
  C  C939  1  0.227970  0.225730  0.446840  1.0  -0.1017
  C  C940  1  0.132170  0.113830  0.410850  1.0  0.6298
  C  C941  1  0.019800  0.892190  0.855240  1.0  0.7296
  C  C942  1  0.028110  0.850580  0.842560  1.0  -0.1049
  C  C943  1  0.087550  0.868590  0.835500  1.0  -0.02
  C  C944  1  0.097670  0.831910  0.823320  1.0  -0.1832
  C  C945  1  0.046170  0.771790  0.818410  1.0  0.1832
  C  C946  1  0.987940  0.750030  0.826350  1.0  -0.1499
  C  C947  1  0.978790  0.789470  0.837730  1.0  -0.0265
  C  C948  1  0.057080  0.731930  0.805560  1.0  0.0743
  C  C949  1  0.118860  0.739710  0.802570  1.0  -0.1632
  C  C950  1  0.127590  0.704120  0.789780  1.0  -0.1151
  C  C951  1  0.076520  0.661120  0.779620  1.0  -0.1235
  C  C952  1  0.012920  0.648320  0.782730  1.0  0.0632
  C  C953  1  0.004040  0.683930  0.795870  1.0  -0.0981
  C  C954  1  0.956730  0.598820  0.772390  1.0  0.0431
  C  C955  1  0.963830  0.590690  0.755280  1.0  -0.1112
  C  C956  1  0.914030  0.541370  0.746590  1.0  -0.0286
  C  C957  1  0.853930  0.500270  0.753700  1.0  -0.1203
  C  C958  1  0.843230  0.507270  0.771240  1.0  -0.0652
  C  C959  1  0.894630  0.559070  0.780180  1.0  -0.1017
  C  C960  1  0.798830  0.447170  0.744190  1.0  0.6298
  C  C961  1  0.774480  0.460950  0.188570  1.0  0.731
  C  C962  1  0.816090  0.510870  0.175890  1.0  -0.1075
  C  C963  1  0.798080  0.552300  0.168830  1.0  -0.0145
  C  C964  1  0.834760  0.599100  0.156650  1.0  -0.1777
  C  C965  1  0.894880  0.607720  0.151740  1.0  0.1833
  C  C966  1  0.916640  0.571250  0.159680  1.0  -0.1495
  C  C967  1  0.877200  0.522660  0.171060  1.0  -0.0298
  C  C968  1  0.934740  0.658490  0.138890  1.0  0.0756
  C  C969  1  0.926960  0.712490  0.135900  1.0  -0.164
  C  C970  1  0.962550  0.756810  0.123110  1.0  -0.1169
  C  C971  1  0.005550  0.748740  0.112950  1.0  -0.1244
  C  C972  1  0.018350  0.697940  0.116060  1.0  0.065
  C  C973  1  0.982740  0.653450  0.129200  1.0  -0.095
  C  C974  1  0.067850  0.691250  0.105720  1.0  0.0444
  C  C975  1  0.075980  0.706480  0.088610  1.0  -0.1105
  C  C976  1  0.125300  0.706000  0.079920  1.0  -0.0281
  C  C977  1  0.166400  0.687000  0.087030  1.0  -0.1197
  C  C978  1  0.159400  0.669300  0.104570  1.0  -0.0626
  C  C979  1  0.107600  0.668900  0.113510  1.0  -0.1026
  C  C980  1  0.219500  0.685000  0.077520  1.0  0.6307
  C  C981  1  0.441150  0.794280  0.521900  1.0  0.731
  C  C982  1  0.482760  0.844200  0.509220  1.0  -0.1075
  C  C983  1  0.464750  0.885630  0.502160  1.0  -0.0137
  C  C984  1  0.501430  0.932430  0.489980  1.0  -0.1777
  C  C985  1  0.561550  0.941050  0.485070  1.0  0.1833
  C  C986  1  0.583310  0.904580  0.493010  1.0  -0.1495
  C  C987  1  0.543870  0.855990  0.504390  1.0  -0.0299
  C  C988  1  0.601410  0.991820  0.472220  1.0  0.0756
  C  C989  1  0.593630  0.045820  0.469230  1.0  -0.164
  C  C990  1  0.629220  0.090140  0.456440  1.0  -0.1171
  C  C991  1  0.672220  0.082070  0.446280  1.0  -0.1244
  C  C992  1  0.685020  0.031270  0.449390  1.0  0.065
  C  C993  1  0.649410  0.986780  0.462530  1.0  -0.095
  C  C994  1  0.734520  0.024580  0.439050  1.0  0.0443
  C  C995  1  0.742650  0.039810  0.421940  1.0  -0.1105
  C  C996  1  0.791970  0.039330  0.413250  1.0  -0.0281
  C  C997  1  0.833070  0.020330  0.420360  1.0  -0.1197
  C  C998  1  0.826070  0.002630  0.437900  1.0  -0.0626
  C  C999  1  0.774270  0.002230  0.446840  1.0  -0.1026
  C  C1000  1  0.886170  0.018330  0.410850  1.0  0.6307
  C  C1001  1  0.107810  0.127620  0.855240  1.0  0.7311
  C  C1002  1  0.149420  0.177540  0.842560  1.0  -0.1075
  C  C1003  1  0.131410  0.218970  0.835500  1.0  -0.0144
  C  C1004  1  0.168090  0.265770  0.823320  1.0  -0.1777
  C  C1005  1  0.228210  0.274390  0.818410  1.0  0.1833
  C  C1006  1  0.249970  0.237920  0.826350  1.0  -0.1495
  C  C1007  1  0.210530  0.189330  0.837730  1.0  -0.0299
  C  C1008  1  0.268070  0.325160  0.805560  1.0  0.0756
  C  C1009  1  0.260290  0.379160  0.802570  1.0  -0.164
  C  C1010  1  0.295880  0.423480  0.789780  1.0  -0.1169
  C  C1011  1  0.338880  0.415410  0.779620  1.0  -0.1244
  C  C1012  1  0.351680  0.364610  0.782730  1.0  0.065
  C  C1013  1  0.316070  0.320120  0.795870  1.0  -0.095
  C  C1014  1  0.401180  0.357920  0.772390  1.0  0.0444
  C  C1015  1  0.409310  0.373150  0.755280  1.0  -0.1105
  C  C1016  1  0.458630  0.372670  0.746590  1.0  -0.0281
  C  C1017  1  0.499730  0.353670  0.753700  1.0  -0.1197
  C  C1018  1  0.492730  0.335970  0.771240  1.0  -0.0626
  C  C1019  1  0.440930  0.335570  0.780180  1.0  -0.1026
  C  C1020  1  0.552830  0.351670  0.744190  1.0  0.6307
  C  C1021  1  0.686470  0.460950  0.688570  1.0  0.7316
  C  C1022  1  0.694780  0.510870  0.675890  1.0  -0.1067
  C  C1023  1  0.754220  0.552300  0.668830  1.0  -0.0125
  C  C1024  1  0.764340  0.599100  0.656650  1.0  -0.1769
  C  C1025  1  0.712840  0.607720  0.651740  1.0  0.183
  C  C1026  1  0.654610  0.571250  0.659680  1.0  -0.1502
  C  C1027  1  0.645460  0.522660  0.671060  1.0  -0.029
  C  C1028  1  0.723750  0.658490  0.638890  1.0  0.0757
  C  C1029  1  0.785530  0.712490  0.635900  1.0  -0.1646
  C  C1030  1  0.794260  0.756810  0.623110  1.0  -0.1163
  C  C1031  1  0.743190  0.748740  0.612950  1.0  -0.1245
  C  C1032  1  0.679590  0.697940  0.616060  1.0  0.0653
  C  C1033  1  0.670710  0.653450  0.629200  1.0  -0.0946
  C  C1034  1  0.623400  0.691250  0.605720  1.0  0.045
  C  C1035  1  0.630500  0.706480  0.588610  1.0  -0.1113
  C  C1036  1  0.580700  0.706000  0.579920  1.0  -0.0288
  C  C1037  1  0.520600  0.687000  0.587030  1.0  -0.122
  C  C1038  1  0.509900  0.669300  0.604570  1.0  -0.0641
  C  C1039  1  0.561300  0.668900  0.613510  1.0  -0.1022
  C  C1040  1  0.465500  0.685000  0.577520  1.0  0.6311
  C  C1041  1  0.353140  0.794280  0.021900  1.0  0.7315
  C  C1042  1  0.361450  0.844200  0.009220  1.0  -0.104
  C  C1043  1  0.420890  0.885630  0.002160  1.0  -0.015
  C  C1044  1  0.431010  0.932430  0.989980  1.0  -0.1769
  C  C1045  1  0.379510  0.941050  0.985070  1.0  0.183
  C  C1046  1  0.321280  0.904580  0.993010  1.0  -0.1502
  C  C1047  1  0.312130  0.855990  0.004390  1.0  -0.029
  C  C1048  1  0.390420  0.991820  0.972220  1.0  0.0757
  C  C1049  1  0.452200  0.045820  0.969230  1.0  -0.1646
  C  C1050  1  0.460930  0.090140  0.956440  1.0  -0.1164
  C  C1051  1  0.409860  0.082070  0.946280  1.0  -0.1249
  C  C1052  1  0.346260  0.031270  0.949390  1.0  0.0653
  C  C1053  1  0.337380  0.986780  0.962530  1.0  -0.0946
  C  C1054  1  0.290070  0.024580  0.939050  1.0  0.045
  C  C1055  1  0.297170  0.039810  0.921940  1.0  -0.1113
  C  C1056  1  0.247370  0.039330  0.913250  1.0  -0.0288
  C  C1057  1  0.187270  0.020330  0.920360  1.0  -0.122
  C  C1058  1  0.176570  0.002630  0.937900  1.0  -0.0641
  C  C1059  1  0.227970  0.002230  0.946840  1.0  -0.1022
  C  C1060  1  0.132170  0.018330  0.910850  1.0  0.631
  C  C1061  1  0.019800  0.127620  0.355240  1.0  0.7313
  C  C1062  1  0.028110  0.177540  0.342560  1.0  -0.1067
  C  C1063  1  0.087550  0.218970  0.335500  1.0  -0.0125
  C  C1064  1  0.097670  0.265770  0.323320  1.0  -0.1769
  C  C1065  1  0.046170  0.274390  0.318410  1.0  0.183
  C  C1066  1  0.987940  0.237920  0.326350  1.0  -0.1502
  C  C1067  1  0.978790  0.189330  0.337730  1.0  -0.029
  C  C1068  1  0.057080  0.325160  0.305560  1.0  0.0757
  C  C1069  1  0.118860  0.379160  0.302570  1.0  -0.1646
  C  C1070  1  0.127590  0.423480  0.289780  1.0  -0.1163
  C  C1071  1  0.076520  0.415410  0.279620  1.0  -0.1245
  C  C1072  1  0.012920  0.364610  0.282730  1.0  0.0653
  C  C1073  1  0.004040  0.320120  0.295870  1.0  -0.0946
  C  C1074  1  0.956730  0.357920  0.272390  1.0  0.045
  C  C1075  1  0.963830  0.373150  0.255280  1.0  -0.1113
  C  C1076  1  0.914030  0.372670  0.246590  1.0  -0.0288
  C  C1077  1  0.853930  0.353670  0.253700  1.0  -0.122
  C  C1078  1  0.843230  0.335970  0.271240  1.0  -0.0641
  C  C1079  1  0.894630  0.335570  0.280180  1.0  -0.1022
  C  C1080  1  0.798830  0.351670  0.244190  1.0  0.6311
  C  C1081  1  0.774480  0.313530  0.688570  1.0  0.731
  C  C1082  1  0.816090  0.305220  0.675890  1.0  -0.1049
  C  C1083  1  0.798080  0.245780  0.668830  1.0  -0.0184
  C  C1084  1  0.834760  0.235660  0.656650  1.0  -0.178
  C  C1085  1  0.894880  0.287160  0.651740  1.0  0.1842
  C  C1086  1  0.916640  0.345390  0.659680  1.0  -0.1512
  C  C1087  1  0.877200  0.354540  0.671060  1.0  -0.0303
  C  C1088  1  0.934740  0.276250  0.638890  1.0  0.0742
  C  C1089  1  0.926960  0.214470  0.635900  1.0  -0.1662
  C  C1090  1  0.962550  0.205740  0.623110  1.0  -0.1138
  C  C1091  1  0.005550  0.256810  0.612950  1.0  -0.1239
  C  C1092  1  0.018350  0.320410  0.616060  1.0  0.0641
  C  C1093  1  0.982740  0.329290  0.629200  1.0  -0.0933
  C  C1094  1  0.067850  0.376600  0.605720  1.0  0.0431
  C  C1095  1  0.075980  0.369500  0.588610  1.0  -0.1076
  C  C1096  1  0.125300  0.419300  0.579920  1.0  -0.0287
  C  C1097  1  0.166400  0.479400  0.587030  1.0  -0.1188
  C  C1098  1  0.159400  0.490100  0.604570  1.0  -0.0628
  C  C1099  1  0.107600  0.438700  0.613510  1.0  -0.1065
  C  C1100  1  0.219500  0.534500  0.577520  1.0  0.6289
  C  C1101  1  0.441150  0.646860  0.021900  1.0  0.731
  C  C1102  1  0.482760  0.638550  0.009220  1.0  -0.1022
  C  C1103  1  0.464750  0.579110  0.002160  1.0  -0.0143
  C  C1104  1  0.501430  0.568990  0.989980  1.0  -0.1779
  C  C1105  1  0.561550  0.620490  0.985070  1.0  0.1842
  C  C1106  1  0.583310  0.678720  0.993010  1.0  -0.1512
  C  C1107  1  0.543870  0.687870  0.004390  1.0  -0.0304
  C  C1108  1  0.601410  0.609580  0.972220  1.0  0.0742
  C  C1109  1  0.593630  0.547800  0.969230  1.0  -0.1662
  C  C1110  1  0.629220  0.539070  0.956440  1.0  -0.1138
  C  C1111  1  0.672220  0.590140  0.946280  1.0  -0.1239
  C  C1112  1  0.685020  0.653740  0.949390  1.0  0.0641
  C  C1113  1  0.649410  0.662620  0.962530  1.0  -0.0933
  C  C1114  1  0.734520  0.709930  0.939050  1.0  0.043
  C  C1115  1  0.742650  0.702830  0.921940  1.0  -0.1076
  C  C1116  1  0.791970  0.752630  0.913250  1.0  -0.0287
  C  C1117  1  0.833070  0.812730  0.920360  1.0  -0.1188
  C  C1118  1  0.826070  0.823430  0.937900  1.0  -0.0628
  C  C1119  1  0.774270  0.772030  0.946840  1.0  -0.1065
  C  C1120  1  0.886170  0.867830  0.910850  1.0  0.6289
  C  C1121  1  0.107810  0.980200  0.355240  1.0  0.731
  C  C1122  1  0.149420  0.971890  0.342560  1.0  -0.1049
  C  C1123  1  0.131410  0.912450  0.335500  1.0  -0.0183
  C  C1124  1  0.168090  0.902330  0.323320  1.0  -0.178
  C  C1125  1  0.228210  0.953830  0.318410  1.0  0.1842
  C  C1126  1  0.249970  0.012060  0.326350  1.0  -0.1512
  C  C1127  1  0.210530  0.021210  0.337730  1.0  -0.0303
  C  C1128  1  0.268070  0.942920  0.305560  1.0  0.0742
  C  C1129  1  0.260290  0.881140  0.302570  1.0  -0.1662
  C  C1130  1  0.295880  0.872410  0.289780  1.0  -0.1139
  C  C1131  1  0.338880  0.923480  0.279620  1.0  -0.1239
  C  C1132  1  0.351680  0.987080  0.282730  1.0  0.0641
  C  C1133  1  0.316070  0.995960  0.295870  1.0  -0.0933
  C  C1134  1  0.401180  0.043270  0.272390  1.0  0.0431
  C  C1135  1  0.409310  0.036170  0.255280  1.0  -0.1076
  C  C1136  1  0.458630  0.085970  0.246590  1.0  -0.0287
  C  C1137  1  0.499730  0.146070  0.253700  1.0  -0.1188
  C  C1138  1  0.492730  0.156770  0.271240  1.0  -0.0628
  C  C1139  1  0.440930  0.105370  0.280180  1.0  -0.1065
  C  C1140  1  0.552830  0.201170  0.244190  1.0  0.6289
  C  C1141  1  0.539050  0.225520  0.688570  1.0  0.7309
  C  C1142  1  0.489130  0.183910  0.675890  1.0  -0.1055
  C  C1143  1  0.447700  0.201920  0.668830  1.0  -0.0188
  C  C1144  1  0.400900  0.165240  0.656650  1.0  -0.1836
  C  C1145  1  0.392280  0.105120  0.651740  1.0  0.1823
  C  C1146  1  0.428750  0.083360  0.659680  1.0  -0.1484
  C  C1147  1  0.477340  0.122800  0.671060  1.0  -0.0237
  C  C1148  1  0.341510  0.065260  0.638890  1.0  0.0739
  C  C1149  1  0.287510  0.073040  0.635900  1.0  -0.1629
  C  C1150  1  0.243190  0.037450  0.623110  1.0  -0.1151
  C  C1151  1  0.251260  0.994450  0.612950  1.0  -0.1222
  C  C1152  1  0.302060  0.981650  0.616060  1.0  0.0626
  C  C1153  1  0.346550  0.017260  0.629200  1.0  -0.0936
  C  C1154  1  0.308750  0.932150  0.605720  1.0  0.0435
  C  C1155  1  0.293520  0.924020  0.588610  1.0  -0.1109
  C  C1156  1  0.294000  0.874700  0.579920  1.0  -0.0283
  C  C1157  1  0.313000  0.833600  0.587030  1.0  -0.1185
  C  C1158  1  0.330700  0.840600  0.604570  1.0  -0.0637
  C  C1159  1  0.331100  0.892400  0.613510  1.0  -0.1015
  C  C1160  1  0.315000  0.780500  0.577520  1.0  0.63
  C  C1161  1  0.205720  0.558850  0.021900  1.0  0.7309
  C  C1162  1  0.155800  0.517240  0.009220  1.0  -0.103
  C  C1163  1  0.114370  0.535250  0.002160  1.0  -0.0147
  C  C1164  1  0.067570  0.498570  0.989980  1.0  -0.1836
  C  C1165  1  0.058950  0.438450  0.985070  1.0  0.1823
  C  C1166  1  0.095420  0.416690  0.993010  1.0  -0.1484
  C  C1167  1  0.144010  0.456130  0.004390  1.0  -0.0236
  C  C1168  1  0.008180  0.398590  0.972220  1.0  0.0739
  C  C1169  1  0.954180  0.406370  0.969230  1.0  -0.1629
  C  C1170  1  0.909860  0.370780  0.956440  1.0  -0.1153
  C  C1171  1  0.917930  0.327780  0.946280  1.0  -0.1222
  C  C1172  1  0.968730  0.314980  0.949390  1.0  0.0626
  C  C1173  1  0.013220  0.350590  0.962530  1.0  -0.0936
  C  C1174  1  0.975420  0.265480  0.939050  1.0  0.0433
  C  C1175  1  0.960190  0.257350  0.921940  1.0  -0.1109
  C  C1176  1  0.960670  0.208030  0.913250  1.0  -0.0283
  C  C1177  1  0.979670  0.166930  0.920360  1.0  -0.1185
  C  C1178  1  0.997370  0.173930  0.937900  1.0  -0.0637
  C  C1179  1  0.997770  0.225730  0.946840  1.0  -0.1015
  C  C1180  1  0.981670  0.113830  0.910850  1.0  0.6299
  C  C1181  1  0.872380  0.892190  0.355240  1.0  0.7308
  C  C1182  1  0.822460  0.850580  0.342560  1.0  -0.1055
  C  C1183  1  0.781030  0.868590  0.335500  1.0  -0.0188
  C  C1184  1  0.734230  0.831910  0.323320  1.0  -0.1836
  C  C1185  1  0.725610  0.771790  0.318410  1.0  0.1823
  C  C1186  1  0.762080  0.750030  0.326350  1.0  -0.1484
  C  C1187  1  0.810670  0.789470  0.337730  1.0  -0.0237
  C  C1188  1  0.674840  0.731930  0.305560  1.0  0.0739
  C  C1189  1  0.620840  0.739710  0.302570  1.0  -0.1629
  C  C1190  1  0.576520  0.704120  0.289780  1.0  -0.1151
  C  C1191  1  0.584590  0.661120  0.279620  1.0  -0.1222
  C  C1192  1  0.635390  0.648320  0.282730  1.0  0.0626
  C  C1193  1  0.679880  0.683930  0.295870  1.0  -0.0936
  C  C1194  1  0.642080  0.598820  0.272390  1.0  0.0435
  C  C1195  1  0.626850  0.590690  0.255280  1.0  -0.1109
  C  C1196  1  0.627330  0.541370  0.246590  1.0  -0.0283
  C  C1197  1  0.646330  0.500270  0.253700  1.0  -0.1185
  C  C1198  1  0.664030  0.507270  0.271240  1.0  -0.0637
  C  C1199  1  0.664430  0.559070  0.280180  1.0  -0.1015
  C  C1200  1  0.648330  0.447170  0.244190  1.0  0.6301
  O  O1201  1  0.142490  0.130460  0.163620  1.0  -0.6056
  O  O1202  1  0.133480  0.041270  0.134490  1.0  -0.5655
  O  O1203  1  0.063050  0.116450  0.130480  1.0  -0.6135
  O  O1204  1  0.080000  0.085600  0.186510  1.0  -0.6204
  O  O1205  1  0.809160  0.463790  0.496950  1.0  -0.6056
  O  O1206  1  0.800150  0.374600  0.467820  1.0  -0.5655
  O  O1207  1  0.729720  0.449780  0.463810  1.0  -0.6136
  O  O1208  1  0.746670  0.418930  0.519840  1.0  -0.6209
  O  O1209  1  0.475820  0.797130  0.830290  1.0  -0.6056
  O  O1210  1  0.466810  0.707940  0.801160  1.0  -0.5655
  O  O1211  1  0.396380  0.783120  0.797150  1.0  -0.6135
  O  O1212  1  0.413330  0.752270  0.853180  1.0  -0.6206
  O  O1213  1  0.869540  0.012030  0.163620  1.0  -0.6023
  O  O1214  1  0.958730  0.092210  0.134490  1.0  -0.5646
  O  O1215  1  0.883550  0.946600  0.130480  1.0  -0.613
  O  O1216  1  0.914400  0.994400  0.186510  1.0  -0.6184
  O  O1217  1  0.536210  0.345360  0.496950  1.0  -0.6023
  O  O1218  1  0.625400  0.425540  0.467820  1.0  -0.5646
  O  O1219  1  0.550220  0.279930  0.463810  1.0  -0.613
  O  O1220  1  0.581070  0.327730  0.519840  1.0  -0.6194
  O  O1221  1  0.202870  0.678700  0.830290  1.0  -0.6023
  O  O1222  1  0.292060  0.758880  0.801160  1.0  -0.5647
  O  O1223  1  0.216880  0.613270  0.797150  1.0  -0.6131
  O  O1224  1  0.247730  0.661070  0.853180  1.0  -0.6187
  O  O1225  1  0.987970  0.857510  0.163620  1.0  -0.6039
  O  O1226  1  0.907790  0.866520  0.134490  1.0  -0.5663
  O  O1227  1  0.053400  0.936950  0.130480  1.0  -0.6132
  O  O1228  1  0.005600  0.920000  0.186510  1.0  -0.6232
  O  O1229  1  0.654640  0.190840  0.496950  1.0  -0.6039
  O  O1230  1  0.574460  0.199850  0.467820  1.0  -0.5664
  O  O1231  1  0.720070  0.270280  0.463810  1.0  -0.6131
  O  O1232  1  0.672270  0.253330  0.519840  1.0  -0.6237
  O  O1233  1  0.321300  0.524180  0.830290  1.0  -0.6039
  O  O1234  1  0.241120  0.533190  0.801160  1.0  -0.5663
  O  O1235  1  0.386730  0.603620  0.797150  1.0  -0.6133
  O  O1236  1  0.338930  0.586670  0.853180  1.0  -0.6236
  O  O1237  1  0.869540  0.857510  0.663620  1.0  -0.6041
  O  O1238  1  0.958730  0.866520  0.634490  1.0  -0.5639
  O  O1239  1  0.883550  0.936950  0.630480  1.0  -0.6137
  O  O1240  1  0.914400  0.920000  0.686510  1.0  -0.622
  O  O1241  1  0.536210  0.190840  0.996950  1.0  -0.6041
  O  O1242  1  0.625400  0.199850  0.967820  1.0  -0.5639
  O  O1243  1  0.550220  0.270280  0.963810  1.0  -0.6137
  O  O1244  1  0.581070  0.253330  0.019840  1.0  -0.6224
  O  O1245  1  0.202870  0.524180  0.330290  1.0  -0.6041
  O  O1246  1  0.292060  0.533190  0.301160  1.0  -0.5639
  O  O1247  1  0.216880  0.603620  0.297150  1.0  -0.6137
  O  O1248  1  0.247730  0.586670  0.353180  1.0  -0.6222
  O  O1249  1  0.987970  0.130460  0.663620  1.0  -0.6046
  O  O1250  1  0.907790  0.041270  0.634490  1.0  -0.5673
  O  O1251  1  0.053400  0.116450  0.630480  1.0  -0.6127
  O  O1252  1  0.005600  0.085600  0.686510  1.0  -0.6211
  O  O1253  1  0.654640  0.463790  0.996950  1.0  -0.6046
  O  O1254  1  0.574460  0.374600  0.967820  1.0  -0.5673
  O  O1255  1  0.720070  0.449780  0.963810  1.0  -0.6127
  O  O1256  1  0.672270  0.418930  0.019840  1.0  -0.6221
  O  O1257  1  0.321300  0.797130  0.330290  1.0  -0.6046
  O  O1258  1  0.241120  0.707940  0.301160  1.0  -0.5674
  O  O1259  1  0.386730  0.783120  0.297150  1.0  -0.6127
  O  O1260  1  0.338930  0.752270  0.353180  1.0  -0.6213
  O  O1261  1  0.142490  0.012030  0.663620  1.0  -0.602
  O  O1262  1  0.133480  0.092210  0.634490  1.0  -0.5649
  O  O1263  1  0.063050  0.946600  0.630480  1.0  -0.6127
  O  O1264  1  0.080000  0.994400  0.686510  1.0  -0.6183
  O  O1265  1  0.809160  0.345360  0.996950  1.0  -0.602
  O  O1266  1  0.800150  0.425540  0.967820  1.0  -0.5649
  O  O1267  1  0.729720  0.279930  0.963810  1.0  -0.6126
  O  O1268  1  0.746670  0.327730  0.019840  1.0  -0.6186
  O  O1269  1  0.475820  0.678700  0.330290  1.0  -0.602
  O  O1270  1  0.466810  0.758880  0.301160  1.0  -0.5649
  O  O1271  1  0.396380  0.613270  0.297150  1.0  -0.6128
  O  O1272  1  0.413330  0.661070  0.353180  1.0  -0.6185
  O  O1273  1  0.000000  0.000000  0.157560  1.0  -1.2537
  O  O1274  1  0.666667  0.333333  0.490890  1.0  -1.2537
  O  O1275  1  0.333333  0.666667  0.824230  1.0  -1.2539
  O  O1276  1  0.000000  0.000000  0.657560  1.0  -1.2537
  O  O1277  1  0.666667  0.333333  0.990890  1.0  -1.2537
  O  O1278  1  0.333333  0.666667  0.324230  1.0  -1.2539
  O  O1279  1  0.573420  0.371730  0.194860  1.0  -0.6036
  O  O1280  1  0.540740  0.264200  0.193080  1.0  -0.6017
  O  O1281  1  0.331540  0.589540  0.085150  1.0  -0.6205
  O  O1282  1  0.306480  0.525470  0.061190  1.0  -0.6152
  O  O1283  1  0.240090  0.705060  0.528190  1.0  -0.6032
  O  O1284  1  0.207410  0.597530  0.526410  1.0  -0.6022
  O  O1285  1  0.998210  0.922870  0.418480  1.0  -0.6212
  O  O1286  1  0.973150  0.858800  0.394520  1.0  -0.6151
  O  O1287  1  0.906750  0.038400  0.861530  1.0  -0.6036
  O  O1288  1  0.874070  0.930870  0.859750  1.0  -0.6022
  O  O1289  1  0.664870  0.256210  0.751820  1.0  -0.6201
  O  O1290  1  0.639810  0.192140  0.727860  1.0  -0.6152
  O  O1291  1  0.628270  0.201690  0.194860  1.0  -0.6019
  O  O1292  1  0.735800  0.276540  0.193080  1.0  -0.6018
  O  O1293  1  0.410460  0.742000  0.085150  1.0  -0.6231
  O  O1294  1  0.474530  0.781010  0.061190  1.0  -0.6143
  O  O1295  1  0.294940  0.535020  0.528190  1.0  -0.6019
  O  O1296  1  0.402470  0.609870  0.526410  1.0  -0.6018
  O  O1297  1  0.077130  0.075330  0.418480  1.0  -0.6237
  O  O1298  1  0.141200  0.114340  0.394520  1.0  -0.6144
  O  O1299  1  0.961600  0.868360  0.861530  1.0  -0.6019
  O  O1300  1  0.069130  0.943210  0.859750  1.0  -0.6013
  O  O1301  1  0.743790  0.408670  0.751820  1.0  -0.6229
  O  O1302  1  0.807860  0.447680  0.727860  1.0  -0.6143
  O  O1303  1  0.798310  0.426580  0.194860  1.0  -0.6029
  O  O1304  1  0.723460  0.459260  0.193080  1.0  -0.6008
  O  O1305  1  0.258000  0.668460  0.085150  1.0  -0.62
  O  O1306  1  0.218990  0.693520  0.061190  1.0  -0.6154
  O  O1307  1  0.464980  0.759910  0.528190  1.0  -0.6025
  O  O1308  1  0.390130  0.792590  0.526410  1.0  -0.6008
  O  O1309  1  0.924670  0.001790  0.418480  1.0  -0.6207
  O  O1310  1  0.885660  0.026850  0.394520  1.0  -0.6154
  O  O1311  1  0.131640  0.093250  0.861530  1.0  -0.6028
  O  O1312  1  0.056790  0.125930  0.859750  1.0  -0.6002
  O  O1313  1  0.591330  0.335130  0.751820  1.0  -0.6199
  O  O1314  1  0.552320  0.360190  0.727860  1.0  -0.6154
  O  O1315  1  0.628270  0.426580  0.694860  1.0  -0.6029
  O  O1316  1  0.735800  0.459260  0.693080  1.0  -0.6004
  O  O1317  1  0.410460  0.668460  0.585150  1.0  -0.6202
  O  O1318  1  0.474530  0.693520  0.561190  1.0  -0.614
  O  O1319  1  0.294940  0.759910  0.028190  1.0  -0.6026
  O  O1320  1  0.402470  0.792590  0.026410  1.0  -0.601
  O  O1321  1  0.077130  0.001790  0.918480  1.0  -0.6208
  O  O1322  1  0.141200  0.026850  0.894520  1.0  -0.6141
  O  O1323  1  0.961600  0.093250  0.361530  1.0  -0.6029
  O  O1324  1  0.069130  0.125930  0.359750  1.0  -0.601
  O  O1325  1  0.743790  0.335130  0.251820  1.0  -0.6198
  O  O1326  1  0.807860  0.360190  0.227860  1.0  -0.614
  O  O1327  1  0.798310  0.371730  0.694860  1.0  -0.6036
  O  O1328  1  0.723460  0.264200  0.693080  1.0  -0.6021
  O  O1329  1  0.258000  0.589540  0.585150  1.0  -0.6211
  O  O1330  1  0.218990  0.525470  0.561190  1.0  -0.6158
  O  O1331  1  0.464980  0.705060  0.028190  1.0  -0.6036
  O  O1332  1  0.390130  0.597530  0.026410  1.0  -0.6021
  O  O1333  1  0.924670  0.922870  0.918480  1.0  -0.6217
  O  O1334  1  0.885660  0.858800  0.894520  1.0  -0.6158
  O  O1335  1  0.131640  0.038400  0.361530  1.0  -0.6036
  O  O1336  1  0.056790  0.930870  0.359750  1.0  -0.6015
  O  O1337  1  0.591330  0.256210  0.251820  1.0  -0.6209
  O  O1338  1  0.552320  0.192140  0.227860  1.0  -0.6158
  O  O1339  1  0.573420  0.201690  0.694860  1.0  -0.6025
  O  O1340  1  0.540740  0.276540  0.693080  1.0  -0.6009
  O  O1341  1  0.331540  0.742000  0.585150  1.0  -0.6222
  O  O1342  1  0.306480  0.781010  0.561190  1.0  -0.6144
  O  O1343  1  0.240090  0.535020  0.028190  1.0  -0.6021
  O  O1344  1  0.207410  0.609870  0.026410  1.0  -0.6009
  O  O1345  1  0.998210  0.075330  0.918480  1.0  -0.623
  O  O1346  1  0.973150  0.114340  0.894520  1.0  -0.6144
  O  O1347  1  0.906750  0.868360  0.361530  1.0  -0.6025
  O  O1348  1  0.874070  0.943210  0.359750  1.0  -0.6004
  O  O1349  1  0.664870  0.408670  0.251820  1.0  -0.6221
  O  O1350  1  0.639810  0.447680  0.227860  1.0  -0.6143
  O  O1351  1  0.666667  0.333333  0.217230  1.0  -1.171
  O  O1352  1  0.333333  0.666667  0.550560  1.0  -1.1701
  O  O1353  1  0.000000  0.000000  0.883900  1.0  -1.1704
  O  O1354  1  0.666667  0.333333  0.717230  1.0  -1.171
  O  O1355  1  0.333333  0.666667  0.050560  1.0  -1.1701
  O  O1356  1  0.000000  0.000000  0.383900  1.0  -1.1704
