# generated using pymatgen
data_Co5H34C44(NO14)2
_symmetry_space_group_name_H-M   'P 1'
_cell_length_a   17.78000000
_cell_length_b   24.58000000
_cell_length_c   39.38600000
_cell_angle_alpha   90.00000000
_cell_angle_beta   90.00000000
_cell_angle_gamma   111.20300000
_symmetry_Int_Tables_number   1
_chemical_formula_structural   Co5H34C44(NO14)2
_chemical_formula_sum   'Co40 H272 C352 N16 O224'
_cell_volume   16047.72458913
_cell_formula_units_Z   8
loop_
 _symmetry_equiv_pos_site_id
 _symmetry_equiv_pos_as_xyz
  1  'x, y, z'
loop_
 _atom_site_type_symbol
 _atom_site_label
 _atom_site_symmetry_multiplicity
 _atom_site_fract_x
 _atom_site_fract_y
 _atom_site_fract_z
 _atom_site_occupancy
 _atom_site_charge
  Co  Co1  1  0.478170  0.740960  0.938460  1.0  1.1061
  Co  Co2  1  0.344280  0.899180  0.629910  1.0  1.0341
  Co  Co3  1  0.531450  0.921620  0.656270  1.0  1.046
  Co  Co4  1  0.276730  0.660880  0.927850  1.0  1.1429
  Co  Co5  1  0.021830  0.259040  0.938460  1.0  1.1071
  Co  Co6  1  0.155720  0.100820  0.629910  1.0  1.0328
  Co  Co7  1  0.968550  0.078380  0.656270  1.0  1.0478
  Co  Co8  1  0.223270  0.339120  0.927850  1.0  1.1435
  Co  Co9  1  0.737210  0.259040  0.561540  1.0  1.1064
  Co  Co10  1  0.445100  0.100820  0.870090  1.0  1.0334
  Co  Co11  1  0.609830  0.078380  0.843730  1.0  1.0441
  Co  Co12  1  0.615850  0.339120  0.572150  1.0  1.1418
  Co  Co13  1  0.762790  0.740960  0.561540  1.0  1.107
  Co  Co14  1  0.054900  0.899180  0.870090  1.0  1.0329
  Co  Co15  1  0.890170  0.921620  0.843730  1.0  1.0451
  Co  Co16  1  0.884150  0.660880  0.572150  1.0  1.1433
  Co  Co17  1  0.521830  0.259040  0.061540  1.0  1.1066
  Co  Co18  1  0.655720  0.100820  0.370090  1.0  1.0328
  Co  Co19  1  0.468550  0.078380  0.343730  1.0  1.0449
  Co  Co20  1  0.723270  0.339120  0.072150  1.0  1.143
  Co  Co21  1  0.978170  0.740960  0.061540  1.0  1.1055
  Co  Co22  1  0.844280  0.899180  0.370090  1.0  1.0335
  Co  Co23  1  0.031450  0.921620  0.343730  1.0  1.0439
  Co  Co24  1  0.776730  0.660880  0.072150  1.0  1.1422
  Co  Co25  1  0.262790  0.740960  0.438460  1.0  1.1063
  Co  Co26  1  0.554900  0.899180  0.129910  1.0  1.033
  Co  Co27  1  0.390170  0.921620  0.156270  1.0  1.0478
  Co  Co28  1  0.384150  0.660880  0.427850  1.0  1.1439
  Co  Co29  1  0.237210  0.259040  0.438460  1.0  1.1057
  Co  Co30  1  0.945100  0.100820  0.129910  1.0  1.0338
  Co  Co31  1  0.109830  0.078380  0.156270  1.0  1.0463
  Co  Co32  1  0.115850  0.339120  0.427850  1.0  1.1424
  Co  Co33  1  0.559760  0.619520  0.750000  1.0  1.092
  Co  Co34  1  0.471480  0.442960  0.750000  1.0  1.0441
  Co  Co35  1  0.940240  0.380480  0.750000  1.0  1.0914
  Co  Co36  1  0.028520  0.557040  0.750000  1.0  1.0441
  Co  Co37  1  0.440240  0.380480  0.250000  1.0  1.0915
  Co  Co38  1  0.528520  0.557040  0.250000  1.0  1.0438
  Co  Co39  1  0.059760  0.619520  0.250000  1.0  1.092
  Co  Co40  1  0.971480  0.442960  0.250000  1.0  1.0439
  H  H41  1  0.492200  0.623600  0.842600  1.0  0.1166
  H  H42  1  0.371700  0.449800  0.841100  1.0  0.1189
  H  H43  1  0.347000  0.545400  0.920400  1.0  0.1122
  H  H44  1  0.470200  0.759600  0.706200  1.0  0.1112
  H  H45  1  0.240600  0.745400  0.690500  1.0  0.1071
  H  H46  1  0.288100  0.620800  0.741900  1.0  0.1203
  H  H47  1  0.740500  0.835800  0.919600  1.0  0.1124
  H  H48  1  0.704000  0.719400  0.995100  1.0  0.113
  H  H49  1  0.929000  0.806000  0.959400  1.0  0.1129
  H  H50  1  0.475900  0.885800  0.879000  1.0  0.1086
  H  H51  1  0.330000  0.969600  0.850100  1.0  0.118
  H  H52  1  0.235700  0.805200  0.884200  1.0  0.1121
  H  H53  1  0.314700  0.968200  0.588800  1.0  0.3405
  H  H54  1  0.343300  0.933400  0.569800  1.0  0.3168
  H  H55  1  0.608200  0.857600  0.699200  1.0  0.1172
  H  H56  1  0.661500  0.749600  0.690500  1.0  0.1337
  H  H57  1  0.732700  0.791200  0.712600  1.0  0.1274
  H  H58  1  0.643400  0.784400  0.720800  1.0  0.1271
  H  H59  1  0.797200  0.873600  0.661500  1.0  0.112
  H  H60  1  0.754600  0.810000  0.647500  1.0  0.1197
  H  H61  1  0.728600  0.860800  0.634300  1.0  0.137
  H  H62  1  0.145900  0.678400  0.890700  1.0  0.0518
  H  H63  1  0.069100  0.705000  0.964600  1.0  0.1218
  H  H64  1  0.983200  0.669200  0.950300  1.0  0.1241
  H  H65  1  0.017300  0.737400  0.947700  1.0  0.1187
  H  H66  1  0.009700  0.743000  0.887900  1.0  0.1348
  H  H67  1  0.983400  0.677200  0.877300  1.0  0.1252
  H  H68  1  0.067300  0.722000  0.865700  1.0  0.1325
  H  H69  1  0.499700  0.955000  0.788600  1.0  0.1094
  H  H70  1  0.471700  0.987000  0.759600  1.0  0.1831
  H  H71  1  0.433800  0.918800  0.762600  1.0  0.09
  H  H72  1  0.553900  0.911200  0.749400  1.0  0.1021
  H  H73  1  0.596800  0.978200  0.749800  1.0  0.2229
  H  H74  1  0.602100  0.943000  0.700600  1.0  0.2831
  H  H75  1  0.007800  0.376400  0.842600  1.0  0.1164
  H  H76  1  0.128300  0.550200  0.841100  1.0  0.1187
  H  H77  1  0.153000  0.454600  0.920400  1.0  0.1122
  H  H78  1  0.029800  0.240400  0.706200  1.0  0.1114
  H  H79  1  0.259400  0.254600  0.690500  1.0  0.1076
  H  H80  1  0.211900  0.379200  0.741900  1.0  0.1204
  H  H81  1  0.759500  0.164200  0.919600  1.0  0.1119
  H  H82  1  0.796000  0.280600  0.995100  1.0  0.113
  H  H83  1  0.571000  0.194000  0.959400  1.0  0.1117
  H  H84  1  0.024100  0.114200  0.879000  1.0  0.1083
  H  H85  1  0.170000  0.030400  0.850100  1.0  0.1182
  H  H86  1  0.264300  0.194800  0.884200  1.0  0.1118
  H  H87  1  0.185300  0.031800  0.588800  1.0  0.3411
  H  H88  1  0.156700  0.066600  0.569800  1.0  0.3169
  H  H89  1  0.891800  0.142400  0.699200  1.0  0.1169
  H  H90  1  0.838500  0.250400  0.690500  1.0  0.1349
  H  H91  1  0.767300  0.208800  0.712600  1.0  0.1261
  H  H92  1  0.856600  0.215600  0.720800  1.0  0.127
  H  H93  1  0.702800  0.126400  0.661500  1.0  0.1118
  H  H94  1  0.745400  0.190000  0.647500  1.0  0.12
  H  H95  1  0.771400  0.139200  0.634300  1.0  0.1361
  H  H96  1  0.354100  0.321600  0.890700  1.0  0.051
  H  H97  1  0.430900  0.295000  0.964600  1.0  0.1227
  H  H98  1  0.516800  0.330800  0.950300  1.0  0.1258
  H  H99  1  0.482700  0.262600  0.947700  1.0  0.1172
  H  H100  1  0.490300  0.257000  0.887900  1.0  0.1349
  H  H101  1  0.516600  0.322800  0.877300  1.0  0.126
  H  H102  1  0.432700  0.278000  0.865700  1.0  0.1329
  H  H103  1  0.000300  0.045000  0.788600  1.0  0.1093
  H  H104  1  0.028300  0.013000  0.759600  1.0  0.1821
  H  H105  1  0.066200  0.081200  0.762600  1.0  0.0901
  H  H106  1  0.946100  0.088800  0.749400  1.0  0.1033
  H  H107  1  0.903200  0.021800  0.749800  1.0  0.219
  H  H108  1  0.897900  0.057000  0.700600  1.0  0.2848
  H  H109  1  0.868600  0.376400  0.657400  1.0  0.1167
  H  H110  1  0.921900  0.550200  0.658900  1.0  0.1184
  H  H111  1  0.801600  0.454600  0.579600  1.0  0.1135
  H  H112  1  0.710600  0.240400  0.793800  1.0  0.1108
  H  H113  1  0.495200  0.254600  0.809500  1.0  0.1067
  H  H114  1  0.667300  0.379200  0.758100  1.0  0.1204
  H  H115  1  0.904700  0.164200  0.580400  1.0  0.1119
  H  H116  1  0.984600  0.280600  0.504900  1.0  0.1139
  H  H117  1  0.123000  0.194000  0.540600  1.0  0.1121
  H  H118  1  0.590100  0.114200  0.621000  1.0  0.1084
  H  H119  1  0.360400  0.030400  0.649900  1.0  0.1181
  H  H120  1  0.430500  0.194800  0.615800  1.0  0.1125
  H  H121  1  0.346500  0.031800  0.911200  1.0  0.3424
  H  H122  1  0.409900  0.066600  0.930200  1.0  0.3173
  H  H123  1  0.750600  0.142400  0.800800  1.0  0.1166
  H  H124  1  0.911900  0.250400  0.809500  1.0  0.1351
  H  H125  1  0.941500  0.208800  0.787400  1.0  0.1276
  H  H126  1  0.859000  0.215600  0.779200  1.0  0.1263
  H  H127  1  0.923600  0.126400  0.838500  1.0  0.112
  H  H128  1  0.944600  0.190000  0.852500  1.0  0.1201
  H  H129  1  0.867800  0.139200  0.865700  1.0  0.1379
  H  H130  1  0.467500  0.321600  0.609300  1.0  0.0489
  H  H131  1  0.364100  0.295000  0.535400  1.0  0.1197
  H  H132  1  0.314000  0.330800  0.549700  1.0  0.1265
  H  H133  1  0.279900  0.262600  0.552300  1.0  0.1171
  H  H134  1  0.266700  0.257000  0.612100  1.0  0.1346
  H  H135  1  0.306200  0.322800  0.622700  1.0  0.1268
  H  H136  1  0.345300  0.278000  0.634300  1.0  0.1331
  H  H137  1  0.544700  0.045000  0.711400  1.0  0.1092
  H  H138  1  0.484700  0.013000  0.740400  1.0  0.1836
  H  H139  1  0.515000  0.081200  0.737400  1.0  0.0907
  H  H140  1  0.642700  0.088800  0.750600  1.0  0.1023
  H  H141  1  0.618600  0.021800  0.750200  1.0  0.2214
  H  H142  1  0.659100  0.057000  0.799400  1.0  0.2836
  H  H143  1  0.631400  0.623600  0.657400  1.0  0.117
  H  H144  1  0.578100  0.449800  0.658900  1.0  0.1192
  H  H145  1  0.698400  0.545400  0.579600  1.0  0.113
  H  H146  1  0.789400  0.759600  0.793800  1.0  0.1112
  H  H147  1  0.004800  0.745400  0.809500  1.0  0.1064
  H  H148  1  0.832700  0.620800  0.758100  1.0  0.1201
  H  H149  1  0.595300  0.835800  0.580400  1.0  0.1124
  H  H150  1  0.515400  0.719400  0.504900  1.0  0.1145
  H  H151  1  0.377000  0.806000  0.540600  1.0  0.1112
  H  H152  1  0.909900  0.885800  0.621000  1.0  0.1091
  H  H153  1  0.139600  0.969600  0.649900  1.0  0.1185
  H  H154  1  0.069500  0.805200  0.615800  1.0  0.1122
  H  H155  1  0.153500  0.968200  0.911200  1.0  0.3411
  H  H156  1  0.090100  0.933400  0.930200  1.0  0.3168
  H  H157  1  0.749400  0.857600  0.800800  1.0  0.1163
  H  H158  1  0.588100  0.749600  0.809500  1.0  0.1343
  H  H159  1  0.558500  0.791200  0.787400  1.0  0.1266
  H  H160  1  0.641000  0.784400  0.779200  1.0  0.126
  H  H161  1  0.576400  0.873600  0.838500  1.0  0.1128
  H  H162  1  0.555400  0.810000  0.852500  1.0  0.1203
  H  H163  1  0.632200  0.860800  0.865700  1.0  0.1381
  H  H164  1  0.032500  0.678400  0.609300  1.0  0.0499
  H  H165  1  0.135900  0.705000  0.535400  1.0  0.1211
  H  H166  1  0.186000  0.669200  0.549700  1.0  0.1247
  H  H167  1  0.220100  0.737400  0.552300  1.0  0.1185
  H  H168  1  0.233300  0.743000  0.612100  1.0  0.1345
  H  H169  1  0.193800  0.677200  0.622700  1.0  0.1239
  H  H170  1  0.154700  0.722000  0.634300  1.0  0.1336
  H  H171  1  0.955300  0.955000  0.711400  1.0  0.1093
  H  H172  1  0.015300  0.987000  0.740400  1.0  0.1824
  H  H173  1  0.985000  0.918800  0.737400  1.0  0.0893
  H  H174  1  0.857300  0.911200  0.750600  1.0  0.1011
  H  H175  1  0.881400  0.978200  0.750200  1.0  0.221
  H  H176  1  0.840900  0.943000  0.799400  1.0  0.2852
  H  H177  1  0.507800  0.376400  0.157400  1.0  0.1165
  H  H178  1  0.628300  0.550200  0.158900  1.0  0.1189
  H  H179  1  0.653000  0.454600  0.079600  1.0  0.1132
  H  H180  1  0.529800  0.240400  0.293800  1.0  0.1112
  H  H181  1  0.759400  0.254600  0.309500  1.0  0.1066
  H  H182  1  0.711900  0.379200  0.258100  1.0  0.1204
  H  H183  1  0.259500  0.164200  0.080400  1.0  0.1122
  H  H184  1  0.296000  0.280600  0.004900  1.0  0.114
  H  H185  1  0.071000  0.194000  0.040600  1.0  0.1112
  H  H186  1  0.524100  0.114200  0.121000  1.0  0.1087
  H  H187  1  0.670000  0.030400  0.149900  1.0  0.1183
  H  H188  1  0.764300  0.194800  0.115800  1.0  0.112
  H  H189  1  0.685300  0.031800  0.411200  1.0  0.3426
  H  H190  1  0.656700  0.066600  0.430200  1.0  0.3166
  H  H191  1  0.391800  0.142400  0.300800  1.0  0.1163
  H  H192  1  0.338500  0.250400  0.309500  1.0  0.135
  H  H193  1  0.267300  0.208800  0.287400  1.0  0.1267
  H  H194  1  0.356600  0.215600  0.279200  1.0  0.1263
  H  H195  1  0.202800  0.126400  0.338500  1.0  0.1122
  H  H196  1  0.245400  0.190000  0.352500  1.0  0.1201
  H  H197  1  0.271400  0.139200  0.365700  1.0  0.1379
  H  H198  1  0.854100  0.321600  0.109300  1.0  0.0491
  H  H199  1  0.930900  0.295000  0.035400  1.0  0.1213
  H  H200  1  0.016800  0.330800  0.049700  1.0  0.1268
  H  H201  1  0.982700  0.262600  0.052300  1.0  0.1171
  H  H202  1  0.990300  0.257000  0.112100  1.0  0.1348
  H  H203  1  0.016600  0.322800  0.122700  1.0  0.1251
  H  H204  1  0.932700  0.278000  0.134300  1.0  0.1335
  H  H205  1  0.500300  0.045000  0.211400  1.0  0.1095
  H  H206  1  0.528300  0.013000  0.240400  1.0  0.1825
  H  H207  1  0.566200  0.081200  0.237400  1.0  0.09
  H  H208  1  0.446100  0.088800  0.250600  1.0  0.1044
  H  H209  1  0.403200  0.021800  0.250200  1.0  0.22
  H  H210  1  0.397900  0.057000  0.299400  1.0  0.2849
  H  H211  1  0.992200  0.623600  0.157400  1.0  0.1167
  H  H212  1  0.871700  0.449800  0.158900  1.0  0.1188
  H  H213  1  0.847000  0.545400  0.079600  1.0  0.1133
  H  H214  1  0.970200  0.759600  0.293800  1.0  0.1109
  H  H215  1  0.740600  0.745400  0.309500  1.0  0.1064
  H  H216  1  0.788100  0.620800  0.258100  1.0  0.12
  H  H217  1  0.240500  0.835800  0.080400  1.0  0.1122
  H  H218  1  0.204000  0.719400  0.004900  1.0  0.114
  H  H219  1  0.429000  0.806000  0.040600  1.0  0.1125
  H  H220  1  0.975900  0.885800  0.121000  1.0  0.1087
  H  H221  1  0.830000  0.969600  0.149900  1.0  0.1186
  H  H222  1  0.735700  0.805200  0.115800  1.0  0.1124
  H  H223  1  0.814700  0.968200  0.411200  1.0  0.3418
  H  H224  1  0.843300  0.933400  0.430200  1.0  0.3172
  H  H225  1  0.108200  0.857600  0.300800  1.0  0.1164
  H  H226  1  0.161500  0.749600  0.309500  1.0  0.1346
  H  H227  1  0.232700  0.791200  0.287400  1.0  0.1274
  H  H228  1  0.143400  0.784400  0.279200  1.0  0.1259
  H  H229  1  0.297200  0.873600  0.338500  1.0  0.1125
  H  H230  1  0.254600  0.810000  0.352500  1.0  0.1206
  H  H231  1  0.228600  0.860800  0.365700  1.0  0.138
  H  H232  1  0.645900  0.678400  0.109300  1.0  0.0499
  H  H233  1  0.569100  0.705000  0.035400  1.0  0.1195
  H  H234  1  0.483200  0.669200  0.049700  1.0  0.1236
  H  H235  1  0.517300  0.737400  0.052300  1.0  0.1192
  H  H236  1  0.509700  0.743000  0.112100  1.0  0.1345
  H  H237  1  0.483400  0.677200  0.122700  1.0  0.125
  H  H238  1  0.567300  0.722000  0.134300  1.0  0.1335
  H  H239  1  0.999700  0.955000  0.211400  1.0  0.1088
  H  H240  1  0.971700  0.987000  0.240400  1.0  0.1839
  H  H241  1  0.933800  0.918800  0.237400  1.0  0.0899
  H  H242  1  0.053900  0.911200  0.250600  1.0  0.1005
  H  H243  1  0.096800  0.978200  0.250200  1.0  0.2224
  H  H244  1  0.102100  0.943000  0.299400  1.0  0.2833
  H  H245  1  0.131400  0.623600  0.342600  1.0  0.117
  H  H246  1  0.078100  0.449800  0.341100  1.0  0.1189
  H  H247  1  0.198400  0.545400  0.420400  1.0  0.1125
  H  H248  1  0.289400  0.759600  0.206200  1.0  0.1113
  H  H249  1  0.504800  0.745400  0.190500  1.0  0.1073
  H  H250  1  0.332700  0.620800  0.241900  1.0  0.1204
  H  H251  1  0.095300  0.835800  0.419600  1.0  0.1122
  H  H252  1  0.015400  0.719400  0.495100  1.0  0.1136
  H  H253  1  0.877000  0.806000  0.459400  1.0  0.1117
  H  H254  1  0.409900  0.885800  0.379000  1.0  0.1086
  H  H255  1  0.639600  0.969600  0.350100  1.0  0.1178
  H  H256  1  0.569500  0.805200  0.384200  1.0  0.1119
  H  H257  1  0.653500  0.968200  0.088800  1.0  0.3398
  H  H258  1  0.590100  0.933400  0.069800  1.0  0.3162
  H  H259  1  0.249400  0.857600  0.199200  1.0  0.1173
  H  H260  1  0.088100  0.749600  0.190500  1.0  0.1335
  H  H261  1  0.058500  0.791200  0.212600  1.0  0.1263
  H  H262  1  0.141000  0.784400  0.220800  1.0  0.1274
  H  H263  1  0.076400  0.873600  0.161500  1.0  0.112
  H  H264  1  0.055400  0.810000  0.147500  1.0  0.1192
  H  H265  1  0.132200  0.860800  0.134300  1.0  0.1369
  H  H266  1  0.532500  0.678400  0.390700  1.0  0.0513
  H  H267  1  0.635900  0.705000  0.464600  1.0  0.1229
  H  H268  1  0.686000  0.669200  0.450300  1.0  0.1244
  H  H269  1  0.720100  0.737400  0.447700  1.0  0.1177
  H  H270  1  0.733300  0.743000  0.387900  1.0  0.1346
  H  H271  1  0.693800  0.677200  0.377300  1.0  0.1244
  H  H272  1  0.654700  0.722000  0.365700  1.0  0.1326
  H  H273  1  0.455300  0.955000  0.288600  1.0  0.1096
  H  H274  1  0.515300  0.987000  0.259600  1.0  0.1822
  H  H275  1  0.485000  0.918800  0.262600  1.0  0.0897
  H  H276  1  0.357300  0.911200  0.249400  1.0  0.1024
  H  H277  1  0.381400  0.978200  0.249800  1.0  0.2205
  H  H278  1  0.340900  0.943000  0.200600  1.0  0.2849
  H  H279  1  0.368600  0.376400  0.342600  1.0  0.1166
  H  H280  1  0.421900  0.550200  0.341100  1.0  0.1186
  H  H281  1  0.301600  0.454600  0.420400  1.0  0.112
  H  H282  1  0.210600  0.240400  0.206200  1.0  0.1111
  H  H283  1  0.995200  0.254600  0.190500  1.0  0.1074
  H  H284  1  0.167300  0.379200  0.241900  1.0  0.1203
  H  H285  1  0.404700  0.164200  0.419600  1.0  0.1118
  H  H286  1  0.484600  0.280600  0.495100  1.0  0.1127
  H  H287  1  0.623000  0.194000  0.459400  1.0  0.1127
  H  H288  1  0.090100  0.114200  0.379000  1.0  0.1085
  H  H289  1  0.860400  0.030400  0.350100  1.0  0.1181
  H  H290  1  0.930500  0.194800  0.384200  1.0  0.1122
  H  H291  1  0.846500  0.031800  0.088800  1.0  0.3419
  H  H292  1  0.909900  0.066600  0.069800  1.0  0.3176
  H  H293  1  0.250600  0.142400  0.199200  1.0  0.117
  H  H294  1  0.411900  0.250400  0.190500  1.0  0.1351
  H  H295  1  0.441500  0.208800  0.212600  1.0  0.1272
  H  H296  1  0.359000  0.215600  0.220800  1.0  0.1271
  H  H297  1  0.423600  0.126400  0.161500  1.0  0.112
  H  H298  1  0.444600  0.190000  0.147500  1.0  0.1202
  H  H299  1  0.367800  0.139200  0.134300  1.0  0.1362
  H  H300  1  0.967500  0.321600  0.390700  1.0  0.0512
  H  H301  1  0.864100  0.295000  0.464600  1.0  0.1216
  H  H302  1  0.814000  0.330800  0.450300  1.0  0.1259
  H  H303  1  0.779900  0.262600  0.447700  1.0  0.1172
  H  H304  1  0.766700  0.257000  0.387900  1.0  0.1348
  H  H305  1  0.806200  0.322800  0.377300  1.0  0.1273
  H  H306  1  0.845300  0.278000  0.365700  1.0  0.1326
  H  H307  1  0.044700  0.045000  0.288600  1.0  0.1092
  H  H308  1  0.984700  0.013000  0.259600  1.0  0.1823
  H  H309  1  0.015000  0.081200  0.262600  1.0  0.0907
  H  H310  1  0.142700  0.088800  0.249400  1.0  0.1018
  H  H311  1  0.118600  0.021800  0.249800  1.0  0.2214
  H  H312  1  0.159100  0.057000  0.200600  1.0  0.2831
  C  C313  1  0.420280  0.593960  0.883550  1.0  -0.1379
  C  C314  1  0.455770  0.590140  0.852620  1.0  0.0345
  C  C315  1  0.436890  0.536580  0.836650  1.0  -0.1368
  C  C316  1  0.384370  0.485740  0.851900  1.0  0.0382
  C  C317  1  0.351290  0.489380  0.883390  1.0  -0.1344
  C  C318  1  0.369120  0.543240  0.899310  1.0  -0.002
  C  C319  1  0.441400  0.651200  0.901340  1.0  0.6988
  C  C320  1  0.474600  0.531600  0.802700  1.0  0.7314
  C  C321  1  0.299020  0.434240  0.900690  1.0  0.6681
  C  C322  1  0.388460  0.684720  0.725000  1.0  -0.1489
  C  C323  1  0.415190  0.738780  0.708500  1.0  0.0261
  C  C324  1  0.359720  0.761440  0.695500  1.0  -0.1347
  C  C325  1  0.277630  0.730460  0.699300  1.0  0.0297
  C  C326  1  0.250200  0.677000  0.716300  1.0  -0.1437
  C  C327  1  0.306070  0.655540  0.729600  1.0  0.0377
  C  C328  1  0.447600  0.657800  0.736800  1.0  0.7021
  C  C329  1  0.389740  0.819080  0.677100  1.0  0.7053
  C  C330  1  0.159900  0.643800  0.720200  1.0  0.6992
  C  C331  1  0.841570  0.824540  0.934900  1.0  -0.1266
  C  C332  1  0.760530  0.815260  0.934680  1.0  0.0333
  C  C333  1  0.707970  0.774940  0.957040  1.0  -0.1339
  C  C334  1  0.738860  0.746720  0.980500  1.0  0.0318
  C  C335  1  0.823090  0.758980  0.982630  1.0  -0.1937
  C  C336  1  0.873780  0.797960  0.958920  1.0  0.0218
  C  C337  1  0.895660  0.863920  0.908300  1.0  0.7369
  C  C338  1  0.619600  0.762400  0.954600  1.0  0.6704
  C  C339  1  0.853900  0.732000  0.010020  1.0  0.7467
  C  C340  1  0.357870  0.836740  0.883880  1.0  -0.1486
  C  C341  1  0.424250  0.886100  0.875930  1.0  0.0007
  C  C342  1  0.414550  0.935700  0.863550  1.0  -0.1339
  C  C343  1  0.336740  0.936280  0.858600  1.0  -0.0133
  C  C344  1  0.269940  0.887280  0.866400  1.0  -0.1296
  C  C345  1  0.280570  0.837940  0.878940  1.0  0.0372
  C  C346  1  0.367860  0.784320  0.899590  1.0  0.735
  C  C347  1  0.488060  0.988320  0.856600  1.0  0.6621
  C  C348  1  0.187270  0.888740  0.864710  1.0  0.6792
  C  C349  1  0.645530  0.867260  0.681560  1.0  0.1977
  C  C350  1  0.680730  0.785660  0.702960  1.0  -0.1588
  C  C351  1  0.746950  0.845500  0.653690  1.0  -0.1385
  C  C352  1  0.127310  0.681820  0.912350  1.0  0.227
  C  C353  1  0.030910  0.703020  0.946970  1.0  -0.1225
  C  C354  1  0.028330  0.711460  0.883720  1.0  -0.1532
  C  C355  1  0.482250  0.952500  0.765440  1.0  -0.3523
  C  C356  1  0.547880  0.947160  0.742320  1.0  -0.0301
  C  C357  1  0.079720  0.406040  0.883550  1.0  -0.1373
  C  C358  1  0.044230  0.409860  0.852620  1.0  0.0341
  C  C359  1  0.063110  0.463420  0.836650  1.0  -0.1369
  C  C360  1  0.115630  0.514260  0.851900  1.0  0.0376
  C  C361  1  0.148710  0.510620  0.883390  1.0  -0.1346
  C  C362  1  0.130880  0.456760  0.899310  1.0  -0.0016
  C  C363  1  0.058600  0.348800  0.901340  1.0  0.6987
  C  C364  1  0.025400  0.468400  0.802700  1.0  0.7313
  C  C365  1  0.200980  0.565760  0.900690  1.0  0.6684
  C  C366  1  0.111540  0.315280  0.725000  1.0  -0.1498
  C  C367  1  0.084810  0.261220  0.708500  1.0  0.0251
  C  C368  1  0.140280  0.238560  0.695500  1.0  -0.1348
  C  C369  1  0.222370  0.269540  0.699300  1.0  0.0293
  C  C370  1  0.249800  0.323000  0.716300  1.0  -0.1431
  C  C371  1  0.193930  0.344460  0.729600  1.0  0.0376
  C  C372  1  0.052400  0.342200  0.736800  1.0  0.7
  C  C373  1  0.110260  0.180920  0.677100  1.0  0.7061
  C  C374  1  0.340100  0.356200  0.720200  1.0  0.6987
  C  C375  1  0.658430  0.175460  0.934900  1.0  -0.1272
  C  C376  1  0.739470  0.184740  0.934680  1.0  0.0337
  C  C377  1  0.792030  0.225060  0.957040  1.0  -0.1349
  C  C378  1  0.761140  0.253280  0.980500  1.0  0.0325
  C  C379  1  0.676910  0.241020  0.982630  1.0  -0.1935
  C  C380  1  0.626220  0.202040  0.958920  1.0  0.0206
  C  C381  1  0.604340  0.136080  0.908300  1.0  0.7367
  C  C382  1  0.880400  0.237600  0.954600  1.0  0.6708
  C  C383  1  0.646100  0.268000  0.010020  1.0  0.7464
  C  C384  1  0.142130  0.163260  0.883880  1.0  -0.1489
  C  C385  1  0.075750  0.113900  0.875930  1.0  0.0004
  C  C386  1  0.085450  0.064300  0.863550  1.0  -0.1339
  C  C387  1  0.163260  0.063720  0.858600  1.0  -0.0119
  C  C388  1  0.230060  0.112720  0.866400  1.0  -0.1297
  C  C389  1  0.219430  0.162060  0.878940  1.0  0.0379
  C  C390  1  0.132140  0.215680  0.899590  1.0  0.7351
  C  C391  1  0.011940  0.011680  0.856600  1.0  0.6622
  C  C392  1  0.312730  0.111260  0.864710  1.0  0.6789
  C  C393  1  0.854470  0.132740  0.681560  1.0  0.1977
  C  C394  1  0.819270  0.214340  0.702960  1.0  -0.1596
  C  C395  1  0.753050  0.154500  0.653690  1.0  -0.1384
  C  C396  1  0.372690  0.318180  0.912350  1.0  0.2266
  C  C397  1  0.469090  0.296980  0.946970  1.0  -0.1237
  C  C398  1  0.471670  0.288540  0.883720  1.0  -0.154
  C  C399  1  0.017750  0.047500  0.765440  1.0  -0.3523
  C  C400  1  0.952120  0.052840  0.742320  1.0  -0.0291
  C  C401  1  0.826320  0.406040  0.616450  1.0  -0.1375
  C  C402  1  0.865630  0.409860  0.647380  1.0  0.034
  C  C403  1  0.900310  0.463420  0.663350  1.0  -0.1368
  C  C404  1  0.898630  0.514260  0.648100  1.0  0.0381
  C  C405  1  0.861910  0.510620  0.616610  1.0  -0.1344
  C  C406  1  0.825880  0.456760  0.600690  1.0  -0.0017
  C  C407  1  0.790200  0.348800  0.598660  1.0  0.6992
  C  C408  1  0.943000  0.468400  0.697300  1.0  0.7317
  C  C409  1  0.864780  0.565760  0.599310  1.0  0.6679
  C  C410  1  0.703740  0.315280  0.775000  1.0  -0.1489
  C  C411  1  0.676410  0.261220  0.791500  1.0  0.0254
  C  C412  1  0.598280  0.238560  0.804500  1.0  -0.1341
  C  C413  1  0.547170  0.269540  0.800700  1.0  0.0292
  C  C414  1  0.573200  0.323000  0.783700  1.0  -0.1427
  C  C415  1  0.650530  0.344460  0.770400  1.0  0.0379
  C  C416  1  0.789800  0.342200  0.763200  1.0  0.7013
  C  C417  1  0.570660  0.180920  0.822900  1.0  0.7054
  C  C418  1  0.516100  0.356200  0.779800  1.0  0.6994
  C  C419  1  0.017030  0.175460  0.565100  1.0  -0.1263
  C  C420  1  0.945270  0.184740  0.565320  1.0  0.0339
  C  C421  1  0.933030  0.225060  0.542960  1.0  -0.1341
  C  C422  1  0.992140  0.253280  0.519500  1.0  0.0315
  C  C423  1  0.064110  0.241020  0.517370  1.0  -0.1932
  C  C424  1  0.075820  0.202040  0.541080  1.0  0.0226
  C  C425  1  0.031740  0.136080  0.591700  1.0  0.7371
  C  C426  1  0.857200  0.237600  0.545400  1.0  0.671
  C  C427  1  0.121900  0.268000  0.489980  1.0  0.7462
  C  C428  1  0.521130  0.163260  0.616120  1.0  -0.1485
  C  C429  1  0.538150  0.113900  0.624070  1.0  0.0005
  C  C430  1  0.478850  0.064300  0.636450  1.0  -0.1345
  C  C431  1  0.400460  0.063720  0.641400  1.0  -0.0141
  C  C432  1  0.382660  0.112720  0.633600  1.0  -0.1304
  C  C433  1  0.442630  0.162060  0.621060  1.0  0.0373
  C  C434  1  0.583540  0.215680  0.600410  1.0  0.7344
  C  C435  1  0.499740  0.011680  0.643400  1.0  0.6624
  C  C436  1  0.298530  0.111260  0.635290  1.0  0.68
  C  C437  1  0.778270  0.132740  0.818440  1.0  0.197
  C  C438  1  0.895070  0.214340  0.797040  1.0  -0.1597
  C  C439  1  0.901450  0.154500  0.846310  1.0  -0.1383
  C  C440  1  0.445490  0.318180  0.587650  1.0  0.2275
  C  C441  1  0.327890  0.296980  0.553030  1.0  -0.1226
  C  C442  1  0.316870  0.288540  0.616280  1.0  -0.152
  C  C443  1  0.529750  0.047500  0.734560  1.0  -0.3531
  C  C444  1  0.600720  0.052840  0.757680  1.0  -0.0254
  C  C445  1  0.673680  0.593960  0.616450  1.0  -0.1369
  C  C446  1  0.634370  0.590140  0.647380  1.0  0.0348
  C  C447  1  0.599690  0.536580  0.663350  1.0  -0.1364
  C  C448  1  0.601370  0.485740  0.648100  1.0  0.0391
  C  C449  1  0.638090  0.489380  0.616610  1.0  -0.1348
  C  C450  1  0.674120  0.543240  0.600690  1.0  -0.0013
  C  C451  1  0.709800  0.651200  0.598660  1.0  0.6981
  C  C452  1  0.557000  0.531600  0.697300  1.0  0.7316
  C  C453  1  0.635220  0.434240  0.599310  1.0  0.6684
  C  C454  1  0.796260  0.684720  0.775000  1.0  -0.1504
  C  C455  1  0.823590  0.738780  0.791500  1.0  0.0254
  C  C456  1  0.901720  0.761440  0.804500  1.0  -0.1352
  C  C457  1  0.952830  0.730460  0.800700  1.0  0.0291
  C  C458  1  0.926800  0.677000  0.783700  1.0  -0.1438
  C  C459  1  0.849470  0.655540  0.770400  1.0  0.0371
  C  C460  1  0.710200  0.657800  0.763200  1.0  0.7008
  C  C461  1  0.929340  0.819080  0.822900  1.0  0.7062
  C  C462  1  0.983900  0.643800  0.779800  1.0  0.6988
  C  C463  1  0.482970  0.824540  0.565100  1.0  -0.1259
  C  C464  1  0.554730  0.815260  0.565320  1.0  0.0334
  C  C465  1  0.566970  0.774940  0.542960  1.0  -0.1349
  C  C466  1  0.507860  0.746720  0.519500  1.0  0.0318
  C  C467  1  0.435890  0.758980  0.517370  1.0  -0.1932
  C  C468  1  0.424180  0.797960  0.541080  1.0  0.0204
  C  C469  1  0.468260  0.863920  0.591700  1.0  0.7372
  C  C470  1  0.642800  0.762400  0.545400  1.0  0.6707
  C  C471  1  0.378100  0.732000  0.489980  1.0  0.7462
  C  C472  1  0.978870  0.836740  0.616120  1.0  -0.1488
  C  C473  1  0.961850  0.886100  0.624070  1.0  -0.0
  C  C474  1  0.021150  0.935700  0.636450  1.0  -0.1335
  C  C475  1  0.099540  0.936280  0.641400  1.0  -0.0137
  C  C476  1  0.117340  0.887280  0.633600  1.0  -0.1305
  C  C477  1  0.057370  0.837940  0.621060  1.0  0.0378
  C  C478  1  0.916460  0.784320  0.600410  1.0  0.7348
  C  C479  1  0.000260  0.988320  0.643400  1.0  0.663
  C  C480  1  0.201470  0.888740  0.635290  1.0  0.6797
  C  C481  1  0.721730  0.867260  0.818440  1.0  0.1967
  C  C482  1  0.604930  0.785660  0.797040  1.0  -0.1596
  C  C483  1  0.598550  0.845500  0.846310  1.0  -0.1389
  C  C484  1  0.054510  0.681820  0.587650  1.0  0.2276
  C  C485  1  0.172110  0.703020  0.553030  1.0  -0.1237
  C  C486  1  0.183130  0.711460  0.616280  1.0  -0.153
  C  C487  1  0.970250  0.952500  0.734560  1.0  -0.3536
  C  C488  1  0.899280  0.947160  0.757680  1.0  -0.0302
  C  C489  1  0.579720  0.406040  0.116450  1.0  -0.1374
  C  C490  1  0.544230  0.409860  0.147380  1.0  0.0341
  C  C491  1  0.563110  0.463420  0.163350  1.0  -0.1363
  C  C492  1  0.615630  0.514260  0.148100  1.0  0.0378
  C  C493  1  0.648710  0.510620  0.116610  1.0  -0.1345
  C  C494  1  0.630880  0.456760  0.100690  1.0  -0.0012
  C  C495  1  0.558600  0.348800  0.098660  1.0  0.6987
  C  C496  1  0.525400  0.468400  0.197300  1.0  0.7312
  C  C497  1  0.700980  0.565760  0.099310  1.0  0.6683
  C  C498  1  0.611540  0.315280  0.275000  1.0  -0.1496
  C  C499  1  0.584810  0.261220  0.291500  1.0  0.0248
  C  C500  1  0.640280  0.238560  0.304500  1.0  -0.1348
  C  C501  1  0.722370  0.269540  0.300700  1.0  0.0294
  C  C502  1  0.749800  0.323000  0.283700  1.0  -0.143
  C  C503  1  0.693930  0.344460  0.270400  1.0  0.0377
  C  C504  1  0.552400  0.342200  0.263200  1.0  0.6996
  C  C505  1  0.610260  0.180920  0.322900  1.0  0.7065
  C  C506  1  0.840100  0.356200  0.279800  1.0  0.6989
  C  C507  1  0.158430  0.175460  0.065100  1.0  -0.1265
  C  C508  1  0.239470  0.184740  0.065320  1.0  0.0342
  C  C509  1  0.292030  0.225060  0.042960  1.0  -0.1349
  C  C510  1  0.261140  0.253280  0.019500  1.0  0.0318
  C  C511  1  0.176910  0.241020  0.017370  1.0  -0.193
  C  C512  1  0.126220  0.202040  0.041080  1.0  0.0211
  C  C513  1  0.104340  0.136080  0.091700  1.0  0.737
  C  C514  1  0.380400  0.237600  0.045400  1.0  0.6711
  C  C515  1  0.146100  0.268000  0.989980  1.0  0.7461
  C  C516  1  0.642130  0.163260  0.116120  1.0  -0.1486
  C  C517  1  0.575750  0.113900  0.124070  1.0  1e-04
  C  C518  1  0.585450  0.064300  0.136450  1.0  -0.1339
  C  C519  1  0.663260  0.063720  0.141400  1.0  -0.0136
  C  C520  1  0.730060  0.112720  0.133600  1.0  -0.1307
  C  C521  1  0.719430  0.162060  0.121060  1.0  0.0382
  C  C522  1  0.632140  0.215680  0.100410  1.0  0.7348
  C  C523  1  0.511940  0.011680  0.143400  1.0  0.663
  C  C524  1  0.812730  0.111260  0.135290  1.0  0.68
  C  C525  1  0.354470  0.132740  0.318440  1.0  0.1971
  C  C526  1  0.319270  0.214340  0.297040  1.0  -0.1595
  C  C527  1  0.253050  0.154500  0.346310  1.0  -0.139
  C  C528  1  0.872690  0.318180  0.087650  1.0  0.2273
  C  C529  1  0.969090  0.296980  0.053030  1.0  -0.1238
  C  C530  1  0.971670  0.288540  0.116280  1.0  -0.153
  C  C531  1  0.517750  0.047500  0.234560  1.0  -0.3526
  C  C532  1  0.452120  0.052840  0.257680  1.0  -0.0281
  C  C533  1  0.920280  0.593960  0.116450  1.0  -0.1375
  C  C534  1  0.955770  0.590140  0.147380  1.0  0.0342
  C  C535  1  0.936890  0.536580  0.163350  1.0  -0.1368
  C  C536  1  0.884370  0.485740  0.148100  1.0  0.0391
  C  C537  1  0.851290  0.489380  0.116610  1.0  -0.1344
  C  C538  1  0.869120  0.543240  0.100690  1.0  -0.0018
  C  C539  1  0.941400  0.651200  0.098660  1.0  0.6988
  C  C540  1  0.974600  0.531600  0.197300  1.0  0.7322
  C  C541  1  0.799020  0.434240  0.099310  1.0  0.6681
  C  C542  1  0.888460  0.684720  0.275000  1.0  -0.1489
  C  C543  1  0.915190  0.738780  0.291500  1.0  0.0259
  C  C544  1  0.859720  0.761440  0.304500  1.0  -0.1345
  C  C545  1  0.777630  0.730460  0.300700  1.0  0.0294
  C  C546  1  0.750200  0.677000  0.283700  1.0  -0.144
  C  C547  1  0.806070  0.655540  0.270400  1.0  0.0376
  C  C548  1  0.947600  0.657800  0.263200  1.0  0.7018
  C  C549  1  0.889740  0.819080  0.322900  1.0  0.7053
  C  C550  1  0.659900  0.643800  0.279800  1.0  0.6996
  C  C551  1  0.341570  0.824540  0.065100  1.0  -0.1261
  C  C552  1  0.260530  0.815260  0.065320  1.0  0.0332
  C  C553  1  0.207970  0.774940  0.042960  1.0  -0.134
  C  C554  1  0.238860  0.746720  0.019500  1.0  0.0313
  C  C555  1  0.323090  0.758980  0.017370  1.0  -0.1933
  C  C556  1  0.373780  0.797960  0.041080  1.0  0.0222
  C  C557  1  0.395660  0.863920  0.091700  1.0  0.7373
  C  C558  1  0.119600  0.762400  0.045400  1.0  0.6709
  C  C559  1  0.353900  0.732000  0.989980  1.0  0.7464
  C  C560  1  0.857870  0.836740  0.116120  1.0  -0.1484
  C  C561  1  0.924250  0.886100  0.124070  1.0  0.0003
  C  C562  1  0.914550  0.935700  0.136450  1.0  -0.1339
  C  C563  1  0.836740  0.936280  0.141400  1.0  -0.0143
  C  C564  1  0.769940  0.887280  0.133600  1.0  -0.13
  C  C565  1  0.780570  0.837940  0.121060  1.0  0.0372
  C  C566  1  0.867860  0.784320  0.100410  1.0  0.7345
  C  C567  1  0.988060  0.988320  0.143400  1.0  0.6625
  C  C568  1  0.687270  0.888740  0.135290  1.0  0.68
  C  C569  1  0.145530  0.867260  0.318440  1.0  0.1972
  C  C570  1  0.180730  0.785660  0.297040  1.0  -0.1594
  C  C571  1  0.246950  0.845500  0.346310  1.0  -0.1383
  C  C572  1  0.627310  0.681820  0.087650  1.0  0.2273
  C  C573  1  0.530910  0.703020  0.053030  1.0  -0.1227
  C  C574  1  0.528330  0.711460  0.116280  1.0  -0.1524
  C  C575  1  0.982250  0.952500  0.234560  1.0  -0.3534
  C  C576  1  0.047880  0.947160  0.257680  1.0  -0.0311
  C  C577  1  0.173680  0.593960  0.383550  1.0  -0.1372
  C  C578  1  0.134370  0.590140  0.352620  1.0  0.0349
  C  C579  1  0.099690  0.536580  0.336650  1.0  -0.1371
  C  C580  1  0.101370  0.485740  0.351900  1.0  0.0383
  C  C581  1  0.138090  0.489380  0.383390  1.0  -0.1347
  C  C582  1  0.174120  0.543240  0.399310  1.0  -0.0016
  C  C583  1  0.209800  0.651200  0.401340  1.0  0.6982
  C  C584  1  0.057000  0.531600  0.302700  1.0  0.7316
  C  C585  1  0.135220  0.434240  0.400690  1.0  0.6685
  C  C586  1  0.296260  0.684720  0.225000  1.0  -0.1505
  C  C587  1  0.323590  0.738780  0.208500  1.0  0.0256
  C  C588  1  0.401720  0.761440  0.195500  1.0  -0.1353
  C  C589  1  0.452830  0.730460  0.199300  1.0  0.0292
  C  C590  1  0.426800  0.677000  0.216300  1.0  -0.1442
  C  C591  1  0.349470  0.655540  0.229600  1.0  0.0372
  C  C592  1  0.210200  0.657800  0.236800  1.0  0.7014
  C  C593  1  0.429340  0.819080  0.177100  1.0  0.7061
  C  C594  1  0.483900  0.643800  0.220200  1.0  0.6984
  C  C595  1  0.982970  0.824540  0.434900  1.0  -0.1264
  C  C596  1  0.054730  0.815260  0.434680  1.0  0.0336
  C  C597  1  0.066970  0.774940  0.457040  1.0  -0.1348
  C  C598  1  0.007860  0.746720  0.480500  1.0  0.0324
  C  C599  1  0.935890  0.758980  0.482630  1.0  -0.1936
  C  C600  1  0.924180  0.797960  0.458920  1.0  0.0201
  C  C601  1  0.968260  0.863920  0.408300  1.0  0.7371
  C  C602  1  0.142800  0.762400  0.454600  1.0  0.6704
  C  C603  1  0.878100  0.732000  0.510020  1.0  0.7465
  C  C604  1  0.478870  0.836740  0.383880  1.0  -0.1489
  C  C605  1  0.461850  0.886100  0.375930  1.0  0.0004
  C  C606  1  0.521150  0.935700  0.363550  1.0  -0.1334
  C  C607  1  0.599540  0.936280  0.358600  1.0  -0.0128
  C  C608  1  0.617340  0.887280  0.366400  1.0  -0.1297
  C  C609  1  0.557370  0.837940  0.378940  1.0  0.0378
  C  C610  1  0.416460  0.784320  0.399590  1.0  0.7352
  C  C611  1  0.500260  0.988320  0.356600  1.0  0.6624
  C  C612  1  0.701470  0.888740  0.364710  1.0  0.6785
  C  C613  1  0.221730  0.867260  0.181560  1.0  0.1972
  C  C614  1  0.104930  0.785660  0.202960  1.0  -0.1589
  C  C615  1  0.098550  0.845500  0.153690  1.0  -0.1384
  C  C616  1  0.554510  0.681820  0.412350  1.0  0.227
  C  C617  1  0.672110  0.703020  0.446970  1.0  -0.1234
  C  C618  1  0.683130  0.711460  0.383720  1.0  -0.1542
  C  C619  1  0.470250  0.952500  0.265440  1.0  -0.3527
  C  C620  1  0.399280  0.947160  0.242320  1.0  -0.0304
  C  C621  1  0.326320  0.406040  0.383550  1.0  -0.1376
  C  C622  1  0.365630  0.409860  0.352620  1.0  0.0341
  C  C623  1  0.400310  0.463420  0.336650  1.0  -0.1368
  C  C624  1  0.398630  0.514260  0.351900  1.0  0.038
  C  C625  1  0.361910  0.510620  0.383390  1.0  -0.1346
  C  C626  1  0.325880  0.456760  0.399310  1.0  -0.002
  C  C627  1  0.290200  0.348800  0.401340  1.0  0.6992
  C  C628  1  0.443000  0.468400  0.302700  1.0  0.731
  C  C629  1  0.364780  0.565760  0.400690  1.0  0.668
  C  C630  1  0.203740  0.315280  0.225000  1.0  -0.149
  C  C631  1  0.176410  0.261220  0.208500  1.0  0.0257
  C  C632  1  0.098280  0.238560  0.195500  1.0  -0.1343
  C  C633  1  0.047170  0.269540  0.199300  1.0  0.0293
  C  C634  1  0.073200  0.323000  0.216300  1.0  -0.1423
  C  C635  1  0.150530  0.344460  0.229600  1.0  0.0378
  C  C636  1  0.289800  0.342200  0.236800  1.0  0.7013
  C  C637  1  0.070660  0.180920  0.177100  1.0  0.7051
  C  C638  1  0.016100  0.356200  0.220200  1.0  0.6991
  C  C639  1  0.517030  0.175460  0.434900  1.0  -0.1268
  C  C640  1  0.445270  0.184740  0.434680  1.0  0.0334
  C  C641  1  0.433030  0.225060  0.457040  1.0  -0.134
  C  C642  1  0.492140  0.253280  0.480500  1.0  0.0321
  C  C643  1  0.564110  0.241020  0.482630  1.0  -0.1938
  C  C644  1  0.575820  0.202040  0.458920  1.0  0.0221
  C  C645  1  0.531740  0.136080  0.408300  1.0  0.7364
  C  C646  1  0.357200  0.237600  0.454600  1.0  0.6706
  C  C647  1  0.621900  0.268000  0.510020  1.0  0.7465
  C  C648  1  0.021130  0.163260  0.383880  1.0  -0.1488
  C  C649  1  0.038150  0.113900  0.375930  1.0  0.0007
  C  C650  1  0.978850  0.064300  0.363550  1.0  -0.1345
  C  C651  1  0.900460  0.063720  0.358600  1.0  -0.0125
  C  C652  1  0.882660  0.112720  0.366400  1.0  -0.1297
  C  C653  1  0.942630  0.162060  0.378940  1.0  0.0371
  C  C654  1  0.083540  0.215680  0.399590  1.0  0.7349
  C  C655  1  0.999740  0.011680  0.356600  1.0  0.6617
  C  C656  1  0.798530  0.111260  0.364710  1.0  0.6794
  C  C657  1  0.278270  0.132740  0.181560  1.0  0.1976
  C  C658  1  0.395070  0.214340  0.202960  1.0  -0.1597
  C  C659  1  0.401450  0.154500  0.153690  1.0  -0.1385
  C  C660  1  0.945490  0.318180  0.412350  1.0  0.2269
  C  C661  1  0.827890  0.296980  0.446970  1.0  -0.1227
  C  C662  1  0.816870  0.288540  0.383720  1.0  -0.1527
  C  C663  1  0.029750  0.047500  0.265440  1.0  -0.3532
  C  C664  1  0.100720  0.052840  0.242320  1.0  -0.0254
  N  N665  1  0.687770  0.833540  0.680280  1.0  -0.0166
  N  N666  1  0.065570  0.699340  0.914680  1.0  0.0134
  N  N667  1  0.812230  0.166460  0.680280  1.0  -0.0162
  N  N668  1  0.434430  0.300660  0.914680  1.0  0.0136
  N  N669  1  0.854230  0.166460  0.819720  1.0  -0.0172
  N  N670  1  0.366230  0.300660  0.585320  1.0  0.0139
  N  N671  1  0.645770  0.833540  0.819720  1.0  -0.0166
  N  N672  1  0.133770  0.699340  0.585320  1.0  0.0138
  N  N673  1  0.312230  0.166460  0.319720  1.0  -0.0168
  N  N674  1  0.934430  0.300660  0.085320  1.0  0.0139
  N  N675  1  0.187770  0.833540  0.319720  1.0  -0.0171
  N  N676  1  0.565570  0.699340  0.085320  1.0  0.0136
  N  N677  1  0.145770  0.833540  0.180280  1.0  -0.0162
  N  N678  1  0.633770  0.699340  0.414680  1.0  0.0134
  N  N679  1  0.354230  0.166460  0.180280  1.0  -0.0166
  N  N680  1  0.866230  0.300660  0.414680  1.0  0.0137
  O  O681  1  0.395100  0.656200  0.925350  1.0  -0.6725
  O  O682  1  0.503710  0.692420  0.893940  1.0  -0.5373
  O  O683  1  0.535910  0.575020  0.793590  1.0  -0.6277
  O  O684  1  0.443070  0.485740  0.786700  1.0  -0.5925
  O  O685  1  0.271100  0.387800  0.883520  1.0  -0.57
  O  O686  1  0.283810  0.433820  0.932220  1.0  -0.5618
  O  O687  1  0.423380  0.609960  0.751200  1.0  -0.595
  O  O688  1  0.519600  0.683400  0.731900  1.0  -0.5766
  O  O689  1  0.464210  0.840020  0.670610  1.0  -0.5948
  O  O690  1  0.338990  0.841180  0.668820  1.0  -0.5974
  O  O691  1  0.112500  0.663000  0.708500  1.0  -0.4186
  O  O692  1  0.140890  0.594380  0.735270  1.0  -0.5863
  O  O693  1  0.961700  0.858000  0.902170  1.0  -0.6144
  O  O694  1  0.868380  0.898760  0.893160  1.0  -0.6073
  O  O695  1  0.596000  0.798200  0.939330  1.0  -0.5727
  O  O696  1  0.570170  0.714940  0.966690  1.0  -0.5715
  O  O697  1  0.804760  0.686320  0.023770  1.0  -0.6243
  O  O698  1  0.927060  0.755720  0.018020  1.0  -0.5863
  O  O699  1  0.439530  0.790260  0.907330  1.0  -0.5939
  O  O700  1  0.307030  0.739860  0.904750  1.0  -0.6084
  O  O701  1  0.557430  0.985860  0.858200  1.0  -0.5447
  O  O702  1  0.481140  0.037080  0.848260  1.0  -0.6577
  O  O703  1  0.174000  0.928000  0.846940  1.0  -0.5758
  O  O704  1  0.132160  0.852920  0.882010  1.0  -0.5488
  O  O705  1  0.350110  0.954420  0.587180  1.0  -0.7328
  O  O706  1  0.644270  0.909340  0.664440  1.0  -0.6436
  O  O707  1  0.162730  0.669460  0.936670  1.0  -0.5975
  O  O708  1  0.555200  0.947200  0.705230  1.0  -0.5537
  O  O709  1  0.104900  0.343800  0.925350  1.0  -0.6723
  O  O710  1  0.996290  0.307580  0.893940  1.0  -0.5376
  O  O711  1  0.964090  0.424980  0.793590  1.0  -0.6276
  O  O712  1  0.056930  0.514260  0.786700  1.0  -0.5918
  O  O713  1  0.228900  0.612200  0.883520  1.0  -0.5702
  O  O714  1  0.216190  0.566180  0.932220  1.0  -0.5612
  O  O715  1  0.076620  0.390040  0.751200  1.0  -0.5938
  O  O716  1  0.980400  0.316600  0.731900  1.0  -0.5744
  O  O717  1  0.035790  0.159980  0.670610  1.0  -0.5944
  O  O718  1  0.161010  0.158820  0.668820  1.0  -0.5963
  O  O719  1  0.387500  0.337000  0.708500  1.0  -0.4173
  O  O720  1  0.359110  0.405620  0.735270  1.0  -0.5872
  O  O721  1  0.538300  0.142000  0.902170  1.0  -0.6132
  O  O722  1  0.631620  0.101240  0.893160  1.0  -0.6071
  O  O723  1  0.904000  0.201800  0.939330  1.0  -0.5726
  O  O724  1  0.929830  0.285060  0.966690  1.0  -0.57
  O  O725  1  0.695240  0.313680  0.023770  1.0  -0.624
  O  O726  1  0.572940  0.244280  0.018020  1.0  -0.587
  O  O727  1  0.060470  0.209740  0.907330  1.0  -0.5928
  O  O728  1  0.192970  0.260140  0.904750  1.0  -0.6087
  O  O729  1  0.942570  0.014140  0.858200  1.0  -0.5471
  O  O730  1  0.018860  0.962920  0.848260  1.0  -0.658
  O  O731  1  0.326000  0.072000  0.846940  1.0  -0.5757
  O  O732  1  0.367840  0.147080  0.882010  1.0  -0.5504
  O  O733  1  0.149890  0.045580  0.587180  1.0  -0.7316
  O  O734  1  0.855730  0.090660  0.664440  1.0  -0.6399
  O  O735  1  0.337270  0.330540  0.936670  1.0  -0.5996
  O  O736  1  0.944800  0.052800  0.705230  1.0  -0.5533
  O  O737  1  0.738900  0.343800  0.574650  1.0  -0.6725
  O  O738  1  0.811290  0.307580  0.606060  1.0  -0.5395
  O  O739  1  0.960890  0.424980  0.706410  1.0  -0.6277
  O  O740  1  0.957330  0.514260  0.713300  1.0  -0.593
  O  O741  1  0.883300  0.612200  0.616480  1.0  -0.5714
  O  O742  1  0.849990  0.566180  0.567780  1.0  -0.5591
  O  O743  1  0.813420  0.390040  0.748800  1.0  -0.5952
  O  O744  1  0.836200  0.316600  0.768100  1.0  -0.5766
  O  O745  1  0.624190  0.159980  0.829390  1.0  -0.595
  O  O746  1  0.497810  0.158820  0.831180  1.0  -0.597
  O  O747  1  0.449500  0.337000  0.791500  1.0  -0.4177
  O  O748  1  0.546510  0.405620  0.764730  1.0  -0.5878
  O  O749  1  0.103700  0.142000  0.597830  1.0  -0.6141
  O  O750  1  0.969620  0.101240  0.606840  1.0  -0.6079
  O  O751  1  0.797800  0.201800  0.560670  1.0  -0.5733
  O  O752  1  0.855230  0.285060  0.533310  1.0  -0.5704
  O  O753  1  0.118440  0.313680  0.476230  1.0  -0.6234
  O  O754  1  0.171340  0.244280  0.481980  1.0  -0.5866
  O  O755  1  0.649270  0.209740  0.592670  1.0  -0.5932
  O  O756  1  0.567170  0.260140  0.595250  1.0  -0.6086
  O  O757  1  0.571570  0.014140  0.641800  1.0  -0.5454
  O  O758  1  0.444060  0.962920  0.651740  1.0  -0.6578
  O  O759  1  0.246000  0.072000  0.653060  1.0  -0.5763
  O  O760  1  0.279240  0.147080  0.617990  1.0  -0.5488
  O  O761  1  0.395690  0.045580  0.912820  1.0  -0.731
  O  O762  1  0.734930  0.090660  0.835560  1.0  -0.6413
  O  O763  1  0.493270  0.330540  0.563330  1.0  -0.5985
  O  O764  1  0.608000  0.052800  0.794770  1.0  -0.5551
  O  O765  1  0.761100  0.656200  0.574650  1.0  -0.6727
  O  O766  1  0.688710  0.692420  0.606060  1.0  -0.5371
  O  O767  1  0.539110  0.575020  0.706410  1.0  -0.6278
  O  O768  1  0.542670  0.485740  0.713300  1.0  -0.5906
  O  O769  1  0.616700  0.387800  0.616480  1.0  -0.5703
  O  O770  1  0.650010  0.433820  0.567780  1.0  -0.5589
  O  O771  1  0.686580  0.609960  0.748800  1.0  -0.5965
  O  O772  1  0.663800  0.683400  0.768100  1.0  -0.5748
  O  O773  1  0.875810  0.840020  0.829390  1.0  -0.5947
  O  O774  1  0.002190  0.841180  0.831180  1.0  -0.5962
  O  O775  1  0.050500  0.663000  0.791500  1.0  -0.4161
  O  O776  1  0.953490  0.594380  0.764730  1.0  -0.5867
  O  O777  1  0.396300  0.858000  0.597830  1.0  -0.6131
  O  O778  1  0.530380  0.898760  0.606840  1.0  -0.6075
  O  O779  1  0.702200  0.798200  0.560670  1.0  -0.5745
  O  O780  1  0.644770  0.714940  0.533310  1.0  -0.5696
  O  O781  1  0.381560  0.686320  0.476230  1.0  -0.6248
  O  O782  1  0.328660  0.755720  0.481980  1.0  -0.5866
  O  O783  1  0.850730  0.790260  0.592670  1.0  -0.5933
  O  O784  1  0.932830  0.739860  0.595250  1.0  -0.6081
  O  O785  1  0.928430  0.985860  0.641800  1.0  -0.547
  O  O786  1  0.055940  0.037080  0.651740  1.0  -0.6575
  O  O787  1  0.254000  0.928000  0.653060  1.0  -0.5773
  O  O788  1  0.220760  0.852920  0.617990  1.0  -0.5497
  O  O789  1  0.104310  0.954420  0.912820  1.0  -0.7378
  O  O790  1  0.765070  0.909340  0.835560  1.0  -0.6428
  O  O791  1  0.006730  0.669460  0.563330  1.0  -0.5985
  O  O792  1  0.892000  0.947200  0.794770  1.0  -0.5546
  O  O793  1  0.604900  0.343800  0.074650  1.0  -0.6726
  O  O794  1  0.496290  0.307580  0.106060  1.0  -0.5381
  O  O795  1  0.464090  0.424980  0.206410  1.0  -0.6276
  O  O796  1  0.556930  0.514260  0.213300  1.0  -0.5942
  O  O797  1  0.728900  0.612200  0.116480  1.0  -0.5714
  O  O798  1  0.716190  0.566180  0.067780  1.0  -0.5591
  O  O799  1  0.576620  0.390040  0.248800  1.0  -0.5939
  O  O800  1  0.480400  0.316600  0.268100  1.0  -0.5747
  O  O801  1  0.535790  0.159980  0.329390  1.0  -0.5946
  O  O802  1  0.661010  0.158820  0.331180  1.0  -0.5958
  O  O803  1  0.887500  0.337000  0.291500  1.0  -0.4168
  O  O804  1  0.859110  0.405620  0.264730  1.0  -0.5875
  O  O805  1  0.038300  0.142000  0.097830  1.0  -0.6137
  O  O806  1  0.131620  0.101240  0.106840  1.0  -0.6076
  O  O807  1  0.404000  0.201800  0.060670  1.0  -0.5734
  O  O808  1  0.429830  0.285060  0.033310  1.0  -0.5699
  O  O809  1  0.195240  0.313680  0.976230  1.0  -0.6242
  O  O810  1  0.072940  0.244280  0.981980  1.0  -0.587
  O  O811  1  0.560470  0.209740  0.092670  1.0  -0.5931
  O  O812  1  0.692970  0.260140  0.095250  1.0  -0.6082
  O  O813  1  0.442570  0.014140  0.141800  1.0  -0.5465
  O  O814  1  0.518860  0.962920  0.151740  1.0  -0.6574
  O  O815  1  0.826000  0.072000  0.153060  1.0  -0.5766
  O  O816  1  0.867840  0.147080  0.117990  1.0  -0.5501
  O  O817  1  0.649890  0.045580  0.412820  1.0  -0.7329
  O  O818  1  0.355730  0.090660  0.335560  1.0  -0.6425
  O  O819  1  0.837270  0.330540  0.063330  1.0  -0.599
  O  O820  1  0.444800  0.052800  0.294770  1.0  -0.5548
  O  O821  1  0.895100  0.656200  0.074650  1.0  -0.6726
  O  O822  1  0.003710  0.692420  0.106060  1.0  -0.5383
  O  O823  1  0.035910  0.575020  0.206410  1.0  -0.6274
  O  O824  1  0.943070  0.485740  0.213300  1.0  -0.592
  O  O825  1  0.771100  0.387800  0.116480  1.0  -0.5705
  O  O826  1  0.783810  0.433820  0.067780  1.0  -0.5586
  O  O827  1  0.923380  0.609960  0.248800  1.0  -0.5963
  O  O828  1  0.019600  0.683400  0.268100  1.0  -0.5764
  O  O829  1  0.964210  0.840020  0.329390  1.0  -0.5947
  O  O830  1  0.838990  0.841180  0.331180  1.0  -0.5969
  O  O831  1  0.612500  0.663000  0.291500  1.0  -0.4188
  O  O832  1  0.640890  0.594380  0.264730  1.0  -0.5856
  O  O833  1  0.461700  0.858000  0.097830  1.0  -0.6147
  O  O834  1  0.368380  0.898760  0.106840  1.0  -0.6077
  O  O835  1  0.096000  0.798200  0.060670  1.0  -0.5737
  O  O836  1  0.070170  0.714940  0.033310  1.0  -0.5712
  O  O837  1  0.304760  0.686320  0.976230  1.0  -0.6247
  O  O838  1  0.427060  0.755720  0.981980  1.0  -0.5862
  O  O839  1  0.939530  0.790260  0.092670  1.0  -0.5938
  O  O840  1  0.807030  0.739860  0.095250  1.0  -0.6086
  O  O841  1  0.057430  0.985860  0.141800  1.0  -0.5457
  O  O842  1  0.981140  0.037080  0.151740  1.0  -0.6579
  O  O843  1  0.674000  0.928000  0.153060  1.0  -0.5768
  O  O844  1  0.632160  0.852920  0.117990  1.0  -0.5487
  O  O845  1  0.850110  0.954420  0.412820  1.0  -0.7338
  O  O846  1  0.144270  0.909340  0.335560  1.0  -0.6415
  O  O847  1  0.662730  0.669460  0.063330  1.0  -0.5978
  O  O848  1  0.055200  0.947200  0.294770  1.0  -0.5555
  O  O849  1  0.261100  0.656200  0.425350  1.0  -0.6717
  O  O850  1  0.188710  0.692420  0.393940  1.0  -0.5363
  O  O851  1  0.039110  0.575020  0.293590  1.0  -0.6278
  O  O852  1  0.042670  0.485740  0.286700  1.0  -0.5916
  O  O853  1  0.116700  0.387800  0.383520  1.0  -0.5694
  O  O854  1  0.150010  0.433820  0.432220  1.0  -0.5617
  O  O855  1  0.186580  0.609960  0.251200  1.0  -0.5959
  O  O856  1  0.163800  0.683400  0.231900  1.0  -0.575
  O  O857  1  0.375810  0.840020  0.170610  1.0  -0.595
  O  O858  1  0.502190  0.841180  0.168820  1.0  -0.5965
  O  O859  1  0.550500  0.663000  0.208500  1.0  -0.4161
  O  O860  1  0.453490  0.594380  0.235270  1.0  -0.5867
  O  O861  1  0.896300  0.858000  0.402170  1.0  -0.6126
  O  O862  1  0.030380  0.898760  0.393160  1.0  -0.6065
  O  O863  1  0.202200  0.798200  0.439330  1.0  -0.5738
  O  O864  1  0.144770  0.714940  0.466690  1.0  -0.5697
  O  O865  1  0.881560  0.686320  0.523770  1.0  -0.6245
  O  O866  1  0.828660  0.755720  0.518020  1.0  -0.5868
  O  O867  1  0.350730  0.790260  0.407330  1.0  -0.5931
  O  O868  1  0.432830  0.739860  0.404750  1.0  -0.6079
  O  O869  1  0.428430  0.985860  0.358200  1.0  -0.5471
  O  O870  1  0.555940  0.037080  0.348260  1.0  -0.6572
  O  O871  1  0.754000  0.928000  0.346940  1.0  -0.5761
  O  O872  1  0.720760  0.852920  0.382010  1.0  -0.5497
  O  O873  1  0.604310  0.954420  0.087180  1.0  -0.7329
  O  O874  1  0.265070  0.909340  0.164440  1.0  -0.6422
  O  O875  1  0.506730  0.669460  0.436670  1.0  -0.5986
  O  O876  1  0.392000  0.947200  0.205230  1.0  -0.5528
  O  O877  1  0.238900  0.343800  0.425350  1.0  -0.6729
  O  O878  1  0.311290  0.307580  0.393940  1.0  -0.5383
  O  O879  1  0.460890  0.424980  0.293590  1.0  -0.6279
  O  O880  1  0.457330  0.514260  0.286700  1.0  -0.5906
  O  O881  1  0.383300  0.612200  0.383520  1.0  -0.5707
  O  O882  1  0.349990  0.566180  0.432220  1.0  -0.561
  O  O883  1  0.313420  0.390040  0.251200  1.0  -0.5951
  O  O884  1  0.336200  0.316600  0.231900  1.0  -0.5763
  O  O885  1  0.124190  0.159980  0.170610  1.0  -0.5947
  O  O886  1  0.997810  0.158820  0.168820  1.0  -0.5972
  O  O887  1  0.949500  0.337000  0.208500  1.0  -0.4181
  O  O888  1  0.046510  0.405620  0.235270  1.0  -0.5878
  O  O889  1  0.603700  0.142000  0.402170  1.0  -0.6137
  O  O890  1  0.469620  0.101240  0.393160  1.0  -0.6071
  O  O891  1  0.297800  0.201800  0.439330  1.0  -0.5722
  O  O892  1  0.355230  0.285060  0.466690  1.0  -0.5709
  O  O893  1  0.618440  0.313680  0.523770  1.0  -0.6235
  O  O894  1  0.671340  0.244280  0.518020  1.0  -0.5868
  O  O895  1  0.149270  0.209740  0.407330  1.0  -0.5932
  O  O896  1  0.067170  0.260140  0.404750  1.0  -0.609
  O  O897  1  0.071570  0.014140  0.358200  1.0  -0.5446
  O  O898  1  0.944060  0.962920  0.348260  1.0  -0.6585
  O  O899  1  0.746000  0.072000  0.346940  1.0  -0.5756
  O  O900  1  0.779240  0.147080  0.382010  1.0  -0.5491
  O  O901  1  0.895690  0.045580  0.087180  1.0  -0.7339
  O  O902  1  0.234930  0.090660  0.164440  1.0  -0.6415
  O  O903  1  0.993270  0.330540  0.436670  1.0  -0.5984
  O  O904  1  0.108000  0.052800  0.205230  1.0  -0.5532
