# generated using pymatgen
data_Co5H19C43(NO14)2
_symmetry_space_group_name_H-M   'P 1'
_cell_length_a   17.78000000
_cell_length_b   24.58000000
_cell_length_c   39.38600000
_cell_angle_alpha   90.00000000
_cell_angle_beta   90.00000000
_cell_angle_gamma   111.20300000
_symmetry_Int_Tables_number   1
_chemical_formula_structural   Co5H19C43(NO14)2
_chemical_formula_sum   'Co40 H152 C344 N16 O224'
_cell_volume   16047.72458913
_cell_formula_units_Z   8
loop_
 _symmetry_equiv_pos_site_id
 _symmetry_equiv_pos_as_xyz
  1  'x, y, z'
loop_
 _atom_site_type_symbol
 _atom_site_label
 _atom_site_symmetry_multiplicity
 _atom_site_fract_x
 _atom_site_fract_y
 _atom_site_fract_z
 _atom_site_occupancy
 _atom_site_charge
  Co  Co1  1  0.978170  0.740980  0.061530  1.0  1.127
  Co  Co2  1  0.776680  0.660880  0.072180  1.0  1.1571
  Co  Co3  1  0.554910  0.899220  0.129910  1.0  1.1593
  Co  Co4  1  0.390270  0.921640  0.156260  1.0  1.1241
  Co  Co5  1  0.521830  0.259020  0.061530  1.0  1.1278
  Co  Co6  1  0.723320  0.339120  0.072180  1.0  1.1578
  Co  Co7  1  0.945090  0.100780  0.129910  1.0  1.16
  Co  Co8  1  0.109730  0.078360  0.156260  1.0  1.123
  Co  Co9  1  0.237190  0.259020  0.438470  1.0  1.1265
  Co  Co10  1  0.115800  0.339120  0.427820  1.0  1.1574
  Co  Co11  1  0.655690  0.100780  0.370090  1.0  1.1601
  Co  Co12  1  0.468630  0.078360  0.343740  1.0  1.123
  Co  Co13  1  0.262810  0.740980  0.438470  1.0  1.1278
  Co  Co14  1  0.384200  0.660880  0.427820  1.0  1.1596
  Co  Co15  1  0.844310  0.899220  0.370090  1.0  1.1597
  Co  Co16  1  0.031370  0.921640  0.343740  1.0  1.1229
  Co  Co17  1  0.021830  0.259020  0.938470  1.0  1.1276
  Co  Co18  1  0.223320  0.339120  0.927820  1.0  1.1588
  Co  Co19  1  0.445090  0.100780  0.870090  1.0  1.1607
  Co  Co20  1  0.609730  0.078360  0.843740  1.0  1.1226
  Co  Co21  1  0.478170  0.740980  0.938470  1.0  1.1266
  Co  Co22  1  0.276680  0.660880  0.927820  1.0  1.1583
  Co  Co23  1  0.054910  0.899220  0.870090  1.0  1.1592
  Co  Co24  1  0.890270  0.921640  0.843740  1.0  1.1239
  Co  Co25  1  0.762810  0.740980  0.561530  1.0  1.1278
  Co  Co26  1  0.884200  0.660880  0.572180  1.0  1.1584
  Co  Co27  1  0.344310  0.899220  0.629910  1.0  1.1597
  Co  Co28  1  0.531370  0.921640  0.656260  1.0  1.1229
  Co  Co29  1  0.737190  0.259020  0.561530  1.0  1.1262
  Co  Co30  1  0.615800  0.339120  0.572180  1.0  1.1563
  Co  Co31  1  0.155690  0.100780  0.629910  1.0  1.1595
  Co  Co32  1  0.968630  0.078360  0.656260  1.0  1.1235
  Co  Co33  1  0.059760  0.619520  0.250000  1.0  1.0844
  Co  Co34  1  0.971500  0.443000  0.250000  1.0  1.0347
  Co  Co35  1  0.440240  0.380480  0.250000  1.0  1.0846
  Co  Co36  1  0.528500  0.557000  0.250000  1.0  1.0345
  Co  Co37  1  0.940240  0.380480  0.750000  1.0  1.0846
  Co  Co38  1  0.028500  0.557000  0.750000  1.0  1.0348
  Co  Co39  1  0.559760  0.619520  0.750000  1.0  1.0843
  Co  Co40  1  0.471500  0.443000  0.750000  1.0  1.0349
  H  H41  1  0.992100  0.623400  0.157200  1.0  0.1299
  H  H42  1  0.846600  0.545000  0.079600  1.0  0.1334
  H  H43  1  0.736000  0.804400  0.116000  1.0  0.1247
  H  H44  1  0.204900  0.719600  0.004400  1.0  0.1321
  H  H45  1  0.871700  0.450400  0.159100  1.0  0.1363
  H  H46  1  0.428700  0.806000  0.040300  1.0  0.1281
  H  H47  1  0.645500  0.678400  0.109400  1.0  0.0566
  H  H48  1  0.830300  0.970000  0.149700  1.0  0.128
  H  H49  1  0.504800  0.745400  0.190400  1.0  0.1257
  H  H50  1  0.240900  0.835600  0.080700  1.0  0.1276
  H  H51  1  0.332300  0.620600  0.241800  1.0  0.1339
  H  H52  1  0.975700  0.885800  0.120600  1.0  0.1281
  H  H53  1  0.288800  0.759800  0.206600  1.0  0.1302
  H  H54  1  0.524700  0.749800  0.115100  1.0  0.152
  H  H55  1  0.474200  0.683000  0.119100  1.0  0.1444
  H  H56  1  0.559400  0.709800  0.136000  1.0  0.1415
  H  H57  1  0.480300  0.669200  0.050100  1.0  0.1481
  H  H58  1  0.518400  0.737600  0.051200  1.0  0.1509
  H  H59  1  0.566600  0.701800  0.035000  1.0  0.1512
  H  H60  1  0.507900  0.376600  0.157200  1.0  0.1296
  H  H61  1  0.653400  0.455000  0.079600  1.0  0.1333
  H  H62  1  0.764000  0.195600  0.116000  1.0  0.1246
  H  H63  1  0.295100  0.280400  0.004400  1.0  0.1323
  H  H64  1  0.628300  0.549600  0.159100  1.0  0.1364
  H  H65  1  0.071300  0.194000  0.040300  1.0  0.1282
  H  H66  1  0.854500  0.321600  0.109400  1.0  0.0558
  H  H67  1  0.669700  0.030000  0.149700  1.0  0.1288
  H  H68  1  0.995200  0.254600  0.190400  1.0  0.1255
  H  H69  1  0.259100  0.164400  0.080700  1.0  0.1276
  H  H70  1  0.167700  0.379400  0.241800  1.0  0.1338
  H  H71  1  0.524300  0.114200  0.120600  1.0  0.1275
  H  H72  1  0.211200  0.240200  0.206600  1.0  0.13
  H  H73  1  0.975300  0.250200  0.115100  1.0  0.1507
  H  H74  1  0.025800  0.317000  0.119100  1.0  0.1432
  H  H75  1  0.940600  0.290200  0.136000  1.0  0.1411
  H  H76  1  0.019700  0.330800  0.050100  1.0  0.1484
  H  H77  1  0.981600  0.262400  0.051200  1.0  0.1501
  H  H78  1  0.933400  0.298200  0.035000  1.0  0.1522
  H  H79  1  0.368700  0.376600  0.342800  1.0  0.1295
  H  H80  1  0.301600  0.455000  0.420400  1.0  0.1326
  H  H81  1  0.931600  0.195600  0.384000  1.0  0.1244
  H  H82  1  0.485300  0.280400  0.495600  1.0  0.1311
  H  H83  1  0.421300  0.549600  0.340900  1.0  0.1365
  H  H84  1  0.622700  0.194000  0.459700  1.0  0.1282
  H  H85  1  0.967100  0.321600  0.390600  1.0  0.0577
  H  H86  1  0.860300  0.030000  0.350300  1.0  0.1276
  H  H87  1  0.759400  0.254600  0.309600  1.0  0.1256
  H  H88  1  0.405300  0.164400  0.419300  1.0  0.128
  H  H89  1  0.711700  0.379400  0.258200  1.0  0.134
  H  H90  1  0.089900  0.114200  0.379400  1.0  0.128
  H  H91  1  0.529000  0.240200  0.293400  1.0  0.13
  H  H92  1  0.774900  0.250200  0.384900  1.0  0.1471
  H  H93  1  0.791200  0.317000  0.380900  1.0  0.145
  H  H94  1  0.849600  0.290200  0.364000  1.0  0.1403
  H  H95  1  0.811100  0.330800  0.449900  1.0  0.1485
  H  H96  1  0.780800  0.262400  0.448800  1.0  0.1497
  H  H97  1  0.864800  0.298200  0.465000  1.0  0.1505
  H  H98  1  0.131300  0.623400  0.342800  1.0  0.1298
  H  H99  1  0.198400  0.545000  0.420400  1.0  0.1329
  H  H100  1  0.568400  0.804400  0.384000  1.0  0.1242
  H  H101  1  0.014700  0.719600  0.495600  1.0  0.1316
  H  H102  1  0.078700  0.450400  0.340900  1.0  0.1364
  H  H103  1  0.877300  0.806000  0.459700  1.0  0.1285
  H  H104  1  0.532900  0.678400  0.390600  1.0  0.0575
  H  H105  1  0.639700  0.970000  0.350300  1.0  0.1287
  H  H106  1  0.740600  0.745400  0.309600  1.0  0.1254
  H  H107  1  0.094700  0.835600  0.419300  1.0  0.1283
  H  H108  1  0.788300  0.620600  0.258200  1.0  0.1336
  H  H109  1  0.410100  0.885800  0.379400  1.0  0.1274
  H  H110  1  0.971000  0.759800  0.293400  1.0  0.1303
  H  H111  1  0.725100  0.749800  0.384900  1.0  0.1504
  H  H112  1  0.708800  0.683000  0.380900  1.0  0.1444
  H  H113  1  0.650400  0.709800  0.364000  1.0  0.1399
  H  H114  1  0.688900  0.669200  0.449900  1.0  0.1482
  H  H115  1  0.719200  0.737600  0.448800  1.0  0.1503
  H  H116  1  0.635200  0.701800  0.465000  1.0  0.1523
  H  H117  1  0.007900  0.376600  0.842800  1.0  0.1293
  H  H118  1  0.153400  0.455000  0.920400  1.0  0.1329
  H  H119  1  0.264000  0.195600  0.884000  1.0  0.1243
  H  H120  1  0.795100  0.280400  0.995600  1.0  0.1313
  H  H121  1  0.128300  0.549600  0.840900  1.0  0.1364
  H  H122  1  0.571300  0.194000  0.959700  1.0  0.1285
  H  H123  1  0.354500  0.321600  0.890600  1.0  0.0574
  H  H124  1  0.169700  0.030000  0.850300  1.0  0.128
  H  H125  1  0.495200  0.254600  0.809600  1.0  0.1252
  H  H126  1  0.759100  0.164400  0.919300  1.0  0.1282
  H  H127  1  0.667700  0.379400  0.758200  1.0  0.134
  H  H128  1  0.024300  0.114200  0.879400  1.0  0.1274
  H  H129  1  0.711200  0.240200  0.793400  1.0  0.1299
  H  H130  1  0.475300  0.250200  0.884900  1.0  0.1502
  H  H131  1  0.525800  0.317000  0.880900  1.0  0.1445
  H  H132  1  0.440600  0.290200  0.864000  1.0  0.1402
  H  H133  1  0.519700  0.330800  0.949900  1.0  0.1476
  H  H134  1  0.481600  0.262400  0.948800  1.0  0.1501
  H  H135  1  0.433400  0.298200  0.965000  1.0  0.1519
  H  H136  1  0.492100  0.623400  0.842800  1.0  0.1297
  H  H137  1  0.346600  0.545000  0.920400  1.0  0.1326
  H  H138  1  0.236000  0.804400  0.884000  1.0  0.1241
  H  H139  1  0.704900  0.719600  0.995600  1.0  0.1312
  H  H140  1  0.371700  0.450400  0.840900  1.0  0.1364
  H  H141  1  0.928700  0.806000  0.959700  1.0  0.1286
  H  H142  1  0.145500  0.678400  0.890600  1.0  0.0579
  H  H143  1  0.330300  0.970000  0.850300  1.0  0.1285
  H  H144  1  0.004800  0.745400  0.809600  1.0  0.1257
  H  H145  1  0.740900  0.835600  0.919300  1.0  0.1281
  H  H146  1  0.832300  0.620600  0.758200  1.0  0.1336
  H  H147  1  0.475700  0.885800  0.879400  1.0  0.1279
  H  H148  1  0.788800  0.759800  0.793400  1.0  0.1302
  H  H149  1  0.024700  0.749800  0.884900  1.0  0.1514
  H  H150  1  0.974200  0.683000  0.880900  1.0  0.1454
  H  H151  1  0.059400  0.709800  0.864000  1.0  0.1405
  H  H152  1  0.980300  0.669200  0.949900  1.0  0.1484
  H  H153  1  0.018400  0.737600  0.948800  1.0  0.1508
  H  H154  1  0.066600  0.701800  0.965000  1.0  0.1515
  H  H155  1  0.631300  0.623400  0.657200  1.0  0.1299
  H  H156  1  0.698400  0.545000  0.579600  1.0  0.1333
  H  H157  1  0.068400  0.804400  0.616000  1.0  0.1247
  H  H158  1  0.514700  0.719600  0.504400  1.0  0.1324
  H  H159  1  0.578700  0.450400  0.659100  1.0  0.1367
  H  H160  1  0.377300  0.806000  0.540300  1.0  0.128
  H  H161  1  0.032900  0.678400  0.609400  1.0  0.0565
  H  H162  1  0.139700  0.970000  0.649700  1.0  0.1283
  H  H163  1  0.240600  0.745400  0.690400  1.0  0.1257
  H  H164  1  0.594700  0.835600  0.580700  1.0  0.1275
  H  H165  1  0.288300  0.620600  0.741800  1.0  0.1339
  H  H166  1  0.910100  0.885800  0.620600  1.0  0.1276
  H  H167  1  0.471000  0.759800  0.706600  1.0  0.1303
  H  H168  1  0.225100  0.749800  0.615100  1.0  0.1509
  H  H169  1  0.208800  0.683000  0.619100  1.0  0.1433
  H  H170  1  0.150400  0.709800  0.636000  1.0  0.1411
  H  H171  1  0.188900  0.669200  0.550100  1.0  0.1486
  H  H172  1  0.219200  0.737600  0.551200  1.0  0.1507
  H  H173  1  0.135200  0.701800  0.535000  1.0  0.1519
  H  H174  1  0.868700  0.376600  0.657200  1.0  0.1298
  H  H175  1  0.801600  0.455000  0.579600  1.0  0.1335
  H  H176  1  0.431600  0.195600  0.616000  1.0  0.1248
  H  H177  1  0.985300  0.280400  0.504400  1.0  0.1321
  H  H178  1  0.921300  0.549600  0.659100  1.0  0.1361
  H  H179  1  0.122700  0.194000  0.540300  1.0  0.1279
  H  H180  1  0.467100  0.321600  0.609400  1.0  0.0559
  H  H181  1  0.360300  0.030000  0.649700  1.0  0.1286
  H  H182  1  0.259400  0.254600  0.690400  1.0  0.1258
  H  H183  1  0.905300  0.164400  0.580700  1.0  0.1278
  H  H184  1  0.211700  0.379400  0.741800  1.0  0.1338
  H  H185  1  0.589900  0.114200  0.620600  1.0  0.1281
  H  H186  1  0.029000  0.240200  0.706600  1.0  0.1302
  H  H187  1  0.274900  0.250200  0.615100  1.0  0.1478
  H  H188  1  0.291200  0.317000  0.619100  1.0  0.1441
  H  H189  1  0.349600  0.290200  0.636000  1.0  0.141
  H  H190  1  0.311100  0.330800  0.550100  1.0  0.1487
  H  H191  1  0.280800  0.262400  0.551200  1.0  0.1496
  H  H192  1  0.364800  0.298200  0.535000  1.0  0.1508
  C  C193  1  0.119680  0.762360  0.045500  1.0  0.6914
  C  C194  1  0.941200  0.651400  0.098640  1.0  0.7043
  C  C195  1  0.955750  0.589900  0.147260  1.0  0.0554
  C  C196  1  0.868910  0.542820  0.100720  1.0  0.0054
  C  C197  1  0.322570  0.758740  0.017680  1.0  -0.1511
  C  C198  1  0.798550  0.434100  0.099430  1.0  0.6761
  C  C199  1  0.915000  0.936000  0.136420  1.0  -0.1265
  C  C200  1  0.780690  0.837380  0.121080  1.0  0.0397
  C  C201  1  0.858090  0.836780  0.116140  1.0  -0.1304
  C  C202  1  0.687820  0.889040  0.135400  1.0  0.6929
  C  C203  1  0.239440  0.746680  0.019190  1.0  0.0478
  C  C204  1  0.209580  0.658160  0.236920  1.0  0.6738
  C  C205  1  0.988160  0.988320  0.143120  1.0  0.6908
  C  C206  1  0.884680  0.486160  0.148220  1.0  0.0471
  C  C207  1  0.373460  0.797920  0.041000  1.0  0.0306
  C  C208  1  0.920510  0.593620  0.116600  1.0  -0.1214
  C  C209  1  0.626920  0.681840  0.087760  1.0  0.2617
  C  C210  1  0.975200  0.532000  0.197320  1.0  0.7632
  C  C211  1  0.208110  0.775220  0.042870  1.0  -0.1375
  C  C212  1  0.937130  0.536460  0.163470  1.0  -0.1349
  C  C213  1  0.851390  0.489380  0.116600  1.0  -0.1174
  C  C214  1  0.837090  0.936780  0.141360  1.0  0.0169
  C  C215  1  0.452800  0.730600  0.199270  1.0  0.0198
  C  C216  1  0.341810  0.824620  0.065180  1.0  -0.0826
  C  C217  1  0.260950  0.815300  0.065470  1.0  0.0486
  C  C218  1  0.395230  0.864060  0.091980  1.0  0.7468
  C  C219  1  0.354490  0.731580  0.989820  1.0  0.7668
  C  C220  1  0.349240  0.655480  0.229650  1.0  0.0551
  C  C221  1  0.769720  0.887040  0.133590  1.0  -0.1187
  C  C222  1  0.924070  0.886140  0.123900  1.0  0.0701
  C  C223  1  0.868440  0.784680  0.100450  1.0  0.7557
  C  C224  1  0.322920  0.738840  0.208700  1.0  0.0476
  C  C225  1  0.428830  0.819260  0.176920  1.0  0.7443
  C  C226  1  0.401960  0.761720  0.195260  1.0  -0.1302
  C  C227  1  0.426770  0.676940  0.216460  1.0  -0.147
  C  C228  1  0.482250  0.643300  0.220160  1.0  0.7237
  C  C229  1  0.296290  0.684980  0.225080  1.0  -0.1333
  C  C230  1  0.527580  0.711560  0.116700  1.0  -0.1484
  C  C231  1  0.529600  0.702200  0.052700  1.0  -0.1119
  C  C232  1  0.095600  0.838600  0.153100  1.0  -0.0182
  C  C233  1  0.225800  0.871000  0.180400  1.0  0.177
  C  C234  1  0.101600  0.786200  0.202300  1.0  0.0111
  C  C235  1  0.693800  0.978200  0.076100  1.0  -0.1216
  C  C236  1  0.380320  0.237640  0.045500  1.0  0.6913
  C  C237  1  0.558800  0.348600  0.098640  1.0  0.7043
  C  C238  1  0.544250  0.410100  0.147260  1.0  0.056
  C  C239  1  0.631090  0.457180  0.100720  1.0  0.0064
  C  C240  1  0.177430  0.241260  0.017680  1.0  -0.1514
  C  C241  1  0.701450  0.565900  0.099430  1.0  0.6763
  C  C242  1  0.585000  0.064000  0.136420  1.0  -0.126
  C  C243  1  0.719310  0.162620  0.121080  1.0  0.0404
  C  C244  1  0.641910  0.163220  0.116140  1.0  -0.1302
  C  C245  1  0.812180  0.110960  0.135400  1.0  0.6935
  C  C246  1  0.260560  0.253320  0.019190  1.0  0.048
  C  C247  1  0.290420  0.341840  0.236920  1.0  0.6735
  C  C248  1  0.511840  0.011680  0.143120  1.0  0.6882
  C  C249  1  0.615320  0.513840  0.148220  1.0  0.0471
  C  C250  1  0.126540  0.202080  0.041000  1.0  0.0293
  C  C251  1  0.579490  0.406380  0.116600  1.0  -0.1214
  C  C252  1  0.873080  0.318160  0.087760  1.0  0.2627
  C  C253  1  0.524800  0.468000  0.197320  1.0  0.7626
  C  C254  1  0.291890  0.224780  0.042870  1.0  -0.1373
  C  C255  1  0.562870  0.463540  0.163470  1.0  -0.1342
  C  C256  1  0.648610  0.510620  0.116600  1.0  -0.1173
  C  C257  1  0.662910  0.063220  0.141360  1.0  0.0181
  C  C258  1  0.047200  0.269400  0.199270  1.0  0.0203
  C  C259  1  0.158190  0.175380  0.065180  1.0  -0.0834
  C  C260  1  0.239050  0.184700  0.065470  1.0  0.0496
  C  C261  1  0.104770  0.135940  0.091980  1.0  0.7467
  C  C262  1  0.145510  0.268420  0.989820  1.0  0.7668
  C  C263  1  0.150760  0.344520  0.229650  1.0  0.0541
  C  C264  1  0.730280  0.112960  0.133590  1.0  -0.1176
  C  C265  1  0.575930  0.113860  0.123900  1.0  0.0697
  C  C266  1  0.631560  0.215320  0.100450  1.0  0.756
  C  C267  1  0.177080  0.261160  0.208700  1.0  0.0482
  C  C268  1  0.071170  0.180740  0.176920  1.0  0.7452
  C  C269  1  0.098040  0.238280  0.195260  1.0  -0.13
  C  C270  1  0.073230  0.323060  0.216460  1.0  -0.1454
  C  C271  1  0.017750  0.356700  0.220160  1.0  0.7242
  C  C272  1  0.203710  0.315020  0.225080  1.0  -0.1329
  C  C273  1  0.972420  0.288440  0.116700  1.0  -0.15
  C  C274  1  0.970400  0.297800  0.052700  1.0  -0.1128
  C  C275  1  0.404400  0.161400  0.153100  1.0  -0.0197
  C  C276  1  0.274200  0.129000  0.180400  1.0  0.1785
  C  C277  1  0.398400  0.213800  0.202300  1.0  0.0135
  C  C278  1  0.806200  0.021800  0.076100  1.0  -0.1223
  C  C279  1  0.357320  0.237640  0.454500  1.0  0.691
  C  C280  1  0.289800  0.348600  0.401360  1.0  0.7051
  C  C281  1  0.365850  0.410100  0.352740  1.0  0.0563
  C  C282  1  0.326090  0.457180  0.399280  1.0  0.0062
  C  C283  1  0.563830  0.241260  0.482320  1.0  -0.1511
  C  C284  1  0.364450  0.565900  0.400570  1.0  0.6763
  C  C285  1  0.979000  0.064000  0.363580  1.0  -0.1256
  C  C286  1  0.943310  0.162620  0.378920  1.0  0.0391
  C  C287  1  0.021310  0.163220  0.383860  1.0  -0.1307
  C  C288  1  0.798780  0.110960  0.364600  1.0  0.6922
  C  C289  1  0.492760  0.253320  0.480810  1.0  0.0483
  C  C290  1  0.551420  0.341840  0.263080  1.0  0.6733
  C  C291  1  0.999840  0.011680  0.356880  1.0  0.6886
  C  C292  1  0.398520  0.513840  0.351780  1.0  0.0475
  C  C293  1  0.575540  0.202080  0.459000  1.0  0.031
  C  C294  1  0.326890  0.406380  0.383400  1.0  -0.1219
  C  C295  1  0.945080  0.318160  0.412240  1.0  0.2612
  C  C296  1  0.443200  0.468000  0.302680  1.0  0.763
  C  C297  1  0.432890  0.224780  0.457130  1.0  -0.1373
  C  C298  1  0.400670  0.463540  0.336530  1.0  -0.135
  C  C299  1  0.362010  0.510620  0.383400  1.0  -0.1177
  C  C300  1  0.900310  0.063220  0.358640  1.0  0.0179
  C  C301  1  0.722200  0.269400  0.300730  1.0  0.02
  C  C302  1  0.517190  0.175380  0.434820  1.0  -0.0822
  C  C303  1  0.445650  0.184700  0.434530  1.0  0.0486
  C  C304  1  0.531170  0.135940  0.408020  1.0  0.7455
  C  C305  1  0.622910  0.268420  0.510180  1.0  0.7666
  C  C306  1  0.693760  0.344520  0.270350  1.0  0.0543
  C  C307  1  0.882680  0.112960  0.366410  1.0  -0.1185
  C  C308  1  0.037930  0.113860  0.376100  1.0  0.0701
  C  C309  1  0.083760  0.215320  0.399550  1.0  0.7571
  C  C310  1  0.584080  0.261160  0.291300  1.0  0.0478
  C  C311  1  0.609570  0.180740  0.323080  1.0  0.7459
  C  C312  1  0.640240  0.238280  0.304740  1.0  -0.1305
  C  C313  1  0.749830  0.323060  0.283540  1.0  -0.1462
  C  C314  1  0.838950  0.356700  0.279840  1.0  0.7243
  C  C315  1  0.611310  0.315020  0.274920  1.0  -0.1334
  C  C316  1  0.816020  0.288440  0.383300  1.0  -0.1486
  C  C317  1  0.827400  0.297800  0.447300  1.0  -0.1118
  C  C318  1  0.257000  0.161400  0.346900  1.0  -0.0193
  C  C319  1  0.354800  0.129000  0.319600  1.0  0.1807
  C  C320  1  0.315400  0.213800  0.297700  1.0  0.0144
  C  C321  1  0.715600  0.021800  0.423900  1.0  -0.122
  C  C322  1  0.142680  0.762360  0.454500  1.0  0.6905
  C  C323  1  0.210200  0.651400  0.401360  1.0  0.7049
  C  C324  1  0.134150  0.589900  0.352740  1.0  0.055
  C  C325  1  0.173910  0.542820  0.399280  1.0  0.0061
  C  C326  1  0.936170  0.758740  0.482320  1.0  -0.1514
  C  C327  1  0.135550  0.434100  0.400570  1.0  0.6769
  C  C328  1  0.521000  0.936000  0.363580  1.0  -0.1249
  C  C329  1  0.556690  0.837380  0.378920  1.0  0.0407
  C  C330  1  0.478690  0.836780  0.383860  1.0  -0.1309
  C  C331  1  0.701220  0.889040  0.364600  1.0  0.6922
  C  C332  1  0.007240  0.746680  0.480810  1.0  0.0485
  C  C333  1  0.948580  0.658160  0.263080  1.0  0.673
  C  C334  1  0.500160  0.988320  0.356880  1.0  0.6888
  C  C335  1  0.101480  0.486160  0.351780  1.0  0.0465
  C  C336  1  0.924460  0.797920  0.459000  1.0  0.0287
  C  C337  1  0.173110  0.593620  0.383400  1.0  -0.1212
  C  C338  1  0.554920  0.681840  0.412240  1.0  0.2627
  C  C339  1  0.056800  0.532000  0.302680  1.0  0.7626
  C  C340  1  0.067110  0.775220  0.457130  1.0  -0.1371
  C  C341  1  0.099330  0.536460  0.336530  1.0  -0.1349
  C  C342  1  0.137990  0.489380  0.383400  1.0  -0.1177
  C  C343  1  0.599690  0.936780  0.358640  1.0  0.0179
  C  C344  1  0.777800  0.730600  0.300730  1.0  0.0205
  C  C345  1  0.982810  0.824620  0.434820  1.0  -0.0828
  C  C346  1  0.054350  0.815300  0.434530  1.0  0.0494
  C  C347  1  0.968830  0.864060  0.408020  1.0  0.7471
  C  C348  1  0.877090  0.731580  0.510180  1.0  0.7667
  C  C349  1  0.806240  0.655480  0.270350  1.0  0.0551
  C  C350  1  0.617320  0.887040  0.366410  1.0  -0.1182
  C  C351  1  0.462070  0.886140  0.376100  1.0  0.0695
  C  C352  1  0.416240  0.784680  0.399550  1.0  0.7552
  C  C353  1  0.915920  0.738840  0.291300  1.0  0.0484
  C  C354  1  0.890430  0.819260  0.323080  1.0  0.7457
  C  C355  1  0.859760  0.761720  0.304740  1.0  -0.1295
  C  C356  1  0.750170  0.676940  0.283540  1.0  -0.1459
  C  C357  1  0.661050  0.643300  0.279840  1.0  0.7244
  C  C358  1  0.888690  0.684980  0.274920  1.0  -0.1332
  C  C359  1  0.683980  0.711560  0.383300  1.0  -0.15
  C  C360  1  0.672600  0.702200  0.447300  1.0  -0.1121
  C  C361  1  0.243000  0.838600  0.346900  1.0  -0.019
  C  C362  1  0.145200  0.871000  0.319600  1.0  0.1777
  C  C363  1  0.184600  0.786200  0.297700  1.0  0.0136
  C  C364  1  0.784400  0.978200  0.423900  1.0  -0.1242
  C  C365  1  0.880320  0.237640  0.954500  1.0  0.6907
  C  C366  1  0.058800  0.348600  0.901360  1.0  0.705
  C  C367  1  0.044250  0.410100  0.852740  1.0  0.0558
  C  C368  1  0.131090  0.457180  0.899280  1.0  0.006
  C  C369  1  0.677430  0.241260  0.982320  1.0  -0.1516
  C  C370  1  0.201450  0.565900  0.900570  1.0  0.6768
  C  C371  1  0.085000  0.064000  0.863580  1.0  -0.1258
  C  C372  1  0.219310  0.162620  0.878920  1.0  0.04
  C  C373  1  0.141910  0.163220  0.883860  1.0  -0.1304
  C  C374  1  0.312180  0.110960  0.864600  1.0  0.6922
  C  C375  1  0.760560  0.253320  0.980810  1.0  0.0484
  C  C376  1  0.790420  0.341840  0.763080  1.0  0.6733
  C  C377  1  0.011840  0.011680  0.856880  1.0  0.6879
  C  C378  1  0.115320  0.513840  0.851780  1.0  0.0472
  C  C379  1  0.626540  0.202080  0.959000  1.0  0.0292
  C  C380  1  0.079490  0.406380  0.883400  1.0  -0.1215
  C  C381  1  0.373080  0.318160  0.912240  1.0  0.2619
  C  C382  1  0.024800  0.468000  0.802680  1.0  0.763
  C  C383  1  0.791890  0.224780  0.957130  1.0  -0.1371
  C  C384  1  0.062870  0.463540  0.836530  1.0  -0.1349
  C  C385  1  0.148610  0.510620  0.883400  1.0  -0.1176
  C  C386  1  0.162910  0.063220  0.858640  1.0  0.0192
  C  C387  1  0.547200  0.269400  0.800730  1.0  0.0207
  C  C388  1  0.658190  0.175380  0.934820  1.0  -0.083
  C  C389  1  0.739050  0.184700  0.934530  1.0  0.0494
  C  C390  1  0.604770  0.135940  0.908020  1.0  0.7466
  C  C391  1  0.645510  0.268420  0.010180  1.0  0.7666
  C  C392  1  0.650760  0.344520  0.770350  1.0  0.0544
  C  C393  1  0.230280  0.112960  0.866410  1.0  -0.118
  C  C394  1  0.075930  0.113860  0.876100  1.0  0.0696
  C  C395  1  0.131560  0.215320  0.899550  1.0  0.7562
  C  C396  1  0.677080  0.261160  0.791300  1.0  0.0484
  C  C397  1  0.571170  0.180740  0.823080  1.0  0.7463
  C  C398  1  0.598040  0.238280  0.804740  1.0  -0.13
  C  C399  1  0.573230  0.323060  0.783540  1.0  -0.1453
  C  C400  1  0.517750  0.356700  0.779840  1.0  0.7243
  C  C401  1  0.703710  0.315020  0.774920  1.0  -0.133
  C  C402  1  0.472420  0.288440  0.883300  1.0  -0.1499
  C  C403  1  0.470400  0.297800  0.947300  1.0  -0.1122
  C  C404  1  0.904400  0.161400  0.846900  1.0  -0.0196
  C  C405  1  0.774200  0.129000  0.819600  1.0  0.1798
  C  C406  1  0.898400  0.213800  0.797700  1.0  0.0146
  C  C407  1  0.306200  0.021800  0.923900  1.0  -0.124
  C  C408  1  0.619680  0.762360  0.954500  1.0  0.6909
  C  C409  1  0.441200  0.651400  0.901360  1.0  0.7048
  C  C410  1  0.455750  0.589900  0.852740  1.0  0.0551
  C  C411  1  0.368910  0.542820  0.899280  1.0  0.0062
  C  C412  1  0.822570  0.758740  0.982320  1.0  -0.1514
  C  C413  1  0.298550  0.434100  0.900570  1.0  0.6765
  C  C414  1  0.415000  0.936000  0.863580  1.0  -0.1252
  C  C415  1  0.280690  0.837380  0.878920  1.0  0.0397
  C  C416  1  0.358090  0.836780  0.883860  1.0  -0.1307
  C  C417  1  0.187820  0.889040  0.864600  1.0  0.692
  C  C418  1  0.739440  0.746680  0.980810  1.0  0.0482
  C  C419  1  0.709580  0.658160  0.763080  1.0  0.6734
  C  C420  1  0.488160  0.988320  0.856880  1.0  0.6896
  C  C421  1  0.384680  0.486160  0.851780  1.0  0.0468
  C  C422  1  0.873460  0.797920  0.959000  1.0  0.0306
  C  C423  1  0.420510  0.593620  0.883400  1.0  -0.1218
  C  C424  1  0.126920  0.681840  0.912240  1.0  0.2616
  C  C425  1  0.475200  0.532000  0.802680  1.0  0.7627
  C  C426  1  0.708110  0.775220  0.957130  1.0  -0.1372
  C  C427  1  0.437130  0.536460  0.836530  1.0  -0.135
  C  C428  1  0.351390  0.489380  0.883400  1.0  -0.1175
  C  C429  1  0.337090  0.936780  0.858640  1.0  0.0171
  C  C430  1  0.952800  0.730600  0.800730  1.0  0.0199
  C  C431  1  0.841810  0.824620  0.934820  1.0  -0.0823
  C  C432  1  0.760950  0.815300  0.934530  1.0  0.0488
  C  C433  1  0.895230  0.864060  0.908020  1.0  0.7463
  C  C434  1  0.854490  0.731580  0.010180  1.0  0.7667
  C  C435  1  0.849240  0.655480  0.770350  1.0  0.0549
  C  C436  1  0.269720  0.887040  0.866410  1.0  -0.1188
  C  C437  1  0.424070  0.886140  0.876100  1.0  0.0702
  C  C438  1  0.368440  0.784680  0.899550  1.0  0.756
  C  C439  1  0.822920  0.738840  0.791300  1.0  0.0478
  C  C440  1  0.928830  0.819260  0.823080  1.0  0.7452
  C  C441  1  0.901960  0.761720  0.804740  1.0  -0.1299
  C  C442  1  0.926770  0.676940  0.783540  1.0  -0.1463
  C  C443  1  0.982250  0.643300  0.779840  1.0  0.724
  C  C444  1  0.796290  0.684980  0.774920  1.0  -0.1337
  C  C445  1  0.027580  0.711560  0.883300  1.0  -0.1488
  C  C446  1  0.029600  0.702200  0.947300  1.0  -0.1113
  C  C447  1  0.595600  0.838600  0.846900  1.0  -0.0189
  C  C448  1  0.725800  0.871000  0.819600  1.0  0.178
  C  C449  1  0.601600  0.786200  0.797700  1.0  0.0131
  C  C450  1  0.193800  0.978200  0.923900  1.0  -0.1223
  C  C451  1  0.642680  0.762360  0.545500  1.0  0.691
  C  C452  1  0.710200  0.651400  0.598640  1.0  0.7044
  C  C453  1  0.634150  0.589900  0.647260  1.0  0.0554
  C  C454  1  0.673910  0.542820  0.600720  1.0  0.0063
  C  C455  1  0.436170  0.758740  0.517680  1.0  -0.1512
  C  C456  1  0.635550  0.434100  0.599430  1.0  0.6764
  C  C457  1  0.021000  0.936000  0.636420  1.0  -0.1258
  C  C458  1  0.056690  0.837380  0.621080  1.0  0.0406
  C  C459  1  0.978690  0.836780  0.616140  1.0  -0.1306
  C  C460  1  0.201220  0.889040  0.635400  1.0  0.6936
  C  C461  1  0.507240  0.746680  0.519190  1.0  0.048
  C  C462  1  0.448580  0.658160  0.736920  1.0  0.6731
  C  C463  1  0.000160  0.988320  0.643120  1.0  0.6893
  C  C464  1  0.601480  0.486160  0.648220  1.0  0.0466
  C  C465  1  0.424460  0.797920  0.541000  1.0  0.0289
  C  C466  1  0.673110  0.593620  0.616600  1.0  -0.121
  C  C467  1  0.054920  0.681840  0.587760  1.0  0.2634
  C  C468  1  0.556800  0.532000  0.697320  1.0  0.7623
  C  C469  1  0.567110  0.775220  0.542870  1.0  -0.1374
  C  C470  1  0.599330  0.536460  0.663470  1.0  -0.1342
  C  C471  1  0.637990  0.489380  0.616600  1.0  -0.1176
  C  C472  1  0.099690  0.936780  0.641360  1.0  0.018
  C  C473  1  0.277800  0.730600  0.699270  1.0  0.0203
  C  C474  1  0.482810  0.824620  0.565180  1.0  -0.0833
  C  C475  1  0.554350  0.815300  0.565470  1.0  0.0492
  C  C476  1  0.468830  0.864060  0.591980  1.0  0.7471
  C  C477  1  0.377090  0.731580  0.489820  1.0  0.7669
  C  C478  1  0.306240  0.655480  0.729650  1.0  0.0551
  C  C479  1  0.117320  0.887040  0.633590  1.0  -0.1178
  C  C480  1  0.962070  0.886140  0.623900  1.0  0.0696
  C  C481  1  0.916240  0.784680  0.600450  1.0  0.7551
  C  C482  1  0.415920  0.738840  0.708700  1.0  0.0483
  C  C483  1  0.390430  0.819260  0.676920  1.0  0.7448
  C  C484  1  0.359760  0.761720  0.695260  1.0  -0.1298
  C  C485  1  0.250170  0.676940  0.716460  1.0  -0.1459
  C  C486  1  0.161050  0.643300  0.720160  1.0  0.7242
  C  C487  1  0.388690  0.684980  0.725080  1.0  -0.133
  C  C488  1  0.183980  0.711560  0.616700  1.0  -0.1502
  C  C489  1  0.172600  0.702200  0.552700  1.0  -0.1129
  C  C490  1  0.743000  0.838600  0.653100  1.0  -0.0191
  C  C491  1  0.645200  0.871000  0.680400  1.0  0.1765
  C  C492  1  0.684600  0.786200  0.702300  1.0  0.0119
  C  C493  1  0.284400  0.978200  0.576100  1.0  -0.1229
  C  C494  1  0.857320  0.237640  0.545500  1.0  0.6915
  C  C495  1  0.789800  0.348600  0.598640  1.0  0.7044
  C  C496  1  0.865850  0.410100  0.647260  1.0  0.0562
  C  C497  1  0.826090  0.457180  0.600720  1.0  0.0056
  C  C498  1  0.063830  0.241260  0.517680  1.0  -0.1507
  C  C499  1  0.864450  0.565900  0.599430  1.0  0.6759
  C  C500  1  0.479000  0.064000  0.636420  1.0  -0.1265
  C  C501  1  0.443310  0.162620  0.621080  1.0  0.0395
  C  C502  1  0.521310  0.163220  0.616140  1.0  -0.1305
  C  C503  1  0.298780  0.110960  0.635400  1.0  0.693
  C  C504  1  0.992760  0.253320  0.519190  1.0  0.048
  C  C505  1  0.051420  0.341840  0.736920  1.0  0.6736
  C  C506  1  0.499840  0.011680  0.643120  1.0  0.6896
  C  C507  1  0.898520  0.513840  0.648220  1.0  0.0477
  C  C508  1  0.075540  0.202080  0.541000  1.0  0.0311
  C  C509  1  0.826890  0.406380  0.616600  1.0  -0.1216
  C  C510  1  0.445080  0.318160  0.587760  1.0  0.2614
  C  C511  1  0.943200  0.468000  0.697320  1.0  0.7635
  C  C512  1  0.932890  0.224780  0.542870  1.0  -0.1376
  C  C513  1  0.900670  0.463540  0.663470  1.0  -0.135
  C  C514  1  0.862010  0.510620  0.616600  1.0  -0.1174
  C  C515  1  0.400310  0.063220  0.641360  1.0  0.0166
  C  C516  1  0.222200  0.269400  0.699270  1.0  0.0196
  C  C517  1  0.017190  0.175380  0.565180  1.0  -0.0825
  C  C518  1  0.945650  0.184700  0.565470  1.0  0.0488
  C  C519  1  0.031170  0.135940  0.591980  1.0  0.746
  C  C520  1  0.122910  0.268420  0.489820  1.0  0.7667
  C  C521  1  0.193760  0.344520  0.729650  1.0  0.0541
  C  C522  1  0.382680  0.112960  0.633590  1.0  -0.1185
  C  C523  1  0.537930  0.113860  0.623900  1.0  0.07
  C  C524  1  0.583760  0.215320  0.600450  1.0  0.7566
  C  C525  1  0.084080  0.261160  0.708700  1.0  0.0475
  C  C526  1  0.109570  0.180740  0.676920  1.0  0.7447
  C  C527  1  0.140240  0.238280  0.695260  1.0  -0.1306
  C  C528  1  0.249830  0.323060  0.716460  1.0  -0.1468
  C  C529  1  0.338950  0.356700  0.720160  1.0  0.7241
  C  C530  1  0.111310  0.315020  0.725080  1.0  -0.1332
  C  C531  1  0.316020  0.288440  0.616700  1.0  -0.1482
  C  C532  1  0.327400  0.297800  0.552700  1.0  -0.112
  C  C533  1  0.757000  0.161400  0.653100  1.0  -0.0187
  C  C534  1  0.854800  0.129000  0.680400  1.0  0.1794
  C  C535  1  0.815400  0.213800  0.702300  1.0  0.013
  C  C536  1  0.215600  0.021800  0.576100  1.0  -0.121
  N  N537  1  0.565100  0.699400  0.085480  1.0  -0.0514
  N  N538  1  0.139600  0.842200  0.184600  1.0  -0.0827
  N  N539  1  0.934900  0.300600  0.085480  1.0  -0.0508
  N  N540  1  0.360400  0.157800  0.184600  1.0  -0.0817
  N  N541  1  0.865700  0.300600  0.414520  1.0  -0.0512
  N  N542  1  0.297400  0.157800  0.315400  1.0  -0.0836
  N  N543  1  0.634300  0.699400  0.414520  1.0  -0.0514
  N  N544  1  0.202600  0.842200  0.315400  1.0  -0.0815
  N  N545  1  0.434900  0.300600  0.914520  1.0  -0.0509
  N  N546  1  0.860400  0.157800  0.815400  1.0  -0.0824
  N  N547  1  0.065100  0.699400  0.914520  1.0  -0.0514
  N  N548  1  0.639600  0.842200  0.815400  1.0  -0.0826
  N  N549  1  0.134300  0.699400  0.585480  1.0  -0.0511
  N  N550  1  0.702600  0.842200  0.684600  1.0  -0.0815
  N  N551  1  0.365700  0.300600  0.585480  1.0  -0.0512
  N  N552  1  0.797400  0.157800  0.684600  1.0  -0.0828
  O  O553  1  0.806800  0.739740  0.095320  1.0  -0.6045
  O  O554  1  0.273500  0.918400  0.169000  1.0  -0.5372
  O  O555  1  0.938930  0.790120  0.092570  1.0  -0.5761
  O  O556  1  0.056890  0.985780  0.141450  1.0  -0.505
  O  O557  1  0.981820  0.037240  0.151540  1.0  -0.6616
  O  O558  1  0.631900  0.852900  0.117920  1.0  -0.5479
  O  O559  1  0.673880  0.927760  0.153030  1.0  -0.579
  O  O560  1  0.003570  0.692540  0.106270  1.0  -0.5308
  O  O561  1  0.895300  0.656340  0.074650  1.0  -0.6547
  O  O562  1  0.783930  0.433920  0.067750  1.0  -0.5505
  O  O563  1  0.770980  0.387640  0.116450  1.0  -0.5558
  O  O564  1  0.942740  0.485880  0.213440  1.0  -0.5814
  O  O565  1  0.035660  0.574920  0.206390  1.0  -0.6093
  O  O566  1  0.163220  0.684040  0.231940  1.0  -0.5187
  O  O567  1  0.453470  0.594540  0.235500  1.0  -0.5646
  O  O568  1  0.550230  0.662860  0.208080  1.0  -0.4339
  O  O569  1  0.502030  0.840940  0.168920  1.0  -0.5907
  O  O570  1  0.375580  0.840160  0.170600  1.0  -0.5737
  O  O571  1  0.095530  0.797740  0.060750  1.0  -0.5459
  O  O572  1  0.070590  0.715460  0.033310  1.0  -0.5409
  O  O573  1  0.304290  0.686300  0.976190  1.0  -0.6113
  O  O574  1  0.426880  0.755660  0.981970  1.0  -0.5682
  O  O575  1  0.461120  0.858040  0.097800  1.0  -0.5911
  O  O576  1  0.368150  0.898740  0.106520  1.0  -0.5796
  O  O577  1  0.662440  0.669360  0.063350  1.0  -0.5886
  O  O578  1  0.603960  0.954120  0.086950  1.0  -0.6443
  O  O579  1  0.391100  0.946800  0.205790  1.0  -0.2234
  O  O580  1  0.187000  0.609400  0.251230  1.0  -0.5608
  O  O581  1  0.693200  0.260260  0.095320  1.0  -0.6039
  O  O582  1  0.226500  0.081600  0.169000  1.0  -0.5379
  O  O583  1  0.561070  0.209880  0.092570  1.0  -0.576
  O  O584  1  0.443110  0.014220  0.141450  1.0  -0.5078
  O  O585  1  0.518180  0.962760  0.151540  1.0  -0.6627
  O  O586  1  0.868100  0.147100  0.117920  1.0  -0.5485
  O  O587  1  0.826120  0.072240  0.153030  1.0  -0.5779
  O  O588  1  0.496430  0.307460  0.106270  1.0  -0.5293
  O  O589  1  0.604700  0.343660  0.074650  1.0  -0.6546
  O  O590  1  0.716070  0.566080  0.067750  1.0  -0.5496
  O  O591  1  0.729020  0.612360  0.116450  1.0  -0.5573
  O  O592  1  0.557260  0.514120  0.213440  1.0  -0.5818
  O  O593  1  0.464340  0.425080  0.206390  1.0  -0.6099
  O  O594  1  0.336780  0.315960  0.231940  1.0  -0.5197
  O  O595  1  0.046530  0.405460  0.235500  1.0  -0.5655
  O  O596  1  0.949770  0.337140  0.208080  1.0  -0.4361
  O  O597  1  0.997970  0.159060  0.168920  1.0  -0.5915
  O  O598  1  0.124420  0.159840  0.170600  1.0  -0.5746
  O  O599  1  0.404470  0.202260  0.060750  1.0  -0.5462
  O  O600  1  0.429410  0.284540  0.033310  1.0  -0.5409
  O  O601  1  0.195710  0.313700  0.976190  1.0  -0.6115
  O  O602  1  0.073120  0.244340  0.981970  1.0  -0.5689
  O  O603  1  0.038880  0.141960  0.097800  1.0  -0.5906
  O  O604  1  0.131850  0.101260  0.106520  1.0  -0.5787
  O  O605  1  0.837560  0.330640  0.063350  1.0  -0.5886
  O  O606  1  0.896040  0.045880  0.086950  1.0  -0.6441
  O  O607  1  0.108900  0.053200  0.205790  1.0  -0.2239
  O  O608  1  0.313000  0.390600  0.251230  1.0  -0.5595
  O  O609  1  0.067060  0.260260  0.404680  1.0  -0.6037
  O  O610  1  0.355100  0.081600  0.331000  1.0  -0.5377
  O  O611  1  0.148810  0.209880  0.407430  1.0  -0.5761
  O  O612  1  0.071110  0.014220  0.358550  1.0  -0.505
  O  O613  1  0.944580  0.962760  0.348460  1.0  -0.6636
  O  O614  1  0.779000  0.147100  0.382080  1.0  -0.5482
  O  O615  1  0.746120  0.072240  0.346970  1.0  -0.5776
  O  O616  1  0.311030  0.307460  0.393730  1.0  -0.5314
  O  O617  1  0.238960  0.343660  0.425350  1.0  -0.6538
  O  O618  1  0.350010  0.566080  0.432250  1.0  -0.5541
  O  O619  1  0.383340  0.612360  0.383550  1.0  -0.5562
  O  O620  1  0.456860  0.514120  0.286560  1.0  -0.5797
  O  O621  1  0.460740  0.425080  0.293610  1.0  -0.6085
  O  O622  1  0.479180  0.315960  0.268060  1.0  -0.519
  O  O623  1  0.858930  0.405460  0.264500  1.0  -0.566
  O  O624  1  0.887370  0.337140  0.291920  1.0  -0.434
  O  O625  1  0.661090  0.159060  0.331080  1.0  -0.591
  O  O626  1  0.535420  0.159840  0.329400  1.0  -0.5737
  O  O627  1  0.297790  0.202260  0.439250  1.0  -0.5464
  O  O628  1  0.355130  0.284540  0.466690  1.0  -0.5401
  O  O629  1  0.617990  0.313700  0.523810  1.0  -0.6109
  O  O630  1  0.671220  0.244340  0.518030  1.0  -0.5687
  O  O631  1  0.603080  0.141960  0.402200  1.0  -0.5908
  O  O632  1  0.469410  0.101260  0.393480  1.0  -0.5789
  O  O633  1  0.993080  0.330640  0.436650  1.0  -0.5869
  O  O634  1  0.649840  0.045880  0.413050  1.0  -0.6406
  O  O635  1  0.444300  0.053200  0.294210  1.0  -0.2235
  O  O636  1  0.577600  0.390600  0.248770  1.0  -0.56
  O  O637  1  0.432940  0.739740  0.404680  1.0  -0.6028
  O  O638  1  0.144900  0.918400  0.331000  1.0  -0.5372
  O  O639  1  0.351190  0.790120  0.407430  1.0  -0.576
  O  O640  1  0.428890  0.985780  0.358550  1.0  -0.5072
  O  O641  1  0.555420  0.037240  0.348460  1.0  -0.6622
  O  O642  1  0.721000  0.852900  0.382080  1.0  -0.5473
  O  O643  1  0.753880  0.927760  0.346970  1.0  -0.578
  O  O644  1  0.188970  0.692540  0.393730  1.0  -0.5296
  O  O645  1  0.261040  0.656340  0.425350  1.0  -0.6533
  O  O646  1  0.149990  0.433920  0.432250  1.0  -0.5538
  O  O647  1  0.116660  0.387640  0.383550  1.0  -0.5553
  O  O648  1  0.043140  0.485880  0.286560  1.0  -0.5782
  O  O649  1  0.039260  0.574920  0.293610  1.0  -0.6095
  O  O650  1  0.020820  0.684040  0.268060  1.0  -0.5192
  O  O651  1  0.641070  0.594540  0.264500  1.0  -0.5646
  O  O652  1  0.612630  0.662860  0.291920  1.0  -0.436
  O  O653  1  0.838910  0.840940  0.331080  1.0  -0.5908
  O  O654  1  0.964580  0.840160  0.329400  1.0  -0.5746
  O  O655  1  0.202210  0.797740  0.439250  1.0  -0.5464
  O  O656  1  0.144870  0.715460  0.466690  1.0  -0.5401
  O  O657  1  0.882010  0.686300  0.523810  1.0  -0.6115
  O  O658  1  0.828780  0.755660  0.518030  1.0  -0.5685
  O  O659  1  0.896920  0.858040  0.402200  1.0  -0.5906
  O  O660  1  0.030590  0.898740  0.393480  1.0  -0.5782
  O  O661  1  0.506920  0.669360  0.436650  1.0  -0.5872
  O  O662  1  0.850160  0.954120  0.413050  1.0  -0.6407
  O  O663  1  0.055700  0.946800  0.294210  1.0  -0.2247
  O  O664  1  0.922400  0.609400  0.248770  1.0  -0.5617
  O  O665  1  0.193200  0.260260  0.904680  1.0  -0.6032
  O  O666  1  0.726500  0.081600  0.831000  1.0  -0.5381
  O  O667  1  0.061070  0.209880  0.907430  1.0  -0.5763
  O  O668  1  0.943110  0.014220  0.858550  1.0  -0.5077
  O  O669  1  0.018180  0.962760  0.848460  1.0  -0.6631
  O  O670  1  0.368100  0.147100  0.882080  1.0  -0.5481
  O  O671  1  0.326120  0.072240  0.846970  1.0  -0.5775
  O  O672  1  0.996430  0.307460  0.893730  1.0  -0.53
  O  O673  1  0.104700  0.343660  0.925350  1.0  -0.6543
  O  O674  1  0.216070  0.566080  0.932250  1.0  -0.5545
  O  O675  1  0.229020  0.612360  0.883550  1.0  -0.5562
  O  O676  1  0.057260  0.514120  0.786560  1.0  -0.5815
  O  O677  1  0.964340  0.425080  0.793610  1.0  -0.6091
  O  O678  1  0.836780  0.315960  0.768060  1.0  -0.5196
  O  O679  1  0.546530  0.405460  0.764500  1.0  -0.5656
  O  O680  1  0.449770  0.337140  0.791920  1.0  -0.4358
  O  O681  1  0.497970  0.159060  0.831080  1.0  -0.5915
  O  O682  1  0.624420  0.159840  0.829400  1.0  -0.5746
  O  O683  1  0.904470  0.202260  0.939250  1.0  -0.5465
  O  O684  1  0.929410  0.284540  0.966690  1.0  -0.5406
  O  O685  1  0.695710  0.313700  0.023810  1.0  -0.6115
  O  O686  1  0.573120  0.244340  0.018030  1.0  -0.569
  O  O687  1  0.538880  0.141960  0.902200  1.0  -0.5902
  O  O688  1  0.631850  0.101260  0.893480  1.0  -0.5787
  O  O689  1  0.337560  0.330640  0.936650  1.0  -0.5875
  O  O690  1  0.396040  0.045880  0.913050  1.0  -0.6406
  O  O691  1  0.608900  0.053200  0.794210  1.0  -0.2236
  O  O692  1  0.813000  0.390600  0.748770  1.0  -0.5602
  O  O693  1  0.306800  0.739740  0.904680  1.0  -0.6035
  O  O694  1  0.773500  0.918400  0.831000  1.0  -0.5369
  O  O695  1  0.438930  0.790120  0.907430  1.0  -0.576
  O  O696  1  0.556890  0.985780  0.858550  1.0  -0.5052
  O  O697  1  0.481820  0.037240  0.848460  1.0  -0.6623
  O  O698  1  0.131900  0.852900  0.882080  1.0  -0.5475
  O  O699  1  0.173880  0.927760  0.846970  1.0  -0.5785
  O  O700  1  0.503570  0.692540  0.893730  1.0  -0.531
  O  O701  1  0.395300  0.656340  0.925350  1.0  -0.654
  O  O702  1  0.283930  0.433920  0.932250  1.0  -0.5534
  O  O703  1  0.270980  0.387640  0.883550  1.0  -0.5556
  O  O704  1  0.442740  0.485880  0.786560  1.0  -0.58
  O  O705  1  0.535660  0.574920  0.793610  1.0  -0.6089
  O  O706  1  0.663220  0.684040  0.768060  1.0  -0.5188
  O  O707  1  0.953470  0.594540  0.764500  1.0  -0.5649
  O  O708  1  0.050230  0.662860  0.791920  1.0  -0.434
  O  O709  1  0.002030  0.840940  0.831080  1.0  -0.5912
  O  O710  1  0.875580  0.840160  0.829400  1.0  -0.5738
  O  O711  1  0.595530  0.797740  0.939250  1.0  -0.5456
  O  O712  1  0.570590  0.715460  0.966690  1.0  -0.5405
  O  O713  1  0.804290  0.686300  0.023810  1.0  -0.6113
  O  O714  1  0.926880  0.755660  0.018030  1.0  -0.5683
  O  O715  1  0.961120  0.858040  0.902200  1.0  -0.5913
  O  O716  1  0.868150  0.898740  0.893480  1.0  -0.5793
  O  O717  1  0.162440  0.669360  0.936650  1.0  -0.5867
  O  O718  1  0.103960  0.954120  0.913050  1.0  -0.6406
  O  O719  1  0.891100  0.946800  0.794210  1.0  -0.2248
  O  O720  1  0.687000  0.609400  0.748770  1.0  -0.5622
  O  O721  1  0.932940  0.739740  0.595320  1.0  -0.6036
  O  O722  1  0.644900  0.918400  0.669000  1.0  -0.5373
  O  O723  1  0.851190  0.790120  0.592570  1.0  -0.5761
  O  O724  1  0.928890  0.985780  0.641450  1.0  -0.5068
  O  O725  1  0.055420  0.037240  0.651540  1.0  -0.6621
  O  O726  1  0.221000  0.852900  0.617920  1.0  -0.548
  O  O727  1  0.253880  0.927760  0.653030  1.0  -0.5781
  O  O728  1  0.688970  0.692540  0.606270  1.0  -0.529
  O  O729  1  0.761040  0.656340  0.574650  1.0  -0.6555
  O  O730  1  0.649990  0.433920  0.567750  1.0  -0.5513
  O  O731  1  0.616660  0.387640  0.616450  1.0  -0.5559
  O  O732  1  0.543140  0.485880  0.713440  1.0  -0.5796
  O  O733  1  0.539260  0.574920  0.706390  1.0  -0.6104
  O  O734  1  0.520820  0.684040  0.731940  1.0  -0.5191
  O  O735  1  0.141070  0.594540  0.735500  1.0  -0.5645
  O  O736  1  0.112630  0.662860  0.708080  1.0  -0.4361
  O  O737  1  0.338910  0.840940  0.668920  1.0  -0.5913
  O  O738  1  0.464580  0.840160  0.670600  1.0  -0.5747
  O  O739  1  0.702210  0.797740  0.560750  1.0  -0.5463
  O  O740  1  0.644870  0.715460  0.533310  1.0  -0.5405
  O  O741  1  0.382010  0.686300  0.476190  1.0  -0.6116
  O  O742  1  0.328780  0.755660  0.481970  1.0  -0.5686
  O  O743  1  0.396920  0.858040  0.597800  1.0  -0.591
  O  O744  1  0.530590  0.898740  0.606520  1.0  -0.5784
  O  O745  1  0.006920  0.669360  0.563350  1.0  -0.5885
  O  O746  1  0.350160  0.954120  0.586950  1.0  -0.6447
  O  O747  1  0.555700  0.946800  0.705790  1.0  -0.2234
  O  O748  1  0.422400  0.609400  0.751230  1.0  -0.5602
  O  O749  1  0.567060  0.260260  0.595320  1.0  -0.6046
  O  O750  1  0.855100  0.081600  0.669000  1.0  -0.5371
  O  O751  1  0.648810  0.209880  0.592570  1.0  -0.576
  O  O752  1  0.571110  0.014220  0.641450  1.0  -0.505
  O  O753  1  0.444580  0.962760  0.651540  1.0  -0.6626
  O  O754  1  0.279000  0.147100  0.617920  1.0  -0.5482
  O  O755  1  0.246120  0.072240  0.653030  1.0  -0.5788
  O  O756  1  0.811030  0.307460  0.606270  1.0  -0.5311
  O  O757  1  0.738960  0.343660  0.574650  1.0  -0.6552
  O  O758  1  0.850010  0.566080  0.567750  1.0  -0.5486
  O  O759  1  0.883340  0.612360  0.616450  1.0  -0.557
  O  O760  1  0.956860  0.514120  0.713440  1.0  -0.58
  O  O761  1  0.960740  0.425080  0.706390  1.0  -0.6088
  O  O762  1  0.979180  0.315960  0.731940  1.0  -0.5194
  O  O763  1  0.358930  0.405460  0.735500  1.0  -0.5656
  O  O764  1  0.387370  0.337140  0.708080  1.0  -0.4342
  O  O765  1  0.161090  0.159060  0.668920  1.0  -0.5909
  O  O766  1  0.035420  0.159840  0.670600  1.0  -0.5738
  O  O767  1  0.797790  0.202260  0.560750  1.0  -0.5463
  O  O768  1  0.855130  0.284540  0.533310  1.0  -0.5404
  O  O769  1  0.117990  0.313700  0.476190  1.0  -0.611
  O  O770  1  0.171220  0.244340  0.481970  1.0  -0.5686
  O  O771  1  0.103080  0.141960  0.597800  1.0  -0.5908
  O  O772  1  0.969410  0.101260  0.606520  1.0  -0.5792
  O  O773  1  0.493080  0.330640  0.563350  1.0  -0.5888
  O  O774  1  0.149840  0.045880  0.586950  1.0  -0.6438
  O  O775  1  0.944300  0.053200  0.705790  1.0  -0.2235
  O  O776  1  0.077600  0.390600  0.751230  1.0  -0.5594
