# generated using pymatgen
data_LaH3W4C7NO15
_symmetry_space_group_name_H-M   'P 1'
_cell_length_a   20.49900000
_cell_length_b   23.55600000
_cell_length_c   29.82300000
_cell_angle_alpha   90.00000000
_cell_angle_beta   90.00000000
_cell_angle_gamma   90.00000000
_symmetry_Int_Tables_number   1
_chemical_formula_structural   LaH3W4C7NO15
_chemical_formula_sum   'La24 H72 W96 C168 N24 O360'
_cell_volume   14400.76454341
_cell_formula_units_Z   24
loop_
 _symmetry_equiv_pos_site_id
 _symmetry_equiv_pos_as_xyz
  1  'x, y, z'
loop_
 _atom_site_type_symbol
 _atom_site_label
 _atom_site_symmetry_multiplicity
 _atom_site_fract_x
 _atom_site_fract_y
 _atom_site_fract_z
 _atom_site_occupancy
 _atom_site_charge
  La  La1  1  0.906530  0.528250  0.684690  1.0  2.1672
  La  La2  1  0.620530  0.305890  0.050530  1.0  2.1744
  La  La3  1  0.004170  0.269520  0.853080  1.0  1.953
  La  La4  1  0.093470  0.971750  0.184690  1.0  2.1676
  La  La5  1  0.379470  0.194110  0.550530  1.0  2.1731
  La  La6  1  0.995830  0.230480  0.353080  1.0  1.9522
  La  La7  1  0.406530  0.471750  0.815310  1.0  2.1672
  La  La8  1  0.120530  0.694110  0.449470  1.0  2.1707
  La  La9  1  0.504170  0.730480  0.646920  1.0  1.944
  La  La10  1  0.593470  0.028250  0.315310  1.0  2.1677
  La  La11  1  0.879470  0.805890  0.949470  1.0  2.1707
  La  La12  1  0.495830  0.769520  0.146920  1.0  1.9435
  La  La13  1  0.093470  0.471750  0.315310  1.0  2.1677
  La  La14  1  0.379470  0.694110  0.949470  1.0  2.1708
  La  La15  1  0.995830  0.730480  0.146920  1.0  1.9272
  La  La16  1  0.906530  0.028250  0.815310  1.0  2.1672
  La  La17  1  0.620530  0.805890  0.449470  1.0  2.1708
  La  La18  1  0.004170  0.769520  0.646920  1.0  1.9282
  La  La19  1  0.593470  0.528250  0.184690  1.0  2.1677
  La  La20  1  0.879470  0.305890  0.550530  1.0  2.1731
  La  La21  1  0.495830  0.269520  0.353080  1.0  1.9275
  La  La22  1  0.406530  0.971750  0.684690  1.0  2.1671
  La  La23  1  0.120530  0.194110  0.050530  1.0  2.1743
  La  La24  1  0.504170  0.230480  0.853080  1.0  1.9283
  H  H25  1  0.860800  0.246200  0.976000  1.0  0.1315
  H  H26  1  0.820600  0.200200  0.912400  1.0  0.1106
  H  H27  1  0.148100  0.579000  0.811100  1.0  0.1093
  H  H28  1  0.100600  0.486900  0.810500  1.0  0.1257
  H  H29  1  0.713800  0.212700  0.891100  1.0  0.1321
  H  H30  1  0.632800  0.491900  0.590000  1.0  0.1177
  H  H31  1  0.715600  0.424700  0.582200  1.0  0.1319
  H  H32  1  0.651900  0.573900  0.629400  1.0  0.1275
  H  H33  1  0.104400  0.650700  0.766100  1.0  0.122
  H  H34  1  0.139200  0.253800  0.476000  1.0  0.1311
  H  H35  1  0.179400  0.299800  0.412400  1.0  0.1103
  H  H36  1  0.851900  0.921000  0.311100  1.0  0.1093
  H  H37  1  0.899400  0.013100  0.310500  1.0  0.1251
  H  H38  1  0.286200  0.287300  0.391100  1.0  0.1321
  H  H39  1  0.367200  0.008100  0.090000  1.0  0.118
  H  H40  1  0.284400  0.075300  0.082200  1.0  0.1319
  H  H41  1  0.348100  0.926100  0.129400  1.0  0.128
  H  H42  1  0.895600  0.849300  0.266100  1.0  0.1214
  H  H43  1  0.360800  0.753800  0.524000  1.0  0.1313
  H  H44  1  0.320600  0.799800  0.587600  1.0  0.1106
  H  H45  1  0.648100  0.421000  0.688900  1.0  0.1093
  H  H46  1  0.600600  0.513100  0.689500  1.0  0.1258
  H  H47  1  0.213800  0.787300  0.608900  1.0  0.1315
  H  H48  1  0.132800  0.508100  0.910000  1.0  0.117
  H  H49  1  0.215600  0.575300  0.917800  1.0  0.1323
  H  H50  1  0.151900  0.426100  0.870600  1.0  0.1266
  H  H51  1  0.604400  0.349300  0.733900  1.0  0.1218
  H  H52  1  0.639200  0.746200  0.024000  1.0  0.1309
  H  H53  1  0.679400  0.700200  0.087600  1.0  0.1105
  H  H54  1  0.351900  0.079000  0.188900  1.0  0.109
  H  H55  1  0.399400  0.986900  0.189500  1.0  0.1252
  H  H56  1  0.786200  0.712700  0.108900  1.0  0.1316
  H  H57  1  0.867200  0.991900  0.410000  1.0  0.1175
  H  H58  1  0.784400  0.924700  0.417800  1.0  0.1318
  H  H59  1  0.848100  0.073900  0.370600  1.0  0.1283
  H  H60  1  0.395600  0.150700  0.233900  1.0  0.1225
  H  H61  1  0.139200  0.753800  0.024000  1.0  0.1309
  H  H62  1  0.179400  0.799800  0.087600  1.0  0.1101
  H  H63  1  0.851900  0.421000  0.188900  1.0  0.1093
  H  H64  1  0.899400  0.513100  0.189500  1.0  0.1253
  H  H65  1  0.286200  0.787300  0.108900  1.0  0.1316
  H  H66  1  0.367200  0.508100  0.410000  1.0  0.1175
  H  H67  1  0.284400  0.575300  0.417800  1.0  0.1318
  H  H68  1  0.348100  0.426100  0.370600  1.0  0.1282
  H  H69  1  0.895600  0.349300  0.233900  1.0  0.1215
  H  H70  1  0.860800  0.746200  0.524000  1.0  0.1315
  H  H71  1  0.820600  0.700200  0.587600  1.0  0.1107
  H  H72  1  0.148100  0.079000  0.688900  1.0  0.1092
  H  H73  1  0.100600  0.986900  0.689500  1.0  0.1255
  H  H74  1  0.713800  0.712700  0.608900  1.0  0.1315
  H  H75  1  0.632800  0.991900  0.910000  1.0  0.1171
  H  H76  1  0.715600  0.924700  0.917800  1.0  0.1321
  H  H77  1  0.651900  0.073900  0.870600  1.0  0.1277
  H  H78  1  0.104400  0.150700  0.733900  1.0  0.1225
  H  H79  1  0.639200  0.246200  0.476000  1.0  0.1309
  H  H80  1  0.679400  0.200200  0.412400  1.0  0.1103
  H  H81  1  0.351900  0.579000  0.311100  1.0  0.1088
  H  H82  1  0.399400  0.486900  0.310500  1.0  0.1254
  H  H83  1  0.786200  0.212700  0.391100  1.0  0.1321
  H  H84  1  0.867200  0.491900  0.090000  1.0  0.1179
  H  H85  1  0.784400  0.424700  0.082200  1.0  0.1318
  H  H86  1  0.848100  0.573900  0.129400  1.0  0.1283
  H  H87  1  0.395600  0.650700  0.266100  1.0  0.1221
  H  H88  1  0.360800  0.253800  0.976000  1.0  0.1313
  H  H89  1  0.320600  0.299800  0.912400  1.0  0.1109
  H  H90  1  0.648100  0.921000  0.811100  1.0  0.1092
  H  H91  1  0.600600  0.013100  0.810500  1.0  0.1256
  H  H92  1  0.213800  0.287300  0.891100  1.0  0.132
  H  H93  1  0.132800  0.008100  0.590000  1.0  0.1178
  H  H94  1  0.215600  0.075300  0.582200  1.0  0.1323
  H  H95  1  0.151900  0.926100  0.629400  1.0  0.1264
  H  H96  1  0.604400  0.849300  0.766100  1.0  0.1216
  W  W97  1  0.870210  0.403040  0.867490  1.0  2.5535
  W  W98  1  0.934330  0.523190  0.900720  1.0  1.4174
  W  W99  1  0.661840  0.629450  0.908440  1.0  1.3748
  W  W100  1  0.849850  0.599630  0.808160  1.0  1.3505
  W  W101  1  0.848140  0.445390  0.970730  1.0  1.3362
  W  W102  1  0.597150  0.491190  0.869550  1.0  2.5485
  W  W103  1  0.819520  0.639400  0.926140  1.0  2.5425
  W  W104  1  0.693060  0.580560  0.792070  1.0  1.3177
  W  W105  1  0.693350  0.383190  0.846470  1.0  1.4001
  W  W106  1  0.792720  0.477650  0.774820  1.0  2.2645
  W  W107  1  0.672420  0.423210  0.950390  1.0  2.5872
  W  W108  1  0.729740  0.561670  0.993320  1.0  1.3055
  W  W109  1  0.129790  0.096960  0.367490  1.0  2.5545
  W  W110  1  0.065670  0.976810  0.400720  1.0  1.4163
  W  W111  1  0.338160  0.870550  0.408440  1.0  1.3703
  W  W112  1  0.150150  0.900370  0.308160  1.0  1.3452
  W  W113  1  0.151860  0.054610  0.470730  1.0  1.3374
  W  W114  1  0.402850  0.008810  0.369550  1.0  2.548
  W  W115  1  0.180480  0.860600  0.426140  1.0  2.5433
  W  W116  1  0.306940  0.919450  0.292070  1.0  1.3129
  W  W117  1  0.306650  0.116810  0.346470  1.0  1.4062
  W  W118  1  0.207280  0.022350  0.274820  1.0  2.2659
  W  W119  1  0.327580  0.076790  0.450390  1.0  2.5869
  W  W120  1  0.270260  0.938330  0.493320  1.0  1.3055
  W  W121  1  0.370210  0.596960  0.632510  1.0  2.5557
  W  W122  1  0.434330  0.476810  0.599290  1.0  1.419
  W  W123  1  0.161840  0.370550  0.591560  1.0  1.3728
  W  W124  1  0.349850  0.400370  0.691840  1.0  1.3458
  W  W125  1  0.348140  0.554610  0.529270  1.0  1.34
  W  W126  1  0.097150  0.508810  0.630450  1.0  2.5477
  W  W127  1  0.319520  0.360600  0.573860  1.0  2.543
  W  W128  1  0.193060  0.419450  0.707930  1.0  1.3149
  W  W129  1  0.193350  0.616810  0.653530  1.0  1.4049
  W  W130  1  0.292720  0.522350  0.725180  1.0  2.2662
  W  W131  1  0.172420  0.576790  0.549610  1.0  2.5862
  W  W132  1  0.229740  0.438330  0.506680  1.0  1.3102
  W  W133  1  0.629790  0.903040  0.132510  1.0  2.5534
  W  W134  1  0.565670  0.023190  0.099290  1.0  1.4199
  W  W135  1  0.838160  0.129450  0.091560  1.0  1.3763
  W  W136  1  0.650150  0.099630  0.191840  1.0  1.3493
  W  W137  1  0.651860  0.945390  0.029280  1.0  1.3396
  W  W138  1  0.902850  0.991190  0.130450  1.0  2.5472
  W  W139  1  0.680480  0.139400  0.073860  1.0  2.5435
  W  W140  1  0.806940  0.080560  0.207930  1.0  1.3181
  W  W141  1  0.806650  0.883190  0.153530  1.0  1.4018
  W  W142  1  0.707280  0.977650  0.225180  1.0  2.2662
  W  W143  1  0.827580  0.923210  0.049610  1.0  2.5861
  W  W144  1  0.770260  0.061670  0.006680  1.0  1.3092
  W  W145  1  0.129790  0.596960  0.132510  1.0  2.5552
  W  W146  1  0.065670  0.476810  0.099290  1.0  1.4187
  W  W147  1  0.338160  0.370550  0.091560  1.0  1.3712
  W  W148  1  0.150150  0.400370  0.191840  1.0  1.3453
  W  W149  1  0.151860  0.554610  0.029280  1.0  1.3404
  W  W150  1  0.402850  0.508810  0.130450  1.0  2.5479
  W  W151  1  0.180480  0.360600  0.073860  1.0  2.5434
  W  W152  1  0.306940  0.419450  0.207930  1.0  1.3137
  W  W153  1  0.306650  0.616810  0.153530  1.0  1.4048
  W  W154  1  0.207280  0.522350  0.225180  1.0  2.267
  W  W155  1  0.327580  0.576790  0.049610  1.0  2.5858
  W  W156  1  0.270260  0.438330  0.006680  1.0  1.3093
  W  W157  1  0.870210  0.903040  0.632510  1.0  2.5535
  W  W158  1  0.934330  0.023190  0.599290  1.0  1.4205
  W  W159  1  0.661840  0.129450  0.591560  1.0  1.3752
  W  W160  1  0.849850  0.099630  0.691840  1.0  1.3504
  W  W161  1  0.848140  0.945390  0.529270  1.0  1.3391
  W  W162  1  0.597150  0.991190  0.630450  1.0  2.5472
  W  W163  1  0.819520  0.139400  0.573860  1.0  2.5429
  W  W164  1  0.693060  0.080560  0.707930  1.0  1.3176
  W  W165  1  0.693350  0.883190  0.653530  1.0  1.4017
  W  W166  1  0.792720  0.977650  0.725180  1.0  2.2656
  W  W167  1  0.672420  0.923210  0.549610  1.0  2.5866
  W  W168  1  0.729740  0.061670  0.506680  1.0  1.3101
  W  W169  1  0.629790  0.403040  0.367490  1.0  2.5532
  W  W170  1  0.565670  0.523190  0.400720  1.0  1.4175
  W  W171  1  0.838160  0.629450  0.408440  1.0  1.376
  W  W172  1  0.650150  0.599630  0.308160  1.0  1.3493
  W  W173  1  0.651860  0.445390  0.470730  1.0  1.3376
  W  W174  1  0.902850  0.491190  0.369550  1.0  2.5475
  W  W175  1  0.680480  0.639400  0.426140  1.0  2.5432
  W  W176  1  0.806940  0.580560  0.292070  1.0  1.3185
  W  W177  1  0.806650  0.383190  0.346470  1.0  1.4003
  W  W178  1  0.707280  0.477650  0.274820  1.0  2.2649
  W  W179  1  0.827580  0.423210  0.450390  1.0  2.5863
  W  W180  1  0.770260  0.561670  0.493320  1.0  1.3053
  W  W181  1  0.370210  0.096960  0.867490  1.0  2.5551
  W  W182  1  0.434330  0.976810  0.900720  1.0  1.4158
  W  W183  1  0.161840  0.870550  0.908440  1.0  1.3722
  W  W184  1  0.349850  0.900370  0.808160  1.0  1.3462
  W  W185  1  0.348140  0.054610  0.970730  1.0  1.3363
  W  W186  1  0.097150  0.008810  0.869550  1.0  2.549
  W  W187  1  0.319520  0.860600  0.926140  1.0  2.543
  W  W188  1  0.193060  0.919450  0.792070  1.0  1.3141
  W  W189  1  0.193350  0.116810  0.846470  1.0  1.4059
  W  W190  1  0.292720  0.022350  0.774820  1.0  2.2652
  W  W191  1  0.172420  0.076790  0.950390  1.0  2.5875
  W  W192  1  0.229740  0.938330  0.993320  1.0  1.3057
  C  C193  1  0.816400  0.243700  0.970200  1.0  -0.1267
  C  C194  1  0.792200  0.219800  0.931100  1.0  -0.0851
  C  C195  1  0.112100  0.571600  0.793000  1.0  -0.094
  C  C196  1  0.084000  0.516400  0.793180  1.0  -0.1396
  C  C197  1  0.728800  0.224100  0.919100  1.0  -0.1591
  C  C198  1  0.789900  0.286900  0.042000  1.0  0.6411
  C  C199  1  0.673400  0.498000  0.603100  1.0  -0.0982
  C  C200  1  0.686500  0.247300  0.952320  1.0  0.0723
  C  C201  1  0.770300  0.263400  0.999440  1.0  0.2203
  C  C202  1  0.722200  0.457700  0.598680  1.0  -0.102
  C  C203  1  0.031300  0.509900  0.766120  1.0  0.1618
  C  C204  1  0.745800  0.555400  0.646810  1.0  0.038
  C  C205  1  0.841200  0.429100  0.615860  1.0  0.6894
  C  C206  1  0.684600  0.546700  0.626680  1.0  -0.0847
  C  C207  1  0.086900  0.614300  0.766500  1.0  -0.0739
  C  C208  1  0.767900  0.607400  0.670470  1.0  0.6363
  C  C209  1  0.781800  0.468500  0.620000  1.0  0.1349
  C  C210  1  0.000600  0.455400  0.759960  1.0  0.6794
  C  C211  1  0.004900  0.642700  0.707570  1.0  0.6772
  C  C212  1  0.613400  0.251100  0.944160  1.0  0.682
  C  C213  1  0.035200  0.599700  0.741240  1.0  0.1584
  C  C214  1  0.183600  0.256300  0.470200  1.0  -0.1288
  C  C215  1  0.207800  0.280200  0.431100  1.0  -0.084
  C  C216  1  0.887900  0.928400  0.293000  1.0  -0.0945
  C  C217  1  0.916000  0.983600  0.293180  1.0  -0.1405
  C  C218  1  0.271200  0.275900  0.419100  1.0  -0.159
  C  C219  1  0.210100  0.213100  0.542000  1.0  0.6406
  C  C220  1  0.326600  0.002000  0.103100  1.0  -0.0973
  C  C221  1  0.313500  0.252700  0.452320  1.0  0.073
  C  C222  1  0.229700  0.236600  0.499440  1.0  0.2205
  C  C223  1  0.277800  0.042300  0.098680  1.0  -0.1025
  C  C224  1  0.968700  0.990100  0.266120  1.0  0.1629
  C  C225  1  0.254200  0.944600  0.146810  1.0  0.0384
  C  C226  1  0.158800  0.070900  0.115860  1.0  0.6905
  C  C227  1  0.315400  0.953300  0.126680  1.0  -0.0846
  C  C228  1  0.913100  0.885700  0.266500  1.0  -0.0766
  C  C229  1  0.232100  0.892600  0.170470  1.0  0.6362
  C  C230  1  0.218200  0.031500  0.120000  1.0  0.1348
  C  C231  1  0.999400  0.044600  0.259960  1.0  0.6792
  C  C232  1  0.995100  0.857300  0.207570  1.0  0.6787
  C  C233  1  0.386600  0.248900  0.444160  1.0  0.6835
  C  C234  1  0.964800  0.900300  0.241240  1.0  0.1613
  C  C235  1  0.316400  0.756300  0.529800  1.0  -0.1269
  C  C236  1  0.292200  0.780200  0.568900  1.0  -0.0856
  C  C237  1  0.612100  0.428400  0.707000  1.0  -0.0943
  C  C238  1  0.584000  0.483600  0.706820  1.0  -0.14
  C  C239  1  0.228800  0.775900  0.580900  1.0  -0.1618
  C  C240  1  0.289900  0.713100  0.458000  1.0  0.6421
  C  C241  1  0.173400  0.502000  0.896900  1.0  -0.0984
  C  C242  1  0.186500  0.752700  0.547680  1.0  0.0723
  C  C243  1  0.270300  0.736600  0.500560  1.0  0.2201
  C  C244  1  0.222200  0.542300  0.901320  1.0  -0.1032
  C  C245  1  0.531300  0.490100  0.733880  1.0  0.1635
  C  C246  1  0.245800  0.444600  0.853190  1.0  0.0384
  C  C247  1  0.341200  0.570900  0.884140  1.0  0.6902
  C  C248  1  0.184600  0.453300  0.873320  1.0  -0.0843
  C  C249  1  0.586900  0.385700  0.733500  1.0  -0.0764
  C  C250  1  0.267900  0.392600  0.829530  1.0  0.6355
  C  C251  1  0.281800  0.531500  0.880000  1.0  0.1347
  C  C252  1  0.500600  0.544600  0.740040  1.0  0.679
  C  C253  1  0.504900  0.357300  0.792430  1.0  0.6783
  C  C254  1  0.113400  0.748900  0.555840  1.0  0.6808
  C  C255  1  0.535200  0.400300  0.758760  1.0  0.1601
  C  C256  1  0.683600  0.743700  0.029800  1.0  -0.1287
  C  C257  1  0.707800  0.719800  0.068900  1.0  -0.0854
  C  C258  1  0.387900  0.071600  0.207000  1.0  -0.0949
  C  C259  1  0.416000  0.016400  0.206820  1.0  -0.1406
  C  C260  1  0.771200  0.724100  0.080900  1.0  -0.1599
  C  C261  1  0.710100  0.786900  0.958000  1.0  0.6433
  C  C262  1  0.826600  0.998000  0.396900  1.0  -0.0979
  C  C263  1  0.813500  0.747300  0.047680  1.0  0.0731
  C  C264  1  0.729700  0.763400  0.000560  1.0  0.2207
  C  C265  1  0.777800  0.957700  0.401320  1.0  -0.1027
  C  C266  1  0.468700  0.009900  0.233880  1.0  0.163
  C  C267  1  0.754200  0.055400  0.353190  1.0  0.0383
  C  C268  1  0.658800  0.929100  0.384140  1.0  0.6889
  C  C269  1  0.815400  0.046700  0.373320  1.0  -0.0856
  C  C270  1  0.413100  0.114300  0.233500  1.0  -0.074
  C  C271  1  0.732100  0.107400  0.329530  1.0  0.6367
  C  C272  1  0.718200  0.968500  0.380000  1.0  0.134
  C  C273  1  0.499400  0.955400  0.240040  1.0  0.6793
  C  C274  1  0.495100  0.142700  0.292430  1.0  0.6754
  C  C275  1  0.886600  0.751100  0.055840  1.0  0.6839
  C  C276  1  0.464800  0.099700  0.258760  1.0  0.1601
  C  C277  1  0.183600  0.756300  0.029800  1.0  -0.1285
  C  C278  1  0.207800  0.780200  0.068900  1.0  -0.0849
  C  C279  1  0.887900  0.428400  0.207000  1.0  -0.0951
  C  C280  1  0.916000  0.483600  0.206820  1.0  -0.1408
  C  C281  1  0.271200  0.775900  0.080900  1.0  -0.1603
  C  C282  1  0.210100  0.713100  0.958000  1.0  0.6439
  C  C283  1  0.326600  0.502000  0.396900  1.0  -0.0976
  C  C284  1  0.313500  0.752700  0.047680  1.0  0.0727
  C  C285  1  0.229700  0.736600  0.000560  1.0  0.2199
  C  C286  1  0.277800  0.542300  0.401320  1.0  -0.1031
  C  C287  1  0.968700  0.490100  0.233880  1.0  0.1634
  C  C288  1  0.254200  0.444600  0.353190  1.0  0.0384
  C  C289  1  0.158800  0.570900  0.384140  1.0  0.6902
  C  C290  1  0.315400  0.453300  0.373320  1.0  -0.0848
  C  C291  1  0.913100  0.385700  0.233500  1.0  -0.0761
  C  C292  1  0.232100  0.392600  0.329530  1.0  0.6365
  C  C293  1  0.218200  0.531500  0.380000  1.0  0.1347
  C  C294  1  0.999400  0.544600  0.240040  1.0  0.6787
  C  C295  1  0.995100  0.357300  0.292430  1.0  0.6788
  C  C296  1  0.386600  0.748900  0.055840  1.0  0.6832
  C  C297  1  0.964800  0.400300  0.258760  1.0  0.1611
  C  C298  1  0.816400  0.743700  0.529800  1.0  -0.1271
  C  C299  1  0.792200  0.719800  0.568900  1.0  -0.0858
  C  C300  1  0.112100  0.071600  0.707000  1.0  -0.0937
  C  C301  1  0.084000  0.016400  0.706820  1.0  -0.1398
  C  C302  1  0.728800  0.724100  0.580900  1.0  -0.1615
  C  C303  1  0.789900  0.786900  0.458000  1.0  0.6412
  C  C304  1  0.673400  0.998000  0.896900  1.0  -0.0989
  C  C305  1  0.686500  0.747300  0.547680  1.0  0.0723
  C  C306  1  0.770300  0.763400  0.500560  1.0  0.2205
  C  C307  1  0.722200  0.957700  0.901320  1.0  -0.1022
  C  C308  1  0.031300  0.009900  0.733880  1.0  0.1621
  C  C309  1  0.745800  0.055400  0.853190  1.0  0.038
  C  C310  1  0.841200  0.929100  0.884140  1.0  0.6896
  C  C311  1  0.684600  0.046700  0.873320  1.0  -0.0853
  C  C312  1  0.086900  0.114300  0.733500  1.0  -0.0732
  C  C313  1  0.767900  0.107400  0.829530  1.0  0.6377
  C  C314  1  0.781800  0.968500  0.880000  1.0  0.1348
  C  C315  1  0.000600  0.955400  0.740040  1.0  0.6796
  C  C316  1  0.004900  0.142700  0.792430  1.0  0.6752
  C  C317  1  0.613400  0.751100  0.555840  1.0  0.6818
  C  C318  1  0.035200  0.099700  0.758760  1.0  0.1584
  C  C319  1  0.683600  0.243700  0.470200  1.0  -0.1288
  C  C320  1  0.707800  0.219800  0.431100  1.0  -0.0846
  C  C321  1  0.387900  0.571600  0.293000  1.0  -0.0952
  C  C322  1  0.416000  0.516400  0.293180  1.0  -0.1404
  C  C323  1  0.771200  0.224100  0.419100  1.0  -0.1584
  C  C324  1  0.710100  0.286900  0.542000  1.0  0.6403
  C  C325  1  0.826600  0.498000  0.103100  1.0  -0.0977
  C  C326  1  0.813500  0.247300  0.452320  1.0  0.0732
  C  C327  1  0.729700  0.263400  0.499440  1.0  0.2209
  C  C328  1  0.777800  0.457700  0.098680  1.0  -0.1027
  C  C329  1  0.468700  0.509900  0.266120  1.0  0.1625
  C  C330  1  0.754200  0.555400  0.146810  1.0  0.0381
  C  C331  1  0.658800  0.429100  0.115860  1.0  0.6889
  C  C332  1  0.815400  0.546700  0.126680  1.0  -0.0849
  C  C333  1  0.413100  0.614300  0.266500  1.0  -0.0746
  C  C334  1  0.732100  0.607400  0.170470  1.0  0.6377
  C  C335  1  0.718200  0.468500  0.120000  1.0  0.1339
  C  C336  1  0.499400  0.455400  0.259960  1.0  0.6792
  C  C337  1  0.495100  0.642700  0.207570  1.0  0.6768
  C  C338  1  0.886600  0.251100  0.444160  1.0  0.6841
  C  C339  1  0.464800  0.599700  0.241240  1.0  0.16
  C  C340  1  0.316400  0.256300  0.970200  1.0  -0.1266
  C  C341  1  0.292200  0.280200  0.931100  1.0  -0.0849
  C  C342  1  0.612100  0.928400  0.793000  1.0  -0.0937
  C  C343  1  0.584000  0.983600  0.793180  1.0  -0.1398
  C  C344  1  0.228800  0.275900  0.919100  1.0  -0.1595
  C  C345  1  0.289900  0.213100  0.042000  1.0  0.641
  C  C346  1  0.173400  0.002000  0.603100  1.0  -0.0977
  C  C347  1  0.186500  0.252700  0.952320  1.0  0.0725
  C  C348  1  0.270300  0.236600  0.999440  1.0  0.2203
  C  C349  1  0.222200  0.042300  0.598680  1.0  -0.1022
  C  C350  1  0.531300  0.990100  0.766120  1.0  0.1632
  C  C351  1  0.245800  0.944600  0.646810  1.0  0.0385
  C  C352  1  0.341200  0.070900  0.615860  1.0  0.6902
  C  C353  1  0.184600  0.953300  0.626680  1.0  -0.0842
  C  C354  1  0.586900  0.885700  0.766500  1.0  -0.0768
  C  C355  1  0.267900  0.892600  0.670470  1.0  0.6375
  C  C356  1  0.281800  0.031500  0.620000  1.0  0.1349
  C  C357  1  0.500600  0.044600  0.759960  1.0  0.6794
  C  C358  1  0.504900  0.857300  0.707570  1.0  0.6786
  C  C359  1  0.113400  0.248900  0.944160  1.0  0.6811
  C  C360  1  0.535200  0.900300  0.741240  1.0  0.1602
  N  N361  1  0.006980  0.551200  0.739570  1.0  -0.2965
  N  N362  1  0.793800  0.514860  0.643650  1.0  -0.4297
  N  N363  1  0.708400  0.266100  0.991750  1.0  -0.3765
  N  N364  1  0.993020  0.948800  0.239570  1.0  -0.2955
  N  N365  1  0.206200  0.985140  0.143650  1.0  -0.4305
  N  N366  1  0.291600  0.233900  0.491750  1.0  -0.375
  N  N367  1  0.506980  0.448800  0.760430  1.0  -0.2959
  N  N368  1  0.293800  0.485140  0.856350  1.0  -0.4294
  N  N369  1  0.208400  0.733900  0.508250  1.0  -0.3782
  N  N370  1  0.493020  0.051200  0.260430  1.0  -0.2951
  N  N371  1  0.706200  0.014860  0.356350  1.0  -0.4292
  N  N372  1  0.791600  0.766100  0.008250  1.0  -0.3771
  N  N373  1  0.993020  0.448800  0.260430  1.0  -0.295
  N  N374  1  0.206200  0.485140  0.356350  1.0  -0.4299
  N  N375  1  0.291600  0.733900  0.008250  1.0  -0.3772
  N  N376  1  0.006980  0.051200  0.760430  1.0  -0.296
  N  N377  1  0.793800  0.014860  0.856350  1.0  -0.4294
  N  N378  1  0.708400  0.766100  0.508250  1.0  -0.3775
  N  N379  1  0.493020  0.551200  0.239570  1.0  -0.296
  N  N380  1  0.706200  0.514860  0.143650  1.0  -0.4297
  N  N381  1  0.791600  0.266100  0.491750  1.0  -0.3758
  N  N382  1  0.506980  0.948800  0.739570  1.0  -0.2959
  N  N383  1  0.293800  0.985140  0.643650  1.0  -0.4299
  N  N384  1  0.208400  0.233900  0.991750  1.0  -0.3761
  O  O385  1  0.747270  0.571070  0.919170  1.0  -0.9105
  O  O386  1  0.837590  0.478740  0.900130  1.0  -0.9015
  O  O387  1  0.611650  0.558720  0.899120  1.0  -0.7591
  O  O388  1  0.697710  0.466150  0.887170  1.0  -0.8518
  O  O389  1  0.885140  0.586810  0.929800  1.0  -0.7467
  O  O390  1  0.925460  0.486730  0.960110  1.0  -0.6921
  O  O391  1  0.725000  0.527110  0.749390  1.0  -0.7111
  O  O392  1  0.857680  0.541390  0.763650  1.0  -0.7885
  O  O393  1  0.855940  0.444870  0.812940  1.0  -0.7986
  O  O394  1  0.891610  0.442240  0.637040  1.0  -0.6533
  O  O395  1  0.732730  0.677070  0.917900  1.0  -0.7385
  O  O396  1  0.514920  0.494200  0.854650  1.0  -0.8051
  O  O397  1  0.790840  0.621700  0.987010  1.0  -0.6817
  O  O398  1  0.785380  0.376560  0.863540  1.0  -0.7164
  O  O399  1  0.672250  0.363230  0.906390  1.0  -0.7132
  O  O400  1  0.817060  0.450260  0.722960  1.0  -0.7254
  O  O401  1  0.635950  0.525760  0.817440  1.0  -0.7188
  O  O402  1  0.951010  0.451720  0.874550  1.0  -0.7
  O  O403  1  0.677990  0.496700  0.978740  1.0  -0.7181
  O  O404  1  0.732130  0.426680  0.797300  1.0  -0.6789
  O  O405  1  0.770310  0.628020  0.782070  1.0  -0.6417
  O  O406  1  0.802150  0.509770  0.992600  1.0  -0.6727
  O  O407  1  0.639140  0.383620  0.993180  1.0  -0.8035
  O  O408  1  0.760940  0.412950  0.961340  1.0  -0.773
  O  O409  1  0.861200  0.701250  0.939760  1.0  -0.8076
  O  O410  1  0.915790  0.344400  0.849230  1.0  -0.86
  O  O411  1  0.593700  0.236500  0.906800  1.0  -0.7537
  O  O412  1  0.852700  0.289900  0.050290  1.0  -0.481
  O  O413  1  0.835900  0.388800  0.590430  1.0  -0.7143
  O  O414  1  0.747700  0.304900  0.070110  1.0  -0.657
  O  O415  1  0.612800  0.417360  0.837430  1.0  -0.7388
  O  O416  1  0.959000  0.445880  0.729360  1.0  -0.6433
  O  O417  1  0.908620  0.557590  0.846640  1.0  -0.6831
  O  O418  1  0.589360  0.447010  0.923400  1.0  -0.6477
  O  O419  1  0.579700  0.269200  0.975090  1.0  -0.6304
  O  O420  1  0.823410  0.610400  0.684270  1.0  -0.5862
  O  O421  1  0.878200  0.386410  0.930750  1.0  -0.6445
  O  O422  1  0.660830  0.611160  0.971560  1.0  -0.6542
  O  O423  1  0.776200  0.535980  0.826740  1.0  -0.86
  O  O424  1  0.679240  0.625500  0.846290  1.0  -0.7116
  O  O425  1  0.724540  0.646560  0.674000  1.0  -0.5077
  O  O426  1  0.028400  0.691900  0.704550  1.0  -0.6726
  O  O427  1  0.957600  0.624250  0.684710  1.0  -0.6795
  O  O428  1  0.020520  0.413350  0.786410  1.0  -0.5018
  O  O429  1  0.826290  0.639360  0.863890  1.0  -0.7702
  O  O430  1  0.252730  0.928930  0.419170  1.0  -0.9109
  O  O431  1  0.162410  0.021260  0.400130  1.0  -0.9013
  O  O432  1  0.388350  0.941280  0.399120  1.0  -0.7589
  O  O433  1  0.302290  0.033850  0.387170  1.0  -0.8518
  O  O434  1  0.114860  0.913190  0.429800  1.0  -0.7478
  O  O435  1  0.074540  0.013270  0.460110  1.0  -0.6915
  O  O436  1  0.275000  0.972890  0.249390  1.0  -0.7109
  O  O437  1  0.142320  0.958610  0.263650  1.0  -0.7881
  O  O438  1  0.144060  0.055130  0.312940  1.0  -0.8004
  O  O439  1  0.108390  0.057760  0.137040  1.0  -0.654
  O  O440  1  0.267270  0.822930  0.417900  1.0  -0.7365
  O  O441  1  0.485080  0.005800  0.354650  1.0  -0.8055
  O  O442  1  0.209160  0.878300  0.487010  1.0  -0.6809
  O  O443  1  0.214620  0.123440  0.363540  1.0  -0.7197
  O  O444  1  0.327750  0.136770  0.406390  1.0  -0.713
  O  O445  1  0.182940  0.049740  0.222960  1.0  -0.7261
  O  O446  1  0.364050  0.974240  0.317440  1.0  -0.7178
  O  O447  1  0.048990  0.048280  0.374550  1.0  -0.701
  O  O448  1  0.322010  0.003300  0.478740  1.0  -0.7155
  O  O449  1  0.267870  0.073320  0.297300  1.0  -0.6809
  O  O450  1  0.229690  0.871980  0.282070  1.0  -0.6534
  O  O451  1  0.197850  0.990230  0.492600  1.0  -0.673
  O  O452  1  0.360860  0.116380  0.493180  1.0  -0.8042
  O  O453  1  0.239060  0.087050  0.461340  1.0  -0.7738
  O  O454  1  0.138800  0.798750  0.439760  1.0  -0.8086
  O  O455  1  0.084210  0.155600  0.349230  1.0  -0.8586
  O  O456  1  0.406300  0.263500  0.406800  1.0  -0.7538
  O  O457  1  0.147300  0.210100  0.550290  1.0  -0.4825
  O  O458  1  0.164100  0.111200  0.090430  1.0  -0.7171
  O  O459  1  0.252300  0.195100  0.570110  1.0  -0.6573
  O  O460  1  0.387200  0.082640  0.337430  1.0  -0.7381
  O  O461  1  0.041000  0.054120  0.229360  1.0  -0.643
  O  O462  1  0.091380  0.942410  0.346640  1.0  -0.6812
  O  O463  1  0.410640  0.052990  0.423400  1.0  -0.6504
  O  O464  1  0.420300  0.230800  0.475090  1.0  -0.6302
  O  O465  1  0.176590  0.889600  0.184270  1.0  -0.585
  O  O466  1  0.121800  0.113590  0.430750  1.0  -0.6439
  O  O467  1  0.339170  0.888840  0.471560  1.0  -0.6565
  O  O468  1  0.223800  0.964020  0.326740  1.0  -0.8603
  O  O469  1  0.320760  0.874500  0.346290  1.0  -0.7129
  O  O470  1  0.275460  0.853440  0.174000  1.0  -0.5026
  O  O471  1  0.971600  0.808100  0.204550  1.0  -0.6707
  O  O472  1  0.042400  0.875750  0.184710  1.0  -0.6793
  O  O473  1  0.979480  0.086650  0.286410  1.0  -0.5033
  O  O474  1  0.173710  0.860640  0.363890  1.0  -0.7694
  O  O475  1  0.247270  0.428930  0.580830  1.0  -0.9081
  O  O476  1  0.337590  0.521260  0.599870  1.0  -0.9009
  O  O477  1  0.111650  0.441280  0.600880  1.0  -0.7595
  O  O478  1  0.197710  0.533850  0.612830  1.0  -0.8526
  O  O479  1  0.385140  0.413190  0.570200  1.0  -0.7472
  O  O480  1  0.425460  0.513270  0.539890  1.0  -0.6934
  O  O481  1  0.225000  0.472890  0.750610  1.0  -0.7085
  O  O482  1  0.357680  0.458610  0.736350  1.0  -0.7872
  O  O483  1  0.355940  0.555130  0.687060  1.0  -0.7993
  O  O484  1  0.391610  0.557760  0.862960  1.0  -0.6529
  O  O485  1  0.232730  0.322930  0.582100  1.0  -0.7371
  O  O486  1  0.014920  0.505800  0.645350  1.0  -0.8053
  O  O487  1  0.290840  0.378300  0.512990  1.0  -0.6811
  O  O488  1  0.285380  0.623440  0.636460  1.0  -0.7183
  O  O489  1  0.172250  0.636770  0.593610  1.0  -0.7126
  O  O490  1  0.317060  0.549740  0.777040  1.0  -0.7231
  O  O491  1  0.135950  0.474240  0.682560  1.0  -0.7172
  O  O492  1  0.451010  0.548280  0.625450  1.0  -0.6988
  O  O493  1  0.177990  0.503300  0.521260  1.0  -0.7189
  O  O494  1  0.232130  0.573320  0.702700  1.0  -0.6802
  O  O495  1  0.270310  0.371980  0.717930  1.0  -0.6548
  O  O496  1  0.302150  0.490230  0.507400  1.0  -0.6725
  O  O497  1  0.139140  0.616380  0.506820  1.0  -0.804
  O  O498  1  0.260940  0.587050  0.538660  1.0  -0.7733
  O  O499  1  0.361200  0.298750  0.560240  1.0  -0.8056
  O  O500  1  0.415790  0.655600  0.650770  1.0  -0.8577
  O  O501  1  0.093700  0.763500  0.593200  1.0  -0.7507
  O  O502  1  0.352700  0.710100  0.449710  1.0  -0.4824
  O  O503  1  0.335900  0.611200  0.909570  1.0  -0.7145
  O  O504  1  0.247700  0.695100  0.429890  1.0  -0.6562
  O  O505  1  0.112800  0.582640  0.662570  1.0  -0.7372
  O  O506  1  0.459000  0.554120  0.770640  1.0  -0.6421
  O  O507  1  0.408620  0.442410  0.653360  1.0  -0.6827
  O  O508  1  0.089360  0.552990  0.576600  1.0  -0.648
  O  O509  1  0.079700  0.730800  0.524910  1.0  -0.6317
  O  O510  1  0.323410  0.389600  0.815730  1.0  -0.5858
  O  O511  1  0.378200  0.613590  0.569250  1.0  -0.6458
  O  O512  1  0.160830  0.388840  0.528440  1.0  -0.6583
  O  O513  1  0.276200  0.464020  0.673260  1.0  -0.8617
  O  O514  1  0.179240  0.374500  0.653710  1.0  -0.7154
  O  O515  1  0.224540  0.353440  0.826000  1.0  -0.5045
  O  O516  1  0.528400  0.308100  0.795450  1.0  -0.6685
  O  O517  1  0.457600  0.375750  0.815290  1.0  -0.6779
  O  O518  1  0.520520  0.586650  0.713590  1.0  -0.5034
  O  O519  1  0.326290  0.360640  0.636110  1.0  -0.7698
  O  O520  1  0.752730  0.071070  0.080830  1.0  -0.9095
  O  O521  1  0.662410  0.978740  0.099870  1.0  -0.9008
  O  O522  1  0.888350  0.058720  0.100880  1.0  -0.7597
  O  O523  1  0.802290  0.966150  0.112830  1.0  -0.8517
  O  O524  1  0.614860  0.086810  0.070200  1.0  -0.7483
  O  O525  1  0.574540  0.986730  0.039890  1.0  -0.6938
  O  O526  1  0.775000  0.027110  0.250610  1.0  -0.7087
  O  O527  1  0.642320  0.041390  0.236350  1.0  -0.787
  O  O528  1  0.644060  0.944870  0.187060  1.0  -0.7987
  O  O529  1  0.608390  0.942240  0.362960  1.0  -0.6513
  O  O530  1  0.767270  0.177070  0.082100  1.0  -0.7375
  O  O531  1  0.985080  0.994200  0.145350  1.0  -0.805
  O  O532  1  0.709160  0.121700  0.012990  1.0  -0.6802
  O  O533  1  0.714620  0.876560  0.136460  1.0  -0.7168
  O  O534  1  0.827750  0.863230  0.093610  1.0  -0.713
  O  O535  1  0.682940  0.950260  0.277040  1.0  -0.7247
  O  O536  1  0.864050  0.025760  0.182560  1.0  -0.7181
  O  O537  1  0.548990  0.951720  0.125450  1.0  -0.6998
  O  O538  1  0.822010  0.996700  0.021260  1.0  -0.7157
  O  O539  1  0.767870  0.926680  0.202700  1.0  -0.6793
  O  O540  1  0.729690  0.128020  0.217930  1.0  -0.6414
  O  O541  1  0.697850  0.009770  0.007400  1.0  -0.6921
  O  O542  1  0.860860  0.883620  0.006820  1.0  -0.8043
  O  O543  1  0.739060  0.912950  0.038660  1.0  -0.7743
  O  O544  1  0.638800  0.201250  0.060240  1.0  -0.8078
  O  O545  1  0.584210  0.844400  0.150770  1.0  -0.859
  O  O546  1  0.906300  0.736500  0.093200  1.0  -0.7535
  O  O547  1  0.647300  0.789900  0.949710  1.0  -0.4829
  O  O548  1  0.664100  0.888800  0.409570  1.0  -0.7149
  O  O549  1  0.752300  0.804900  0.929890  1.0  -0.6558
  O  O550  1  0.887200  0.917360  0.162570  1.0  -0.737
  O  O551  1  0.541000  0.945880  0.270640  1.0  -0.6419
  O  O552  1  0.591380  0.057590  0.153360  1.0  -0.6825
  O  O553  1  0.910640  0.947010  0.076600  1.0  -0.6503
  O  O554  1  0.920300  0.769200  0.024910  1.0  -0.6287
  O  O555  1  0.676590  0.110400  0.315730  1.0  -0.5854
  O  O556  1  0.621800  0.886410  0.069250  1.0  -0.6455
  O  O557  1  0.839170  0.111160  0.028440  1.0  -0.6593
  O  O558  1  0.723800  0.035980  0.173260  1.0  -0.8616
  O  O559  1  0.820760  0.125500  0.153710  1.0  -0.7091
  O  O560  1  0.775460  0.146560  0.326000  1.0  -0.5066
  O  O561  1  0.471600  0.191900  0.295450  1.0  -0.6731
  O  O562  1  0.542400  0.124250  0.315290  1.0  -0.6785
  O  O563  1  0.479480  0.913350  0.213590  1.0  -0.5018
  O  O564  1  0.673710  0.139360  0.136110  1.0  -0.7718
  O  O565  1  0.252730  0.428930  0.080830  1.0  -0.9091
  O  O566  1  0.162410  0.521260  0.099870  1.0  -0.9008
  O  O567  1  0.388350  0.441280  0.100880  1.0  -0.759
  O  O568  1  0.302290  0.533850  0.112830  1.0  -0.852
  O  O569  1  0.114860  0.413190  0.070200  1.0  -0.7486
  O  O570  1  0.074540  0.513270  0.039890  1.0  -0.6936
  O  O571  1  0.275000  0.472890  0.250610  1.0  -0.7085
  O  O572  1  0.142320  0.458610  0.236350  1.0  -0.7866
  O  O573  1  0.144060  0.555130  0.187060  1.0  -0.8004
  O  O574  1  0.108390  0.557760  0.362960  1.0  -0.6532
  O  O575  1  0.267270  0.322930  0.082100  1.0  -0.737
  O  O576  1  0.485080  0.505800  0.145350  1.0  -0.8054
  O  O577  1  0.209160  0.378300  0.012990  1.0  -0.6806
  O  O578  1  0.214620  0.623440  0.136460  1.0  -0.719
  O  O579  1  0.327750  0.636770  0.093610  1.0  -0.7128
  O  O580  1  0.182940  0.549740  0.277040  1.0  -0.7241
  O  O581  1  0.364050  0.474240  0.182560  1.0  -0.7174
  O  O582  1  0.048990  0.548280  0.125450  1.0  -0.6993
  O  O583  1  0.322010  0.503300  0.021260  1.0  -0.7154
  O  O584  1  0.267870  0.573320  0.202700  1.0  -0.68
  O  O585  1  0.229690  0.371980  0.217930  1.0  -0.6548
  O  O586  1  0.197850  0.490230  0.007400  1.0  -0.6922
  O  O587  1  0.360860  0.616380  0.006820  1.0  -0.8036
  O  O588  1  0.239060  0.587050  0.038660  1.0  -0.7741
  O  O589  1  0.138800  0.298750  0.060240  1.0  -0.8075
  O  O590  1  0.084210  0.655600  0.150770  1.0  -0.8576
  O  O591  1  0.406300  0.763500  0.093200  1.0  -0.7541
  O  O592  1  0.147300  0.710100  0.949710  1.0  -0.4834
  O  O593  1  0.164100  0.611200  0.409570  1.0  -0.7162
  O  O594  1  0.252300  0.695100  0.929890  1.0  -0.6562
  O  O595  1  0.387200  0.582640  0.162570  1.0  -0.7362
  O  O596  1  0.041000  0.554120  0.270640  1.0  -0.6421
  O  O597  1  0.091380  0.442410  0.153360  1.0  -0.6815
  O  O598  1  0.410640  0.552990  0.076600  1.0  -0.6509
  O  O599  1  0.420300  0.730800  0.024910  1.0  -0.6287
  O  O600  1  0.176590  0.389600  0.315730  1.0  -0.585
  O  O601  1  0.121800  0.613590  0.069250  1.0  -0.6452
  O  O602  1  0.339170  0.388840  0.028440  1.0  -0.659
  O  O603  1  0.223800  0.464020  0.173260  1.0  -0.8619
  O  O604  1  0.320760  0.374500  0.153710  1.0  -0.7138
  O  O605  1  0.275460  0.353440  0.326000  1.0  -0.5033
  O  O606  1  0.971600  0.308100  0.295450  1.0  -0.6705
  O  O607  1  0.042400  0.375750  0.315290  1.0  -0.6792
  O  O608  1  0.979480  0.586650  0.213590  1.0  -0.5031
  O  O609  1  0.173710  0.360640  0.136110  1.0  -0.77
  O  O610  1  0.747270  0.071070  0.580830  1.0  -0.9086
  O  O611  1  0.837590  0.978740  0.599870  1.0  -0.9013
  O  O612  1  0.611650  0.058720  0.600880  1.0  -0.7607
  O  O613  1  0.697710  0.966150  0.612830  1.0  -0.852
  O  O614  1  0.885140  0.086810  0.570200  1.0  -0.7462
  O  O615  1  0.925460  0.986730  0.539890  1.0  -0.6934
  O  O616  1  0.725000  0.027110  0.750610  1.0  -0.7087
  O  O617  1  0.857680  0.041390  0.736350  1.0  -0.7874
  O  O618  1  0.855940  0.944870  0.687060  1.0  -0.7987
  O  O619  1  0.891610  0.942240  0.862960  1.0  -0.652
  O  O620  1  0.732730  0.177070  0.582100  1.0  -0.7379
  O  O621  1  0.514920  0.994200  0.645350  1.0  -0.805
  O  O622  1  0.790840  0.121700  0.512990  1.0  -0.6811
  O  O623  1  0.785380  0.876560  0.636460  1.0  -0.7164
  O  O624  1  0.672250  0.863230  0.593610  1.0  -0.7131
  O  O625  1  0.817060  0.950260  0.777040  1.0  -0.7244
  O  O626  1  0.635950  0.025760  0.682560  1.0  -0.7177
  O  O627  1  0.951010  0.951720  0.625450  1.0  -0.6988
  O  O628  1  0.677990  0.996700  0.521260  1.0  -0.7195
  O  O629  1  0.732130  0.926680  0.702700  1.0  -0.6792
  O  O630  1  0.770310  0.128020  0.717930  1.0  -0.6406
  O  O631  1  0.802150  0.009770  0.507400  1.0  -0.6723
  O  O632  1  0.639140  0.883620  0.506820  1.0  -0.8034
  O  O633  1  0.760940  0.912950  0.538660  1.0  -0.7733
  O  O634  1  0.861200  0.201250  0.560240  1.0  -0.8063
  O  O635  1  0.915790  0.844400  0.650770  1.0  -0.8596
  O  O636  1  0.593700  0.736500  0.593200  1.0  -0.7499
  O  O637  1  0.852700  0.789900  0.449710  1.0  -0.4807
  O  O638  1  0.835900  0.888800  0.909570  1.0  -0.714
  O  O639  1  0.747700  0.804900  0.429890  1.0  -0.6559
  O  O640  1  0.612800  0.917360  0.662570  1.0  -0.7375
  O  O641  1  0.959000  0.945880  0.770640  1.0  -0.6422
  O  O642  1  0.908620  0.057590  0.653360  1.0  -0.6836
  O  O643  1  0.589360  0.947010  0.576600  1.0  -0.6481
  O  O644  1  0.579700  0.769200  0.524910  1.0  -0.6318
  O  O645  1  0.823410  0.110400  0.815730  1.0  -0.586
  O  O646  1  0.878200  0.886410  0.569250  1.0  -0.645
  O  O647  1  0.660830  0.111160  0.528440  1.0  -0.6576
  O  O648  1  0.776200  0.035980  0.673260  1.0  -0.8613
  O  O649  1  0.679240  0.125500  0.653710  1.0  -0.7109
  O  O650  1  0.724540  0.146560  0.826000  1.0  -0.5085
  O  O651  1  0.028400  0.191900  0.795450  1.0  -0.6727
  O  O652  1  0.957600  0.124250  0.815290  1.0  -0.6785
  O  O653  1  0.020520  0.913350  0.713590  1.0  -0.5015
  O  O654  1  0.826290  0.139360  0.636110  1.0  -0.7707
  O  O655  1  0.752730  0.571070  0.419170  1.0  -0.9115
  O  O656  1  0.662410  0.478740  0.400130  1.0  -0.9012
  O  O657  1  0.888350  0.558720  0.399120  1.0  -0.7602
  O  O658  1  0.802290  0.466150  0.387170  1.0  -0.8515
  O  O659  1  0.614860  0.586810  0.429800  1.0  -0.7473
  O  O660  1  0.574540  0.486730  0.460110  1.0  -0.6917
  O  O661  1  0.775000  0.527110  0.249390  1.0  -0.7111
  O  O662  1  0.642320  0.541390  0.263650  1.0  -0.7885
  O  O663  1  0.644060  0.444870  0.312940  1.0  -0.7988
  O  O664  1  0.608390  0.442240  0.137040  1.0  -0.6525
  O  O665  1  0.767270  0.677070  0.417900  1.0  -0.7386
  O  O666  1  0.985080  0.494200  0.354650  1.0  -0.8052
  O  O667  1  0.709160  0.621700  0.487010  1.0  -0.6804
  O  O668  1  0.714620  0.376560  0.363540  1.0  -0.7169
  O  O669  1  0.827750  0.363230  0.406390  1.0  -0.7131
  O  O670  1  0.682940  0.450260  0.222960  1.0  -0.726
  O  O671  1  0.864050  0.525760  0.317440  1.0  -0.719
  O  O672  1  0.548990  0.451720  0.374550  1.0  -0.7013
  O  O673  1  0.822010  0.496700  0.478740  1.0  -0.7157
  O  O674  1  0.767870  0.426680  0.297300  1.0  -0.6791
  O  O675  1  0.729690  0.628020  0.282070  1.0  -0.6423
  O  O676  1  0.697850  0.509770  0.492600  1.0  -0.6727
  O  O677  1  0.860860  0.383620  0.493180  1.0  -0.8036
  O  O678  1  0.739060  0.412950  0.461340  1.0  -0.7741
  O  O679  1  0.638800  0.701250  0.439760  1.0  -0.8093
  O  O680  1  0.584210  0.344400  0.349230  1.0  -0.8597
  O  O681  1  0.906300  0.236500  0.406800  1.0  -0.7541
  O  O682  1  0.647300  0.289900  0.550290  1.0  -0.4818
  O  O683  1  0.664100  0.388800  0.090430  1.0  -0.7161
  O  O684  1  0.752300  0.304900  0.570110  1.0  -0.6572
  O  O685  1  0.887200  0.417360  0.337430  1.0  -0.738
  O  O686  1  0.541000  0.445880  0.229360  1.0  -0.6427
  O  O687  1  0.591380  0.557590  0.346640  1.0  -0.682
  O  O688  1  0.910640  0.447010  0.423400  1.0  -0.6502
  O  O689  1  0.920300  0.269200  0.475090  1.0  -0.6304
  O  O690  1  0.676590  0.610400  0.184270  1.0  -0.5854
  O  O691  1  0.621800  0.386410  0.430750  1.0  -0.645
  O  O692  1  0.839170  0.611160  0.471560  1.0  -0.6565
  O  O693  1  0.723800  0.535980  0.326740  1.0  -0.8603
  O  O694  1  0.820760  0.625500  0.346290  1.0  -0.7094
  O  O695  1  0.775460  0.646560  0.174000  1.0  -0.5059
  O  O696  1  0.471600  0.691900  0.204550  1.0  -0.6729
  O  O697  1  0.542400  0.624250  0.184710  1.0  -0.6784
  O  O698  1  0.479480  0.413350  0.286410  1.0  -0.5023
  O  O699  1  0.673710  0.639360  0.363890  1.0  -0.7717
  O  O700  1  0.247270  0.928930  0.919170  1.0  -0.9098
  O  O701  1  0.337590  0.021260  0.900130  1.0  -0.9012
  O  O702  1  0.111650  0.941280  0.899120  1.0  -0.7577
  O  O703  1  0.197710  0.033850  0.887170  1.0  -0.8524
  O  O704  1  0.385140  0.913190  0.929800  1.0  -0.7481
  O  O705  1  0.425460  0.013270  0.960110  1.0  -0.6921
  O  O706  1  0.225000  0.972890  0.749390  1.0  -0.711
  O  O707  1  0.357680  0.958610  0.763650  1.0  -0.7882
  O  O708  1  0.355940  0.055130  0.812940  1.0  -0.7992
  O  O709  1  0.391610  0.057760  0.637040  1.0  -0.6542
  O  O710  1  0.232730  0.822930  0.917900  1.0  -0.7366
  O  O711  1  0.014920  0.005800  0.854650  1.0  -0.8052
  O  O712  1  0.290840  0.878300  0.987010  1.0  -0.6819
  O  O713  1  0.285380  0.123440  0.863540  1.0  -0.7188
  O  O714  1  0.172250  0.136770  0.906390  1.0  -0.7128
  O  O715  1  0.317060  0.049740  0.722960  1.0  -0.725
  O  O716  1  0.135950  0.974240  0.817440  1.0  -0.7179
  O  O717  1  0.451010  0.048280  0.874550  1.0  -0.7
  O  O718  1  0.177990  0.003300  0.978740  1.0  -0.7176
  O  O719  1  0.232130  0.073320  0.797300  1.0  -0.681
  O  O720  1  0.270310  0.871980  0.782070  1.0  -0.6533
  O  O721  1  0.302150  0.990230  0.992600  1.0  -0.6729
  O  O722  1  0.139140  0.116380  0.993180  1.0  -0.8026
  O  O723  1  0.260940  0.087050  0.961340  1.0  -0.7729
  O  O724  1  0.361200  0.798750  0.939760  1.0  -0.8069
  O  O725  1  0.415790  0.155600  0.849230  1.0  -0.8585
  O  O726  1  0.093700  0.263500  0.906800  1.0  -0.753
  O  O727  1  0.352700  0.210100  0.050290  1.0  -0.4825
  O  O728  1  0.335900  0.111200  0.590430  1.0  -0.7148
  O  O729  1  0.247700  0.195100  0.070110  1.0  -0.6569
  O  O730  1  0.112800  0.082640  0.837430  1.0  -0.7394
  O  O731  1  0.459000  0.054120  0.729360  1.0  -0.6433
  O  O732  1  0.408620  0.942410  0.846640  1.0  -0.6824
  O  O733  1  0.089360  0.052990  0.923400  1.0  -0.6478
  O  O734  1  0.079700  0.230800  0.975090  1.0  -0.6301
  O  O735  1  0.323410  0.889600  0.684270  1.0  -0.5859
  O  O736  1  0.378200  0.113590  0.930750  1.0  -0.6446
  O  O737  1  0.160830  0.888840  0.971560  1.0  -0.6549
  O  O738  1  0.276200  0.964020  0.826740  1.0  -0.8601
  O  O739  1  0.179240  0.874500  0.846290  1.0  -0.715
  O  O740  1  0.224540  0.853440  0.674000  1.0  -0.5037
  O  O741  1  0.528400  0.808100  0.704550  1.0  -0.6688
  O  O742  1  0.457600  0.875750  0.684710  1.0  -0.6791
  O  O743  1  0.520520  0.086650  0.786410  1.0  -0.5037
  O  O744  1  0.326290  0.860640  0.863890  1.0  -0.7688
