# generated using pymatgen
data_Nd3H9W12C21N3O44
_symmetry_space_group_name_H-M   'P 1'
_cell_length_a   20.47100000
_cell_length_b   23.42600000
_cell_length_c   29.40600000
_cell_angle_alpha   90.00000000
_cell_angle_beta   90.00000000
_cell_angle_gamma   90.00000000
_symmetry_Int_Tables_number   1
_chemical_formula_structural   Nd3H9W12C21N3O44
_chemical_formula_sum   'Nd24 H72 W96 C168 N24 O352'
_cell_volume   14101.75451428
_cell_formula_units_Z   8
loop_
 _symmetry_equiv_pos_site_id
 _symmetry_equiv_pos_as_xyz
  1  'x, y, z'
loop_
 _atom_site_type_symbol
 _atom_site_label
 _atom_site_symmetry_multiplicity
 _atom_site_fract_x
 _atom_site_fract_y
 _atom_site_fract_z
 _atom_site_occupancy
 _atom_site_charge
  Nd  Nd1  1  0.409440  0.467720  0.317370  1.0  2.2495
  Nd  Nd2  1  0.878610  0.806110  0.448060  1.0  2.2353
  Nd  Nd3  1  0.506860  0.228600  0.355410  1.0  1.9739
  Nd  Nd4  1  0.590560  0.032280  0.817370  1.0  2.2496
  Nd  Nd5  1  0.121390  0.693890  0.948060  1.0  2.2331
  Nd  Nd6  1  0.493140  0.271400  0.855410  1.0  1.9738
  Nd  Nd7  1  0.909440  0.532280  0.182630  1.0  2.2493
  Nd  Nd8  1  0.378610  0.193890  0.051940  1.0  2.236
  Nd  Nd9  1  0.006860  0.771400  0.144590  1.0  1.9738
  Nd  Nd10  1  0.090560  0.967720  0.682630  1.0  2.2496
  Nd  Nd11  1  0.621390  0.306110  0.551940  1.0  2.2357
  Nd  Nd12  1  0.993140  0.728600  0.644590  1.0  1.9735
  Nd  Nd13  1  0.590560  0.532280  0.682630  1.0  2.2494
  Nd  Nd14  1  0.121390  0.193890  0.551940  1.0  2.2357
  Nd  Nd15  1  0.493140  0.771400  0.644590  1.0  1.9925
  Nd  Nd16  1  0.409440  0.967720  0.182630  1.0  2.2495
  Nd  Nd17  1  0.878610  0.306110  0.051940  1.0  2.2359
  Nd  Nd18  1  0.506860  0.728600  0.144590  1.0  1.9923
  Nd  Nd19  1  0.090560  0.467720  0.817370  1.0  2.2497
  Nd  Nd20  1  0.621390  0.806110  0.948060  1.0  2.2332
  Nd  Nd21  1  0.993140  0.228600  0.855410  1.0  1.9912
  Nd  Nd22  1  0.909440  0.032280  0.317370  1.0  2.2494
  Nd  Nd23  1  0.378610  0.693890  0.448060  1.0  2.2354
  Nd  Nd24  1  0.006860  0.271400  0.355410  1.0  1.9912
  H  H25  1  0.637900  0.742000  0.517700  1.0  0.1426
  H  H26  1  0.674200  0.704000  0.585300  1.0  0.1142
  H  H27  1  0.782100  0.709200  0.604600  1.0  0.1295
  H  H28  1  0.221400  0.574800  0.415400  1.0  0.1135
  H  H29  1  0.133800  0.509300  0.406400  1.0  0.1219
  H  H30  1  0.154100  0.423500  0.367300  1.0  0.1311
  H  H31  1  0.607400  0.348600  0.233500  1.0  0.1348
  H  H32  1  0.645100  0.420600  0.185300  1.0  0.1194
  H  H33  1  0.595900  0.508800  0.186800  1.0  0.1206
  H  H34  1  0.362100  0.758000  0.017700  1.0  0.1419
  H  H35  1  0.325800  0.796000  0.085300  1.0  0.1131
  H  H36  1  0.217900  0.790800  0.104600  1.0  0.1296
  H  H37  1  0.778600  0.925200  0.915400  1.0  0.1141
  H  H38  1  0.866200  0.990700  0.906400  1.0  0.1228
  H  H39  1  0.845900  0.076500  0.867300  1.0  0.1324
  H  H40  1  0.392600  0.151400  0.733500  1.0  0.1363
  H  H41  1  0.354900  0.079400  0.685300  1.0  0.1197
  H  H42  1  0.404100  0.991200  0.686800  1.0  0.1206
  H  H43  1  0.137900  0.258000  0.982300  1.0  0.1424
  H  H44  1  0.174200  0.296000  0.914700  1.0  0.1136
  H  H45  1  0.282100  0.290800  0.895400  1.0  0.1294
  H  H46  1  0.721400  0.425200  0.084600  1.0  0.1138
  H  H47  1  0.633800  0.490700  0.093600  1.0  0.1214
  H  H48  1  0.654100  0.576500  0.132700  1.0  0.1318
  H  H49  1  0.107400  0.651400  0.266500  1.0  0.1353
  H  H50  1  0.145100  0.579400  0.314700  1.0  0.1202
  H  H51  1  0.095900  0.491200  0.313200  1.0  0.1214
  H  H52  1  0.862100  0.242000  0.482300  1.0  0.1416
  H  H53  1  0.825800  0.204000  0.414700  1.0  0.114
  H  H54  1  0.717900  0.209200  0.395400  1.0  0.1297
  H  H55  1  0.278600  0.074800  0.584600  1.0  0.1139
  H  H56  1  0.366200  0.009300  0.593600  1.0  0.1222
  H  H57  1  0.345900  0.923500  0.632700  1.0  0.1321
  H  H58  1  0.892600  0.848600  0.766500  1.0  0.1347
  H  H59  1  0.854900  0.920600  0.814700  1.0  0.12
  H  H60  1  0.904100  0.008800  0.813200  1.0  0.1211
  H  H61  1  0.362100  0.258000  0.482300  1.0  0.1416
  H  H62  1  0.325800  0.296000  0.414700  1.0  0.1135
  H  H63  1  0.217900  0.290800  0.395400  1.0  0.1295
  H  H64  1  0.778600  0.425200  0.584600  1.0  0.1142
  H  H65  1  0.866200  0.490700  0.593600  1.0  0.1221
  H  H66  1  0.845900  0.576500  0.632700  1.0  0.1325
  H  H67  1  0.392600  0.651400  0.766500  1.0  0.1359
  H  H68  1  0.354900  0.579400  0.814700  1.0  0.12
  H  H69  1  0.404100  0.491200  0.813200  1.0  0.1207
  H  H70  1  0.637900  0.242000  0.982300  1.0  0.1424
  H  H71  1  0.674200  0.204000  0.914700  1.0  0.1141
  H  H72  1  0.782100  0.209200  0.895400  1.0  0.1296
  H  H73  1  0.221400  0.074800  0.084600  1.0  0.1137
  H  H74  1  0.133800  0.009300  0.093600  1.0  0.1215
  H  H75  1  0.154100  0.923500  0.132700  1.0  0.1309
  H  H76  1  0.607400  0.848600  0.266500  1.0  0.1346
  H  H77  1  0.645100  0.920600  0.314700  1.0  0.1202
  H  H78  1  0.595900  0.008800  0.313200  1.0  0.1205
  H  H79  1  0.862100  0.742000  0.017700  1.0  0.142
  H  H80  1  0.825800  0.704000  0.085300  1.0  0.1137
  H  H81  1  0.717900  0.709200  0.104600  1.0  0.1296
  H  H82  1  0.278600  0.574800  0.915400  1.0  0.1137
  H  H83  1  0.366200  0.509300  0.906400  1.0  0.1227
  H  H84  1  0.345900  0.423500  0.867300  1.0  0.1322
  H  H85  1  0.892600  0.348600  0.733500  1.0  0.1347
  H  H86  1  0.854900  0.420600  0.685300  1.0  0.1194
  H  H87  1  0.904100  0.508800  0.686800  1.0  0.1211
  H  H88  1  0.137900  0.758000  0.517700  1.0  0.1427
  H  H89  1  0.174200  0.796000  0.585300  1.0  0.1135
  H  H90  1  0.282100  0.790800  0.604600  1.0  0.1294
  H  H91  1  0.721400  0.925200  0.415400  1.0  0.1139
  H  H92  1  0.633800  0.990700  0.406400  1.0  0.1219
  H  H93  1  0.654100  0.076500  0.367300  1.0  0.1319
  H  H94  1  0.107400  0.151400  0.233500  1.0  0.1359
  H  H95  1  0.145100  0.079400  0.185300  1.0  0.1195
  H  H96  1  0.095900  0.991200  0.186800  1.0  0.1213
  W  W97  1  0.870320  0.401500  0.368790  1.0  2.3097
  W  W98  1  0.934280  0.522640  0.399520  1.0  1.4538
  W  W99  1  0.819580  0.640460  0.424230  1.0  2.6244
  W  W100  1  0.661030  0.628500  0.407540  1.0  1.3543
  W  W101  1  0.596980  0.487720  0.371870  1.0  2.5841
  W  W102  1  0.848320  0.596770  0.305160  1.0  1.3538
  W  W103  1  0.674430  0.422430  0.453080  1.0  2.5627
  W  W104  1  0.690040  0.575830  0.290360  1.0  1.3957
  W  W105  1  0.850610  0.446080  0.472280  1.0  1.349
  W  W106  1  0.792410  0.471550  0.272400  1.0  1.4202
  W  W107  1  0.731220  0.562750  0.494200  1.0  1.2831
  W  W108  1  0.693520  0.380450  0.348770  1.0  1.4182
  W  W109  1  0.129680  0.098500  0.868790  1.0  2.3098
  W  W110  1  0.065720  0.977360  0.899520  1.0  1.4531
  W  W111  1  0.180420  0.859540  0.924230  1.0  2.6263
  W  W112  1  0.338970  0.871500  0.907540  1.0  1.3531
  W  W113  1  0.403020  0.012280  0.871870  1.0  2.5823
  W  W114  1  0.151680  0.903230  0.805160  1.0  1.3495
  W  W115  1  0.325570  0.077570  0.953080  1.0  2.5628
  W  W116  1  0.309960  0.924170  0.790360  1.0  1.3883
  W  W117  1  0.149390  0.053920  0.972280  1.0  1.3497
  W  W118  1  0.207590  0.028450  0.772400  1.0  1.4258
  W  W119  1  0.268780  0.937250  0.994200  1.0  1.2828
  W  W120  1  0.306480  0.119550  0.848770  1.0  1.4243
  W  W121  1  0.370320  0.598500  0.131210  1.0  2.3121
  W  W122  1  0.434280  0.477360  0.100480  1.0  1.4553
  W  W123  1  0.319580  0.359540  0.075770  1.0  2.6253
  W  W124  1  0.161030  0.371500  0.092460  1.0  1.3548
  W  W125  1  0.096980  0.512280  0.128130  1.0  2.5837
  W  W126  1  0.348320  0.403230  0.194840  1.0  1.3482
  W  W127  1  0.174430  0.577570  0.046920  1.0  2.562
  W  W128  1  0.190040  0.424170  0.209640  1.0  1.3889
  W  W129  1  0.350610  0.553920  0.027720  1.0  1.3525
  W  W130  1  0.292410  0.528450  0.227600  1.0  1.419
  W  W131  1  0.231220  0.437250  0.005800  1.0  1.2857
  W  W132  1  0.193520  0.619550  0.151230  1.0  1.4227
  W  W133  1  0.629680  0.901500  0.631210  1.0  2.3086
  W  W134  1  0.565720  0.022640  0.600480  1.0  1.4578
  W  W135  1  0.680420  0.140460  0.575770  1.0  2.6263
  W  W136  1  0.838970  0.128500  0.592460  1.0  1.358
  W  W137  1  0.903020  0.987720  0.628130  1.0  2.5823
  W  W138  1  0.651680  0.096770  0.694840  1.0  1.3527
  W  W139  1  0.825570  0.922430  0.546920  1.0  2.5613
  W  W140  1  0.809960  0.075830  0.709640  1.0  1.395
  W  W141  1  0.649390  0.946080  0.527720  1.0  1.351
  W  W142  1  0.707590  0.971550  0.727600  1.0  1.4189
  W  W143  1  0.768780  0.062750  0.505800  1.0  1.2847
  W  W144  1  0.806480  0.880450  0.651230  1.0  1.419
  W  W145  1  0.129680  0.598500  0.631210  1.0  2.3104
  W  W146  1  0.065720  0.477360  0.600480  1.0  1.4555
  W  W147  1  0.180420  0.359540  0.575770  1.0  2.6262
  W  W148  1  0.338970  0.371500  0.592460  1.0  1.3544
  W  W149  1  0.403020  0.512280  0.628130  1.0  2.5828
  W  W150  1  0.151680  0.403230  0.694840  1.0  1.3483
  W  W151  1  0.325570  0.577570  0.546920  1.0  2.5621
  W  W152  1  0.309960  0.424170  0.709640  1.0  1.388
  W  W153  1  0.149390  0.553920  0.527720  1.0  1.3523
  W  W154  1  0.207590  0.528450  0.727600  1.0  1.4206
  W  W155  1  0.268780  0.437250  0.505800  1.0  1.2848
  W  W156  1  0.306480  0.619550  0.651230  1.0  1.4224
  W  W157  1  0.870320  0.901500  0.131210  1.0  2.3096
  W  W158  1  0.934280  0.022640  0.100480  1.0  1.4579
  W  W159  1  0.819580  0.140460  0.075770  1.0  2.6244
  W  W160  1  0.661030  0.128500  0.092460  1.0  1.3554
  W  W161  1  0.596980  0.987720  0.128130  1.0  2.5835
  W  W162  1  0.848320  0.096770  0.194840  1.0  1.3523
  W  W163  1  0.674430  0.922430  0.046920  1.0  2.5616
  W  W164  1  0.690040  0.075830  0.209640  1.0  1.3943
  W  W165  1  0.850610  0.946080  0.027720  1.0  1.3514
  W  W166  1  0.792410  0.971550  0.227600  1.0  1.4176
  W  W167  1  0.731220  0.062750  0.005800  1.0  1.2857
  W  W168  1  0.693520  0.880450  0.151230  1.0  1.4194
  W  W169  1  0.629680  0.401500  0.868790  1.0  2.3083
  W  W170  1  0.565720  0.522640  0.899520  1.0  1.4549
  W  W171  1  0.680420  0.640460  0.924230  1.0  2.6262
  W  W172  1  0.838970  0.628500  0.907540  1.0  1.3568
  W  W173  1  0.903020  0.487720  0.871870  1.0  2.5821
  W  W174  1  0.651680  0.596770  0.805160  1.0  1.3541
  W  W175  1  0.825570  0.422430  0.953080  1.0  2.5622
  W  W176  1  0.809960  0.575830  0.790360  1.0  1.3965
  W  W177  1  0.649390  0.446080  0.972280  1.0  1.3493
  W  W178  1  0.707590  0.471550  0.772400  1.0  1.4216
  W  W179  1  0.768780  0.562750  0.994200  1.0  1.2826
  W  W180  1  0.806480  0.380450  0.848770  1.0  1.4184
  W  W181  1  0.370320  0.098500  0.368790  1.0  2.3118
  W  W182  1  0.434280  0.977360  0.399520  1.0  1.4519
  W  W183  1  0.319580  0.859540  0.424230  1.0  2.6256
  W  W184  1  0.161030  0.871500  0.407540  1.0  1.3536
  W  W185  1  0.096980  0.012280  0.371870  1.0  2.5841
  W  W186  1  0.348320  0.903230  0.305160  1.0  1.3496
  W  W187  1  0.174430  0.077570  0.453080  1.0  2.5629
  W  W188  1  0.190040  0.924170  0.290360  1.0  1.3893
  W  W189  1  0.350610  0.053920  0.472280  1.0  1.3493
  W  W190  1  0.292410  0.028450  0.272400  1.0  1.4239
  W  W191  1  0.231220  0.937250  0.494200  1.0  1.2832
  W  W192  1  0.193520  0.119550  0.348770  1.0  1.4243
  C  C193  1  0.727800  0.765600  0.496500  1.0  0.1335
  C  C194  1  0.682000  0.742600  0.525200  1.0  -0.1172
  C  C195  1  0.703900  0.720600  0.565300  1.0  -0.0984
  C  C196  1  0.767800  0.722600  0.576600  1.0  -0.1341
  C  C197  1  0.813100  0.745800  0.544400  1.0  0.0715
  C  C198  1  0.712000  0.788700  0.451100  1.0  0.629
  C  C199  1  0.884900  0.749200  0.553400  1.0  0.7075
  C  C200  1  0.285400  0.529500  0.377600  1.0  0.1477
  C  C201  1  0.226800  0.541500  0.398600  1.0  -0.0743
  C  C202  1  0.174600  0.501800  0.394000  1.0  -0.1597
  C  C203  1  0.186300  0.451200  0.370300  1.0  -0.1403
  C  C204  1  0.249400  0.443700  0.350800  1.0  0.1102
  C  C205  1  0.344200  0.566600  0.382300  1.0  0.6406
  C  C206  1  0.272800  0.389600  0.329700  1.0  0.6268
  C  C207  1  0.533600  0.395600  0.260700  1.0  0.1354
  C  C208  1  0.587300  0.384200  0.233000  1.0  -0.0851
  C  C209  1  0.610100  0.427400  0.204700  1.0  -0.0907
  C  C210  1  0.581000  0.479400  0.205400  1.0  -0.1115
  C  C211  1  0.528500  0.487900  0.234500  1.0  0.1369
  C  C212  1  0.496100  0.544400  0.242300  1.0  0.6011
  C  C213  1  0.506400  0.355300  0.294800  1.0  0.6939
  C  C214  1  0.272200  0.734400  0.996500  1.0  0.1347
  C  C215  1  0.318000  0.757400  0.025200  1.0  -0.1147
  C  C216  1  0.296100  0.779400  0.065300  1.0  -0.0968
  C  C217  1  0.232200  0.777400  0.076600  1.0  -0.1362
  C  C218  1  0.186900  0.754200  0.044400  1.0  0.0723
  C  C219  1  0.288000  0.711300  0.951100  1.0  0.6286
  C  C220  1  0.115100  0.750800  0.053400  1.0  0.7044
  C  C221  1  0.714600  0.970500  0.877600  1.0  0.1466
  C  C222  1  0.773200  0.958500  0.898600  1.0  -0.073
  C  C223  1  0.825400  0.998200  0.894000  1.0  -0.1587
  C  C224  1  0.813700  0.048800  0.870300  1.0  -0.1379
  C  C225  1  0.750600  0.056300  0.850800  1.0  0.1103
  C  C226  1  0.655800  0.933400  0.882300  1.0  0.639
  C  C227  1  0.727200  0.110400  0.829700  1.0  0.6257
  C  C228  1  0.466400  0.104400  0.760700  1.0  0.135
  C  C229  1  0.412700  0.115800  0.733000  1.0  -0.0827
  C  C230  1  0.389900  0.072600  0.704700  1.0  -0.0908
  C  C231  1  0.419000  0.020600  0.705400  1.0  -0.1134
  C  C232  1  0.471500  0.012100  0.734500  1.0  0.1363
  C  C233  1  0.503900  0.955600  0.742300  1.0  0.6031
  C  C234  1  0.493600  0.144700  0.794800  1.0  0.6925
  C  C235  1  0.227800  0.234400  0.003500  1.0  0.1335
  C  C236  1  0.182000  0.257400  0.974800  1.0  -0.1175
  C  C237  1  0.203900  0.279400  0.934700  1.0  -0.099
  C  C238  1  0.267800  0.277400  0.923400  1.0  -0.1351
  C  C239  1  0.313100  0.254200  0.955600  1.0  0.0721
  C  C240  1  0.212000  0.211300  0.048900  1.0  0.628
  C  C241  1  0.384900  0.250800  0.946600  1.0  0.7065
  C  C242  1  0.785400  0.470500  0.122400  1.0  0.1477
  C  C243  1  0.726800  0.458500  0.101400  1.0  -0.0737
  C  C244  1  0.674600  0.498200  0.106000  1.0  -0.1591
  C  C245  1  0.686300  0.548800  0.129700  1.0  -0.139
  C  C246  1  0.749400  0.556300  0.149200  1.0  0.1105
  C  C247  1  0.844200  0.433400  0.117700  1.0  0.6408
  C  C248  1  0.772800  0.610400  0.170300  1.0  0.6266
  C  C249  1  0.033600  0.604400  0.239300  1.0  0.1341
  C  C250  1  0.087300  0.615800  0.267000  1.0  -0.0826
  C  C251  1  0.110100  0.572600  0.295300  1.0  -0.0903
  C  C252  1  0.081000  0.520600  0.294600  1.0  -0.112
  C  C253  1  0.028500  0.512100  0.265500  1.0  0.1354
  C  C254  1  0.996100  0.455600  0.257700  1.0  0.6022
  C  C255  1  0.006400  0.644700  0.205200  1.0  0.6942
  C  C256  1  0.772200  0.265600  0.503500  1.0  0.1328
  C  C257  1  0.818000  0.242600  0.474800  1.0  -0.1144
  C  C258  1  0.796100  0.220600  0.434700  1.0  -0.0965
  C  C259  1  0.732200  0.222600  0.423400  1.0  -0.1347
  C  C260  1  0.686900  0.245800  0.455600  1.0  0.0716
  C  C261  1  0.788000  0.288700  0.548900  1.0  0.6278
  C  C262  1  0.615100  0.249200  0.446600  1.0  0.7055
  C  C263  1  0.214600  0.029500  0.622400  1.0  0.1476
  C  C264  1  0.273200  0.041500  0.601400  1.0  -0.0738
  C  C265  1  0.325400  0.001800  0.606000  1.0  -0.1597
  C  C266  1  0.313700  0.951200  0.629700  1.0  -0.1394
  C  C267  1  0.250600  0.943700  0.649200  1.0  0.1093
  C  C268  1  0.155800  0.066600  0.617700  1.0  0.6384
  C  C269  1  0.227200  0.889600  0.670300  1.0  0.6267
  C  C270  1  0.966400  0.895600  0.739300  1.0  0.1362
  C  C271  1  0.912700  0.884200  0.767000  1.0  -0.0837
  C  C272  1  0.889900  0.927400  0.795300  1.0  -0.0907
  C  C273  1  0.919000  0.979400  0.794600  1.0  -0.1119
  C  C274  1  0.971500  0.987900  0.765500  1.0  0.1364
  C  C275  1  0.003900  0.044400  0.757700  1.0  0.6022
  C  C276  1  0.993600  0.855300  0.705200  1.0  0.6933
  C  C277  1  0.272200  0.234400  0.503500  1.0  0.134
  C  C278  1  0.318000  0.257400  0.474800  1.0  -0.1148
  C  C279  1  0.296100  0.279400  0.434700  1.0  -0.0967
  C  C280  1  0.232200  0.277400  0.423400  1.0  -0.1351
  C  C281  1  0.186900  0.254200  0.455600  1.0  0.0723
  C  C282  1  0.288000  0.211300  0.548900  1.0  0.6283
  C  C283  1  0.115100  0.250800  0.446600  1.0  0.7047
  C  C284  1  0.714600  0.470500  0.622400  1.0  0.1468
  C  C285  1  0.773200  0.458500  0.601400  1.0  -0.0737
  C  C286  1  0.825400  0.498200  0.606000  1.0  -0.1591
  C  C287  1  0.813700  0.548800  0.629700  1.0  -0.1376
  C  C288  1  0.750600  0.556300  0.649200  1.0  0.1098
  C  C289  1  0.655800  0.433400  0.617700  1.0  0.639
  C  C290  1  0.727200  0.610400  0.670300  1.0  0.6251
  C  C291  1  0.466400  0.604400  0.739300  1.0  0.1349
  C  C292  1  0.412700  0.615800  0.767000  1.0  -0.083
  C  C293  1  0.389900  0.572600  0.795300  1.0  -0.0918
  C  C294  1  0.419000  0.520600  0.794600  1.0  -0.1128
  C  C295  1  0.471500  0.512100  0.765500  1.0  0.136
  C  C296  1  0.503900  0.455600  0.757700  1.0  0.6026
  C  C297  1  0.493600  0.644700  0.705200  1.0  0.6927
  C  C298  1  0.727800  0.265600  0.003500  1.0  0.1326
  C  C299  1  0.682000  0.242600  0.974800  1.0  -0.1175
  C  C300  1  0.703900  0.220600  0.934700  1.0  -0.099
  C  C301  1  0.767800  0.222600  0.923400  1.0  -0.1346
  C  C302  1  0.813100  0.245800  0.955600  1.0  0.0717
  C  C303  1  0.712000  0.288700  0.048900  1.0  0.6277
  C  C304  1  0.884900  0.249200  0.946600  1.0  0.7072
  C  C305  1  0.285400  0.029500  0.122400  1.0  0.1476
  C  C306  1  0.226800  0.041500  0.101400  1.0  -0.0741
  C  C307  1  0.174600  0.001800  0.106000  1.0  -0.1595
  C  C308  1  0.186300  0.951200  0.129700  1.0  -0.1401
  C  C309  1  0.249400  0.943700  0.149200  1.0  0.1098
  C  C310  1  0.344200  0.066600  0.117700  1.0  0.6406
  C  C311  1  0.272800  0.889600  0.170300  1.0  0.6273
  C  C312  1  0.533600  0.895600  0.239300  1.0  0.1355
  C  C313  1  0.587300  0.884200  0.267000  1.0  -0.0853
  C  C314  1  0.610100  0.927400  0.295300  1.0  -0.0909
  C  C315  1  0.581000  0.979400  0.294600  1.0  -0.1112
  C  C316  1  0.528500  0.987900  0.265500  1.0  0.1364
  C  C317  1  0.496100  0.044400  0.257700  1.0  0.6019
  C  C318  1  0.506400  0.855300  0.205200  1.0  0.6942
  C  C319  1  0.772200  0.765600  0.996500  1.0  0.1338
  C  C320  1  0.818000  0.742600  0.025200  1.0  -0.1146
  C  C321  1  0.796100  0.720600  0.065300  1.0  -0.096
  C  C322  1  0.732200  0.722600  0.076600  1.0  -0.1358
  C  C323  1  0.686900  0.745800  0.044400  1.0  0.0718
  C  C324  1  0.788000  0.788700  0.951100  1.0  0.6279
  C  C325  1  0.615100  0.749200  0.053400  1.0  0.7053
  C  C326  1  0.214600  0.529500  0.877600  1.0  0.1476
  C  C327  1  0.273200  0.541500  0.898600  1.0  -0.0739
  C  C328  1  0.325400  0.501800  0.894000  1.0  -0.1594
  C  C329  1  0.313700  0.451200  0.870300  1.0  -0.1398
  C  C330  1  0.250600  0.443700  0.850800  1.0  0.1096
  C  C331  1  0.155800  0.566600  0.882300  1.0  0.6385
  C  C332  1  0.227200  0.389600  0.829700  1.0  0.6262
  C  C333  1  0.966400  0.395600  0.760700  1.0  0.1361
  C  C334  1  0.912700  0.384200  0.733000  1.0  -0.0834
  C  C335  1  0.889900  0.427400  0.704700  1.0  -0.0904
  C  C336  1  0.919000  0.479400  0.705400  1.0  -0.1122
  C  C337  1  0.971500  0.487900  0.734500  1.0  0.1368
  C  C338  1  0.003900  0.544400  0.742300  1.0  0.6017
  C  C339  1  0.993600  0.355300  0.794800  1.0  0.6938
  C  C340  1  0.227800  0.734400  0.496500  1.0  0.1342
  C  C341  1  0.182000  0.757400  0.525200  1.0  -0.1169
  C  C342  1  0.203900  0.779400  0.565300  1.0  -0.099
  C  C343  1  0.267800  0.777400  0.576600  1.0  -0.1345
  C  C344  1  0.313100  0.754200  0.544400  1.0  0.0718
  C  C345  1  0.212000  0.711300  0.451100  1.0  0.6292
  C  C346  1  0.384900  0.750800  0.553400  1.0  0.7065
  C  C347  1  0.785400  0.970500  0.377600  1.0  0.1476
  C  C348  1  0.726800  0.958500  0.398600  1.0  -0.0731
  C  C349  1  0.674600  0.998200  0.394000  1.0  -0.1592
  C  C350  1  0.686300  0.048800  0.370300  1.0  -0.1391
  C  C351  1  0.749400  0.056300  0.350800  1.0  0.111
  C  C352  1  0.844200  0.933400  0.382300  1.0  0.6407
  C  C353  1  0.772800  0.110400  0.329700  1.0  0.627
  C  C354  1  0.033600  0.104400  0.260700  1.0  0.1342
  C  C355  1  0.087300  0.115800  0.233000  1.0  -0.0825
  C  C356  1  0.110100  0.072600  0.204700  1.0  -0.0894
  C  C357  1  0.081000  0.020600  0.205400  1.0  -0.1127
  C  C358  1  0.028500  0.012100  0.234500  1.0  0.1358
  C  C359  1  0.996100  0.955600  0.242300  1.0  0.6027
  C  C360  1  0.006400  0.144700  0.294800  1.0  0.693
  N  N361  1  0.504600  0.446600  0.261200  1.0  -0.4277
  N  N362  1  0.296900  0.481700  0.354000  1.0  -0.3947
  N  N363  1  0.792000  0.767500  0.505500  1.0  -0.4299
  N  N364  1  0.495400  0.053400  0.761200  1.0  -0.4274
  N  N365  1  0.703100  0.018300  0.854000  1.0  -0.3961
  N  N366  1  0.208000  0.732500  0.005500  1.0  -0.4319
  N  N367  1  0.004600  0.553400  0.238800  1.0  -0.4287
  N  N368  1  0.796900  0.518300  0.146000  1.0  -0.3947
  N  N369  1  0.292000  0.232500  0.994500  1.0  -0.4281
  N  N370  1  0.995400  0.946600  0.738800  1.0  -0.4286
  N  N371  1  0.203100  0.981700  0.646000  1.0  -0.3964
  N  N372  1  0.708000  0.267500  0.494500  1.0  -0.4298
  N  N373  1  0.495400  0.553400  0.738800  1.0  -0.4289
  N  N374  1  0.703100  0.518300  0.646000  1.0  -0.3961
  N  N375  1  0.208000  0.232500  0.494500  1.0  -0.4298
  N  N376  1  0.504600  0.946600  0.238800  1.0  -0.4288
  N  N377  1  0.296900  0.981700  0.146000  1.0  -0.3943
  N  N378  1  0.792000  0.267500  0.994500  1.0  -0.4284
  N  N379  1  0.995400  0.446600  0.761200  1.0  -0.4271
  N  N380  1  0.203100  0.481700  0.854000  1.0  -0.3965
  N  N381  1  0.708000  0.767500  0.005500  1.0  -0.431
  N  N382  1  0.004600  0.053400  0.261200  1.0  -0.4273
  N  N383  1  0.796900  0.018300  0.354000  1.0  -0.3949
  N  N384  1  0.292000  0.732500  0.505500  1.0  -0.43
  O  O385  1  0.697500  0.463000  0.389100  1.0  -0.8625
  O  O386  1  0.747200  0.570700  0.419300  1.0  -0.939
  O  O387  1  0.776600  0.532400  0.325900  1.0  -0.879
  O  O388  1  0.839200  0.477500  0.400900  1.0  -0.8815
  O  O389  1  0.927600  0.488000  0.460400  1.0  -0.7134
  O  O390  1  0.328700  0.386400  0.316500  1.0  -0.625
  O  O391  1  0.530200  0.306000  0.299100  1.0  -0.6771
  O  O392  1  0.395200  0.552700  0.363200  1.0  -0.6077
  O  O393  1  0.917100  0.342600  0.352000  1.0  -0.8173
  O  O394  1  0.860100  0.703300  0.435700  1.0  -0.8198
  O  O395  1  0.762900  0.413400  0.463800  1.0  -0.7542
  O  O396  1  0.768200  0.622600  0.279000  1.0  -0.6459
  O  O397  1  0.610600  0.557100  0.399800  1.0  -0.7512
  O  O398  1  0.515100  0.584300  0.213500  1.0  -0.4894
  O  O399  1  0.460700  0.374600  0.319600  1.0  -0.6825
  O  O400  1  0.678500  0.621100  0.344400  1.0  -0.701
  O  O401  1  0.724400  0.520800  0.248500  1.0  -0.6758
  O  O402  1  0.804100  0.511100  0.494000  1.0  -0.6602
  O  O403  1  0.673100  0.359500  0.409800  1.0  -0.6621
  O  O404  1  0.229700  0.349200  0.324300  1.0  -0.4835
  O  O405  1  0.641500  0.383900  0.498400  1.0  -0.773
  O  O406  1  0.731300  0.423200  0.298200  1.0  -0.684
  O  O407  1  0.337400  0.613200  0.405900  1.0  -0.7428
  O  O408  1  0.855300  0.439700  0.311700  1.0  -0.75
  O  O409  1  0.885600  0.586500  0.427400  1.0  -0.7515
  O  O410  1  0.825900  0.637900  0.360600  1.0  -0.7857
  O  O411  1  0.515000  0.490600  0.356800  1.0  -0.7871
  O  O412  1  0.679500  0.495700  0.480800  1.0  -0.7314
  O  O413  1  0.457300  0.551100  0.272500  1.0  -0.5687
  O  O414  1  0.854900  0.536300  0.260400  1.0  -0.7397
  O  O415  1  0.903600  0.733200  0.591500  1.0  -0.7666
  O  O416  1  0.951400  0.450600  0.375000  1.0  -0.6851
  O  O417  1  0.792100  0.624600  0.485400  1.0  -0.6921
  O  O418  1  0.906900  0.556100  0.343200  1.0  -0.6872
  O  O419  1  0.786300  0.373100  0.365900  1.0  -0.7211
  O  O420  1  0.733700  0.675800  0.415700  1.0  -0.7144
  O  O421  1  0.661400  0.610200  0.472200  1.0  -0.6297
  O  O422  1  0.588400  0.446100  0.427100  1.0  -0.6428
  O  O423  1  0.635000  0.521900  0.317200  1.0  -0.7184
  O  O424  1  0.611800  0.413300  0.339700  1.0  -0.7563
  O  O425  1  0.880400  0.384500  0.433500  1.0  -0.6853
  O  O426  1  0.753800  0.806400  0.426300  1.0  -0.6125
  O  O427  1  0.919400  0.768000  0.522200  1.0  -0.6543
  O  O428  1  0.649500  0.790900  0.442400  1.0  -0.4596
  O  O429  1  0.302500  0.037000  0.889100  1.0  -0.8627
  O  O430  1  0.252800  0.929300  0.919300  1.0  -0.9378
  O  O431  1  0.223400  0.967600  0.825900  1.0  -0.8788
  O  O432  1  0.160800  0.022500  0.900900  1.0  -0.8817
  O  O433  1  0.072400  0.012000  0.960400  1.0  -0.7135
  O  O434  1  0.671300  0.113600  0.816500  1.0  -0.6268
  O  O435  1  0.469800  0.194000  0.799100  1.0  -0.6799
  O  O436  1  0.604800  0.947300  0.863200  1.0  -0.6081
  O  O437  1  0.082900  0.157400  0.852000  1.0  -0.8181
  O  O438  1  0.139900  0.796700  0.935700  1.0  -0.8213
  O  O439  1  0.237100  0.086600  0.963800  1.0  -0.7549
  O  O440  1  0.231800  0.877400  0.779000  1.0  -0.6553
  O  O441  1  0.389400  0.942900  0.899800  1.0  -0.7523
  O  O442  1  0.484900  0.915700  0.713500  1.0  -0.4882
  O  O443  1  0.539300  0.125400  0.819600  1.0  -0.6843
  O  O444  1  0.321500  0.878900  0.844400  1.0  -0.7
  O  O445  1  0.275600  0.979200  0.748500  1.0  -0.6757
  O  O446  1  0.195900  0.988900  0.994000  1.0  -0.6613
  O  O447  1  0.326900  0.140500  0.909800  1.0  -0.663
  O  O448  1  0.770300  0.150800  0.824300  1.0  -0.481
  O  O449  1  0.358500  0.116100  0.998400  1.0  -0.7743
  O  O450  1  0.268700  0.076800  0.798200  1.0  -0.6833
  O  O451  1  0.662600  0.886800  0.905900  1.0  -0.745
  O  O452  1  0.144700  0.060300  0.811700  1.0  -0.7536
  O  O453  1  0.114400  0.913500  0.927400  1.0  -0.7519
  O  O454  1  0.174100  0.862100  0.860600  1.0  -0.7842
  O  O455  1  0.485000  0.009400  0.856800  1.0  -0.7878
  O  O456  1  0.320500  0.004300  0.980800  1.0  -0.7293
  O  O457  1  0.542700  0.948900  0.772500  1.0  -0.5681
  O  O458  1  0.145100  0.963700  0.760400  1.0  -0.7396
  O  O459  1  0.096400  0.766800  0.091500  1.0  -0.7643
  O  O460  1  0.048600  0.049400  0.875000  1.0  -0.6851
  O  O461  1  0.207900  0.875400  0.985400  1.0  -0.6924
  O  O462  1  0.093100  0.943900  0.843200  1.0  -0.6853
  O  O463  1  0.213700  0.126900  0.865900  1.0  -0.7237
  O  O464  1  0.266300  0.824200  0.915700  1.0  -0.7145
  O  O465  1  0.338600  0.889800  0.972200  1.0  -0.6304
  O  O466  1  0.411600  0.053900  0.927100  1.0  -0.6453
  O  O467  1  0.365000  0.978100  0.817200  1.0  -0.7172
  O  O468  1  0.388200  0.086700  0.839700  1.0  -0.7564
  O  O469  1  0.119600  0.115500  0.933500  1.0  -0.6859
  O  O470  1  0.246200  0.693600  0.926300  1.0  -0.6131
  O  O471  1  0.080600  0.732000  0.022200  1.0  -0.6552
  O  O472  1  0.350500  0.709100  0.942400  1.0  -0.4603
  O  O473  1  0.197500  0.537000  0.110900  1.0  -0.8632
  O  O474  1  0.247200  0.429300  0.080700  1.0  -0.9362
  O  O475  1  0.276600  0.467600  0.174100  1.0  -0.8806
  O  O476  1  0.339200  0.522500  0.099100  1.0  -0.8811
  O  O477  1  0.427600  0.512000  0.039600  1.0  -0.7136
  O  O478  1  0.828700  0.613600  0.183500  1.0  -0.6252
  O  O479  1  0.030200  0.694000  0.200900  1.0  -0.6791
  O  O480  1  0.895200  0.447300  0.136800  1.0  -0.6095
  O  O481  1  0.417100  0.657400  0.148000  1.0  -0.8168
  O  O482  1  0.360100  0.296700  0.064300  1.0  -0.8183
  O  O483  1  0.262900  0.586600  0.036200  1.0  -0.7541
  O  O484  1  0.268200  0.377400  0.221000  1.0  -0.6558
  O  O485  1  0.110600  0.442900  0.100200  1.0  -0.7519
  O  O486  1  0.015100  0.415700  0.286500  1.0  -0.4885
  O  O487  1  0.960700  0.625400  0.180400  1.0  -0.6851
  O  O488  1  0.178500  0.378900  0.155600  1.0  -0.701
  O  O489  1  0.224400  0.479200  0.251500  1.0  -0.6733
  O  O490  1  0.304100  0.488900  0.006000  1.0  -0.6594
  O  O491  1  0.173100  0.640500  0.090200  1.0  -0.6615
  O  O492  1  0.729700  0.650800  0.175700  1.0  -0.4829
  O  O493  1  0.141500  0.616100  0.001600  1.0  -0.7736
  O  O494  1  0.231300  0.576800  0.201800  1.0  -0.6841
  O  O495  1  0.837400  0.386800  0.094100  1.0  -0.7443
  O  O496  1  0.355300  0.560300  0.188300  1.0  -0.7505
  O  O497  1  0.385600  0.413500  0.072600  1.0  -0.7514
  O  O498  1  0.325900  0.362100  0.139400  1.0  -0.783
  O  O499  1  0.015000  0.509400  0.143200  1.0  -0.7867
  O  O500  1  0.179500  0.504300  0.019200  1.0  -0.7321
  O  O501  1  0.957300  0.448900  0.227500  1.0  -0.5702
  O  O502  1  0.354900  0.463700  0.239600  1.0  -0.7371
  O  O503  1  0.403600  0.266800  0.908500  1.0  -0.7652
  O  O504  1  0.451400  0.549400  0.125000  1.0  -0.6846
  O  O505  1  0.292100  0.375400  0.014600  1.0  -0.6912
  O  O506  1  0.406900  0.443900  0.156800  1.0  -0.6873
  O  O507  1  0.286300  0.626900  0.134100  1.0  -0.7214
  O  O508  1  0.233700  0.324200  0.084300  1.0  -0.7144
  O  O509  1  0.161400  0.389800  0.027800  1.0  -0.6321
  O  O510  1  0.088400  0.553900  0.072900  1.0  -0.6434
  O  O511  1  0.135000  0.478100  0.182800  1.0  -0.7177
  O  O512  1  0.111800  0.586700  0.160300  1.0  -0.7569
  O  O513  1  0.380400  0.615500  0.066500  1.0  -0.6865
  O  O514  1  0.253800  0.193600  0.073700  1.0  -0.6119
  O  O515  1  0.419400  0.232000  0.977800  1.0  -0.6562
  O  O516  1  0.149500  0.209100  0.057600  1.0  -0.46
  O  O517  1  0.802500  0.963000  0.610900  1.0  -0.8627
  O  O518  1  0.752800  0.070700  0.580700  1.0  -0.9376
  O  O519  1  0.723400  0.032400  0.674100  1.0  -0.8808
  O  O520  1  0.660800  0.977500  0.599100  1.0  -0.8812
  O  O521  1  0.572400  0.988000  0.539600  1.0  -0.7144
  O  O522  1  0.171300  0.886400  0.683500  1.0  -0.626
  O  O523  1  0.969800  0.806000  0.700900  1.0  -0.6793
  O  O524  1  0.104800  0.052700  0.636800  1.0  -0.6087
  O  O525  1  0.582900  0.842600  0.648000  1.0  -0.8164
  O  O526  1  0.639900  0.203300  0.564300  1.0  -0.8197
  O  O527  1  0.737100  0.913400  0.536200  1.0  -0.7557
  O  O528  1  0.731800  0.122600  0.721000  1.0  -0.6439
  O  O529  1  0.889400  0.057100  0.600200  1.0  -0.7526
  O  O530  1  0.984900  0.084300  0.786500  1.0  -0.4904
  O  O531  1  0.039300  0.874600  0.680400  1.0  -0.6839
  O  O532  1  0.821500  0.121100  0.655600  1.0  -0.6984
  O  O533  1  0.775600  0.020800  0.751500  1.0  -0.6733
  O  O534  1  0.695900  0.011100  0.506000  1.0  -0.66
  O  O535  1  0.826900  0.859500  0.590200  1.0  -0.6629
  O  O536  1  0.270300  0.849200  0.675700  1.0  -0.4798
  O  O537  1  0.858500  0.883900  0.501600  1.0  -0.774
  O  O538  1  0.768700  0.923200  0.701800  1.0  -0.6847
  O  O539  1  0.162600  0.113200  0.594100  1.0  -0.744
  O  O540  1  0.644700  0.939700  0.688300  1.0  -0.7499
  O  O541  1  0.614400  0.086500  0.572600  1.0  -0.7522
  O  O542  1  0.674100  0.137900  0.639400  1.0  -0.7851
  O  O543  1  0.985000  0.990600  0.643200  1.0  -0.7877
  O  O544  1  0.820500  0.995700  0.519200  1.0  -0.7301
  O  O545  1  0.042700  0.051100  0.727500  1.0  -0.5692
  O  O546  1  0.645100  0.036300  0.739600  1.0  -0.7386
  O  O547  1  0.596400  0.233200  0.408500  1.0  -0.7665
  O  O548  1  0.548600  0.950600  0.625000  1.0  -0.6837
  O  O549  1  0.707900  0.124600  0.514600  1.0  -0.691
  O  O550  1  0.593100  0.056100  0.656800  1.0  -0.6863
  O  O551  1  0.713700  0.873100  0.634100  1.0  -0.7208
  O  O552  1  0.766300  0.175800  0.584300  1.0  -0.7145
  O  O553  1  0.838600  0.110200  0.527800  1.0  -0.6328
  O  O554  1  0.911600  0.946100  0.572900  1.0  -0.6463
  O  O555  1  0.865000  0.021900  0.682800  1.0  -0.7175
  O  O556  1  0.888200  0.913300  0.660300  1.0  -0.7565
  O  O557  1  0.619600  0.884500  0.566500  1.0  -0.6857
  O  O558  1  0.746200  0.306400  0.573700  1.0  -0.6124
  O  O559  1  0.580600  0.268000  0.477800  1.0  -0.6538
  O  O560  1  0.850500  0.290900  0.557600  1.0  -0.4601
  O  O561  1  0.302500  0.537000  0.610900  1.0  -0.8628
  O  O562  1  0.252800  0.429300  0.580700  1.0  -0.9365
  O  O563  1  0.223400  0.467600  0.674100  1.0  -0.8806
  O  O564  1  0.160800  0.522500  0.599100  1.0  -0.8812
  O  O565  1  0.072400  0.512000  0.539600  1.0  -0.7143
  O  O566  1  0.671300  0.613600  0.683500  1.0  -0.6265
  O  O567  1  0.469800  0.694000  0.700900  1.0  -0.6795
  O  O568  1  0.604800  0.447300  0.636800  1.0  -0.6086
  O  O569  1  0.082900  0.657400  0.648000  1.0  -0.8167
  O  O570  1  0.139900  0.296700  0.564300  1.0  -0.8189
  O  O571  1  0.237100  0.586600  0.536200  1.0  -0.7553
  O  O572  1  0.231800  0.377400  0.721000  1.0  -0.6551
  O  O573  1  0.389400  0.442900  0.600200  1.0  -0.7526
  O  O574  1  0.484900  0.415700  0.786500  1.0  -0.4888
  O  O575  1  0.539300  0.625400  0.680400  1.0  -0.6848
  O  O576  1  0.321500  0.378900  0.655600  1.0  -0.7
  O  O577  1  0.275600  0.479200  0.751500  1.0  -0.6733
  O  O578  1  0.195900  0.488900  0.506000  1.0  -0.6607
  O  O579  1  0.326900  0.640500  0.590200  1.0  -0.663
  O  O580  1  0.770300  0.650800  0.675700  1.0  -0.4795
  O  O581  1  0.358500  0.616100  0.501600  1.0  -0.774
  O  O582  1  0.268700  0.576800  0.701800  1.0  -0.6836
  O  O583  1  0.662600  0.386800  0.594100  1.0  -0.7447
  O  O584  1  0.144700  0.560300  0.688300  1.0  -0.752
  O  O585  1  0.114400  0.413500  0.572600  1.0  -0.7528
  O  O586  1  0.174100  0.362100  0.639400  1.0  -0.7833
  O  O587  1  0.485000  0.509400  0.643200  1.0  -0.7878
  O  O588  1  0.320500  0.504300  0.519200  1.0  -0.7298
  O  O589  1  0.542700  0.448900  0.727500  1.0  -0.5698
  O  O590  1  0.145100  0.463700  0.739600  1.0  -0.7376
  O  O591  1  0.096400  0.266800  0.408500  1.0  -0.7654
  O  O592  1  0.048600  0.549400  0.625000  1.0  -0.6841
  O  O593  1  0.207900  0.375400  0.514600  1.0  -0.6911
  O  O594  1  0.093100  0.443900  0.656800  1.0  -0.6855
  O  O595  1  0.213700  0.626900  0.634100  1.0  -0.7223
  O  O596  1  0.266300  0.324200  0.584300  1.0  -0.7149
  O  O597  1  0.338600  0.389800  0.527800  1.0  -0.6322
  O  O598  1  0.411600  0.553900  0.572900  1.0  -0.6467
  O  O599  1  0.365000  0.478100  0.682800  1.0  -0.7171
  O  O600  1  0.388200  0.586700  0.660300  1.0  -0.7562
  O  O601  1  0.119600  0.615500  0.566500  1.0  -0.6869
  O  O602  1  0.246200  0.193600  0.573700  1.0  -0.6121
  O  O603  1  0.080600  0.232000  0.477800  1.0  -0.6534
  O  O604  1  0.350500  0.209100  0.557600  1.0  -0.461
  O  O605  1  0.697500  0.963000  0.110900  1.0  -0.8627
  O  O606  1  0.747200  0.070700  0.080700  1.0  -0.9374
  O  O607  1  0.776600  0.032400  0.174100  1.0  -0.8808
  O  O608  1  0.839200  0.977500  0.099100  1.0  -0.8813
  O  O609  1  0.927600  0.988000  0.039600  1.0  -0.7139
  O  O610  1  0.328700  0.886400  0.183500  1.0  -0.6251
  O  O611  1  0.530200  0.806000  0.200900  1.0  -0.6771
  O  O612  1  0.395200  0.052700  0.136800  1.0  -0.6085
  O  O613  1  0.917100  0.842600  0.148000  1.0  -0.8169
  O  O614  1  0.860100  0.203300  0.064300  1.0  -0.8189
  O  O615  1  0.762900  0.913400  0.036200  1.0  -0.7545
  O  O616  1  0.768200  0.122600  0.221000  1.0  -0.644
  O  O617  1  0.610600  0.057100  0.100200  1.0  -0.7528
  O  O618  1  0.515100  0.084300  0.286500  1.0  -0.4899
  O  O619  1  0.460700  0.874600  0.180400  1.0  -0.6828
  O  O620  1  0.678500  0.121100  0.155600  1.0  -0.6997
  O  O621  1  0.724400  0.020800  0.251500  1.0  -0.6735
  O  O622  1  0.804100  0.011100  0.006000  1.0  -0.659
  O  O623  1  0.673100  0.859500  0.090200  1.0  -0.6622
  O  O624  1  0.229700  0.849200  0.175700  1.0  -0.4821
  O  O625  1  0.641500  0.883900  0.001600  1.0  -0.774
  O  O626  1  0.731300  0.923200  0.201800  1.0  -0.686
  O  O627  1  0.337400  0.113200  0.094100  1.0  -0.7422
  O  O628  1  0.855300  0.939700  0.188300  1.0  -0.749
  O  O629  1  0.885600  0.086500  0.072600  1.0  -0.7508
  O  O630  1  0.825900  0.137900  0.139400  1.0  -0.7842
  O  O631  1  0.515000  0.990600  0.143200  1.0  -0.7867
  O  O632  1  0.679500  0.995700  0.019200  1.0  -0.733
  O  O633  1  0.457300  0.051100  0.227500  1.0  -0.5695
  O  O634  1  0.854900  0.036300  0.239600  1.0  -0.7382
  O  O635  1  0.903600  0.233200  0.908500  1.0  -0.7656
  O  O636  1  0.951400  0.950600  0.125000  1.0  -0.6842
  O  O637  1  0.792100  0.124600  0.014600  1.0  -0.6912
  O  O638  1  0.906900  0.056100  0.156800  1.0  -0.6879
  O  O639  1  0.786300  0.873100  0.134100  1.0  -0.7204
  O  O640  1  0.733700  0.175800  0.084300  1.0  -0.7144
  O  O641  1  0.661400  0.110200  0.027800  1.0  -0.6321
  O  O642  1  0.588400  0.946100  0.072900  1.0  -0.6434
  O  O643  1  0.635000  0.021900  0.182800  1.0  -0.7179
  O  O644  1  0.611800  0.913300  0.160300  1.0  -0.7564
  O  O645  1  0.880400  0.884500  0.066500  1.0  -0.685
  O  O646  1  0.753800  0.306400  0.073700  1.0  -0.6123
  O  O647  1  0.919400  0.268000  0.977800  1.0  -0.6563
  O  O648  1  0.649500  0.290900  0.057600  1.0  -0.4599
  O  O649  1  0.802500  0.463000  0.889100  1.0  -0.8624
  O  O650  1  0.752800  0.570700  0.919300  1.0  -0.9392
  O  O651  1  0.723400  0.532400  0.825900  1.0  -0.879
  O  O652  1  0.660800  0.477500  0.900900  1.0  -0.8815
  O  O653  1  0.572400  0.488000  0.960400  1.0  -0.7137
  O  O654  1  0.171300  0.386400  0.816500  1.0  -0.6258
  O  O655  1  0.969800  0.306000  0.799100  1.0  -0.6794
  O  O656  1  0.104800  0.552700  0.863200  1.0  -0.6085
  O  O657  1  0.582900  0.342600  0.852000  1.0  -0.817
  O  O658  1  0.639900  0.703300  0.935700  1.0  -0.8223
  O  O659  1  0.737100  0.413400  0.963800  1.0  -0.7555
  O  O660  1  0.731800  0.622600  0.779000  1.0  -0.6456
  O  O661  1  0.889400  0.557100  0.899800  1.0  -0.7526
  O  O662  1  0.984900  0.584300  0.713500  1.0  -0.49
  O  O663  1  0.039300  0.374600  0.819600  1.0  -0.6832
  O  O664  1  0.821500  0.621100  0.844400  1.0  -0.6991
  O  O665  1  0.775600  0.520800  0.748500  1.0  -0.6758
  O  O666  1  0.695900  0.511100  0.994000  1.0  -0.6609
  O  O667  1  0.826900  0.359500  0.909800  1.0  -0.6629
  O  O668  1  0.270300  0.349200  0.824300  1.0  -0.4802
  O  O669  1  0.858500  0.383900  0.998400  1.0  -0.7744
  O  O670  1  0.768700  0.423200  0.798200  1.0  -0.683
  O  O671  1  0.162600  0.613200  0.905900  1.0  -0.7443
  O  O672  1  0.644700  0.439700  0.811700  1.0  -0.7508
  O  O673  1  0.614400  0.586500  0.927400  1.0  -0.7514
  O  O674  1  0.674100  0.637900  0.860600  1.0  -0.787
  O  O675  1  0.985000  0.490600  0.856800  1.0  -0.7876
  O  O676  1  0.820500  0.495700  0.980800  1.0  -0.7297
  O  O677  1  0.042700  0.551100  0.772500  1.0  -0.5679
  O  O678  1  0.645100  0.536300  0.760400  1.0  -0.7401
  O  O679  1  0.596400  0.733200  0.091500  1.0  -0.7635
  O  O680  1  0.548600  0.450600  0.875000  1.0  -0.6848
  O  O681  1  0.707900  0.624600  0.985400  1.0  -0.6922
  O  O682  1  0.593100  0.556100  0.843200  1.0  -0.6858
  O  O683  1  0.713700  0.373100  0.865900  1.0  -0.7214
  O  O684  1  0.766300  0.675800  0.915700  1.0  -0.7148
  O  O685  1  0.838600  0.610200  0.972200  1.0  -0.6311
  O  O686  1  0.911600  0.446100  0.927100  1.0  -0.6454
  O  O687  1  0.865000  0.521900  0.817200  1.0  -0.7177
  O  O688  1  0.888200  0.413300  0.839700  1.0  -0.7565
  O  O689  1  0.619600  0.384500  0.933500  1.0  -0.6855
  O  O690  1  0.746200  0.806400  0.926300  1.0  -0.6127
  O  O691  1  0.580600  0.768000  0.022200  1.0  -0.6556
  O  O692  1  0.850500  0.790900  0.942400  1.0  -0.4592
  O  O693  1  0.197500  0.037000  0.389100  1.0  -0.8631
  O  O694  1  0.247200  0.929300  0.419300  1.0  -0.9374
  O  O695  1  0.276600  0.967600  0.325900  1.0  -0.8789
  O  O696  1  0.339200  0.022500  0.400900  1.0  -0.8813
  O  O697  1  0.427600  0.012000  0.460400  1.0  -0.713
  O  O698  1  0.828700  0.113600  0.316500  1.0  -0.6253
  O  O699  1  0.030200  0.194000  0.299100  1.0  -0.6795
  O  O700  1  0.895200  0.947300  0.363200  1.0  -0.6086
  O  O701  1  0.417100  0.157400  0.352000  1.0  -0.818
  O  O702  1  0.360100  0.796700  0.435700  1.0  -0.8191
  O  O703  1  0.262900  0.086600  0.463800  1.0  -0.7535
  O  O704  1  0.268200  0.877400  0.279000  1.0  -0.6561
  O  O705  1  0.110600  0.942900  0.399800  1.0  -0.7505
  O  O706  1  0.015100  0.915700  0.213500  1.0  -0.4881
  O  O707  1  0.960700  0.125400  0.319600  1.0  -0.6851
  O  O708  1  0.178500  0.878900  0.344400  1.0  -0.7014
  O  O709  1  0.224400  0.979200  0.248500  1.0  -0.6757
  O  O710  1  0.304100  0.988900  0.494000  1.0  -0.6603
  O  O711  1  0.173100  0.140500  0.409800  1.0  -0.6614
  O  O712  1  0.729700  0.150800  0.324300  1.0  -0.4846
  O  O713  1  0.141500  0.116100  0.498400  1.0  -0.7727
  O  O714  1  0.231300  0.076800  0.298200  1.0  -0.6837
  O  O715  1  0.837400  0.886800  0.405900  1.0  -0.745
  O  O716  1  0.355300  0.060300  0.311700  1.0  -0.7522
  O  O717  1  0.385600  0.913500  0.427400  1.0  -0.7521
  O  O718  1  0.325900  0.862100  0.360600  1.0  -0.7836
  O  O719  1  0.015000  0.009400  0.356800  1.0  -0.787
  O  O720  1  0.179500  0.004300  0.480800  1.0  -0.7309
  O  O721  1  0.957300  0.948900  0.272500  1.0  -0.5688
  O  O722  1  0.354900  0.963700  0.260400  1.0  -0.7392
  O  O723  1  0.403600  0.766800  0.591500  1.0  -0.7673
  O  O724  1  0.451400  0.049400  0.375000  1.0  -0.6855
  O  O725  1  0.292100  0.875400  0.485400  1.0  -0.6923
  O  O726  1  0.406900  0.943900  0.343200  1.0  -0.6868
  O  O727  1  0.286300  0.126900  0.365900  1.0  -0.7229
  O  O728  1  0.233700  0.824200  0.415700  1.0  -0.7143
  O  O729  1  0.161400  0.889800  0.472200  1.0  -0.6293
  O  O730  1  0.088400  0.053900  0.427100  1.0  -0.6428
  O  O731  1  0.135000  0.978100  0.317200  1.0  -0.7179
  O  O732  1  0.111800  0.086700  0.339700  1.0  -0.7571
  O  O733  1  0.380400  0.115500  0.433500  1.0  -0.6857
  O  O734  1  0.253800  0.693600  0.426300  1.0  -0.6129
  O  O735  1  0.419400  0.732000  0.522200  1.0  -0.654
  O  O736  1  0.149500  0.709100  0.442400  1.0  -0.4601
