# generated using pymatgen
data_CeH3W4C7NO15
_symmetry_space_group_name_H-M   'P 1'
_cell_length_a   20.48900000
_cell_length_b   23.47200000
_cell_length_c   29.66900000
_cell_angle_alpha   90.00000000
_cell_angle_beta   90.00000000
_cell_angle_gamma   90.00000000
_symmetry_Int_Tables_number   1
_chemical_formula_structural   CeH3W4C7NO15
_chemical_formula_sum   'Ce24 H72 W96 C168 N24 O360'
_cell_volume   14268.35044555
_cell_formula_units_Z   24
loop_
 _symmetry_equiv_pos_site_id
 _symmetry_equiv_pos_as_xyz
  1  'x, y, z'
loop_
 _atom_site_type_symbol
 _atom_site_label
 _atom_site_symmetry_multiplicity
 _atom_site_fract_x
 _atom_site_fract_y
 _atom_site_fract_z
 _atom_site_occupancy
 _atom_site_charge
  Ce  Ce1  1  0.592760  0.029490  0.683960  1.0  2.2317
  Ce  Ce2  1  0.378740  0.193890  0.449030  1.0  2.1978
  Ce  Ce3  1  0.494860  0.269900  0.646030  1.0  1.9461
  Ce  Ce4  1  0.407240  0.470510  0.183960  1.0  2.2317
  Ce  Ce5  1  0.621260  0.306110  0.949030  1.0  2.1965
  Ce  Ce6  1  0.505140  0.230100  0.146030  1.0  1.9458
  Ce  Ce7  1  0.092760  0.970510  0.816040  1.0  2.2308
  Ce  Ce8  1  0.878740  0.806110  0.050970  1.0  2.1978
  Ce  Ce9  1  0.994860  0.730100  0.853970  1.0  1.9461
  Ce  Ce10  1  0.907240  0.529490  0.316040  1.0  2.2306
  Ce  Ce11  1  0.121260  0.693890  0.550970  1.0  2.1977
  Ce  Ce12  1  0.005140  0.769900  0.353970  1.0  1.9463
  Ce  Ce13  1  0.407240  0.970510  0.316040  1.0  2.2307
  Ce  Ce14  1  0.621260  0.806110  0.550970  1.0  2.1976
  Ce  Ce15  1  0.505140  0.730100  0.353970  1.0  1.946
  Ce  Ce16  1  0.592760  0.529490  0.816040  1.0  2.2307
  Ce  Ce17  1  0.378740  0.693890  0.050970  1.0  2.1978
  Ce  Ce18  1  0.494860  0.769900  0.853970  1.0  1.9464
  Ce  Ce19  1  0.907240  0.029490  0.183960  1.0  2.2317
  Ce  Ce20  1  0.121260  0.193890  0.949030  1.0  2.1964
  Ce  Ce21  1  0.005140  0.269900  0.146030  1.0  1.9461
  Ce  Ce22  1  0.092760  0.470510  0.683960  1.0  2.2317
  Ce  Ce23  1  0.878740  0.306110  0.449030  1.0  2.1978
  Ce  Ce24  1  0.994860  0.230100  0.646030  1.0  1.9457
  H  H25  1  0.136700  0.261000  0.520500  1.0  0.1525
  H  H26  1  0.177800  0.296600  0.590900  1.0  0.114
  H  H27  1  0.847700  0.075200  0.631300  1.0  0.1358
  H  H28  1  0.779800  0.926800  0.581700  1.0  0.112
  H  H29  1  0.393700  0.150200  0.767900  1.0  0.1363
  H  H30  1  0.400900  0.991300  0.812000  1.0  0.1262
  H  H31  1  0.867700  0.988600  0.593400  1.0  0.1321
  H  H32  1  0.353700  0.080800  0.812300  1.0  0.119
  H  H33  1  0.287300  0.290800  0.606400  1.0  0.125
  H  H34  1  0.863300  0.239000  0.020500  1.0  0.1512
  H  H35  1  0.822200  0.203400  0.090900  1.0  0.1137
  H  H36  1  0.152300  0.424800  0.131300  1.0  0.1343
  H  H37  1  0.220200  0.573200  0.081700  1.0  0.1113
  H  H38  1  0.606300  0.349800  0.267900  1.0  0.1359
  H  H39  1  0.599100  0.508700  0.312000  1.0  0.126
  H  H40  1  0.132300  0.511400  0.093400  1.0  0.1325
  H  H41  1  0.646300  0.419200  0.312300  1.0  0.1191
  H  H42  1  0.712700  0.209200  0.106400  1.0  0.1254
  H  H43  1  0.636700  0.739000  0.979500  1.0  0.1523
  H  H44  1  0.677800  0.703400  0.909100  1.0  0.1139
  H  H45  1  0.347700  0.924800  0.868700  1.0  0.1359
  H  H46  1  0.279800  0.073200  0.918300  1.0  0.1117
  H  H47  1  0.893700  0.849800  0.732100  1.0  0.1366
  H  H48  1  0.900900  0.008700  0.688000  1.0  0.1266
  H  H49  1  0.367700  0.011400  0.906600  1.0  0.1325
  H  H50  1  0.853700  0.919200  0.687700  1.0  0.1187
  H  H51  1  0.787300  0.709200  0.893600  1.0  0.1255
  H  H52  1  0.363300  0.761000  0.479500  1.0  0.1515
  H  H53  1  0.322200  0.796600  0.409100  1.0  0.1142
  H  H54  1  0.652300  0.575200  0.368700  1.0  0.1351
  H  H55  1  0.720200  0.426800  0.418300  1.0  0.112
  H  H56  1  0.106300  0.650200  0.232100  1.0  0.136
  H  H57  1  0.099100  0.491300  0.188000  1.0  0.1265
  H  H58  1  0.632300  0.488600  0.406600  1.0  0.1322
  H  H59  1  0.146300  0.580800  0.187700  1.0  0.1185
  H  H60  1  0.212700  0.790800  0.393600  1.0  0.125
  H  H61  1  0.863300  0.739000  0.479500  1.0  0.1512
  H  H62  1  0.822200  0.703400  0.409100  1.0  0.1142
  H  H63  1  0.152300  0.924800  0.368700  1.0  0.1346
  H  H64  1  0.220200  0.073200  0.418300  1.0  0.1115
  H  H65  1  0.606300  0.849800  0.232100  1.0  0.136
  H  H66  1  0.599100  0.008700  0.188000  1.0  0.1262
  H  H67  1  0.132300  0.011400  0.406600  1.0  0.1322
  H  H68  1  0.646300  0.919200  0.187700  1.0  0.1184
  H  H69  1  0.712700  0.709200  0.393600  1.0  0.1253
  H  H70  1  0.136700  0.761000  0.979500  1.0  0.1526
  H  H71  1  0.177800  0.796600  0.909100  1.0  0.1141
  H  H72  1  0.847700  0.575200  0.868700  1.0  0.1358
  H  H73  1  0.779800  0.426800  0.918300  1.0  0.1121
  H  H74  1  0.393700  0.650200  0.732100  1.0  0.1366
  H  H75  1  0.400900  0.491300  0.688000  1.0  0.1258
  H  H76  1  0.867700  0.488600  0.906600  1.0  0.1325
  H  H77  1  0.353700  0.580800  0.687700  1.0  0.1189
  H  H78  1  0.287300  0.790800  0.893600  1.0  0.1252
  H  H79  1  0.363300  0.261000  0.020500  1.0  0.1516
  H  H80  1  0.322200  0.296600  0.090900  1.0  0.1137
  H  H81  1  0.652300  0.075200  0.131300  1.0  0.1349
  H  H82  1  0.720200  0.926800  0.081700  1.0  0.1115
  H  H83  1  0.106300  0.150200  0.267900  1.0  0.1357
  H  H84  1  0.099100  0.991300  0.312000  1.0  0.1269
  H  H85  1  0.632300  0.988600  0.093400  1.0  0.1324
  H  H86  1  0.146300  0.080800  0.312300  1.0  0.1189
  H  H87  1  0.212700  0.290800  0.106400  1.0  0.1251
  H  H88  1  0.636700  0.239000  0.520500  1.0  0.1521
  H  H89  1  0.677800  0.203400  0.590900  1.0  0.1138
  H  H90  1  0.347700  0.424800  0.631300  1.0  0.1357
  H  H91  1  0.279800  0.573200  0.581700  1.0  0.1117
  H  H92  1  0.893700  0.349800  0.767900  1.0  0.1365
  H  H93  1  0.900900  0.508700  0.812000  1.0  0.1265
  H  H94  1  0.367700  0.511400  0.593400  1.0  0.1325
  H  H95  1  0.853700  0.419200  0.812300  1.0  0.1191
  H  H96  1  0.787300  0.209200  0.606400  1.0  0.1254
  W  W97  1  0.629670  0.402440  0.632160  1.0  2.3235
  W  W98  1  0.565640  0.523080  0.599810  1.0  1.4074
  W  W99  1  0.402940  0.010070  0.629870  1.0  2.5771
  W  W100  1  0.319360  0.360090  0.425310  1.0  2.5316
  W  W101  1  0.161540  0.370790  0.407930  1.0  1.3363
  W  W102  1  0.650940  0.445540  0.528810  1.0  1.354
  W  W103  1  0.650520  0.098860  0.806930  1.0  1.3323
  W  W104  1  0.808070  0.579160  0.708690  1.0  1.3449
  W  W105  1  0.327020  0.077020  0.548780  1.0  2.5419
  W  W106  1  0.707380  0.475560  0.726200  1.0  2.1761
  W  W107  1  0.230330  0.437810  0.493440  1.0  1.3273
  W  W108  1  0.806530  0.381990  0.652870  1.0  1.406
  W  W109  1  0.370330  0.097560  0.132160  1.0  2.3263
  W  W110  1  0.434360  0.976920  0.099810  1.0  1.4061
  W  W111  1  0.597060  0.489930  0.129870  1.0  2.5778
  W  W112  1  0.680640  0.139910  0.925310  1.0  2.5321
  W  W113  1  0.838460  0.129210  0.907930  1.0  1.34
  W  W114  1  0.349060  0.054460  0.028810  1.0  1.3551
  W  W115  1  0.349480  0.401140  0.306930  1.0  1.3269
  W  W116  1  0.191930  0.920840  0.208690  1.0  1.3396
  W  W117  1  0.672980  0.422980  0.048780  1.0  2.5409
  W  W118  1  0.292620  0.024440  0.226200  1.0  2.1762
  W  W119  1  0.769670  0.062190  0.993440  1.0  1.3278
  W  W120  1  0.193470  0.118010  0.152870  1.0  1.4086
  W  W121  1  0.129670  0.597560  0.867840  1.0  2.3247
  W  W122  1  0.065640  0.476920  0.900190  1.0  1.404
  W  W123  1  0.902940  0.989930  0.870130  1.0  2.5763
  W  W124  1  0.819360  0.639910  0.074690  1.0  2.5319
  W  W125  1  0.661540  0.629210  0.092070  1.0  1.3369
  W  W126  1  0.150940  0.554460  0.971190  1.0  1.3511
  W  W127  1  0.150520  0.901140  0.693070  1.0  1.3251
  W  W128  1  0.308070  0.420840  0.791310  1.0  1.3404
  W  W129  1  0.827020  0.922980  0.951220  1.0  2.5416
  W  W130  1  0.207380  0.524440  0.773800  1.0  2.1762
  W  W131  1  0.730330  0.562190  0.006560  1.0  1.3287
  W  W132  1  0.306530  0.618010  0.847130  1.0  1.4102
  W  W133  1  0.870330  0.902440  0.367840  1.0  2.324
  W  W134  1  0.934360  0.023080  0.400190  1.0  1.4041
  W  W135  1  0.097060  0.510070  0.370130  1.0  2.5781
  W  W136  1  0.180640  0.860090  0.574690  1.0  2.5318
  W  W137  1  0.338460  0.870790  0.592070  1.0  1.3346
  W  W138  1  0.849060  0.945540  0.471190  1.0  1.3511
  W  W139  1  0.849480  0.598860  0.193070  1.0  1.3323
  W  W140  1  0.691930  0.079160  0.291310  1.0  1.3446
  W  W141  1  0.172980  0.577020  0.451220  1.0  2.5427
  W  W142  1  0.792620  0.975560  0.273800  1.0  2.1744
  W  W143  1  0.269670  0.937810  0.506560  1.0  1.3277
  W  W144  1  0.693470  0.881990  0.347130  1.0  1.4044
  W  W145  1  0.370330  0.597560  0.367840  1.0  2.326
  W  W146  1  0.434360  0.476920  0.400190  1.0  1.4029
  W  W147  1  0.597060  0.989930  0.370130  1.0  2.5784
  W  W148  1  0.680640  0.639910  0.574690  1.0  2.5295
  W  W149  1  0.838460  0.629210  0.592070  1.0  1.3404
  W  W150  1  0.349060  0.554460  0.471190  1.0  1.3512
  W  W151  1  0.349480  0.901140  0.193070  1.0  1.3256
  W  W152  1  0.191930  0.420840  0.291310  1.0  1.3403
  W  W153  1  0.672980  0.922980  0.451220  1.0  2.5405
  W  W154  1  0.292620  0.524440  0.273800  1.0  2.1753
  W  W155  1  0.769670  0.562190  0.506560  1.0  1.3281
  W  W156  1  0.193470  0.618010  0.347130  1.0  1.4095
  W  W157  1  0.629670  0.902440  0.867840  1.0  2.3233
  W  W158  1  0.565640  0.023080  0.900190  1.0  1.4045
  W  W159  1  0.402940  0.510070  0.870130  1.0  2.5766
  W  W160  1  0.319360  0.860090  0.074690  1.0  2.5286
  W  W161  1  0.161540  0.870790  0.092070  1.0  1.3368
  W  W162  1  0.650940  0.945540  0.971190  1.0  1.351
  W  W163  1  0.650520  0.598860  0.693070  1.0  1.3312
  W  W164  1  0.808070  0.079160  0.791310  1.0  1.3465
  W  W165  1  0.327020  0.577020  0.951220  1.0  2.5408
  W  W166  1  0.707380  0.975560  0.773800  1.0  2.1748
  W  W167  1  0.230330  0.937810  0.006560  1.0  1.3283
  W  W168  1  0.806530  0.881990  0.847130  1.0  1.4047
  W  W169  1  0.870330  0.402440  0.132160  1.0  2.3241
  W  W170  1  0.934360  0.523080  0.099810  1.0  1.4075
  W  W171  1  0.097060  0.010070  0.129870  1.0  2.5779
  W  W172  1  0.180640  0.360090  0.925310  1.0  2.5294
  W  W173  1  0.338460  0.370790  0.907930  1.0  1.3341
  W  W174  1  0.849060  0.445540  0.028810  1.0  1.3542
  W  W175  1  0.849480  0.098860  0.306930  1.0  1.3332
  W  W176  1  0.691930  0.579160  0.208690  1.0  1.3432
  W  W177  1  0.172980  0.077020  0.048780  1.0  2.5401
  W  W178  1  0.792620  0.475560  0.226200  1.0  2.1753
  W  W179  1  0.269670  0.437810  0.993440  1.0  1.3275
  W  W180  1  0.693470  0.381990  0.152870  1.0  1.4055
  W  W181  1  0.129670  0.097560  0.632160  1.0  2.3251
  W  W182  1  0.065640  0.976920  0.599810  1.0  1.4064
  W  W183  1  0.902940  0.489930  0.629870  1.0  2.5769
  W  W184  1  0.819360  0.139910  0.425310  1.0  2.5289
  W  W185  1  0.661540  0.129210  0.407930  1.0  1.3364
  W  W186  1  0.150940  0.054460  0.528810  1.0  1.3551
  W  W187  1  0.150520  0.401140  0.806930  1.0  1.3262
  W  W188  1  0.308070  0.920840  0.708690  1.0  1.3397
  W  W189  1  0.827020  0.422980  0.548780  1.0  2.5395
  W  W190  1  0.207380  0.024440  0.726200  1.0  2.177
  W  W191  1  0.730330  0.062190  0.493440  1.0  1.3277
  W  W192  1  0.306530  0.118010  0.652870  1.0  1.4086
  C  C193  1  0.657700  0.930100  0.617000  1.0  0.692
  C  C194  1  0.464600  0.102500  0.740900  1.0  0.1428
  C  C195  1  0.715700  0.969700  0.621000  1.0  0.1637
  C  C196  1  0.180800  0.259400  0.527700  1.0  -0.0711
  C  C197  1  0.206000  0.280700  0.569800  1.0  -0.0793
  C  C198  1  0.752900  0.055900  0.647400  1.0  0.0842
  C  C199  1  0.815200  0.047800  0.628400  1.0  -0.1315
  C  C200  1  0.228900  0.235600  0.497600  1.0  0.0556
  C  C201  1  0.774800  0.959100  0.599600  1.0  -0.0627
  C  C202  1  0.493900  0.142100  0.708300  1.0  0.7025
  C  C203  1  0.729800  0.107600  0.670600  1.0  0.6632
  C  C204  1  0.468600  0.011400  0.766300  1.0  0.1758
  C  C205  1  0.412500  0.114200  0.767800  1.0  -0.1021
  C  C206  1  0.417100  0.020300  0.793700  1.0  -0.117
  C  C207  1  0.386400  0.248400  0.553600  1.0  0.647
  C  C208  1  0.314800  0.254000  0.546600  1.0  0.0839
  C  C209  1  0.502000  0.955500  0.758500  1.0  0.6013
  C  C210  1  0.212100  0.211700  0.452200  1.0  0.5862
  C  C211  1  0.826600  0.996900  0.605000  1.0  -0.1345
  C  C212  1  0.389400  0.073400  0.793700  1.0  -0.0992
  C  C213  1  0.271400  0.277500  0.579000  1.0  -0.0746
  C  C214  1  0.342300  0.569900  0.117000  1.0  0.6941
  C  C215  1  0.535400  0.397500  0.240900  1.0  0.1431
  C  C216  1  0.284300  0.530300  0.121000  1.0  0.1631
  C  C217  1  0.819200  0.240600  0.027700  1.0  -0.0643
  C  C218  1  0.794000  0.219300  0.069800  1.0  -0.0779
  C  C219  1  0.247100  0.444100  0.147400  1.0  0.0841
  C  C220  1  0.184800  0.452200  0.128400  1.0  -0.1334
  C  C221  1  0.771100  0.264400  0.997600  1.0  0.0555
  C  C222  1  0.225200  0.540900  0.099600  1.0  -0.0633
  C  C223  1  0.506100  0.357900  0.208300  1.0  0.7045
  C  C224  1  0.270200  0.392400  0.170600  1.0  0.6653
  C  C225  1  0.531400  0.488600  0.266300  1.0  0.1754
  C  C226  1  0.587500  0.385800  0.267800  1.0  -0.1036
  C  C227  1  0.582900  0.479700  0.293700  1.0  -0.1176
  C  C228  1  0.613600  0.251600  0.053600  1.0  0.6454
  C  C229  1  0.685200  0.246000  0.046600  1.0  0.0838
  C  C230  1  0.498000  0.544500  0.258500  1.0  0.6022
  C  C231  1  0.787900  0.288300  0.952200  1.0  0.5848
  C  C232  1  0.173400  0.503100  0.105000  1.0  -0.1338
  C  C233  1  0.610600  0.426600  0.293700  1.0  -0.0981
  C  C234  1  0.728600  0.222500  0.079000  1.0  -0.0753
  C  C235  1  0.157700  0.069900  0.883000  1.0  0.6931
  C  C236  1  0.964600  0.897500  0.759100  1.0  0.1429
  C  C237  1  0.215700  0.030300  0.879000  1.0  0.1638
  C  C238  1  0.680800  0.740600  0.972300  1.0  -0.0703
  C  C239  1  0.706000  0.719300  0.930200  1.0  -0.0794
  C  C240  1  0.252900  0.944100  0.852600  1.0  0.084
  C  C241  1  0.315200  0.952200  0.871600  1.0  -0.1334
  C  C242  1  0.728900  0.764400  0.002400  1.0  0.0559
  C  C243  1  0.274800  0.040900  0.900400  1.0  -0.0632
  C  C244  1  0.993900  0.857900  0.791700  1.0  0.704
  C  C245  1  0.229800  0.892400  0.829400  1.0  0.6638
  C  C246  1  0.968600  0.988600  0.733700  1.0  0.1773
  C  C247  1  0.912500  0.885800  0.732200  1.0  -0.1026
  C  C248  1  0.917100  0.979700  0.706300  1.0  -0.1165
  C  C249  1  0.886400  0.751600  0.946400  1.0  0.6476
  C  C250  1  0.814800  0.746000  0.953400  1.0  0.084
  C  C251  1  0.002000  0.044500  0.741500  1.0  0.603
  C  C252  1  0.712100  0.788300  0.047800  1.0  0.5834
  C  C253  1  0.326600  0.003100  0.895000  1.0  -0.1343
  C  C254  1  0.889400  0.926600  0.706300  1.0  -0.0993
  C  C255  1  0.771400  0.722500  0.921000  1.0  -0.0725
  C  C256  1  0.842300  0.430100  0.383000  1.0  0.6936
  C  C257  1  0.035400  0.602500  0.259100  1.0  0.1433
  C  C258  1  0.784300  0.469700  0.379000  1.0  0.1636
  C  C259  1  0.319200  0.759400  0.472300  1.0  -0.0625
  C  C260  1  0.294000  0.780700  0.430200  1.0  -0.0778
  C  C261  1  0.747100  0.555900  0.352600  1.0  0.0842
  C  C262  1  0.684800  0.547800  0.371600  1.0  -0.134
  C  C263  1  0.271100  0.735600  0.502400  1.0  0.0561
  C  C264  1  0.725200  0.459100  0.400400  1.0  -0.0634
  C  C265  1  0.006100  0.642100  0.291700  1.0  0.703
  C  C266  1  0.770200  0.607600  0.329400  1.0  0.6643
  C  C267  1  0.031400  0.511400  0.233700  1.0  0.1749
  C  C268  1  0.087500  0.614200  0.232200  1.0  -0.1002
  C  C269  1  0.082900  0.520300  0.206300  1.0  -0.117
  C  C270  1  0.113600  0.748400  0.446400  1.0  0.6445
  C  C271  1  0.185200  0.754000  0.453400  1.0  0.0839
  C  C272  1  0.998000  0.455500  0.241500  1.0  0.6026
  C  C273  1  0.287900  0.711700  0.547800  1.0  0.5853
  C  C274  1  0.673400  0.496900  0.395000  1.0  -0.1328
  C  C275  1  0.110600  0.573400  0.206300  1.0  -0.098
  C  C276  1  0.228600  0.777500  0.421000  1.0  -0.0729
  C  C277  1  0.342300  0.069900  0.383000  1.0  0.6938
  C  C278  1  0.535400  0.897500  0.259100  1.0  0.1433
  C  C279  1  0.284300  0.030300  0.379000  1.0  0.1629
  C  C280  1  0.819200  0.740600  0.472300  1.0  -0.0623
  C  C281  1  0.794000  0.719300  0.430200  1.0  -0.078
  C  C282  1  0.247100  0.944100  0.352600  1.0  0.084
  C  C283  1  0.184800  0.952200  0.371600  1.0  -0.1339
  C  C284  1  0.771100  0.764400  0.502400  1.0  0.0555
  C  C285  1  0.225200  0.040900  0.400400  1.0  -0.0641
  C  C286  1  0.506100  0.857900  0.291700  1.0  0.7045
  C  C287  1  0.270200  0.892400  0.329400  1.0  0.6646
  C  C288  1  0.531400  0.988600  0.233700  1.0  0.1761
  C  C289  1  0.587500  0.885800  0.232200  1.0  -0.1038
  C  C290  1  0.582900  0.979700  0.206300  1.0  -0.1171
  C  C291  1  0.613600  0.751600  0.446400  1.0  0.6456
  C  C292  1  0.685200  0.746000  0.453400  1.0  0.0837
  C  C293  1  0.498000  0.044500  0.241500  1.0  0.6029
  C  C294  1  0.787900  0.788300  0.547800  1.0  0.5841
  C  C295  1  0.173400  0.003100  0.395000  1.0  -0.1332
  C  C296  1  0.610600  0.926600  0.206300  1.0  -0.0986
  C  C297  1  0.728600  0.722500  0.421000  1.0  -0.0725
  C  C298  1  0.657700  0.430100  0.883000  1.0  0.6919
  C  C299  1  0.464600  0.602500  0.759100  1.0  0.1431
  C  C300  1  0.715700  0.469700  0.879000  1.0  0.1639
  C  C301  1  0.180800  0.759400  0.972300  1.0  -0.0701
  C  C302  1  0.206000  0.780700  0.930200  1.0  -0.0794
  C  C303  1  0.752900  0.555900  0.852600  1.0  0.0842
  C  C304  1  0.815200  0.547800  0.871600  1.0  -0.1325
  C  C305  1  0.228900  0.735600  0.002400  1.0  0.056
  C  C306  1  0.774800  0.459100  0.900400  1.0  -0.063
  C  C307  1  0.493900  0.642100  0.791700  1.0  0.7019
  C  C308  1  0.729800  0.607600  0.829400  1.0  0.6634
  C  C309  1  0.468600  0.511400  0.733700  1.0  0.1765
  C  C310  1  0.412500  0.614200  0.732200  1.0  -0.1015
  C  C311  1  0.417100  0.520300  0.706300  1.0  -0.1165
  C  C312  1  0.386400  0.748400  0.946400  1.0  0.6473
  C  C313  1  0.314800  0.754000  0.953400  1.0  0.0837
  C  C314  1  0.502000  0.455500  0.741500  1.0  0.6023
  C  C315  1  0.212100  0.711700  0.047800  1.0  0.5844
  C  C316  1  0.826600  0.496900  0.895000  1.0  -0.1336
  C  C317  1  0.389400  0.573400  0.706300  1.0  -0.0986
  C  C318  1  0.271400  0.777500  0.921000  1.0  -0.0731
  C  C319  1  0.842300  0.930100  0.117000  1.0  0.6939
  C  C320  1  0.035400  0.102500  0.240900  1.0  0.143
  C  C321  1  0.784300  0.969700  0.121000  1.0  0.1636
  C  C322  1  0.319200  0.259400  0.027700  1.0  -0.0644
  C  C323  1  0.294000  0.280700  0.069800  1.0  -0.0782
  C  C324  1  0.747100  0.055900  0.147400  1.0  0.0841
  C  C325  1  0.684800  0.047800  0.128400  1.0  -0.133
  C  C326  1  0.271100  0.235600  0.997600  1.0  0.0556
  C  C327  1  0.725200  0.959100  0.099600  1.0  -0.0632
  C  C328  1  0.006100  0.142100  0.208300  1.0  0.704
  C  C329  1  0.770200  0.107600  0.170600  1.0  0.6644
  C  C330  1  0.031400  0.011400  0.266300  1.0  0.1744
  C  C331  1  0.087500  0.114200  0.267800  1.0  -0.1007
  C  C332  1  0.082900  0.020300  0.293700  1.0  -0.1173
  C  C333  1  0.113600  0.248400  0.053600  1.0  0.6443
  C  C334  1  0.185200  0.254000  0.046600  1.0  0.0838
  C  C335  1  0.998000  0.955500  0.258500  1.0  0.6016
  C  C336  1  0.287900  0.211700  0.952200  1.0  0.5854
  C  C337  1  0.673400  0.996900  0.105000  1.0  -0.1334
  C  C338  1  0.110600  0.073400  0.293700  1.0  -0.0984
  C  C339  1  0.228600  0.277500  0.079000  1.0  -0.0756
  C  C340  1  0.157700  0.569900  0.617000  1.0  0.6933
  C  C341  1  0.964600  0.397500  0.740900  1.0  0.1429
  C  C342  1  0.215700  0.530300  0.621000  1.0  0.1637
  C  C343  1  0.680800  0.240600  0.527700  1.0  -0.0715
  C  C344  1  0.706000  0.219300  0.569800  1.0  -0.079
  C  C345  1  0.252900  0.444100  0.647400  1.0  0.0842
  C  C346  1  0.315200  0.452200  0.628400  1.0  -0.1325
  C  C347  1  0.728900  0.264400  0.497600  1.0  0.0556
  C  C348  1  0.274800  0.540900  0.599600  1.0  -0.0626
  C  C349  1  0.993900  0.357900  0.708300  1.0  0.7037
  C  C350  1  0.229800  0.392400  0.670600  1.0  0.6646
  C  C351  1  0.968600  0.488600  0.766300  1.0  0.1766
  C  C352  1  0.912500  0.385800  0.767800  1.0  -0.1025
  C  C353  1  0.917100  0.479700  0.793700  1.0  -0.1171
  C  C354  1  0.886400  0.251600  0.553600  1.0  0.6474
  C  C355  1  0.814800  0.246000  0.546600  1.0  0.0842
  C  C356  1  0.002000  0.544500  0.758500  1.0  0.6024
  C  C357  1  0.712100  0.288300  0.452200  1.0  0.586
  C  C358  1  0.326600  0.503100  0.605000  1.0  -0.135
  C  C359  1  0.889400  0.426600  0.793700  1.0  -0.0988
  C  C360  1  0.771400  0.222500  0.579000  1.0  -0.0743
  N  N361  1  0.705000  0.015200  0.644600  1.0  -0.3657
  N  N362  1  0.494900  0.050200  0.739600  1.0  -0.4148
  N  N363  1  0.293600  0.232100  0.507500  1.0  -0.446
  N  N364  1  0.295000  0.484800  0.144600  1.0  -0.3669
  N  N365  1  0.505100  0.449800  0.239600  1.0  -0.4156
  N  N366  1  0.706400  0.267900  0.007500  1.0  -0.4467
  N  N367  1  0.205000  0.984800  0.855400  1.0  -0.3659
  N  N368  1  0.994900  0.949800  0.760400  1.0  -0.4133
  N  N369  1  0.793600  0.767900  0.992500  1.0  -0.4442
  N  N370  1  0.795000  0.515200  0.355400  1.0  -0.3669
  N  N371  1  0.005100  0.550200  0.260400  1.0  -0.4136
  N  N372  1  0.206400  0.732100  0.492500  1.0  -0.4452
  N  N373  1  0.295000  0.984800  0.355400  1.0  -0.3668
  N  N374  1  0.505100  0.949800  0.260400  1.0  -0.4141
  N  N375  1  0.706400  0.767900  0.492500  1.0  -0.4452
  N  N376  1  0.705000  0.515200  0.855400  1.0  -0.3653
  N  N377  1  0.494900  0.550200  0.760400  1.0  -0.4131
  N  N378  1  0.293600  0.732100  0.992500  1.0  -0.4441
  N  N379  1  0.795000  0.015200  0.144600  1.0  -0.367
  N  N380  1  0.005100  0.050200  0.239600  1.0  -0.4151
  N  N381  1  0.206400  0.232100  0.007500  1.0  -0.4473
  N  N382  1  0.205000  0.484800  0.644600  1.0  -0.3661
  N  N383  1  0.994900  0.449800  0.739600  1.0  -0.415
  N  N384  1  0.793600  0.267900  0.507500  1.0  -0.4457
  O  O385  1  0.161500  0.390000  0.471200  1.0  -0.634
  O  O386  1  0.247500  0.428900  0.419400  1.0  -0.9143
  O  O387  1  0.389200  0.941800  0.601600  1.0  -0.7658
  O  O388  1  0.540500  0.124100  0.683600  1.0  -0.6789
  O  O389  1  0.644100  0.442400  0.688400  1.0  -0.7829
  O  O390  1  0.327700  0.138600  0.592600  1.0  -0.6822
  O  O391  1  0.642600  0.039400  0.762300  1.0  -0.7904
  O  O392  1  0.661900  0.478400  0.599900  1.0  -0.8843
  O  O393  1  0.685500  0.945600  0.723900  1.0  -0.6784
  O  O394  1  0.327700  0.361300  0.362000  1.0  -0.7741
  O  O395  1  0.404600  0.263900  0.593200  1.0  -0.7807
  O  O396  1  0.472200  0.192600  0.703500  1.0  -0.6747
  O  O397  1  0.233700  0.322700  0.416800  1.0  -0.722
  O  O398  1  0.769200  0.425100  0.703000  1.0  -0.698
  O  O399  1  0.411900  0.051400  0.575800  1.0  -0.6457
  O  O400  1  0.775700  0.524700  0.750600  1.0  -0.6954
  O  O401  1  0.615100  0.586700  0.571600  1.0  -0.7652
  O  O402  1  0.180300  0.376200  0.345800  1.0  -0.7019
  O  O403  1  0.729900  0.126800  0.780200  1.0  -0.6504
  O  O404  1  0.549500  0.452400  0.626600  1.0  -0.6949
  O  O405  1  0.674600  0.111300  0.684500  1.0  -0.5937
  O  O406  1  0.291400  0.378000  0.486300  1.0  -0.6785
  O  O407  1  0.359300  0.117100  0.504700  1.0  -0.7779
  O  O408  1  0.697200  0.509800  0.507600  1.0  -0.6621
  O  O409  1  0.483800  0.006700  0.645200  1.0  -0.7999
  O  O410  1  0.739100  0.413700  0.537900  1.0  -0.7439
  O  O411  1  0.713900  0.375300  0.635700  1.0  -0.7292
  O  O412  1  0.321500  0.004500  0.520500  1.0  -0.7012
  O  O413  1  0.364700  0.974200  0.682600  1.0  -0.7175
  O  O414  1  0.360200  0.298600  0.437300  1.0  -0.8316
  O  O415  1  0.584200  0.344100  0.649800  1.0  -0.8132
  O  O416  1  0.665300  0.887300  0.592800  1.0  -0.7339
  O  O417  1  0.254400  0.195600  0.427400  1.0  -0.5747
  O  O418  1  0.607700  0.944000  0.637300  1.0  -0.6274
  O  O419  1  0.386700  0.083400  0.662100  1.0  -0.7509
  O  O420  1  0.591900  0.557300  0.655000  1.0  -0.6738
  O  O421  1  0.303600  0.036000  0.612700  1.0  -0.8634
  O  O422  1  0.574200  0.487800  0.540100  1.0  -0.6963
  O  O423  1  0.542100  0.946200  0.728400  1.0  -0.5778
  O  O424  1  0.724200  0.035000  0.825900  1.0  -0.8346
  O  O425  1  0.621100  0.384400  0.568600  1.0  -0.6523
  O  O426  1  0.772300  0.148500  0.675100  1.0  -0.4592
  O  O427  1  0.481800  0.914200  0.786400  1.0  -0.5047
  O  O428  1  0.147300  0.210500  0.445000  1.0  -0.4959
  O  O429  1  0.419800  0.231200  0.522300  1.0  -0.5747
  O  O430  1  0.838500  0.110000  0.971200  1.0  -0.6341
  O  O431  1  0.752500  0.071100  0.919400  1.0  -0.9156
  O  O432  1  0.610800  0.558200  0.101600  1.0  -0.7657
  O  O433  1  0.459500  0.375900  0.183600  1.0  -0.678
  O  O434  1  0.355900  0.057600  0.188400  1.0  -0.7825
  O  O435  1  0.672300  0.361400  0.092600  1.0  -0.6829
  O  O436  1  0.357400  0.460600  0.262300  1.0  -0.7914
  O  O437  1  0.338100  0.021600  0.099900  1.0  -0.8847
  O  O438  1  0.314500  0.554400  0.223900  1.0  -0.6796
  O  O439  1  0.672300  0.138700  0.862000  1.0  -0.7775
  O  O440  1  0.595400  0.236100  0.093200  1.0  -0.7788
  O  O441  1  0.527800  0.307400  0.203500  1.0  -0.6712
  O  O442  1  0.766300  0.177300  0.916800  1.0  -0.7221
  O  O443  1  0.230800  0.074900  0.203000  1.0  -0.695
  O  O444  1  0.588100  0.448600  0.075800  1.0  -0.6428
  O  O445  1  0.224300  0.975300  0.250600  1.0  -0.6946
  O  O446  1  0.384900  0.913300  0.071600  1.0  -0.7634
  O  O447  1  0.819700  0.123800  0.845800  1.0  -0.6999
  O  O448  1  0.270100  0.373200  0.280200  1.0  -0.6603
  O  O449  1  0.450500  0.047600  0.126600  1.0  -0.6947
  O  O450  1  0.325400  0.388700  0.184500  1.0  -0.5931
  O  O451  1  0.708600  0.122000  0.986300  1.0  -0.6781
  O  O452  1  0.640700  0.382900  0.004700  1.0  -0.7768
  O  O453  1  0.302800  0.990200  0.007600  1.0  -0.6613
  O  O454  1  0.516200  0.493300  0.145200  1.0  -0.7997
  O  O455  1  0.260900  0.086300  0.037900  1.0  -0.7424
  O  O456  1  0.286100  0.124700  0.135700  1.0  -0.7297
  O  O457  1  0.678500  0.495500  0.020500  1.0  -0.7039
  O  O458  1  0.635300  0.525800  0.182600  1.0  -0.718
  O  O459  1  0.639800  0.201400  0.937300  1.0  -0.8327
  O  O460  1  0.415800  0.155900  0.149800  1.0  -0.8147
  O  O461  1  0.334700  0.612700  0.092800  1.0  -0.7336
  O  O462  1  0.745600  0.304400  0.927400  1.0  -0.5756
  O  O463  1  0.392300  0.556000  0.137300  1.0  -0.6277
  O  O464  1  0.613300  0.416600  0.162100  1.0  -0.7515
  O  O465  1  0.408100  0.942700  0.155000  1.0  -0.6734
  O  O466  1  0.696400  0.464000  0.112700  1.0  -0.8639
  O  O467  1  0.425800  0.012200  0.040100  1.0  -0.6963
  O  O468  1  0.457900  0.553800  0.228400  1.0  -0.5781
  O  O469  1  0.275800  0.465000  0.325900  1.0  -0.8345
  O  O470  1  0.378900  0.115600  0.068600  1.0  -0.6535
  O  O471  1  0.227700  0.351500  0.175100  1.0  -0.4622
  O  O472  1  0.518200  0.585800  0.286400  1.0  -0.5038
  O  O473  1  0.852700  0.289500  0.945000  1.0  -0.4929
  O  O474  1  0.580200  0.268800  0.022300  1.0  -0.5769
  O  O475  1  0.661500  0.610000  0.028800  1.0  -0.6353
  O  O476  1  0.747500  0.571100  0.080600  1.0  -0.9139
  O  O477  1  0.889200  0.058200  0.898400  1.0  -0.7664
  O  O478  1  0.040500  0.875900  0.816400  1.0  -0.6779
  O  O479  1  0.144100  0.557600  0.811600  1.0  -0.7831
  O  O480  1  0.827700  0.861400  0.907400  1.0  -0.6819
  O  O481  1  0.142600  0.960600  0.737700  1.0  -0.7889
  O  O482  1  0.161900  0.521600  0.900100  1.0  -0.8848
  O  O483  1  0.185500  0.054400  0.776100  1.0  -0.6794
  O  O484  1  0.827700  0.638700  0.138000  1.0  -0.776
  O  O485  1  0.904600  0.736100  0.906800  1.0  -0.7814
  O  O486  1  0.972200  0.807400  0.796500  1.0  -0.6732
  O  O487  1  0.733700  0.677300  0.083200  1.0  -0.7211
  O  O488  1  0.269200  0.574900  0.797000  1.0  -0.6973
  O  O489  1  0.911900  0.948600  0.924200  1.0  -0.645
  O  O490  1  0.275700  0.475300  0.749400  1.0  -0.6962
  O  O491  1  0.115100  0.413300  0.928400  1.0  -0.764
  O  O492  1  0.680300  0.623800  0.154200  1.0  -0.7002
  O  O493  1  0.229900  0.873200  0.719800  1.0  -0.6619
  O  O494  1  0.049500  0.547600  0.873400  1.0  -0.6956
  O  O495  1  0.174600  0.888700  0.815500  1.0  -0.5925
  O  O496  1  0.791400  0.622000  0.013700  1.0  -0.6759
  O  O497  1  0.859300  0.882900  0.995300  1.0  -0.7779
  O  O498  1  0.197200  0.490200  0.992400  1.0  -0.663
  O  O499  1  0.983800  0.993300  0.854800  1.0  -0.7986
  O  O500  1  0.239100  0.586300  0.962100  1.0  -0.7432
  O  O501  1  0.213900  0.624700  0.864300  1.0  -0.7305
  O  O502  1  0.821500  0.995500  0.979500  1.0  -0.7018
  O  O503  1  0.864700  0.025800  0.817400  1.0  -0.719
  O  O504  1  0.860200  0.701400  0.062700  1.0  -0.8312
  O  O505  1  0.084200  0.655900  0.850200  1.0  -0.8161
  O  O506  1  0.165300  0.112700  0.907200  1.0  -0.7331
  O  O507  1  0.754400  0.804400  0.072600  1.0  -0.5748
  O  O508  1  0.107700  0.056000  0.862700  1.0  -0.6284
  O  O509  1  0.886700  0.916600  0.837900  1.0  -0.7516
  O  O510  1  0.091900  0.442700  0.845000  1.0  -0.6719
  O  O511  1  0.803600  0.964000  0.887300  1.0  -0.8633
  O  O512  1  0.074200  0.512200  0.959900  1.0  -0.6942
  O  O513  1  0.042100  0.053800  0.771600  1.0  -0.5795
  O  O514  1  0.224200  0.965000  0.674100  1.0  -0.836
  O  O515  1  0.121100  0.615600  0.931400  1.0  -0.6518
  O  O516  1  0.272300  0.851500  0.824900  1.0  -0.46
  O  O517  1  0.981800  0.085800  0.713600  1.0  -0.5041
  O  O518  1  0.647300  0.789500  0.055000  1.0  -0.4945
  O  O519  1  0.919800  0.768800  0.977700  1.0  -0.5749
  O  O520  1  0.338500  0.890000  0.528800  1.0  -0.6347
  O  O521  1  0.252500  0.928900  0.580600  1.0  -0.9132
  O  O522  1  0.110800  0.441800  0.398400  1.0  -0.7646
  O  O523  1  0.959500  0.624100  0.316400  1.0  -0.6784
  O  O524  1  0.855900  0.942400  0.311600  1.0  -0.7829
  O  O525  1  0.172300  0.638600  0.407400  1.0  -0.6825
  O  O526  1  0.857400  0.539400  0.237700  1.0  -0.79
  O  O527  1  0.838100  0.978400  0.400100  1.0  -0.8852
  O  O528  1  0.814500  0.445600  0.276100  1.0  -0.6792
  O  O529  1  0.172300  0.861300  0.638000  1.0  -0.775
  O  O530  1  0.095400  0.763900  0.406800  1.0  -0.7818
  O  O531  1  0.027800  0.692600  0.296500  1.0  -0.6751
  O  O532  1  0.266300  0.822700  0.583200  1.0  -0.7226
  O  O533  1  0.730800  0.925100  0.297000  1.0  -0.6966
  O  O534  1  0.088100  0.551400  0.424200  1.0  -0.6422
  O  O535  1  0.724300  0.024700  0.249400  1.0  -0.6967
  O  O536  1  0.884900  0.086700  0.428400  1.0  -0.7629
  O  O537  1  0.319700  0.876200  0.654200  1.0  -0.7019
  O  O538  1  0.770100  0.626800  0.219800  1.0  -0.6472
  O  O539  1  0.950500  0.952400  0.373400  1.0  -0.6955
  O  O540  1  0.825400  0.611300  0.315500  1.0  -0.5932
  O  O541  1  0.208600  0.878000  0.513700  1.0  -0.6765
  O  O542  1  0.140700  0.617100  0.495300  1.0  -0.7765
  O  O543  1  0.802800  0.009800  0.492400  1.0  -0.6623
  O  O544  1  0.016200  0.506700  0.354800  1.0  -0.799
  O  O545  1  0.760900  0.913700  0.462100  1.0  -0.7426
  O  O546  1  0.786100  0.875300  0.364300  1.0  -0.7288
  O  O547  1  0.178500  0.504500  0.479500  1.0  -0.7028
  O  O548  1  0.135300  0.474200  0.317400  1.0  -0.7188
  O  O549  1  0.139800  0.798600  0.562700  1.0  -0.8314
  O  O550  1  0.915800  0.844100  0.350200  1.0  -0.8144
  O  O551  1  0.834700  0.387300  0.407200  1.0  -0.7334
  O  O552  1  0.245600  0.695600  0.572600  1.0  -0.5751
  O  O553  1  0.892300  0.444000  0.362700  1.0  -0.6257
  O  O554  1  0.113300  0.583400  0.337900  1.0  -0.7523
  O  O555  1  0.908100  0.057300  0.345000  1.0  -0.6744
  O  O556  1  0.196400  0.536000  0.387300  1.0  -0.8637
  O  O557  1  0.925800  0.987800  0.459900  1.0  -0.6949
  O  O558  1  0.957900  0.446200  0.271600  1.0  -0.5776
  O  O559  1  0.775800  0.535000  0.174100  1.0  -0.836
  O  O560  1  0.878900  0.884400  0.431400  1.0  -0.6524
  O  O561  1  0.727700  0.648500  0.324900  1.0  -0.4644
  O  O562  1  0.018200  0.414200  0.213600  1.0  -0.5031
  O  O563  1  0.352700  0.710500  0.555000  1.0  -0.4932
  O  O564  1  0.080200  0.731200  0.477700  1.0  -0.575
  O  O565  1  0.838500  0.610000  0.528800  1.0  -0.6349
  O  O566  1  0.752500  0.571100  0.580600  1.0  -0.9138
  O  O567  1  0.610800  0.058200  0.398400  1.0  -0.7646
  O  O568  1  0.459500  0.875900  0.316400  1.0  -0.6771
  O  O569  1  0.355900  0.557600  0.311600  1.0  -0.7828
  O  O570  1  0.672300  0.861400  0.407400  1.0  -0.6826
  O  O571  1  0.357400  0.960600  0.237700  1.0  -0.7899
  O  O572  1  0.338100  0.521600  0.400100  1.0  -0.8849
  O  O573  1  0.314500  0.054400  0.276100  1.0  -0.6796
  O  O574  1  0.672300  0.638700  0.638000  1.0  -0.7769
  O  O575  1  0.595400  0.736100  0.406800  1.0  -0.7822
  O  O576  1  0.527800  0.807400  0.296500  1.0  -0.6712
  O  O577  1  0.766300  0.677300  0.583200  1.0  -0.721
  O  O578  1  0.230800  0.574900  0.297000  1.0  -0.6961
  O  O579  1  0.588100  0.948600  0.424200  1.0  -0.6423
  O  O580  1  0.224300  0.475300  0.249400  1.0  -0.6961
  O  O581  1  0.384900  0.413300  0.428400  1.0  -0.7633
  O  O582  1  0.819700  0.623800  0.654200  1.0  -0.6993
  O  O583  1  0.270100  0.873200  0.219800  1.0  -0.6609
  O  O584  1  0.450500  0.547600  0.373400  1.0  -0.6954
  O  O585  1  0.325400  0.888700  0.315500  1.0  -0.5931
  O  O586  1  0.708600  0.622000  0.513700  1.0  -0.6764
  O  O587  1  0.640700  0.882900  0.495300  1.0  -0.7764
  O  O588  1  0.302800  0.490200  0.492400  1.0  -0.6622
  O  O589  1  0.516200  0.993300  0.354800  1.0  -0.799
  O  O590  1  0.260900  0.586300  0.462100  1.0  -0.7422
  O  O591  1  0.286100  0.624700  0.364300  1.0  -0.7296
  O  O592  1  0.678500  0.995500  0.479500  1.0  -0.7032
  O  O593  1  0.635300  0.025800  0.317400  1.0  -0.7193
  O  O594  1  0.639800  0.701400  0.562700  1.0  -0.8313
  O  O595  1  0.415800  0.655900  0.350200  1.0  -0.816
  O  O596  1  0.334700  0.112700  0.407200  1.0  -0.7335
  O  O597  1  0.745600  0.804400  0.572600  1.0  -0.5755
  O  O598  1  0.392300  0.056000  0.362700  1.0  -0.6268
  O  O599  1  0.613300  0.916600  0.337900  1.0  -0.7519
  O  O600  1  0.408100  0.442700  0.345000  1.0  -0.6725
  O  O601  1  0.696400  0.964000  0.387300  1.0  -0.8637
  O  O602  1  0.425800  0.512200  0.459900  1.0  -0.695
  O  O603  1  0.457900  0.053800  0.271600  1.0  -0.5785
  O  O604  1  0.275800  0.965000  0.174100  1.0  -0.8361
  O  O605  1  0.378900  0.615600  0.431400  1.0  -0.6525
  O  O606  1  0.227700  0.851500  0.324900  1.0  -0.4633
  O  O607  1  0.518200  0.085800  0.213600  1.0  -0.5033
  O  O608  1  0.852700  0.789500  0.555000  1.0  -0.4924
  O  O609  1  0.580200  0.768800  0.477700  1.0  -0.5756
  O  O610  1  0.161500  0.890000  0.028800  1.0  -0.636
  O  O611  1  0.247500  0.928900  0.080600  1.0  -0.913
  O  O612  1  0.389200  0.441800  0.898400  1.0  -0.7664
  O  O613  1  0.540500  0.624100  0.816400  1.0  -0.6786
  O  O614  1  0.644100  0.942400  0.811600  1.0  -0.7825
  O  O615  1  0.327700  0.638600  0.907400  1.0  -0.6819
  O  O616  1  0.642600  0.539400  0.737700  1.0  -0.7887
  O  O617  1  0.661900  0.978400  0.900100  1.0  -0.8847
  O  O618  1  0.685500  0.445600  0.776100  1.0  -0.6787
  O  O619  1  0.327700  0.861300  0.138000  1.0  -0.7747
  O  O620  1  0.404600  0.763900  0.906800  1.0  -0.7808
  O  O621  1  0.472200  0.692600  0.796500  1.0  -0.6748
  O  O622  1  0.233700  0.822700  0.083200  1.0  -0.722
  O  O623  1  0.769200  0.925100  0.797000  1.0  -0.6977
  O  O624  1  0.411900  0.551400  0.924200  1.0  -0.6449
  O  O625  1  0.775700  0.024700  0.749400  1.0  -0.6969
  O  O626  1  0.615100  0.086700  0.928400  1.0  -0.7642
  O  O627  1  0.180300  0.876200  0.154200  1.0  -0.7021
  O  O628  1  0.729900  0.626800  0.719800  1.0  -0.649
  O  O629  1  0.549500  0.952400  0.873400  1.0  -0.6958
  O  O630  1  0.674600  0.611300  0.815500  1.0  -0.5934
  O  O631  1  0.291400  0.878000  0.013700  1.0  -0.6759
  O  O632  1  0.359300  0.617100  0.995300  1.0  -0.778
  O  O633  1  0.697200  0.009800  0.992400  1.0  -0.6631
  O  O634  1  0.483800  0.506700  0.854800  1.0  -0.7991
  O  O635  1  0.739100  0.913700  0.962100  1.0  -0.7436
  O  O636  1  0.713900  0.875300  0.864300  1.0  -0.729
  O  O637  1  0.321500  0.504500  0.979500  1.0  -0.7014
  O  O638  1  0.364700  0.474200  0.817400  1.0  -0.7185
  O  O639  1  0.360200  0.798600  0.062700  1.0  -0.8307
  O  O640  1  0.584200  0.844100  0.850200  1.0  -0.8143
  O  O641  1  0.665300  0.387300  0.907200  1.0  -0.7333
  O  O642  1  0.254400  0.695600  0.072600  1.0  -0.5745
  O  O643  1  0.607700  0.444000  0.862700  1.0  -0.6264
  O  O644  1  0.386700  0.583400  0.837900  1.0  -0.7517
  O  O645  1  0.591900  0.057300  0.845000  1.0  -0.6731
  O  O646  1  0.303600  0.536000  0.887300  1.0  -0.8631
  O  O647  1  0.574200  0.987800  0.959900  1.0  -0.6944
  O  O648  1  0.542100  0.446200  0.771600  1.0  -0.5776
  O  O649  1  0.724200  0.535000  0.674100  1.0  -0.8359
  O  O650  1  0.621100  0.884400  0.931400  1.0  -0.6517
  O  O651  1  0.772300  0.648500  0.824900  1.0  -0.4601
  O  O652  1  0.481800  0.414200  0.713600  1.0  -0.5037
  O  O653  1  0.147300  0.710500  0.055000  1.0  -0.4949
  O  O654  1  0.419800  0.731200  0.977700  1.0  -0.5746
  O  O655  1  0.338500  0.390000  0.971200  1.0  -0.6337
  O  O656  1  0.252500  0.428900  0.919400  1.0  -0.9145
  O  O657  1  0.110800  0.941800  0.101600  1.0  -0.7659
  O  O658  1  0.959500  0.124100  0.183600  1.0  -0.6792
  O  O659  1  0.855900  0.442400  0.188400  1.0  -0.7832
  O  O660  1  0.172300  0.138600  0.092600  1.0  -0.6828
  O  O661  1  0.857400  0.039400  0.262300  1.0  -0.7918
  O  O662  1  0.838100  0.478400  0.099900  1.0  -0.8851
  O  O663  1  0.814500  0.945600  0.223900  1.0  -0.6785
  O  O664  1  0.172300  0.361300  0.862000  1.0  -0.7747
  O  O665  1  0.095400  0.263900  0.093200  1.0  -0.7794
  O  O666  1  0.027800  0.192600  0.203500  1.0  -0.6746
  O  O667  1  0.266300  0.322700  0.916800  1.0  -0.7226
  O  O668  1  0.730800  0.425100  0.203000  1.0  -0.697
  O  O669  1  0.088100  0.051400  0.075800  1.0  -0.6428
  O  O670  1  0.724300  0.524700  0.250600  1.0  -0.6951
  O  O671  1  0.884900  0.586700  0.071600  1.0  -0.7628
  O  O672  1  0.319700  0.376200  0.845800  1.0  -0.7007
  O  O673  1  0.770100  0.126800  0.280200  1.0  -0.6487
  O  O674  1  0.950500  0.452400  0.126600  1.0  -0.6946
  O  O675  1  0.825400  0.111300  0.184500  1.0  -0.5933
  O  O676  1  0.208600  0.378000  0.986300  1.0  -0.6783
  O  O677  1  0.140700  0.117100  0.004700  1.0  -0.7769
  O  O678  1  0.802800  0.509800  0.007600  1.0  -0.6612
  O  O679  1  0.016200  0.006700  0.145200  1.0  -0.7999
  O  O680  1  0.760900  0.413700  0.037900  1.0  -0.7428
  O  O681  1  0.786100  0.375300  0.135700  1.0  -0.7289
  O  O682  1  0.178500  0.004500  0.020500  1.0  -0.7036
  O  O683  1  0.135300  0.974200  0.182600  1.0  -0.7178
  O  O684  1  0.139800  0.298600  0.937300  1.0  -0.833
  O  O685  1  0.915800  0.344100  0.149800  1.0  -0.8135
  O  O686  1  0.834700  0.887300  0.092800  1.0  -0.7337
  O  O687  1  0.245600  0.195600  0.927400  1.0  -0.5758
  O  O688  1  0.892300  0.944000  0.137300  1.0  -0.627
  O  O689  1  0.113300  0.083400  0.162100  1.0  -0.7513
  O  O690  1  0.908100  0.557300  0.155000  1.0  -0.6752
  O  O691  1  0.196400  0.036000  0.112700  1.0  -0.8639
  O  O692  1  0.925800  0.487800  0.040100  1.0  -0.6963
  O  O693  1  0.957900  0.946200  0.228400  1.0  -0.5782
  O  O694  1  0.775800  0.035000  0.325900  1.0  -0.8347
  O  O695  1  0.878900  0.384400  0.068600  1.0  -0.6525
  O  O696  1  0.727700  0.148500  0.175100  1.0  -0.4635
  O  O697  1  0.018200  0.914200  0.286400  1.0  -0.5039
  O  O698  1  0.352700  0.210500  0.945000  1.0  -0.4938
  O  O699  1  0.080200  0.231200  0.022300  1.0  -0.5764
  O  O700  1  0.661500  0.110000  0.471200  1.0  -0.6335
  O  O701  1  0.747500  0.071100  0.419400  1.0  -0.9156
  O  O702  1  0.889200  0.558200  0.601600  1.0  -0.7653
  O  O703  1  0.040500  0.375900  0.683600  1.0  -0.6784
  O  O704  1  0.144100  0.057600  0.688400  1.0  -0.7829
  O  O705  1  0.827700  0.361400  0.592600  1.0  -0.6822
  O  O706  1  0.142600  0.460600  0.762300  1.0  -0.7906
  O  O707  1  0.161900  0.021600  0.599900  1.0  -0.8843
  O  O708  1  0.185500  0.554400  0.723900  1.0  -0.6791
  O  O709  1  0.827700  0.138700  0.362000  1.0  -0.7761
  O  O710  1  0.904600  0.236100  0.593200  1.0  -0.7809
  O  O711  1  0.972200  0.307400  0.703500  1.0  -0.6731
  O  O712  1  0.733700  0.177300  0.416800  1.0  -0.7221
  O  O713  1  0.269200  0.074900  0.703000  1.0  -0.6959
  O  O714  1  0.911900  0.448600  0.575800  1.0  -0.6452
  O  O715  1  0.275700  0.975300  0.750600  1.0  -0.6947
  O  O716  1  0.115100  0.913300  0.571600  1.0  -0.7649
  O  O717  1  0.680300  0.123800  0.345800  1.0  -0.7013
  O  O718  1  0.229900  0.373200  0.780200  1.0  -0.6612
  O  O719  1  0.049500  0.047600  0.626600  1.0  -0.6946
  O  O720  1  0.174600  0.388700  0.684500  1.0  -0.5927
  O  O721  1  0.791400  0.122000  0.486300  1.0  -0.6783
  O  O722  1  0.859300  0.382900  0.504700  1.0  -0.7773
  O  O723  1  0.197200  0.990200  0.507600  1.0  -0.6623
  O  O724  1  0.983800  0.493300  0.645200  1.0  -0.7995
  O  O725  1  0.239100  0.086300  0.537900  1.0  -0.7434
  O  O726  1  0.213900  0.124700  0.635700  1.0  -0.7304
  O  O727  1  0.821500  0.495500  0.520500  1.0  -0.7013
  O  O728  1  0.864700  0.525800  0.682600  1.0  -0.7178
  O  O729  1  0.860200  0.201400  0.437300  1.0  -0.8319
  O  O730  1  0.084200  0.155900  0.649800  1.0  -0.8145
  O  O731  1  0.165300  0.612700  0.592800  1.0  -0.7347
  O  O732  1  0.754400  0.304400  0.427400  1.0  -0.5744
  O  O733  1  0.107700  0.556000  0.637300  1.0  -0.629
  O  O734  1  0.886700  0.416600  0.662100  1.0  -0.7514
  O  O735  1  0.091900  0.942700  0.655000  1.0  -0.6725
  O  O736  1  0.803600  0.464000  0.612700  1.0  -0.8635
  O  O737  1  0.074200  0.012200  0.540100  1.0  -0.6962
  O  O738  1  0.042100  0.553800  0.728400  1.0  -0.5784
  O  O739  1  0.224200  0.465000  0.825900  1.0  -0.8343
  O  O740  1  0.121100  0.115600  0.568600  1.0  -0.6532
  O  O741  1  0.272300  0.351500  0.675100  1.0  -0.4593
  O  O742  1  0.981800  0.585800  0.786400  1.0  -0.5046
  O  O743  1  0.647300  0.289500  0.445000  1.0  -0.4954
  O  O744  1  0.919800  0.268800  0.522300  1.0  -0.5751
