# generated using pymatgen
data_Pr3H9W12C21N3O44
_symmetry_space_group_name_H-M   'P 1'
_cell_length_a   20.48900000
_cell_length_b   23.44000000
_cell_length_c   29.48600000
_cell_angle_alpha   90.00000000
_cell_angle_beta   90.00000000
_cell_angle_gamma   90.00000000
_symmetry_Int_Tables_number   1
_chemical_formula_structural   Pr3H9W12C21N3O44
_chemical_formula_sum   'Pr24 H72 W96 C168 N24 O352'
_cell_volume   14161.01004976
_cell_formula_units_Z   8
loop_
 _symmetry_equiv_pos_site_id
 _symmetry_equiv_pos_as_xyz
  1  'x, y, z'
loop_
 _atom_site_type_symbol
 _atom_site_label
 _atom_site_symmetry_multiplicity
 _atom_site_fract_x
 _atom_site_fract_y
 _atom_site_fract_z
 _atom_site_occupancy
 _atom_site_charge
  Pr  Pr1  1  0.591260  0.031880  0.182920  1.0  2.1771
  Pr  Pr2  1  0.378270  0.193820  0.947900  1.0  2.1235
  Pr  Pr3  1  0.493490  0.270820  0.144810  1.0  1.9412
  Pr  Pr4  1  0.408740  0.468120  0.682920  1.0  2.1764
  Pr  Pr5  1  0.621730  0.306180  0.447900  1.0  2.1255
  Pr  Pr6  1  0.506510  0.229180  0.644810  1.0  1.9409
  Pr  Pr7  1  0.091260  0.968120  0.317080  1.0  2.1775
  Pr  Pr8  1  0.878270  0.806180  0.552100  1.0  2.1261
  Pr  Pr9  1  0.993490  0.729180  0.355190  1.0  1.9411
  Pr  Pr10  1  0.908740  0.531880  0.817080  1.0  2.1765
  Pr  Pr11  1  0.121730  0.693820  0.052100  1.0  2.1283
  Pr  Pr12  1  0.006510  0.770820  0.855190  1.0  1.9419
  Pr  Pr13  1  0.408740  0.968120  0.817080  1.0  2.1766
  Pr  Pr14  1  0.621730  0.806180  0.052100  1.0  2.1282
  Pr  Pr15  1  0.506510  0.729180  0.855190  1.0  1.9415
  Pr  Pr16  1  0.591260  0.531880  0.317080  1.0  2.1774
  Pr  Pr17  1  0.378270  0.693820  0.552100  1.0  2.1262
  Pr  Pr18  1  0.493490  0.770820  0.355190  1.0  1.9416
  Pr  Pr19  1  0.908740  0.031880  0.682920  1.0  2.1762
  Pr  Pr20  1  0.121730  0.193820  0.447900  1.0  2.1256
  Pr  Pr21  1  0.006510  0.270820  0.644810  1.0  1.9414
  Pr  Pr22  1  0.091260  0.468120  0.182920  1.0  2.1772
  Pr  Pr23  1  0.878270  0.306180  0.947900  1.0  2.1234
  Pr  Pr24  1  0.993490  0.229180  0.144810  1.0  1.9407
  H  H25  1  0.140000  0.259200  0.020000  1.0  0.1275
  H  H26  1  0.173500  0.293900  0.086400  1.0  0.1236
  H  H27  1  0.282200  0.288700  0.105300  1.0  0.131
  H  H28  1  0.782200  0.925600  0.084700  1.0  0.1131
  H  H29  1  0.866400  0.991600  0.092600  1.0  0.1368
  H  H30  1  0.842300  0.076900  0.134100  1.0  0.1135
  H  H31  1  0.403300  0.991300  0.314000  1.0  0.1277
  H  H32  1  0.352800  0.081600  0.312000  1.0  0.1228
  H  H33  1  0.394200  0.150600  0.266200  1.0  0.1228
  H  H34  1  0.860000  0.240800  0.520000  1.0  0.1255
  H  H35  1  0.826500  0.206100  0.586400  1.0  0.1234
  H  H36  1  0.717800  0.211300  0.605300  1.0  0.1312
  H  H37  1  0.217800  0.574400  0.584700  1.0  0.1127
  H  H38  1  0.133600  0.508400  0.592600  1.0  0.1382
  H  H39  1  0.157700  0.423100  0.634100  1.0  0.1129
  H  H40  1  0.596700  0.508700  0.814000  1.0  0.1273
  H  H41  1  0.647200  0.418400  0.812000  1.0  0.1226
  H  H42  1  0.605800  0.349400  0.766200  1.0  0.1221
  H  H43  1  0.640000  0.740800  0.480000  1.0  0.1275
  H  H44  1  0.673500  0.706100  0.413600  1.0  0.1237
  H  H45  1  0.782200  0.711300  0.394700  1.0  0.1312
  H  H46  1  0.282200  0.074400  0.415300  1.0  0.1124
  H  H47  1  0.366400  0.008400  0.407400  1.0  0.1369
  H  H48  1  0.342300  0.923100  0.365900  1.0  0.1133
  H  H49  1  0.903300  0.008700  0.186000  1.0  0.1283
  H  H50  1  0.852800  0.918400  0.188000  1.0  0.1224
  H  H51  1  0.894200  0.849400  0.233800  1.0  0.1221
  H  H52  1  0.360000  0.759200  0.980000  1.0  0.1252
  H  H53  1  0.326500  0.793900  0.913600  1.0  0.1237
  H  H54  1  0.217800  0.788700  0.894700  1.0  0.131
  H  H55  1  0.717800  0.425600  0.915300  1.0  0.1126
  H  H56  1  0.633600  0.491600  0.907400  1.0  0.1382
  H  H57  1  0.657700  0.576900  0.865900  1.0  0.1133
  H  H58  1  0.096700  0.491300  0.686000  1.0  0.1284
  H  H59  1  0.147200  0.581600  0.688000  1.0  0.1225
  H  H60  1  0.105800  0.650600  0.733800  1.0  0.1224
  H  H61  1  0.860000  0.740800  0.980000  1.0  0.1252
  H  H62  1  0.826500  0.706100  0.913600  1.0  0.1235
  H  H63  1  0.717800  0.711300  0.894700  1.0  0.1311
  H  H64  1  0.217800  0.074400  0.915300  1.0  0.1124
  H  H65  1  0.133600  0.008400  0.907400  1.0  0.1382
  H  H66  1  0.157700  0.923100  0.865900  1.0  0.1129
  H  H67  1  0.596700  0.008700  0.686000  1.0  0.1275
  H  H68  1  0.647200  0.918400  0.688000  1.0  0.122
  H  H69  1  0.605800  0.849400  0.733800  1.0  0.122
  H  H70  1  0.140000  0.759200  0.480000  1.0  0.1275
  H  H71  1  0.173500  0.793900  0.413600  1.0  0.1236
  H  H72  1  0.282200  0.788700  0.394700  1.0  0.131
  H  H73  1  0.782200  0.425600  0.415300  1.0  0.1125
  H  H74  1  0.866400  0.491600  0.407400  1.0  0.137
  H  H75  1  0.842300  0.576900  0.365900  1.0  0.1133
  H  H76  1  0.403300  0.491300  0.186000  1.0  0.1276
  H  H77  1  0.352800  0.581600  0.188000  1.0  0.1226
  H  H78  1  0.394200  0.650600  0.233800  1.0  0.1231
  H  H79  1  0.360000  0.259200  0.520000  1.0  0.1255
  H  H80  1  0.326500  0.293900  0.586400  1.0  0.1235
  H  H81  1  0.217800  0.288700  0.605300  1.0  0.1311
  H  H82  1  0.717800  0.925600  0.584700  1.0  0.1128
  H  H83  1  0.633600  0.991600  0.592600  1.0  0.1382
  H  H84  1  0.657700  0.076900  0.634100  1.0  0.1135
  H  H85  1  0.096700  0.991300  0.814000  1.0  0.1284
  H  H86  1  0.147200  0.081600  0.812000  1.0  0.1229
  H  H87  1  0.105800  0.150600  0.766200  1.0  0.122
  H  H88  1  0.640000  0.240800  0.020000  1.0  0.1274
  H  H89  1  0.673500  0.206100  0.086400  1.0  0.1239
  H  H90  1  0.782200  0.211300  0.105300  1.0  0.1312
  H  H91  1  0.282200  0.574400  0.084700  1.0  0.1129
  H  H92  1  0.366400  0.508400  0.092600  1.0  0.1368
  H  H93  1  0.342300  0.423100  0.134100  1.0  0.1133
  H  H94  1  0.903300  0.508700  0.314000  1.0  0.1281
  H  H95  1  0.852800  0.418400  0.312000  1.0  0.1229
  H  H96  1  0.894200  0.349400  0.266200  1.0  0.1223
  W  W97  1  0.065840  0.977260  0.100410  1.0  1.4133
  W  W98  1  0.129820  0.098310  0.131310  1.0  2.3148
  W  W99  1  0.180680  0.859940  0.075580  1.0  2.614
  W  W100  1  0.338740  0.871440  0.092330  1.0  1.3351
  W  W101  1  0.402960  0.011890  0.128240  1.0  2.5627
  W  W102  1  0.325670  0.077460  0.047260  1.0  2.5643
  W  W103  1  0.309720  0.923680  0.209220  1.0  1.3565
  W  W104  1  0.151740  0.902870  0.194360  1.0  1.3719
  W  W105  1  0.268900  0.937370  0.006100  1.0  1.2926
  W  W106  1  0.207630  0.027790  0.227240  1.0  1.3515
  W  W107  1  0.149660  0.053940  0.028040  1.0  1.3565
  W  W108  1  0.306390  0.119320  0.151440  1.0  1.3638
  W  W109  1  0.934160  0.522740  0.600410  1.0  1.4141
  W  W110  1  0.870180  0.401690  0.631310  1.0  2.3134
  W  W111  1  0.819320  0.640060  0.575580  1.0  2.6124
  W  W112  1  0.661260  0.628560  0.592330  1.0  1.3382
  W  W113  1  0.597040  0.488110  0.628240  1.0  2.5642
  W  W114  1  0.674330  0.422540  0.547260  1.0  2.564
  W  W115  1  0.690280  0.576320  0.709220  1.0  1.3636
  W  W116  1  0.848260  0.597130  0.694360  1.0  1.3788
  W  W117  1  0.731100  0.562630  0.506100  1.0  1.2931
  W  W118  1  0.792370  0.472210  0.727240  1.0  1.3499
  W  W119  1  0.850340  0.446060  0.528040  1.0  1.3554
  W  W120  1  0.693610  0.380680  0.651440  1.0  1.3586
  W  W121  1  0.565840  0.022740  0.399590  1.0  1.4124
  W  W122  1  0.629820  0.901690  0.368690  1.0  2.3125
  W  W123  1  0.680680  0.140060  0.424420  1.0  2.614
  W  W124  1  0.838740  0.128560  0.407670  1.0  1.3402
  W  W125  1  0.902960  0.988110  0.371760  1.0  2.562
  W  W126  1  0.825670  0.922540  0.452740  1.0  2.5639
  W  W127  1  0.809720  0.076320  0.290780  1.0  1.3663
  W  W128  1  0.651740  0.097130  0.305640  1.0  1.3785
  W  W129  1  0.768900  0.062630  0.493900  1.0  1.2911
  W  W130  1  0.707630  0.972210  0.272760  1.0  1.3508
  W  W131  1  0.649660  0.946060  0.471960  1.0  1.3524
  W  W132  1  0.806390  0.880680  0.348560  1.0  1.3591
  W  W133  1  0.434160  0.477260  0.899590  1.0  1.4074
  W  W134  1  0.370180  0.598310  0.868690  1.0  2.3158
  W  W135  1  0.319320  0.359940  0.924420  1.0  2.6132
  W  W136  1  0.161260  0.371440  0.907670  1.0  1.3352
  W  W137  1  0.097040  0.511890  0.871760  1.0  2.5641
  W  W138  1  0.174330  0.577460  0.952740  1.0  2.5649
  W  W139  1  0.190280  0.423680  0.790780  1.0  1.3592
  W  W140  1  0.348260  0.402870  0.805640  1.0  1.3718
  W  W141  1  0.231100  0.437370  0.993900  1.0  1.2917
  W  W142  1  0.292370  0.527790  0.772760  1.0  1.3542
  W  W143  1  0.350340  0.553940  0.971960  1.0  1.3528
  W  W144  1  0.193610  0.619320  0.848560  1.0  1.3657
  W  W145  1  0.934160  0.022740  0.899590  1.0  1.41
  W  W146  1  0.870180  0.901690  0.868690  1.0  2.3134
  W  W147  1  0.819320  0.140060  0.924420  1.0  2.6122
  W  W148  1  0.661260  0.128560  0.907670  1.0  1.3377
  W  W149  1  0.597040  0.988110  0.871760  1.0  2.5645
  W  W150  1  0.674330  0.922540  0.952740  1.0  2.5644
  W  W151  1  0.690280  0.076320  0.790780  1.0  1.3655
  W  W152  1  0.848260  0.097130  0.805640  1.0  1.379
  W  W153  1  0.731100  0.062630  0.993900  1.0  1.2911
  W  W154  1  0.792370  0.972210  0.772760  1.0  1.3512
  W  W155  1  0.850340  0.946060  0.971960  1.0  1.3524
  W  W156  1  0.693610  0.880680  0.848560  1.0  1.3585
  W  W157  1  0.065840  0.477260  0.399590  1.0  1.4107
  W  W158  1  0.129820  0.598310  0.368690  1.0  2.3143
  W  W159  1  0.180680  0.359940  0.424420  1.0  2.614
  W  W160  1  0.338740  0.371440  0.407670  1.0  1.3341
  W  W161  1  0.402960  0.511890  0.371760  1.0  2.5617
  W  W162  1  0.325670  0.577460  0.452740  1.0  2.5645
  W  W163  1  0.309720  0.423680  0.290780  1.0  1.3582
  W  W164  1  0.151740  0.402870  0.305640  1.0  1.3718
  W  W165  1  0.268900  0.437370  0.493900  1.0  1.2915
  W  W166  1  0.207630  0.527790  0.272760  1.0  1.3548
  W  W167  1  0.149660  0.553940  0.471960  1.0  1.3529
  W  W168  1  0.306390  0.619320  0.348560  1.0  1.3664
  W  W169  1  0.434160  0.977260  0.600410  1.0  1.4107
  W  W170  1  0.370180  0.098310  0.631310  1.0  2.3162
  W  W171  1  0.319320  0.859940  0.575580  1.0  2.6132
  W  W172  1  0.161260  0.871440  0.592330  1.0  1.336
  W  W173  1  0.097040  0.011890  0.628240  1.0  2.564
  W  W174  1  0.174330  0.077460  0.547260  1.0  2.5644
  W  W175  1  0.190280  0.923680  0.709220  1.0  1.3579
  W  W176  1  0.348260  0.902870  0.694360  1.0  1.3715
  W  W177  1  0.231100  0.937370  0.506100  1.0  1.2931
  W  W178  1  0.292370  0.027790  0.727240  1.0  1.3508
  W  W179  1  0.350340  0.053940  0.528040  1.0  1.3567
  W  W180  1  0.193610  0.119320  0.651440  1.0  1.3637
  W  W181  1  0.565840  0.522740  0.100410  1.0  1.4154
  W  W182  1  0.629820  0.401690  0.131310  1.0  2.3128
  W  W183  1  0.680680  0.640060  0.075580  1.0  2.6142
  W  W184  1  0.838740  0.628560  0.092330  1.0  1.3406
  W  W185  1  0.902960  0.488110  0.128240  1.0  2.5628
  W  W186  1  0.825670  0.422540  0.047260  1.0  2.5638
  W  W187  1  0.809720  0.576320  0.209220  1.0  1.3637
  W  W188  1  0.651740  0.597130  0.194360  1.0  1.3786
  W  W189  1  0.768900  0.562630  0.006100  1.0  1.2926
  W  W190  1  0.707630  0.472210  0.227240  1.0  1.3496
  W  W191  1  0.649660  0.446060  0.028040  1.0  1.3551
  W  W192  1  0.806390  0.380680  0.151440  1.0  1.3585
  C  C193  1  0.226700  0.236700  0.997900  1.0  0.236
  C  C194  1  0.184200  0.258300  0.027400  1.0  -0.0881
  C  C195  1  0.203500  0.278200  0.066200  1.0  -0.0758
  C  C196  1  0.267600  0.275900  0.077200  1.0  -0.11
  C  C197  1  0.311500  0.253900  0.045300  1.0  0.0989
  C  C198  1  0.212500  0.212600  0.954800  1.0  0.5908
  C  C199  1  0.385400  0.248700  0.051400  1.0  0.6189
  C  C200  1  0.713500  0.969400  0.122700  1.0  0.1349
  C  C201  1  0.775800  0.958800  0.101300  1.0  -0.0939
  C  C202  1  0.825500  0.997800  0.105400  1.0  -0.1517
  C  C203  1  0.810800  0.048700  0.130700  1.0  -0.1332
  C  C204  1  0.750000  0.055500  0.149800  1.0  0.2338
  C  C205  1  0.656900  0.934000  0.117600  1.0  0.6977
  C  C206  1  0.729400  0.108000  0.171100  1.0  0.6678
  C  C207  1  0.471500  0.011400  0.265400  1.0  0.1549
  C  C208  1  0.418200  0.020000  0.294900  1.0  -0.0954
  C  C209  1  0.389000  0.073900  0.293900  1.0  -0.1211
  C  C210  1  0.413500  0.114600  0.266700  1.0  -0.0574
  C  C211  1  0.465300  0.104300  0.240200  1.0  0.1757
  C  C212  1  0.502900  0.954500  0.258700  1.0  0.6254
  C  C213  1  0.492900  0.144600  0.205800  1.0  0.7065
  C  C214  1  0.773300  0.263300  0.497900  1.0  0.2368
  C  C215  1  0.815800  0.241700  0.527400  1.0  -0.0875
  C  C216  1  0.796500  0.221800  0.566200  1.0  -0.0739
  C  C217  1  0.732400  0.224100  0.577200  1.0  -0.1109
  C  C218  1  0.688500  0.246100  0.545300  1.0  0.099
  C  C219  1  0.787500  0.287400  0.454800  1.0  0.5884
  C  C220  1  0.614600  0.251300  0.551400  1.0  0.6154
  C  C221  1  0.286500  0.530600  0.622700  1.0  0.135
  C  C222  1  0.224200  0.541200  0.601300  1.0  -0.0942
  C  C223  1  0.174500  0.502200  0.605400  1.0  -0.1528
  C  C224  1  0.189200  0.451300  0.630700  1.0  -0.1338
  C  C225  1  0.250000  0.444500  0.649800  1.0  0.234
  C  C226  1  0.343100  0.566000  0.617600  1.0  0.6967
  C  C227  1  0.270600  0.392000  0.671100  1.0  0.6673
  C  C228  1  0.528500  0.488600  0.765400  1.0  0.1557
  C  C229  1  0.581800  0.480000  0.794900  1.0  -0.0946
  C  C230  1  0.611000  0.426100  0.793900  1.0  -0.1179
  C  C231  1  0.586500  0.385400  0.766700  1.0  -0.0608
  C  C232  1  0.534700  0.395700  0.740200  1.0  0.1763
  C  C233  1  0.497100  0.545500  0.758700  1.0  0.6245
  C  C234  1  0.507100  0.355400  0.705800  1.0  0.7065
  C  C235  1  0.726700  0.763300  0.502100  1.0  0.2358
  C  C236  1  0.684200  0.741700  0.472600  1.0  -0.0888
  C  C237  1  0.703500  0.721800  0.433800  1.0  -0.0762
  C  C238  1  0.767600  0.724100  0.422800  1.0  -0.1097
  C  C239  1  0.811500  0.746100  0.454700  1.0  0.0991
  C  C240  1  0.712500  0.787400  0.545200  1.0  0.5874
  C  C241  1  0.885400  0.751300  0.448600  1.0  0.6189
  C  C242  1  0.213500  0.030600  0.377300  1.0  0.1349
  C  C243  1  0.275800  0.041200  0.398700  1.0  -0.0941
  C  C244  1  0.325500  0.002200  0.394600  1.0  -0.1517
  C  C245  1  0.310800  0.951300  0.369300  1.0  -0.1319
  C  C246  1  0.250000  0.944500  0.350200  1.0  0.2333
  C  C247  1  0.156900  0.066000  0.382400  1.0  0.6967
  C  C248  1  0.229400  0.892000  0.328900  1.0  0.667
  C  C249  1  0.971500  0.988600  0.234600  1.0  0.1559
  C  C250  1  0.918200  0.980000  0.205100  1.0  -0.0955
  C  C251  1  0.889000  0.926100  0.206100  1.0  -0.1206
  C  C252  1  0.913500  0.885400  0.233300  1.0  -0.0594
  C  C253  1  0.965300  0.895700  0.259800  1.0  0.1763
  C  C254  1  0.002900  0.045500  0.241300  1.0  0.6245
  C  C255  1  0.992900  0.855400  0.294200  1.0  0.7073
  C  C256  1  0.273300  0.736700  0.002100  1.0  0.237
  C  C257  1  0.315800  0.758300  0.972600  1.0  -0.0872
  C  C258  1  0.296500  0.778200  0.933800  1.0  -0.0747
  C  C259  1  0.232400  0.775900  0.922800  1.0  -0.1104
  C  C260  1  0.188500  0.753900  0.954700  1.0  0.0986
  C  C261  1  0.287500  0.712600  0.045200  1.0  0.5868
  C  C262  1  0.114600  0.748700  0.948600  1.0  0.6148
  C  C263  1  0.786500  0.469400  0.877300  1.0  0.1352
  C  C264  1  0.724200  0.458800  0.898700  1.0  -0.0944
  C  C265  1  0.674500  0.497800  0.894600  1.0  -0.1527
  C  C266  1  0.689200  0.548700  0.869300  1.0  -0.1334
  C  C267  1  0.750000  0.555500  0.850200  1.0  0.2337
  C  C268  1  0.843100  0.434000  0.882400  1.0  0.6974
  C  C269  1  0.770600  0.608000  0.828900  1.0  0.6679
  C  C270  1  0.028500  0.511400  0.734600  1.0  0.1547
  C  C271  1  0.081800  0.520000  0.705100  1.0  -0.0956
  C  C272  1  0.111000  0.573900  0.706100  1.0  -0.1179
  C  C273  1  0.086500  0.614600  0.733300  1.0  -0.0556
  C  C274  1  0.034700  0.604300  0.759800  1.0  0.1756
  C  C275  1  0.997100  0.454500  0.741300  1.0  0.6251
  C  C276  1  0.007100  0.644600  0.794200  1.0  0.7059
  C  C277  1  0.773300  0.763300  0.002100  1.0  0.2364
  C  C278  1  0.815800  0.741700  0.972600  1.0  -0.087
  C  C279  1  0.796500  0.721800  0.933800  1.0  -0.0747
  C  C280  1  0.732400  0.724100  0.922800  1.0  -0.1101
  C  C281  1  0.688500  0.746100  0.954700  1.0  0.0986
  C  C282  1  0.787500  0.787400  0.045200  1.0  0.5863
  C  C283  1  0.614600  0.751300  0.948600  1.0  0.6152
  C  C284  1  0.286500  0.030600  0.877300  1.0  0.1349
  C  C285  1  0.224200  0.041200  0.898700  1.0  -0.0948
  C  C286  1  0.174500  0.002200  0.894600  1.0  -0.153
  C  C287  1  0.189200  0.951300  0.869300  1.0  -0.1328
  C  C288  1  0.250000  0.944500  0.850200  1.0  0.2337
  C  C289  1  0.343100  0.066000  0.882400  1.0  0.6965
  C  C290  1  0.270600  0.892000  0.828900  1.0  0.6669
  C  C291  1  0.528500  0.988600  0.734600  1.0  0.1559
  C  C292  1  0.581800  0.980000  0.705100  1.0  -0.0954
  C  C293  1  0.611000  0.926100  0.706100  1.0  -0.1184
  C  C294  1  0.586500  0.885400  0.733300  1.0  -0.0604
  C  C295  1  0.534700  0.895700  0.759800  1.0  0.1762
  C  C296  1  0.497100  0.045500  0.741300  1.0  0.6248
  C  C297  1  0.507100  0.855400  0.794200  1.0  0.7066
  C  C298  1  0.226700  0.736700  0.502100  1.0  0.2361
  C  C299  1  0.184200  0.758300  0.472600  1.0  -0.0886
  C  C300  1  0.203500  0.778200  0.433800  1.0  -0.076
  C  C301  1  0.267600  0.775900  0.422800  1.0  -0.1102
  C  C302  1  0.311500  0.753900  0.454700  1.0  0.099
  C  C303  1  0.212500  0.712600  0.545200  1.0  0.5876
  C  C304  1  0.385400  0.748700  0.448600  1.0  0.619
  C  C305  1  0.713500  0.469400  0.377300  1.0  0.1347
  C  C306  1  0.775800  0.458800  0.398700  1.0  -0.0941
  C  C307  1  0.825500  0.497800  0.394600  1.0  -0.151
  C  C308  1  0.810800  0.548700  0.369300  1.0  -0.1324
  C  C309  1  0.750000  0.555500  0.350200  1.0  0.2333
  C  C310  1  0.656900  0.434000  0.382400  1.0  0.6979
  C  C311  1  0.729400  0.608000  0.328900  1.0  0.6676
  C  C312  1  0.471500  0.511400  0.234600  1.0  0.1551
  C  C313  1  0.418200  0.520000  0.205100  1.0  -0.0957
  C  C314  1  0.389000  0.573900  0.206100  1.0  -0.1205
  C  C315  1  0.413500  0.614600  0.233300  1.0  -0.0569
  C  C316  1  0.465300  0.604300  0.259800  1.0  0.1759
  C  C317  1  0.502900  0.454500  0.241300  1.0  0.6259
  C  C318  1  0.492900  0.644600  0.294200  1.0  0.7062
  C  C319  1  0.273300  0.236700  0.497900  1.0  0.2369
  C  C320  1  0.315800  0.258300  0.527400  1.0  -0.0874
  C  C321  1  0.296500  0.278200  0.566200  1.0  -0.074
  C  C322  1  0.232400  0.275900  0.577200  1.0  -0.1117
  C  C323  1  0.188500  0.253900  0.545300  1.0  0.0989
  C  C324  1  0.287500  0.212600  0.454800  1.0  0.5893
  C  C325  1  0.114600  0.248700  0.551400  1.0  0.6148
  C  C326  1  0.786500  0.969400  0.622700  1.0  0.1354
  C  C327  1  0.724200  0.958800  0.601300  1.0  -0.094
  C  C328  1  0.674500  0.997800  0.605400  1.0  -0.1524
  C  C329  1  0.689200  0.048700  0.630700  1.0  -0.1345
  C  C330  1  0.750000  0.055500  0.649800  1.0  0.2339
  C  C331  1  0.843100  0.934000  0.617600  1.0  0.6977
  C  C332  1  0.770600  0.108000  0.671100  1.0  0.6682
  C  C333  1  0.028500  0.011400  0.765400  1.0  0.1545
  C  C334  1  0.081800  0.020000  0.794900  1.0  -0.095
  C  C335  1  0.111000  0.073900  0.793900  1.0  -0.1188
  C  C336  1  0.086500  0.114600  0.766700  1.0  -0.0558
  C  C337  1  0.034700  0.104300  0.740200  1.0  0.1757
  C  C338  1  0.997100  0.954500  0.758700  1.0  0.6246
  C  C339  1  0.007100  0.144600  0.705800  1.0  0.7066
  C  C340  1  0.726700  0.263300  0.997900  1.0  0.2362
  C  C341  1  0.684200  0.241700  0.027400  1.0  -0.0885
  C  C342  1  0.703500  0.221800  0.066200  1.0  -0.0759
  C  C343  1  0.767600  0.224100  0.077200  1.0  -0.1091
  C  C344  1  0.811500  0.246100  0.045300  1.0  0.0991
  C  C345  1  0.712500  0.287400  0.954800  1.0  0.5905
  C  C346  1  0.885400  0.251300  0.051400  1.0  0.6189
  C  C347  1  0.213500  0.530600  0.122700  1.0  0.1347
  C  C348  1  0.275800  0.541200  0.101300  1.0  -0.0937
  C  C349  1  0.325500  0.502200  0.105400  1.0  -0.1524
  C  C350  1  0.310800  0.451300  0.130700  1.0  -0.1325
  C  C351  1  0.250000  0.444500  0.149800  1.0  0.2338
  C  C352  1  0.156900  0.566000  0.117600  1.0  0.6964
  C  C353  1  0.229400  0.392000  0.171100  1.0  0.6673
  C  C354  1  0.971500  0.488600  0.265400  1.0  0.1558
  C  C355  1  0.918200  0.480000  0.294900  1.0  -0.095
  C  C356  1  0.889000  0.426100  0.293900  1.0  -0.1197
  C  C357  1  0.913500  0.385400  0.266700  1.0  -0.0599
  C  C358  1  0.965300  0.395700  0.240200  1.0  0.1764
  C  C359  1  0.002900  0.545500  0.258700  1.0  0.6242
  C  C360  1  0.992900  0.355400  0.205800  1.0  0.7067
  N  N361  1  0.291700  0.233800  0.006500  1.0  -0.3769
  N  N362  1  0.703300  0.018100  0.145200  1.0  -0.3682
  N  N363  1  0.494200  0.052800  0.239600  1.0  -0.4169
  N  N364  1  0.708300  0.266200  0.506500  1.0  -0.3773
  N  N365  1  0.296700  0.481900  0.645200  1.0  -0.3693
  N  N366  1  0.505800  0.447200  0.739600  1.0  -0.4168
  N  N367  1  0.791700  0.766200  0.493500  1.0  -0.3749
  N  N368  1  0.203300  0.981900  0.354800  1.0  -0.3686
  N  N369  1  0.994200  0.947200  0.260400  1.0  -0.4151
  N  N370  1  0.208300  0.733800  0.993500  1.0  -0.3761
  N  N371  1  0.796700  0.518100  0.854800  1.0  -0.3699
  N  N372  1  0.005800  0.552800  0.760400  1.0  -0.4162
  N  N373  1  0.708300  0.766200  0.993500  1.0  -0.376
  N  N374  1  0.296700  0.981900  0.854800  1.0  -0.3698
  N  N375  1  0.505800  0.947200  0.760400  1.0  -0.4158
  N  N376  1  0.291700  0.733800  0.493500  1.0  -0.3747
  N  N377  1  0.703300  0.518100  0.354800  1.0  -0.3682
  N  N378  1  0.494200  0.552800  0.260400  1.0  -0.4156
  N  N379  1  0.208300  0.233800  0.506500  1.0  -0.3788
  N  N380  1  0.796700  0.018100  0.645200  1.0  -0.3696
  N  N381  1  0.005800  0.052800  0.739600  1.0  -0.4173
  N  N382  1  0.791700  0.266200  0.006500  1.0  -0.3761
  N  N383  1  0.203300  0.481900  0.145200  1.0  -0.3684
  N  N384  1  0.994200  0.447200  0.239600  1.0  -0.4164
  O  O385  1  0.161600  0.022700  0.099200  1.0  -0.9058
  O  O386  1  0.252900  0.929300  0.080900  1.0  -0.9261
  O  O387  1  0.223400  0.967000  0.173800  1.0  -0.8804
  O  O388  1  0.237400  0.086200  0.036300  1.0  -0.7563
  O  O389  1  0.114800  0.913400  0.072900  1.0  -0.7469
  O  O390  1  0.148500  0.209800  0.944200  1.0  -0.4673
  O  O391  1  0.338600  0.889800  0.027800  1.0  -0.6333
  O  O392  1  0.321500  0.878300  0.154600  1.0  -0.735
  O  O393  1  0.387800  0.085300  0.160200  1.0  -0.7547
  O  O394  1  0.471400  0.193100  0.201900  1.0  -0.6496
  O  O395  1  0.540200  0.125900  0.181500  1.0  -0.6752
  O  O396  1  0.083700  0.157200  0.148800  1.0  -0.808
  O  O397  1  0.048000  0.048600  0.125000  1.0  -0.6847
  O  O398  1  0.174300  0.862200  0.139000  1.0  -0.778
  O  O399  1  0.145800  0.060600  0.187400  1.0  -0.7287
  O  O400  1  0.139700  0.796900  0.063300  1.0  -0.8054
  O  O401  1  0.319900  0.003300  0.019800  1.0  -0.6786
  O  O402  1  0.269300  0.076000  0.201600  1.0  -0.6732
  O  O403  1  0.230700  0.877200  0.220600  1.0  -0.6635
  O  O404  1  0.388900  0.942200  0.100000  1.0  -0.7575
  O  O405  1  0.411200  0.052500  0.073400  1.0  -0.6499
  O  O406  1  0.072500  0.012200  0.039400  1.0  -0.7294
  O  O407  1  0.358500  0.117500  0.002900  1.0  -0.7764
  O  O408  1  0.276000  0.978300  0.251400  1.0  -0.6643
  O  O409  1  0.326000  0.140800  0.090700  1.0  -0.6705
  O  O410  1  0.196500  0.989300  0.006400  1.0  -0.6506
  O  O411  1  0.542500  0.949400  0.227400  1.0  -0.6475
  O  O412  1  0.483600  0.009400  0.142900  1.0  -0.7947
  O  O413  1  0.671300  0.112800  0.182900  1.0  -0.6417
  O  O414  1  0.365600  0.977600  0.181400  1.0  -0.7396
  O  O415  1  0.145200  0.962900  0.239300  1.0  -0.7549
  O  O416  1  0.252800  0.194300  0.927900  1.0  -0.6017
  O  O417  1  0.207800  0.875700  0.013900  1.0  -0.6791
  O  O418  1  0.402700  0.266700  0.092000  1.0  -0.7456
  O  O419  1  0.664000  0.886800  0.095800  1.0  -0.7789
  O  O420  1  0.119400  0.115900  0.067200  1.0  -0.6768
  O  O421  1  0.266300  0.823600  0.084300  1.0  -0.738
  O  O422  1  0.484100  0.916000  0.286900  1.0  -0.5203
  O  O423  1  0.092800  0.944200  0.155600  1.0  -0.6952
  O  O424  1  0.770800  0.150000  0.174900  1.0  -0.4953
  O  O425  1  0.213200  0.126600  0.134400  1.0  -0.7256
  O  O426  1  0.605800  0.946800  0.137300  1.0  -0.62
  O  O427  1  0.304100  0.037200  0.111300  1.0  -0.8595
  O  O428  1  0.418500  0.230400  0.021000  1.0  -0.5538
  O  O429  1  0.838400  0.477300  0.599200  1.0  -0.9059
  O  O430  1  0.747100  0.570700  0.580900  1.0  -0.9265
  O  O431  1  0.776600  0.533000  0.673800  1.0  -0.8809
  O  O432  1  0.762600  0.413800  0.536300  1.0  -0.7561
  O  O433  1  0.885200  0.586600  0.572900  1.0  -0.7446
  O  O434  1  0.851500  0.290200  0.444200  1.0  -0.4658
  O  O435  1  0.661400  0.610200  0.527800  1.0  -0.6328
  O  O436  1  0.678500  0.621700  0.654600  1.0  -0.734
  O  O437  1  0.612200  0.414700  0.660200  1.0  -0.757
  O  O438  1  0.528600  0.306900  0.701900  1.0  -0.6481
  O  O439  1  0.459800  0.374100  0.681500  1.0  -0.6759
  O  O440  1  0.916300  0.342800  0.648800  1.0  -0.8089
  O  O441  1  0.952000  0.451400  0.625000  1.0  -0.6835
  O  O442  1  0.825700  0.637800  0.639000  1.0  -0.779
  O  O443  1  0.854200  0.439400  0.687400  1.0  -0.7276
  O  O444  1  0.860300  0.703100  0.563300  1.0  -0.8047
  O  O445  1  0.680100  0.496700  0.519800  1.0  -0.6818
  O  O446  1  0.730700  0.424000  0.701600  1.0  -0.6759
  O  O447  1  0.769300  0.622800  0.720600  1.0  -0.6522
  O  O448  1  0.611100  0.557800  0.600000  1.0  -0.7585
  O  O449  1  0.588800  0.447500  0.573400  1.0  -0.6467
  O  O450  1  0.927500  0.487800  0.539400  1.0  -0.7293
  O  O451  1  0.641500  0.382500  0.502900  1.0  -0.7746
  O  O452  1  0.724000  0.521700  0.751400  1.0  -0.6648
  O  O453  1  0.674000  0.359200  0.590700  1.0  -0.6701
  O  O454  1  0.803500  0.510700  0.506400  1.0  -0.6501
  O  O455  1  0.457500  0.550600  0.727400  1.0  -0.6476
  O  O456  1  0.516400  0.490600  0.642900  1.0  -0.7935
  O  O457  1  0.328700  0.387200  0.682900  1.0  -0.6412
  O  O458  1  0.634400  0.522400  0.681400  1.0  -0.7399
  O  O459  1  0.854800  0.537100  0.739300  1.0  -0.7553
  O  O460  1  0.747200  0.305700  0.427900  1.0  -0.6012
  O  O461  1  0.792200  0.624300  0.513900  1.0  -0.6785
  O  O462  1  0.597300  0.233300  0.592000  1.0  -0.7415
  O  O463  1  0.336000  0.613200  0.595800  1.0  -0.7793
  O  O464  1  0.880600  0.384100  0.567200  1.0  -0.6749
  O  O465  1  0.733700  0.676400  0.584300  1.0  -0.7369
  O  O466  1  0.515900  0.584000  0.786900  1.0  -0.5209
  O  O467  1  0.907200  0.555800  0.655600  1.0  -0.6973
  O  O468  1  0.229200  0.350000  0.674900  1.0  -0.4981
  O  O469  1  0.786800  0.373400  0.634400  1.0  -0.7237
  O  O470  1  0.394200  0.553200  0.637300  1.0  -0.6197
  O  O471  1  0.695900  0.462800  0.611300  1.0  -0.8595
  O  O472  1  0.581500  0.269600  0.521000  1.0  -0.5542
  O  O473  1  0.661600  0.977300  0.400800  1.0  -0.9062
  O  O474  1  0.752900  0.070700  0.419100  1.0  -0.9285
  O  O475  1  0.723400  0.033000  0.326200  1.0  -0.8785
  O  O476  1  0.737400  0.913800  0.463700  1.0  -0.7575
  O  O477  1  0.614800  0.086600  0.427100  1.0  -0.7455
  O  O478  1  0.648500  0.790200  0.555800  1.0  -0.4659
  O  O479  1  0.838600  0.110200  0.472200  1.0  -0.6328
  O  O480  1  0.821500  0.121700  0.345400  1.0  -0.7331
  O  O481  1  0.887800  0.914700  0.339800  1.0  -0.7565
  O  O482  1  0.971400  0.806900  0.298100  1.0  -0.6502
  O  O483  1  0.040200  0.874100  0.318500  1.0  -0.6755
  O  O484  1  0.583700  0.842800  0.351200  1.0  -0.8095
  O  O485  1  0.548000  0.951400  0.375000  1.0  -0.6852
  O  O486  1  0.674300  0.137800  0.361000  1.0  -0.7801
  O  O487  1  0.645800  0.939400  0.312600  1.0  -0.7278
  O  O488  1  0.639700  0.203100  0.436700  1.0  -0.8081
  O  O489  1  0.819900  0.996700  0.480200  1.0  -0.677
  O  O490  1  0.769300  0.924000  0.298400  1.0  -0.6734
  O  O491  1  0.730700  0.122800  0.279400  1.0  -0.6545
  O  O492  1  0.888900  0.057800  0.400000  1.0  -0.7583
  O  O493  1  0.911200  0.947500  0.426600  1.0  -0.6476
  O  O494  1  0.572500  0.987800  0.460600  1.0  -0.7275
  O  O495  1  0.858500  0.882500  0.497100  1.0  -0.7759
  O  O496  1  0.776000  0.021700  0.248600  1.0  -0.6669
  O  O497  1  0.826000  0.859200  0.409300  1.0  -0.6711
  O  O498  1  0.696500  0.010700  0.493600  1.0  -0.651
  O  O499  1  0.042500  0.050600  0.272600  1.0  -0.646
  O  O500  1  0.983600  0.990600  0.357100  1.0  -0.7933
  O  O501  1  0.171300  0.887200  0.317100  1.0  -0.6424
  O  O502  1  0.865600  0.022400  0.318600  1.0  -0.7406
  O  O503  1  0.645200  0.037100  0.260700  1.0  -0.755
  O  O504  1  0.752800  0.805700  0.572100  1.0  -0.6035
  O  O505  1  0.707800  0.124300  0.486100  1.0  -0.6794
  O  O506  1  0.902700  0.733300  0.408000  1.0  -0.7459
  O  O507  1  0.164000  0.113200  0.404200  1.0  -0.7805
  O  O508  1  0.619400  0.884100  0.432800  1.0  -0.6749
  O  O509  1  0.766300  0.176400  0.415700  1.0  -0.7382
  O  O510  1  0.984100  0.084000  0.213100  1.0  -0.5218
  O  O511  1  0.592800  0.055800  0.344400  1.0  -0.6957
  O  O512  1  0.270800  0.850000  0.325100  1.0  -0.4965
  O  O513  1  0.713200  0.873400  0.365600  1.0  -0.7239
  O  O514  1  0.105800  0.053200  0.362700  1.0  -0.6198
  O  O515  1  0.804100  0.962800  0.388700  1.0  -0.859
  O  O516  1  0.918500  0.769600  0.479000  1.0  -0.5544
  O  O517  1  0.338400  0.522700  0.900800  1.0  -0.906
  O  O518  1  0.247100  0.429300  0.919100  1.0  -0.927
  O  O519  1  0.276600  0.467000  0.826200  1.0  -0.8787
  O  O520  1  0.262600  0.586200  0.963700  1.0  -0.7558
  O  O521  1  0.385200  0.413400  0.927100  1.0  -0.7452
  O  O522  1  0.351500  0.709800  0.055800  1.0  -0.4671
  O  O523  1  0.161400  0.389800  0.972200  1.0  -0.6309
  O  O524  1  0.178500  0.378300  0.845400  1.0  -0.7364
  O  O525  1  0.112200  0.585300  0.839800  1.0  -0.7569
  O  O526  1  0.028600  0.693100  0.798100  1.0  -0.6492
  O  O527  1  0.959800  0.625900  0.818500  1.0  -0.6752
  O  O528  1  0.416300  0.657200  0.851200  1.0  -0.8089
  O  O529  1  0.452000  0.548600  0.875000  1.0  -0.6847
  O  O530  1  0.325700  0.362200  0.861000  1.0  -0.7783
  O  O531  1  0.354200  0.560600  0.812600  1.0  -0.7289
  O  O532  1  0.360300  0.296900  0.936700  1.0  -0.8032
  O  O533  1  0.180100  0.503300  0.980200  1.0  -0.6787
  O  O534  1  0.230700  0.576000  0.798400  1.0  -0.6736
  O  O535  1  0.269300  0.377200  0.779400  1.0  -0.6637
  O  O536  1  0.111100  0.442200  0.900000  1.0  -0.7573
  O  O537  1  0.088800  0.552500  0.926600  1.0  -0.6456
  O  O538  1  0.427500  0.512200  0.960600  1.0  -0.7281
  O  O539  1  0.141500  0.617500  0.997100  1.0  -0.7736
  O  O540  1  0.224000  0.478300  0.748600  1.0  -0.6669
  O  O541  1  0.174000  0.640800  0.909300  1.0  -0.6694
  O  O542  1  0.303500  0.489300  0.993600  1.0  -0.6509
  O  O543  1  0.957500  0.449400  0.772600  1.0  -0.6477
  O  O544  1  0.016400  0.509400  0.857100  1.0  -0.7929
  O  O545  1  0.828700  0.612800  0.817100  1.0  -0.6434
  O  O546  1  0.134400  0.477600  0.818600  1.0  -0.74
  O  O547  1  0.354800  0.462900  0.760700  1.0  -0.7543
  O  O548  1  0.247200  0.694300  0.072100  1.0  -0.6033
  O  O549  1  0.292200  0.375700  0.986100  1.0  -0.6795
  O  O550  1  0.097300  0.766700  0.908000  1.0  -0.7447
  O  O551  1  0.836000  0.386800  0.904200  1.0  -0.7796
  O  O552  1  0.380600  0.615900  0.932800  1.0  -0.6753
  O  O553  1  0.233700  0.323600  0.915700  1.0  -0.7381
  O  O554  1  0.015900  0.416000  0.713100  1.0  -0.5209
  O  O555  1  0.407200  0.444200  0.844400  1.0  -0.6949
  O  O556  1  0.729200  0.650000  0.825100  1.0  -0.5005
  O  O557  1  0.286800  0.626600  0.865600  1.0  -0.7265
  O  O558  1  0.894200  0.446800  0.862700  1.0  -0.6199
  O  O559  1  0.195900  0.537200  0.888700  1.0  -0.8601
  O  O560  1  0.081500  0.730400  0.979000  1.0  -0.5542
  O  O561  1  0.838400  0.977300  0.900800  1.0  -0.9061
  O  O562  1  0.747100  0.070700  0.919100  1.0  -0.9282
  O  O563  1  0.776600  0.033000  0.826200  1.0  -0.8789
  O  O564  1  0.762600  0.913800  0.963700  1.0  -0.7565
  O  O565  1  0.885200  0.086600  0.927100  1.0  -0.7447
  O  O566  1  0.851500  0.790200  0.055800  1.0  -0.4663
  O  O567  1  0.661400  0.110200  0.972200  1.0  -0.631
  O  O568  1  0.678500  0.121700  0.845400  1.0  -0.7351
  O  O569  1  0.612200  0.914700  0.839800  1.0  -0.7574
  O  O570  1  0.528600  0.806900  0.798100  1.0  -0.648
  O  O571  1  0.459800  0.874100  0.818500  1.0  -0.675
  O  O572  1  0.916300  0.842800  0.851200  1.0  -0.8094
  O  O573  1  0.952000  0.951400  0.875000  1.0  -0.6842
  O  O574  1  0.825700  0.137800  0.861000  1.0  -0.7794
  O  O575  1  0.854200  0.939400  0.812600  1.0  -0.7274
  O  O576  1  0.860300  0.203100  0.936700  1.0  -0.8043
  O  O577  1  0.680100  0.996700  0.980200  1.0  -0.679
  O  O578  1  0.730700  0.924000  0.798400  1.0  -0.6746
  O  O579  1  0.769300  0.122800  0.779400  1.0  -0.6542
  O  O580  1  0.611100  0.057800  0.900000  1.0  -0.7581
  O  O581  1  0.588800  0.947500  0.926600  1.0  -0.6453
  O  O582  1  0.927500  0.987800  0.960600  1.0  -0.7284
  O  O583  1  0.641500  0.882500  0.997100  1.0  -0.7736
  O  O584  1  0.724000  0.021700  0.748600  1.0  -0.6671
  O  O585  1  0.674000  0.859200  0.909300  1.0  -0.6704
  O  O586  1  0.803500  0.010700  0.993600  1.0  -0.6509
  O  O587  1  0.457500  0.050600  0.772600  1.0  -0.6464
  O  O588  1  0.516400  0.990600  0.857100  1.0  -0.7928
  O  O589  1  0.328700  0.887200  0.817100  1.0  -0.6411
  O  O590  1  0.634400  0.022400  0.818600  1.0  -0.7407
  O  O591  1  0.854800  0.037100  0.760700  1.0  -0.7548
  O  O592  1  0.747200  0.805700  0.072100  1.0  -0.6038
  O  O593  1  0.792200  0.124300  0.986100  1.0  -0.6792
  O  O594  1  0.597300  0.733300  0.908000  1.0  -0.7455
  O  O595  1  0.336000  0.113200  0.904200  1.0  -0.7799
  O  O596  1  0.880600  0.884100  0.932800  1.0  -0.6748
  O  O597  1  0.733700  0.176400  0.915700  1.0  -0.738
  O  O598  1  0.515900  0.084000  0.713100  1.0  -0.5215
  O  O599  1  0.907200  0.055800  0.844400  1.0  -0.696
  O  O600  1  0.229200  0.850000  0.825100  1.0  -0.4992
  O  O601  1  0.786800  0.873400  0.865600  1.0  -0.7245
  O  O602  1  0.394200  0.053200  0.862700  1.0  -0.619
  O  O603  1  0.695900  0.962800  0.888700  1.0  -0.8595
  O  O604  1  0.581500  0.769600  0.979000  1.0  -0.5542
  O  O605  1  0.161600  0.522700  0.400800  1.0  -0.9064
  O  O606  1  0.252900  0.429300  0.419100  1.0  -0.9274
  O  O607  1  0.223400  0.467000  0.326200  1.0  -0.8784
  O  O608  1  0.237400  0.586200  0.463700  1.0  -0.7568
  O  O609  1  0.114800  0.413400  0.427100  1.0  -0.7457
  O  O610  1  0.148500  0.709800  0.555800  1.0  -0.4666
  O  O611  1  0.338600  0.389800  0.472200  1.0  -0.6322
  O  O612  1  0.321500  0.378300  0.345400  1.0  -0.7341
  O  O613  1  0.387800  0.585300  0.339800  1.0  -0.7556
  O  O614  1  0.471400  0.693100  0.298100  1.0  -0.6495
  O  O615  1  0.540200  0.625900  0.318500  1.0  -0.6748
  O  O616  1  0.083700  0.657200  0.351200  1.0  -0.8094
  O  O617  1  0.048000  0.548600  0.375000  1.0  -0.6855
  O  O618  1  0.174300  0.362200  0.361000  1.0  -0.7783
  O  O619  1  0.145800  0.560600  0.312600  1.0  -0.7296
  O  O620  1  0.139700  0.296900  0.436700  1.0  -0.8068
  O  O621  1  0.319900  0.503300  0.480200  1.0  -0.6771
  O  O622  1  0.269300  0.576000  0.298400  1.0  -0.6735
  O  O623  1  0.230700  0.377200  0.279400  1.0  -0.6633
  O  O624  1  0.388900  0.442200  0.400000  1.0  -0.7577
  O  O625  1  0.411200  0.552500  0.426600  1.0  -0.6478
  O  O626  1  0.072500  0.512200  0.460600  1.0  -0.7275
  O  O627  1  0.358500  0.617500  0.497100  1.0  -0.776
  O  O628  1  0.276000  0.478300  0.248600  1.0  -0.6667
  O  O629  1  0.326000  0.640800  0.409300  1.0  -0.6709
  O  O630  1  0.196500  0.489300  0.493600  1.0  -0.6512
  O  O631  1  0.542500  0.449400  0.272600  1.0  -0.6465
  O  O632  1  0.483600  0.509400  0.357100  1.0  -0.7937
  O  O633  1  0.671300  0.612800  0.317100  1.0  -0.6413
  O  O634  1  0.365600  0.477600  0.318600  1.0  -0.7399
  O  O635  1  0.145200  0.462900  0.260700  1.0  -0.7547
  O  O636  1  0.252800  0.694300  0.572100  1.0  -0.6031
  O  O637  1  0.207800  0.375700  0.486100  1.0  -0.6797
  O  O638  1  0.402700  0.766700  0.408000  1.0  -0.7451
  O  O639  1  0.664000  0.386800  0.404200  1.0  -0.7789
  O  O640  1  0.119400  0.615900  0.432800  1.0  -0.6752
  O  O641  1  0.266300  0.323600  0.415700  1.0  -0.7382
  O  O642  1  0.484100  0.416000  0.213100  1.0  -0.5208
  O  O643  1  0.092800  0.444200  0.344400  1.0  -0.6945
  O  O644  1  0.770800  0.650000  0.325100  1.0  -0.4968
  O  O645  1  0.213200  0.626600  0.365600  1.0  -0.7269
  O  O646  1  0.605800  0.446800  0.362700  1.0  -0.6192
  O  O647  1  0.304100  0.537200  0.388700  1.0  -0.8592
  O  O648  1  0.418500  0.730400  0.479000  1.0  -0.5544
  O  O649  1  0.338400  0.022700  0.599200  1.0  -0.9056
  O  O650  1  0.247100  0.929300  0.580900  1.0  -0.9257
  O  O651  1  0.276600  0.967000  0.673800  1.0  -0.8807
  O  O652  1  0.262600  0.086200  0.536300  1.0  -0.7555
  O  O653  1  0.385200  0.913400  0.572900  1.0  -0.7455
  O  O654  1  0.351500  0.209800  0.444200  1.0  -0.4649
  O  O655  1  0.161400  0.889800  0.527800  1.0  -0.6325
  O  O656  1  0.178500  0.878300  0.654600  1.0  -0.7367
  O  O657  1  0.112200  0.085300  0.660200  1.0  -0.7561
  O  O658  1  0.028600  0.193100  0.701900  1.0  -0.6492
  O  O659  1  0.959800  0.125900  0.681500  1.0  -0.6765
  O  O660  1  0.416300  0.157200  0.648800  1.0  -0.8078
  O  O661  1  0.452000  0.048600  0.625000  1.0  -0.6844
  O  O662  1  0.325700  0.862200  0.639000  1.0  -0.7784
  O  O663  1  0.354200  0.060600  0.687400  1.0  -0.7277
  O  O664  1  0.360300  0.796900  0.563300  1.0  -0.8037
  O  O665  1  0.180100  0.003300  0.519800  1.0  -0.6813
  O  O666  1  0.230700  0.076000  0.701600  1.0  -0.6735
  O  O667  1  0.269300  0.877200  0.720600  1.0  -0.6638
  O  O668  1  0.111100  0.942200  0.600000  1.0  -0.758
  O  O669  1  0.088800  0.052500  0.573400  1.0  -0.6472
  O  O670  1  0.427500  0.012200  0.539400  1.0  -0.7292
  O  O671  1  0.141500  0.117500  0.502900  1.0  -0.7749
  O  O672  1  0.224000  0.978300  0.751400  1.0  -0.6644
  O  O673  1  0.174000  0.140800  0.590700  1.0  -0.669
  O  O674  1  0.303500  0.989300  0.506400  1.0  -0.6502
  O  O675  1  0.957500  0.949400  0.727400  1.0  -0.649
  O  O676  1  0.016400  0.009400  0.642900  1.0  -0.7935
  O  O677  1  0.828700  0.112800  0.682900  1.0  -0.6438
  O  O678  1  0.134400  0.977600  0.681400  1.0  -0.7394
  O  O679  1  0.354800  0.962900  0.739300  1.0  -0.7544
  O  O680  1  0.247200  0.194300  0.427900  1.0  -0.6017
  O  O681  1  0.292200  0.875700  0.513900  1.0  -0.6788
  O  O682  1  0.097300  0.266700  0.592000  1.0  -0.7417
  O  O683  1  0.836000  0.886800  0.595800  1.0  -0.7793
  O  O684  1  0.380600  0.115900  0.567200  1.0  -0.6762
  O  O685  1  0.233700  0.823600  0.584300  1.0  -0.7377
  O  O686  1  0.015900  0.916000  0.786900  1.0  -0.5202
  O  O687  1  0.407200  0.944200  0.655600  1.0  -0.6962
  O  O688  1  0.729200  0.150000  0.674900  1.0  -0.4981
  O  O689  1  0.286800  0.126600  0.634400  1.0  -0.7251
  O  O690  1  0.894200  0.946800  0.637300  1.0  -0.6207
  O  O691  1  0.195900  0.037200  0.611300  1.0  -0.8601
  O  O692  1  0.081500  0.230400  0.521000  1.0  -0.5542
  O  O693  1  0.661600  0.477300  0.099200  1.0  -0.9057
  O  O694  1  0.752900  0.570700  0.080900  1.0  -0.9268
  O  O695  1  0.723400  0.533000  0.173800  1.0  -0.8806
  O  O696  1  0.737400  0.413800  0.036300  1.0  -0.7572
  O  O697  1  0.614800  0.586600  0.072900  1.0  -0.7466
  O  O698  1  0.648500  0.290200  0.944200  1.0  -0.4646
  O  O699  1  0.838600  0.610200  0.027800  1.0  -0.6342
  O  O700  1  0.821500  0.621700  0.154600  1.0  -0.7325
  O  O701  1  0.887800  0.414700  0.160200  1.0  -0.756
  O  O702  1  0.971400  0.306900  0.201900  1.0  -0.6502
  O  O703  1  0.040200  0.374100  0.181500  1.0  -0.6757
  O  O704  1  0.583700  0.342800  0.148800  1.0  -0.8088
  O  O705  1  0.548000  0.451400  0.125000  1.0  -0.6841
  O  O706  1  0.674300  0.637800  0.139000  1.0  -0.7792
  O  O707  1  0.645800  0.439400  0.187400  1.0  -0.728
  O  O708  1  0.639700  0.703100  0.063300  1.0  -0.8065
  O  O709  1  0.819900  0.496700  0.019800  1.0  -0.6785
  O  O710  1  0.769300  0.424000  0.201600  1.0  -0.6743
  O  O711  1  0.730700  0.622800  0.220600  1.0  -0.6528
  O  O712  1  0.888900  0.557800  0.100000  1.0  -0.7572
  O  O713  1  0.911200  0.447500  0.073400  1.0  -0.6491
  O  O714  1  0.572500  0.487800  0.039400  1.0  -0.7293
  O  O715  1  0.858500  0.382500  0.002900  1.0  -0.7756
  O  O716  1  0.776000  0.521700  0.251400  1.0  -0.6647
  O  O717  1  0.826000  0.359200  0.090700  1.0  -0.6708
  O  O718  1  0.696500  0.510700  0.006400  1.0  -0.6504
  O  O719  1  0.042500  0.550600  0.227400  1.0  -0.647
  O  O720  1  0.983600  0.490600  0.142900  1.0  -0.7946
  O  O721  1  0.171300  0.387200  0.182900  1.0  -0.6428
  O  O722  1  0.865600  0.522400  0.181400  1.0  -0.7402
  O  O723  1  0.645200  0.537100  0.239300  1.0  -0.7555
  O  O724  1  0.752800  0.305700  0.927900  1.0  -0.6012
  O  O725  1  0.707800  0.624300  0.013900  1.0  -0.6787
  O  O726  1  0.902700  0.233300  0.092000  1.0  -0.7459
  O  O727  1  0.164000  0.613200  0.095800  1.0  -0.7805
  O  O728  1  0.619400  0.384100  0.067200  1.0  -0.6756
  O  O729  1  0.766300  0.676400  0.084300  1.0  -0.7369
  O  O730  1  0.984100  0.584000  0.286900  1.0  -0.521
  O  O731  1  0.592800  0.555800  0.155600  1.0  -0.6965
  O  O732  1  0.270800  0.350000  0.174900  1.0  -0.4954
  O  O733  1  0.713200  0.373400  0.134400  1.0  -0.7236
  O  O734  1  0.105800  0.553200  0.137300  1.0  -0.6202
  O  O735  1  0.804100  0.462800  0.111300  1.0  -0.8592
  O  O736  1  0.918500  0.269600  0.021000  1.0  -0.5539
