# generated using pymatgen
data_CuH2C6(O2F)2
_symmetry_space_group_name_H-M   'P 1'
_cell_length_a   26.32900000
_cell_length_b   26.32900000
_cell_length_c   26.32900000
_cell_angle_alpha   90.00000000
_cell_angle_beta   90.00000000
_cell_angle_gamma   90.00000000
_symmetry_Int_Tables_number   1
_chemical_formula_structural   CuH2C6(O2F)2
_chemical_formula_sum   'Cu48 H96 C288 O192 F96'
_cell_volume   18251.69040929
_cell_formula_units_Z   48
loop_
 _symmetry_equiv_pos_site_id
 _symmetry_equiv_pos_as_xyz
  1  'x, y, z'
loop_
 _atom_site_type_symbol
 _atom_site_label
 _atom_site_symmetry_multiplicity
 _atom_site_fract_x
 _atom_site_fract_y
 _atom_site_fract_z
 _atom_site_occupancy
 _atom_site_charge
  Cu  Cu1  1  0.500000  0.214390  0.714390  1.0  0.9089
  Cu  Cu2  1  0.000000  0.214390  0.214390  1.0  0.9089
  Cu  Cu3  1  0.500000  0.785610  0.714390  1.0  0.9106
  Cu  Cu4  1  0.000000  0.785610  0.214390  1.0  0.9106
  Cu  Cu5  1  0.500000  0.214390  0.285610  1.0  0.9088
  Cu  Cu6  1  0.000000  0.214390  0.785610  1.0  0.9088
  Cu  Cu7  1  0.500000  0.785610  0.285610  1.0  0.9106
  Cu  Cu8  1  0.000000  0.785610  0.785610  1.0  0.9106
  Cu  Cu9  1  0.714390  0.500000  0.214390  1.0  0.9106
  Cu  Cu10  1  0.714390  0.000000  0.714390  1.0  0.9106
  Cu  Cu11  1  0.714390  0.500000  0.785610  1.0  0.9089
  Cu  Cu12  1  0.714390  0.000000  0.285610  1.0  0.9089
  Cu  Cu13  1  0.285610  0.500000  0.214390  1.0  0.9084
  Cu  Cu14  1  0.285610  0.000000  0.714390  1.0  0.9084
  Cu  Cu15  1  0.285610  0.500000  0.785610  1.0  0.9086
  Cu  Cu16  1  0.285610  0.000000  0.285610  1.0  0.9086
  Cu  Cu17  1  0.214390  0.714390  0.500000  1.0  0.9128
  Cu  Cu18  1  0.214390  0.214390  0.000000  1.0  0.9128
  Cu  Cu19  1  0.785610  0.714390  0.500000  1.0  0.9109
  Cu  Cu20  1  0.785610  0.214390  0.000000  1.0  0.9109
  Cu  Cu21  1  0.214390  0.285610  0.500000  1.0  0.9135
  Cu  Cu22  1  0.214390  0.785610  0.000000  1.0  0.9135
  Cu  Cu23  1  0.785610  0.285610  0.500000  1.0  0.913
  Cu  Cu24  1  0.785610  0.785610  0.000000  1.0  0.913
  Cu  Cu25  1  0.214390  0.500000  0.285610  1.0  0.9089
  Cu  Cu26  1  0.214390  0.000000  0.785610  1.0  0.9089
  Cu  Cu27  1  0.785610  0.500000  0.285610  1.0  0.9086
  Cu  Cu28  1  0.785610  0.000000  0.785610  1.0  0.9086
  Cu  Cu29  1  0.214390  0.500000  0.714390  1.0  0.9106
  Cu  Cu30  1  0.214390  0.000000  0.214390  1.0  0.9106
  Cu  Cu31  1  0.785610  0.500000  0.714390  1.0  0.9084
  Cu  Cu32  1  0.785610  0.000000  0.214390  1.0  0.9084
  Cu  Cu33  1  0.500000  0.714390  0.785610  1.0  0.9088
  Cu  Cu34  1  0.000000  0.714390  0.285610  1.0  0.9088
  Cu  Cu35  1  0.500000  0.714390  0.214390  1.0  0.9089
  Cu  Cu36  1  0.000000  0.714390  0.714390  1.0  0.9089
  Cu  Cu37  1  0.500000  0.285610  0.785610  1.0  0.9106
  Cu  Cu38  1  0.000000  0.285610  0.285610  1.0  0.9106
  Cu  Cu39  1  0.500000  0.285610  0.214390  1.0  0.9106
  Cu  Cu40  1  0.000000  0.285610  0.714390  1.0  0.9106
  Cu  Cu41  1  0.714390  0.214390  0.500000  1.0  0.9128
  Cu  Cu42  1  0.714390  0.714390  0.000000  1.0  0.9128
  Cu  Cu43  1  0.714390  0.785610  0.500000  1.0  0.9135
  Cu  Cu44  1  0.714390  0.285610  0.000000  1.0  0.9135
  Cu  Cu45  1  0.285610  0.214390  0.500000  1.0  0.9109
  Cu  Cu46  1  0.285610  0.714390  0.000000  1.0  0.9109
  Cu  Cu47  1  0.285610  0.785610  0.500000  1.0  0.913
  Cu  Cu48  1  0.285610  0.285610  0.000000  1.0  0.913
  H  H49  1  0.619500  0.380500  0.728200  1.0  0.2426
  H  H50  1  0.619500  0.880500  0.228200  1.0  0.2426
  H  H51  1  0.119500  0.380500  0.228200  1.0  0.2426
  H  H52  1  0.119500  0.880500  0.728200  1.0  0.2426
  H  H53  1  0.380500  0.619500  0.728200  1.0  0.2449
  H  H54  1  0.380500  0.119500  0.228200  1.0  0.2449
  H  H55  1  0.880500  0.619500  0.228200  1.0  0.2449
  H  H56  1  0.880500  0.119500  0.728200  1.0  0.2449
  H  H57  1  0.380500  0.380500  0.271800  1.0  0.2457
  H  H58  1  0.380500  0.880500  0.771800  1.0  0.2457
  H  H59  1  0.880500  0.380500  0.771800  1.0  0.2457
  H  H60  1  0.880500  0.880500  0.271800  1.0  0.2457
  H  H61  1  0.619500  0.619500  0.271800  1.0  0.2472
  H  H62  1  0.619500  0.119500  0.771800  1.0  0.2472
  H  H63  1  0.119500  0.619500  0.771800  1.0  0.2472
  H  H64  1  0.119500  0.119500  0.271800  1.0  0.2472
  H  H65  1  0.728200  0.619500  0.380500  1.0  0.246
  H  H66  1  0.728200  0.119500  0.880500  1.0  0.246
  H  H67  1  0.228200  0.619500  0.880500  1.0  0.246
  H  H68  1  0.228200  0.119500  0.380500  1.0  0.246
  H  H69  1  0.728200  0.380500  0.619500  1.0  0.2466
  H  H70  1  0.728200  0.880500  0.119500  1.0  0.2466
  H  H71  1  0.228200  0.380500  0.119500  1.0  0.2466
  H  H72  1  0.228200  0.880500  0.619500  1.0  0.2466
  H  H73  1  0.271800  0.380500  0.380500  1.0  0.2447
  H  H74  1  0.271800  0.880500  0.880500  1.0  0.2447
  H  H75  1  0.771800  0.380500  0.880500  1.0  0.2447
  H  H76  1  0.771800  0.880500  0.380500  1.0  0.2447
  H  H77  1  0.271800  0.619500  0.619500  1.0  0.2488
  H  H78  1  0.271800  0.119500  0.119500  1.0  0.2488
  H  H79  1  0.771800  0.619500  0.119500  1.0  0.2488
  H  H80  1  0.771800  0.119500  0.619500  1.0  0.2488
  H  H81  1  0.380500  0.728200  0.619500  1.0  0.2443
  H  H82  1  0.380500  0.228200  0.119500  1.0  0.2443
  H  H83  1  0.880500  0.728200  0.119500  1.0  0.2443
  H  H84  1  0.880500  0.228200  0.619500  1.0  0.2443
  H  H85  1  0.619500  0.728200  0.380500  1.0  0.2423
  H  H86  1  0.619500  0.228200  0.880500  1.0  0.2423
  H  H87  1  0.119500  0.728200  0.880500  1.0  0.2423
  H  H88  1  0.119500  0.228200  0.380500  1.0  0.2423
  H  H89  1  0.380500  0.271800  0.380500  1.0  0.2464
  H  H90  1  0.380500  0.771800  0.880500  1.0  0.2464
  H  H91  1  0.880500  0.271800  0.880500  1.0  0.2464
  H  H92  1  0.880500  0.771800  0.380500  1.0  0.2464
  H  H93  1  0.619500  0.271800  0.619500  1.0  0.2473
  H  H94  1  0.619500  0.771800  0.119500  1.0  0.2473
  H  H95  1  0.119500  0.271800  0.119500  1.0  0.2473
  H  H96  1  0.119500  0.771800  0.619500  1.0  0.2473
  H  H97  1  0.380500  0.619500  0.271800  1.0  0.2472
  H  H98  1  0.380500  0.119500  0.771800  1.0  0.2472
  H  H99  1  0.880500  0.619500  0.771800  1.0  0.2472
  H  H100  1  0.880500  0.119500  0.271800  1.0  0.2472
  H  H101  1  0.619500  0.380500  0.271800  1.0  0.245
  H  H102  1  0.619500  0.880500  0.771800  1.0  0.245
  H  H103  1  0.119500  0.380500  0.771800  1.0  0.245
  H  H104  1  0.119500  0.880500  0.271800  1.0  0.245
  H  H105  1  0.380500  0.380500  0.728200  1.0  0.2427
  H  H106  1  0.380500  0.880500  0.228200  1.0  0.2427
  H  H107  1  0.880500  0.380500  0.228200  1.0  0.2427
  H  H108  1  0.880500  0.880500  0.728200  1.0  0.2427
  H  H109  1  0.619500  0.619500  0.728200  1.0  0.2444
  H  H110  1  0.619500  0.119500  0.228200  1.0  0.2444
  H  H111  1  0.119500  0.619500  0.228200  1.0  0.2444
  H  H112  1  0.119500  0.119500  0.728200  1.0  0.2444
  H  H113  1  0.619500  0.728200  0.619500  1.0  0.2435
  H  H114  1  0.619500  0.228200  0.119500  1.0  0.2435
  H  H115  1  0.119500  0.728200  0.119500  1.0  0.2435
  H  H116  1  0.119500  0.228200  0.619500  1.0  0.2435
  H  H117  1  0.380500  0.728200  0.380500  1.0  0.242
  H  H118  1  0.380500  0.228200  0.880500  1.0  0.242
  H  H119  1  0.880500  0.728200  0.880500  1.0  0.242
  H  H120  1  0.880500  0.228200  0.380500  1.0  0.242
  H  H121  1  0.380500  0.271800  0.619500  1.0  0.2486
  H  H122  1  0.380500  0.771800  0.119500  1.0  0.2486
  H  H123  1  0.880500  0.271800  0.119500  1.0  0.2486
  H  H124  1  0.880500  0.771800  0.619500  1.0  0.2486
  H  H125  1  0.619500  0.271800  0.380500  1.0  0.2461
  H  H126  1  0.619500  0.771800  0.880500  1.0  0.2461
  H  H127  1  0.119500  0.271800  0.880500  1.0  0.2461
  H  H128  1  0.119500  0.771800  0.380500  1.0  0.2461
  H  H129  1  0.728200  0.380500  0.380500  1.0  0.2436
  H  H130  1  0.728200  0.880500  0.880500  1.0  0.2436
  H  H131  1  0.228200  0.380500  0.880500  1.0  0.2436
  H  H132  1  0.228200  0.880500  0.380500  1.0  0.2436
  H  H133  1  0.728200  0.619500  0.619500  1.0  0.2486
  H  H134  1  0.728200  0.119500  0.119500  1.0  0.2486
  H  H135  1  0.228200  0.619500  0.119500  1.0  0.2486
  H  H136  1  0.228200  0.119500  0.619500  1.0  0.2486
  H  H137  1  0.271800  0.380500  0.619500  1.0  0.2462
  H  H138  1  0.271800  0.880500  0.119500  1.0  0.2462
  H  H139  1  0.771800  0.380500  0.119500  1.0  0.2462
  H  H140  1  0.771800  0.880500  0.619500  1.0  0.2462
  H  H141  1  0.271800  0.619500  0.380500  1.0  0.2472
  H  H142  1  0.271800  0.119500  0.880500  1.0  0.2472
  H  H143  1  0.771800  0.619500  0.880500  1.0  0.2472
  H  H144  1  0.771800  0.119500  0.380500  1.0  0.2472
  C  C145  1  0.568890  0.296480  0.703520  1.0  0.7177
  C  C146  1  0.612570  0.321570  0.678430  1.0  -0.0094
  C  C147  1  0.568890  0.796480  0.203520  1.0  0.7177
  C  C148  1  0.612570  0.821570  0.178430  1.0  -0.0094
  C  C149  1  0.068890  0.296480  0.203520  1.0  0.7177
  C  C150  1  0.112570  0.321570  0.178430  1.0  -0.0094
  C  C151  1  0.068890  0.796480  0.703520  1.0  0.7177
  C  C152  1  0.112570  0.821570  0.678430  1.0  -0.0094
  C  C153  1  0.431110  0.703520  0.703520  1.0  0.7162
  C  C154  1  0.387430  0.678430  0.678430  1.0  -0.0082
  C  C155  1  0.431110  0.203520  0.203520  1.0  0.7162
  C  C156  1  0.387430  0.178430  0.178430  1.0  -0.0082
  C  C157  1  0.931110  0.703520  0.203520  1.0  0.7162
  C  C158  1  0.887430  0.678430  0.178430  1.0  -0.0082
  C  C159  1  0.931110  0.203520  0.703520  1.0  0.7162
  C  C160  1  0.887430  0.178430  0.678430  1.0  -0.0082
  C  C161  1  0.431110  0.296480  0.296480  1.0  0.716
  C  C162  1  0.387430  0.321570  0.321570  1.0  -0.0078
  C  C163  1  0.431110  0.796480  0.796480  1.0  0.716
  C  C164  1  0.387430  0.821570  0.821570  1.0  -0.0078
  C  C165  1  0.931110  0.296480  0.796480  1.0  0.716
  C  C166  1  0.887430  0.321570  0.821570  1.0  -0.0078
  C  C167  1  0.931110  0.796480  0.296480  1.0  0.716
  C  C168  1  0.887430  0.821570  0.321570  1.0  -0.0078
  C  C169  1  0.568890  0.703520  0.296480  1.0  0.7179
  C  C170  1  0.612570  0.678430  0.321570  1.0  -0.0092
  C  C171  1  0.568890  0.203520  0.796480  1.0  0.7179
  C  C172  1  0.612570  0.178430  0.821570  1.0  -0.0092
  C  C173  1  0.068890  0.703520  0.796480  1.0  0.7179
  C  C174  1  0.112570  0.678430  0.821570  1.0  -0.0092
  C  C175  1  0.068890  0.203520  0.296480  1.0  0.7179
  C  C176  1  0.112570  0.178430  0.321570  1.0  -0.0092
  C  C177  1  0.703520  0.568890  0.296480  1.0  0.7172
  C  C178  1  0.678430  0.612570  0.321570  1.0  -0.0063
  C  C179  1  0.703520  0.068890  0.796480  1.0  0.7172
  C  C180  1  0.678430  0.112570  0.821570  1.0  -0.0063
  C  C181  1  0.203520  0.568890  0.796480  1.0  0.7172
  C  C182  1  0.178430  0.612570  0.821570  1.0  -0.0063
  C  C183  1  0.203520  0.068890  0.296480  1.0  0.7172
  C  C184  1  0.178430  0.112570  0.321570  1.0  -0.0063
  C  C185  1  0.703520  0.431110  0.703520  1.0  0.7168
  C  C186  1  0.678430  0.387430  0.678430  1.0  -0.0067
  C  C187  1  0.703520  0.931110  0.203520  1.0  0.7168
  C  C188  1  0.678430  0.887430  0.178430  1.0  -0.0067
  C  C189  1  0.203520  0.431110  0.203520  1.0  0.7168
  C  C190  1  0.178430  0.387430  0.178430  1.0  -0.0067
  C  C191  1  0.203520  0.931110  0.703520  1.0  0.7168
  C  C192  1  0.178430  0.887430  0.678430  1.0  -0.0067
  C  C193  1  0.296480  0.431110  0.296480  1.0  0.7159
  C  C194  1  0.321570  0.387430  0.321570  1.0  -0.0069
  C  C195  1  0.296480  0.931110  0.796480  1.0  0.7159
  C  C196  1  0.321570  0.887430  0.821570  1.0  -0.0069
  C  C197  1  0.796480  0.431110  0.796480  1.0  0.7159
  C  C198  1  0.821570  0.387430  0.821570  1.0  -0.0069
  C  C199  1  0.796480  0.931110  0.296480  1.0  0.7159
  C  C200  1  0.821570  0.887430  0.321570  1.0  -0.0069
  C  C201  1  0.296480  0.568890  0.703520  1.0  0.7164
  C  C202  1  0.321570  0.612570  0.678430  1.0  -0.0074
  C  C203  1  0.296480  0.068890  0.203520  1.0  0.7164
  C  C204  1  0.321570  0.112570  0.178430  1.0  -0.0074
  C  C205  1  0.796480  0.568890  0.203520  1.0  0.7164
  C  C206  1  0.821570  0.612570  0.178430  1.0  -0.0074
  C  C207  1  0.796480  0.068890  0.703520  1.0  0.7164
  C  C208  1  0.821570  0.112570  0.678430  1.0  -0.0074
  C  C209  1  0.296480  0.703520  0.568890  1.0  0.7187
  C  C210  1  0.321570  0.678430  0.612570  1.0  -0.0068
  C  C211  1  0.296480  0.203520  0.068890  1.0  0.7187
  C  C212  1  0.321570  0.178430  0.112570  1.0  -0.0068
  C  C213  1  0.796480  0.703520  0.068890  1.0  0.7187
  C  C214  1  0.821570  0.678430  0.112570  1.0  -0.0068
  C  C215  1  0.796480  0.203520  0.568890  1.0  0.7187
  C  C216  1  0.821570  0.178430  0.612570  1.0  -0.0068
  C  C217  1  0.703520  0.703520  0.431110  1.0  0.7205
  C  C218  1  0.678430  0.678430  0.387430  1.0  -0.0079
  C  C219  1  0.703520  0.203520  0.931110  1.0  0.7205
  C  C220  1  0.678430  0.178430  0.887430  1.0  -0.0079
  C  C221  1  0.203520  0.703520  0.931110  1.0  0.7205
  C  C222  1  0.178430  0.678430  0.887430  1.0  -0.0079
  C  C223  1  0.203520  0.203520  0.431110  1.0  0.7205
  C  C224  1  0.178430  0.178430  0.387430  1.0  -0.0079
  C  C225  1  0.296480  0.296480  0.431110  1.0  0.719
  C  C226  1  0.321570  0.321570  0.387430  1.0  -0.0086
  C  C227  1  0.296480  0.796480  0.931110  1.0  0.719
  C  C228  1  0.321570  0.821570  0.887430  1.0  -0.0086
  C  C229  1  0.796480  0.296480  0.931110  1.0  0.719
  C  C230  1  0.821570  0.321570  0.887430  1.0  -0.0086
  C  C231  1  0.796480  0.796480  0.431110  1.0  0.719
  C  C232  1  0.821570  0.821570  0.387430  1.0  -0.0086
  C  C233  1  0.703520  0.296480  0.568890  1.0  0.7194
  C  C234  1  0.678430  0.321570  0.612570  1.0  -0.0057
  C  C235  1  0.703520  0.796480  0.068890  1.0  0.7194
  C  C236  1  0.678430  0.821570  0.112570  1.0  -0.0057
  C  C237  1  0.203520  0.296480  0.068890  1.0  0.7194
  C  C238  1  0.178430  0.321570  0.112570  1.0  -0.0057
  C  C239  1  0.203520  0.796480  0.568890  1.0  0.7194
  C  C240  1  0.178430  0.821570  0.612570  1.0  -0.0057
  C  C241  1  0.296480  0.568890  0.296480  1.0  0.7165
  C  C242  1  0.321570  0.612570  0.321570  1.0  -0.007
  C  C243  1  0.296480  0.068890  0.796480  1.0  0.7165
  C  C244  1  0.321570  0.112570  0.821570  1.0  -0.007
  C  C245  1  0.796480  0.568890  0.796480  1.0  0.7165
  C  C246  1  0.821570  0.612570  0.821570  1.0  -0.007
  C  C247  1  0.796480  0.068890  0.296480  1.0  0.7165
  C  C248  1  0.821570  0.112570  0.321570  1.0  -0.007
  C  C249  1  0.703520  0.431110  0.296480  1.0  0.7167
  C  C250  1  0.678430  0.387430  0.321570  1.0  -0.0063
  C  C251  1  0.703520  0.931110  0.796480  1.0  0.7167
  C  C252  1  0.678430  0.887430  0.821570  1.0  -0.0063
  C  C253  1  0.203520  0.431110  0.796480  1.0  0.7167
  C  C254  1  0.178430  0.387430  0.821570  1.0  -0.0063
  C  C255  1  0.203520  0.931110  0.296480  1.0  0.7167
  C  C256  1  0.178430  0.887430  0.321570  1.0  -0.0063
  C  C257  1  0.296480  0.431110  0.703520  1.0  0.7159
  C  C258  1  0.321570  0.387430  0.678430  1.0  -0.0075
  C  C259  1  0.296480  0.931110  0.203520  1.0  0.7159
  C  C260  1  0.321570  0.887430  0.178430  1.0  -0.0075
  C  C261  1  0.796480  0.431110  0.203520  1.0  0.7159
  C  C262  1  0.821570  0.387430  0.178430  1.0  -0.0075
  C  C263  1  0.796480  0.931110  0.703520  1.0  0.7159
  C  C264  1  0.821570  0.887430  0.678430  1.0  -0.0075
  C  C265  1  0.703520  0.568890  0.703520  1.0  0.7171
  C  C266  1  0.678430  0.612570  0.678430  1.0  -0.0065
  C  C267  1  0.703520  0.068890  0.203520  1.0  0.7171
  C  C268  1  0.678430  0.112570  0.178430  1.0  -0.0065
  C  C269  1  0.203520  0.568890  0.203520  1.0  0.7171
  C  C270  1  0.178430  0.612570  0.178430  1.0  -0.0065
  C  C271  1  0.203520  0.068890  0.703520  1.0  0.7171
  C  C272  1  0.178430  0.112570  0.678430  1.0  -0.0065
  C  C273  1  0.568890  0.703520  0.703520  1.0  0.7178
  C  C274  1  0.612570  0.678430  0.678430  1.0  -0.0095
  C  C275  1  0.568890  0.203520  0.203520  1.0  0.7178
  C  C276  1  0.612570  0.178430  0.178430  1.0  -0.0095
  C  C277  1  0.068890  0.703520  0.203520  1.0  0.7178
  C  C278  1  0.112570  0.678430  0.178430  1.0  -0.0095
  C  C279  1  0.068890  0.203520  0.703520  1.0  0.7178
  C  C280  1  0.112570  0.178430  0.678430  1.0  -0.0095
  C  C281  1  0.431110  0.703520  0.296480  1.0  0.7162
  C  C282  1  0.387430  0.678430  0.321570  1.0  -0.0079
  C  C283  1  0.431110  0.203520  0.796480  1.0  0.7162
  C  C284  1  0.387430  0.178430  0.821570  1.0  -0.0079
  C  C285  1  0.931110  0.703520  0.796480  1.0  0.7162
  C  C286  1  0.887430  0.678430  0.821570  1.0  -0.0079
  C  C287  1  0.931110  0.203520  0.296480  1.0  0.7162
  C  C288  1  0.887430  0.178430  0.321570  1.0  -0.0079
  C  C289  1  0.431110  0.296480  0.703520  1.0  0.716
  C  C290  1  0.387430  0.321570  0.678430  1.0  -0.0081
  C  C291  1  0.431110  0.796480  0.203520  1.0  0.716
  C  C292  1  0.387430  0.821570  0.178430  1.0  -0.0081
  C  C293  1  0.931110  0.296480  0.203520  1.0  0.716
  C  C294  1  0.887430  0.321570  0.178430  1.0  -0.0081
  C  C295  1  0.931110  0.796480  0.703520  1.0  0.716
  C  C296  1  0.887430  0.821570  0.678430  1.0  -0.0081
  C  C297  1  0.568890  0.296480  0.296480  1.0  0.7178
  C  C298  1  0.612570  0.321570  0.321570  1.0  -0.0091
  C  C299  1  0.568890  0.796480  0.796480  1.0  0.7178
  C  C300  1  0.612570  0.821570  0.821570  1.0  -0.0091
  C  C301  1  0.068890  0.296480  0.796480  1.0  0.7178
  C  C302  1  0.112570  0.321570  0.821570  1.0  -0.0091
  C  C303  1  0.068890  0.796480  0.296480  1.0  0.7178
  C  C304  1  0.112570  0.821570  0.321570  1.0  -0.0091
  C  C305  1  0.703520  0.296480  0.431110  1.0  0.7199
  C  C306  1  0.678430  0.321570  0.387430  1.0  -0.0077
  C  C307  1  0.703520  0.796480  0.931110  1.0  0.7199
  C  C308  1  0.678430  0.821570  0.887430  1.0  -0.0077
  C  C309  1  0.203520  0.296480  0.931110  1.0  0.7199
  C  C310  1  0.178430  0.321570  0.887430  1.0  -0.0077
  C  C311  1  0.203520  0.796480  0.431110  1.0  0.7199
  C  C312  1  0.178430  0.821570  0.387430  1.0  -0.0077
  C  C313  1  0.703520  0.703520  0.568890  1.0  0.7195
  C  C314  1  0.678430  0.678430  0.612570  1.0  -0.0059
  C  C315  1  0.703520  0.203520  0.068890  1.0  0.7195
  C  C316  1  0.678430  0.178430  0.112570  1.0  -0.0059
  C  C317  1  0.203520  0.703520  0.068890  1.0  0.7195
  C  C318  1  0.178430  0.678430  0.112570  1.0  -0.0059
  C  C319  1  0.203520  0.203520  0.568890  1.0  0.7195
  C  C320  1  0.178430  0.178430  0.612570  1.0  -0.0059
  C  C321  1  0.296480  0.296480  0.568890  1.0  0.7188
  C  C322  1  0.321570  0.321570  0.612570  1.0  -0.0066
  C  C323  1  0.296480  0.796480  0.068890  1.0  0.7188
  C  C324  1  0.321570  0.821570  0.112570  1.0  -0.0066
  C  C325  1  0.796480  0.296480  0.068890  1.0  0.7188
  C  C326  1  0.821570  0.321570  0.112570  1.0  -0.0066
  C  C327  1  0.796480  0.796480  0.568890  1.0  0.7188
  C  C328  1  0.821570  0.821570  0.612570  1.0  -0.0066
  C  C329  1  0.296480  0.703520  0.431110  1.0  0.7193
  C  C330  1  0.321570  0.678430  0.387430  1.0  -0.0089
  C  C331  1  0.296480  0.203520  0.931110  1.0  0.7193
  C  C332  1  0.321570  0.178430  0.887430  1.0  -0.0089
  C  C333  1  0.796480  0.703520  0.931110  1.0  0.7193
  C  C334  1  0.821570  0.678430  0.887430  1.0  -0.0089
  C  C335  1  0.796480  0.203520  0.431110  1.0  0.7193
  C  C336  1  0.821570  0.178430  0.387430  1.0  -0.0089
  C  C337  1  0.634650  0.365350  0.699190  1.0  -0.1074
  C  C338  1  0.634650  0.865350  0.199190  1.0  -0.1074
  C  C339  1  0.134650  0.365350  0.199190  1.0  -0.1074
  C  C340  1  0.134650  0.865350  0.699190  1.0  -0.1074
  C  C341  1  0.365350  0.634650  0.699190  1.0  -0.1076
  C  C342  1  0.365350  0.134650  0.199190  1.0  -0.1076
  C  C343  1  0.865350  0.634650  0.199190  1.0  -0.1076
  C  C344  1  0.865350  0.134650  0.699190  1.0  -0.1076
  C  C345  1  0.365350  0.365350  0.300810  1.0  -0.1079
  C  C346  1  0.365350  0.865350  0.800810  1.0  -0.1079
  C  C347  1  0.865350  0.365350  0.800810  1.0  -0.1079
  C  C348  1  0.865350  0.865350  0.300810  1.0  -0.1079
  C  C349  1  0.634650  0.634650  0.300810  1.0  -0.1072
  C  C350  1  0.634650  0.134650  0.800810  1.0  -0.1072
  C  C351  1  0.134650  0.634650  0.800810  1.0  -0.1072
  C  C352  1  0.134650  0.134650  0.300810  1.0  -0.1072
  C  C353  1  0.699190  0.634650  0.365350  1.0  -0.105
  C  C354  1  0.699190  0.134650  0.865350  1.0  -0.105
  C  C355  1  0.199190  0.634650  0.865350  1.0  -0.105
  C  C356  1  0.199190  0.134650  0.365350  1.0  -0.105
  C  C357  1  0.699190  0.365350  0.634650  1.0  -0.1045
  C  C358  1  0.699190  0.865350  0.134650  1.0  -0.1045
  C  C359  1  0.199190  0.365350  0.134650  1.0  -0.1045
  C  C360  1  0.199190  0.865350  0.634650  1.0  -0.1045
  C  C361  1  0.300810  0.365350  0.365350  1.0  -0.1058
  C  C362  1  0.300810  0.865350  0.865350  1.0  -0.1058
  C  C363  1  0.800810  0.365350  0.865350  1.0  -0.1058
  C  C364  1  0.800810  0.865350  0.365350  1.0  -0.1058
  C  C365  1  0.300810  0.634650  0.634650  1.0  -0.104
  C  C366  1  0.300810  0.134650  0.134650  1.0  -0.104
  C  C367  1  0.800810  0.634650  0.134650  1.0  -0.104
  C  C368  1  0.800810  0.134650  0.634650  1.0  -0.104
  C  C369  1  0.365350  0.699190  0.634650  1.0  -0.1064
  C  C370  1  0.365350  0.199190  0.134650  1.0  -0.1064
  C  C371  1  0.865350  0.699190  0.134650  1.0  -0.1064
  C  C372  1  0.865350  0.199190  0.634650  1.0  -0.1064
  C  C373  1  0.634650  0.699190  0.365350  1.0  -0.1068
  C  C374  1  0.634650  0.199190  0.865350  1.0  -0.1068
  C  C375  1  0.134650  0.699190  0.865350  1.0  -0.1068
  C  C376  1  0.134650  0.199190  0.365350  1.0  -0.1068
  C  C377  1  0.365350  0.300810  0.365350  1.0  -0.1081
  C  C378  1  0.365350  0.800810  0.865350  1.0  -0.1081
  C  C379  1  0.865350  0.300810  0.865350  1.0  -0.1081
  C  C380  1  0.865350  0.800810  0.365350  1.0  -0.1081
  C  C381  1  0.634650  0.300810  0.634650  1.0  -0.1066
  C  C382  1  0.634650  0.800810  0.134650  1.0  -0.1066
  C  C383  1  0.134650  0.300810  0.134650  1.0  -0.1066
  C  C384  1  0.134650  0.800810  0.634650  1.0  -0.1066
  C  C385  1  0.365350  0.634650  0.300810  1.0  -0.1075
  C  C386  1  0.365350  0.134650  0.800810  1.0  -0.1075
  C  C387  1  0.865350  0.634650  0.800810  1.0  -0.1075
  C  C388  1  0.865350  0.134650  0.300810  1.0  -0.1075
  C  C389  1  0.634650  0.365350  0.300810  1.0  -0.1075
  C  C390  1  0.634650  0.865350  0.800810  1.0  -0.1075
  C  C391  1  0.134650  0.365350  0.800810  1.0  -0.1075
  C  C392  1  0.134650  0.865350  0.300810  1.0  -0.1075
  C  C393  1  0.365350  0.365350  0.699190  1.0  -0.1078
  C  C394  1  0.365350  0.865350  0.199190  1.0  -0.1078
  C  C395  1  0.865350  0.365350  0.199190  1.0  -0.1078
  C  C396  1  0.865350  0.865350  0.699190  1.0  -0.1078
  C  C397  1  0.634650  0.634650  0.699190  1.0  -0.1071
  C  C398  1  0.634650  0.134650  0.199190  1.0  -0.1071
  C  C399  1  0.134650  0.634650  0.199190  1.0  -0.1071
  C  C400  1  0.134650  0.134650  0.699190  1.0  -0.1071
  C  C401  1  0.634650  0.699190  0.634650  1.0  -0.1056
  C  C402  1  0.634650  0.199190  0.134650  1.0  -0.1056
  C  C403  1  0.134650  0.699190  0.134650  1.0  -0.1056
  C  C404  1  0.134650  0.199190  0.634650  1.0  -0.1056
  C  C405  1  0.365350  0.699190  0.365350  1.0  -0.107
  C  C406  1  0.365350  0.199190  0.865350  1.0  -0.107
  C  C407  1  0.865350  0.699190  0.865350  1.0  -0.107
  C  C408  1  0.865350  0.199190  0.365350  1.0  -0.107
  C  C409  1  0.365350  0.300810  0.634650  1.0  -0.1066
  C  C410  1  0.365350  0.800810  0.134650  1.0  -0.1066
  C  C411  1  0.865350  0.300810  0.134650  1.0  -0.1066
  C  C412  1  0.865350  0.800810  0.634650  1.0  -0.1066
  C  C413  1  0.634650  0.300810  0.365350  1.0  -0.108
  C  C414  1  0.634650  0.800810  0.865350  1.0  -0.108
  C  C415  1  0.134650  0.300810  0.865350  1.0  -0.108
  C  C416  1  0.134650  0.800810  0.365350  1.0  -0.108
  C  C417  1  0.699190  0.365350  0.365350  1.0  -0.1052
  C  C418  1  0.699190  0.865350  0.865350  1.0  -0.1052
  C  C419  1  0.199190  0.365350  0.865350  1.0  -0.1052
  C  C420  1  0.199190  0.865350  0.365350  1.0  -0.1052
  C  C421  1  0.699190  0.634650  0.634650  1.0  -0.1043
  C  C422  1  0.699190  0.134650  0.134650  1.0  -0.1043
  C  C423  1  0.199190  0.634650  0.134650  1.0  -0.1043
  C  C424  1  0.199190  0.134650  0.634650  1.0  -0.1043
  C  C425  1  0.300810  0.365350  0.634650  1.0  -0.1044
  C  C426  1  0.300810  0.865350  0.134650  1.0  -0.1044
  C  C427  1  0.800810  0.365350  0.134650  1.0  -0.1044
  C  C428  1  0.800810  0.865350  0.634650  1.0  -0.1044
  C  C429  1  0.300810  0.634650  0.365350  1.0  -0.1051
  C  C430  1  0.300810  0.134650  0.865350  1.0  -0.1051
  C  C431  1  0.800810  0.634650  0.865350  1.0  -0.1051
  C  C432  1  0.800810  0.134650  0.365350  1.0  -0.1051
  O  O433  1  0.552450  0.256760  0.683330  1.0  -0.5749
  O  O434  1  0.552450  0.756760  0.183330  1.0  -0.5749
  O  O435  1  0.052450  0.256760  0.183330  1.0  -0.5749
  O  O436  1  0.052450  0.756760  0.683330  1.0  -0.5749
  O  O437  1  0.447550  0.743240  0.683330  1.0  -0.5759
  O  O438  1  0.447550  0.243240  0.183330  1.0  -0.5759
  O  O439  1  0.947550  0.743240  0.183330  1.0  -0.5759
  O  O440  1  0.947550  0.243240  0.683330  1.0  -0.5759
  O  O441  1  0.447550  0.256760  0.316670  1.0  -0.5743
  O  O442  1  0.447550  0.756760  0.816670  1.0  -0.5743
  O  O443  1  0.947550  0.256760  0.816670  1.0  -0.5743
  O  O444  1  0.947550  0.756760  0.316670  1.0  -0.5743
  O  O445  1  0.552450  0.743240  0.316670  1.0  -0.5745
  O  O446  1  0.552450  0.243240  0.816670  1.0  -0.5745
  O  O447  1  0.052450  0.743240  0.816670  1.0  -0.5745
  O  O448  1  0.052450  0.243240  0.316670  1.0  -0.5745
  O  O449  1  0.683330  0.552450  0.256760  1.0  -0.5729
  O  O450  1  0.683330  0.052450  0.756760  1.0  -0.5729
  O  O451  1  0.183330  0.552450  0.756760  1.0  -0.5729
  O  O452  1  0.183330  0.052450  0.256760  1.0  -0.5729
  O  O453  1  0.683330  0.447550  0.743240  1.0  -0.573
  O  O454  1  0.683330  0.947550  0.243240  1.0  -0.573
  O  O455  1  0.183330  0.447550  0.243240  1.0  -0.573
  O  O456  1  0.183330  0.947550  0.743240  1.0  -0.573
  O  O457  1  0.316670  0.447550  0.256760  1.0  -0.5759
  O  O458  1  0.316670  0.947550  0.756760  1.0  -0.5759
  O  O459  1  0.816670  0.447550  0.756760  1.0  -0.5759
  O  O460  1  0.816670  0.947550  0.256760  1.0  -0.5759
  O  O461  1  0.316670  0.552450  0.743240  1.0  -0.5756
  O  O462  1  0.316670  0.052450  0.243240  1.0  -0.5756
  O  O463  1  0.816670  0.552450  0.243240  1.0  -0.5756
  O  O464  1  0.816670  0.052450  0.743240  1.0  -0.5756
  O  O465  1  0.256760  0.683330  0.552450  1.0  -0.572
  O  O466  1  0.256760  0.183330  0.052450  1.0  -0.572
  O  O467  1  0.756760  0.683330  0.052450  1.0  -0.572
  O  O468  1  0.756760  0.183330  0.552450  1.0  -0.572
  O  O469  1  0.743240  0.683330  0.447550  1.0  -0.5737
  O  O470  1  0.743240  0.183330  0.947550  1.0  -0.5737
  O  O471  1  0.243240  0.683330  0.947550  1.0  -0.5737
  O  O472  1  0.243240  0.183330  0.447550  1.0  -0.5737
  O  O473  1  0.256760  0.316670  0.447550  1.0  -0.5736
  O  O474  1  0.256760  0.816670  0.947550  1.0  -0.5736
  O  O475  1  0.756760  0.316670  0.947550  1.0  -0.5736
  O  O476  1  0.756760  0.816670  0.447550  1.0  -0.5736
  O  O477  1  0.743240  0.316670  0.552450  1.0  -0.574
  O  O478  1  0.743240  0.816670  0.052450  1.0  -0.574
  O  O479  1  0.243240  0.316670  0.052450  1.0  -0.574
  O  O480  1  0.243240  0.816670  0.552450  1.0  -0.574
  O  O481  1  0.256760  0.552450  0.316670  1.0  -0.5738
  O  O482  1  0.256760  0.052450  0.816670  1.0  -0.5738
  O  O483  1  0.756760  0.552450  0.816670  1.0  -0.5738
  O  O484  1  0.756760  0.052450  0.316670  1.0  -0.5738
  O  O485  1  0.743240  0.447550  0.316670  1.0  -0.5743
  O  O486  1  0.743240  0.947550  0.816670  1.0  -0.5743
  O  O487  1  0.243240  0.447550  0.816670  1.0  -0.5743
  O  O488  1  0.243240  0.947550  0.316670  1.0  -0.5743
  O  O489  1  0.256760  0.447550  0.683330  1.0  -0.5742
  O  O490  1  0.256760  0.947550  0.183330  1.0  -0.5742
  O  O491  1  0.756760  0.447550  0.183330  1.0  -0.5742
  O  O492  1  0.756760  0.947550  0.683330  1.0  -0.5742
  O  O493  1  0.743240  0.552450  0.683330  1.0  -0.5755
  O  O494  1  0.743240  0.052450  0.183330  1.0  -0.5755
  O  O495  1  0.243240  0.552450  0.183330  1.0  -0.5755
  O  O496  1  0.243240  0.052450  0.683330  1.0  -0.5755
  O  O497  1  0.552450  0.683330  0.743240  1.0  -0.5732
  O  O498  1  0.552450  0.183330  0.243240  1.0  -0.5732
  O  O499  1  0.052450  0.683330  0.243240  1.0  -0.5732
  O  O500  1  0.052450  0.183330  0.743240  1.0  -0.5732
  O  O501  1  0.447550  0.683330  0.256760  1.0  -0.5723
  O  O502  1  0.447550  0.183330  0.756760  1.0  -0.5723
  O  O503  1  0.947550  0.683330  0.756760  1.0  -0.5723
  O  O504  1  0.947550  0.183330  0.256760  1.0  -0.5723
  O  O505  1  0.447550  0.316670  0.743240  1.0  -0.5736
  O  O506  1  0.447550  0.816670  0.243240  1.0  -0.5736
  O  O507  1  0.947550  0.316670  0.243240  1.0  -0.5736
  O  O508  1  0.947550  0.816670  0.743240  1.0  -0.5736
  O  O509  1  0.552450  0.316670  0.256760  1.0  -0.5738
  O  O510  1  0.552450  0.816670  0.756760  1.0  -0.5738
  O  O511  1  0.052450  0.316670  0.756760  1.0  -0.5738
  O  O512  1  0.052450  0.816670  0.256760  1.0  -0.5738
  O  O513  1  0.683330  0.256760  0.447550  1.0  -0.5729
  O  O514  1  0.683330  0.756760  0.947550  1.0  -0.5729
  O  O515  1  0.183330  0.256760  0.947550  1.0  -0.5729
  O  O516  1  0.183330  0.756760  0.447550  1.0  -0.5729
  O  O517  1  0.683330  0.743240  0.552450  1.0  -0.5734
  O  O518  1  0.683330  0.243240  0.052450  1.0  -0.5734
  O  O519  1  0.183330  0.743240  0.052450  1.0  -0.5734
  O  O520  1  0.183330  0.243240  0.552450  1.0  -0.5734
  O  O521  1  0.316670  0.256760  0.552450  1.0  -0.5758
  O  O522  1  0.316670  0.756760  0.052450  1.0  -0.5758
  O  O523  1  0.816670  0.256760  0.052450  1.0  -0.5758
  O  O524  1  0.816670  0.756760  0.552450  1.0  -0.5758
  O  O525  1  0.316670  0.743240  0.447550  1.0  -0.5763
  O  O526  1  0.316670  0.243240  0.947550  1.0  -0.5763
  O  O527  1  0.816670  0.743240  0.947550  1.0  -0.5763
  O  O528  1  0.816670  0.243240  0.447550  1.0  -0.5763
  O  O529  1  0.447550  0.743240  0.316670  1.0  -0.574
  O  O530  1  0.447550  0.243240  0.816670  1.0  -0.574
  O  O531  1  0.947550  0.743240  0.816670  1.0  -0.574
  O  O532  1  0.947550  0.243240  0.316670  1.0  -0.574
  O  O533  1  0.552450  0.256760  0.316670  1.0  -0.5746
  O  O534  1  0.552450  0.756760  0.816670  1.0  -0.5746
  O  O535  1  0.052450  0.256760  0.816670  1.0  -0.5746
  O  O536  1  0.052450  0.756760  0.316670  1.0  -0.5746
  O  O537  1  0.552450  0.743240  0.683330  1.0  -0.5758
  O  O538  1  0.552450  0.243240  0.183330  1.0  -0.5758
  O  O539  1  0.052450  0.743240  0.183330  1.0  -0.5758
  O  O540  1  0.052450  0.243240  0.683330  1.0  -0.5758
  O  O541  1  0.447550  0.256760  0.683330  1.0  -0.5747
  O  O542  1  0.447550  0.756760  0.183330  1.0  -0.5747
  O  O543  1  0.947550  0.256760  0.183330  1.0  -0.5747
  O  O544  1  0.947550  0.756760  0.683330  1.0  -0.5747
  O  O545  1  0.316670  0.447550  0.743240  1.0  -0.5753
  O  O546  1  0.316670  0.947550  0.243240  1.0  -0.5753
  O  O547  1  0.816670  0.447550  0.243240  1.0  -0.5753
  O  O548  1  0.816670  0.947550  0.743240  1.0  -0.5753
  O  O549  1  0.316670  0.552450  0.256760  1.0  -0.5757
  O  O550  1  0.316670  0.052450  0.756760  1.0  -0.5757
  O  O551  1  0.816670  0.552450  0.756760  1.0  -0.5757
  O  O552  1  0.816670  0.052450  0.256760  1.0  -0.5757
  O  O553  1  0.683330  0.552450  0.743240  1.0  -0.5736
  O  O554  1  0.683330  0.052450  0.243240  1.0  -0.5736
  O  O555  1  0.183330  0.552450  0.243240  1.0  -0.5736
  O  O556  1  0.183330  0.052450  0.743240  1.0  -0.5736
  O  O557  1  0.683330  0.447550  0.256760  1.0  -0.5723
  O  O558  1  0.683330  0.947550  0.756760  1.0  -0.5723
  O  O559  1  0.183330  0.447550  0.756760  1.0  -0.5723
  O  O560  1  0.183330  0.947550  0.256760  1.0  -0.5723
  O  O561  1  0.743240  0.316670  0.447550  1.0  -0.5742
  O  O562  1  0.743240  0.816670  0.947550  1.0  -0.5742
  O  O563  1  0.243240  0.316670  0.947550  1.0  -0.5742
  O  O564  1  0.243240  0.816670  0.447550  1.0  -0.5742
  O  O565  1  0.256760  0.316670  0.552450  1.0  -0.5731
  O  O566  1  0.256760  0.816670  0.052450  1.0  -0.5731
  O  O567  1  0.756760  0.316670  0.052450  1.0  -0.5731
  O  O568  1  0.756760  0.816670  0.552450  1.0  -0.5731
  O  O569  1  0.743240  0.683330  0.552450  1.0  -0.5733
  O  O570  1  0.743240  0.183330  0.052450  1.0  -0.5733
  O  O571  1  0.243240  0.683330  0.052450  1.0  -0.5733
  O  O572  1  0.243240  0.183330  0.552450  1.0  -0.5733
  O  O573  1  0.256760  0.683330  0.447550  1.0  -0.5724
  O  O574  1  0.256760  0.183330  0.947550  1.0  -0.5724
  O  O575  1  0.756760  0.683330  0.947550  1.0  -0.5724
  O  O576  1  0.756760  0.183330  0.447550  1.0  -0.5724
  O  O577  1  0.743240  0.447550  0.683330  1.0  -0.5759
  O  O578  1  0.743240  0.947550  0.183330  1.0  -0.5759
  O  O579  1  0.243240  0.447550  0.183330  1.0  -0.5759
  O  O580  1  0.243240  0.947550  0.683330  1.0  -0.5759
  O  O581  1  0.256760  0.552450  0.683330  1.0  -0.5741
  O  O582  1  0.256760  0.052450  0.183330  1.0  -0.5741
  O  O583  1  0.756760  0.552450  0.183330  1.0  -0.5741
  O  O584  1  0.756760  0.052450  0.683330  1.0  -0.5741
  O  O585  1  0.743240  0.552450  0.316670  1.0  -0.5747
  O  O586  1  0.743240  0.052450  0.816670  1.0  -0.5747
  O  O587  1  0.243240  0.552450  0.816670  1.0  -0.5747
  O  O588  1  0.243240  0.052450  0.316670  1.0  -0.5747
  O  O589  1  0.256760  0.447550  0.316670  1.0  -0.5734
  O  O590  1  0.256760  0.947550  0.816670  1.0  -0.5734
  O  O591  1  0.756760  0.447550  0.816670  1.0  -0.5734
  O  O592  1  0.756760  0.947550  0.316670  1.0  -0.5734
  O  O593  1  0.447550  0.316670  0.256760  1.0  -0.5737
  O  O594  1  0.447550  0.816670  0.756760  1.0  -0.5737
  O  O595  1  0.947550  0.316670  0.756760  1.0  -0.5737
  O  O596  1  0.947550  0.816670  0.256760  1.0  -0.5737
  O  O597  1  0.552450  0.316670  0.743240  1.0  -0.5739
  O  O598  1  0.552450  0.816670  0.243240  1.0  -0.5739
  O  O599  1  0.052450  0.316670  0.243240  1.0  -0.5739
  O  O600  1  0.052450  0.816670  0.743240  1.0  -0.5739
  O  O601  1  0.552450  0.683330  0.256760  1.0  -0.5722
  O  O602  1  0.552450  0.183330  0.756760  1.0  -0.5722
  O  O603  1  0.052450  0.683330  0.756760  1.0  -0.5722
  O  O604  1  0.052450  0.183330  0.256760  1.0  -0.5722
  O  O605  1  0.447550  0.683330  0.743240  1.0  -0.573
  O  O606  1  0.447550  0.183330  0.243240  1.0  -0.573
  O  O607  1  0.947550  0.683330  0.243240  1.0  -0.573
  O  O608  1  0.947550  0.183330  0.743240  1.0  -0.573
  O  O609  1  0.316670  0.743240  0.552450  1.0  -0.5759
  O  O610  1  0.316670  0.243240  0.052450  1.0  -0.5759
  O  O611  1  0.816670  0.743240  0.052450  1.0  -0.5759
  O  O612  1  0.816670  0.243240  0.552450  1.0  -0.5759
  O  O613  1  0.316670  0.256760  0.447550  1.0  -0.5761
  O  O614  1  0.316670  0.756760  0.947550  1.0  -0.5761
  O  O615  1  0.816670  0.256760  0.947550  1.0  -0.5761
  O  O616  1  0.816670  0.756760  0.447550  1.0  -0.5761
  O  O617  1  0.683330  0.743240  0.447550  1.0  -0.5737
  O  O618  1  0.683330  0.243240  0.947550  1.0  -0.5737
  O  O619  1  0.183330  0.743240  0.947550  1.0  -0.5737
  O  O620  1  0.183330  0.243240  0.447550  1.0  -0.5737
  O  O621  1  0.683330  0.256760  0.552450  1.0  -0.573
  O  O622  1  0.683330  0.756760  0.052450  1.0  -0.573
  O  O623  1  0.183330  0.256760  0.052450  1.0  -0.573
  O  O624  1  0.183330  0.756760  0.552450  1.0  -0.573
  F  F625  1  0.611600  0.388400  0.742700  1.0  -0.1564
  F  F626  1  0.611600  0.888400  0.242700  1.0  -0.1564
  F  F627  1  0.111600  0.388400  0.242700  1.0  -0.1564
  F  F628  1  0.111600  0.888400  0.742700  1.0  -0.1564
  F  F629  1  0.388400  0.611600  0.742700  1.0  -0.1579
  F  F630  1  0.388400  0.111600  0.242700  1.0  -0.1579
  F  F631  1  0.888400  0.611600  0.242700  1.0  -0.1579
  F  F632  1  0.888400  0.111600  0.742700  1.0  -0.1579
  F  F633  1  0.388400  0.388400  0.257300  1.0  -0.1561
  F  F634  1  0.388400  0.888400  0.757300  1.0  -0.1561
  F  F635  1  0.888400  0.388400  0.757300  1.0  -0.1561
  F  F636  1  0.888400  0.888400  0.257300  1.0  -0.1561
  F  F637  1  0.611600  0.611600  0.257300  1.0  -0.1567
  F  F638  1  0.611600  0.111600  0.757300  1.0  -0.1567
  F  F639  1  0.111600  0.611600  0.757300  1.0  -0.1567
  F  F640  1  0.111600  0.111600  0.257300  1.0  -0.1567
  F  F641  1  0.742700  0.611600  0.388400  1.0  -0.1584
  F  F642  1  0.742700  0.111600  0.888400  1.0  -0.1584
  F  F643  1  0.242700  0.611600  0.888400  1.0  -0.1584
  F  F644  1  0.242700  0.111600  0.388400  1.0  -0.1584
  F  F645  1  0.742700  0.388400  0.611600  1.0  -0.1564
  F  F646  1  0.742700  0.888400  0.111600  1.0  -0.1564
  F  F647  1  0.242700  0.388400  0.111600  1.0  -0.1564
  F  F648  1  0.242700  0.888400  0.611600  1.0  -0.1564
  F  F649  1  0.257300  0.388400  0.388400  1.0  -0.154
  F  F650  1  0.257300  0.888400  0.888400  1.0  -0.154
  F  F651  1  0.757300  0.388400  0.888400  1.0  -0.154
  F  F652  1  0.757300  0.888400  0.388400  1.0  -0.154
  F  F653  1  0.257300  0.611600  0.611600  1.0  -0.1547
  F  F654  1  0.257300  0.111600  0.111600  1.0  -0.1547
  F  F655  1  0.757300  0.611600  0.111600  1.0  -0.1547
  F  F656  1  0.757300  0.111600  0.611600  1.0  -0.1547
  F  F657  1  0.388400  0.742700  0.611600  1.0  -0.1551
  F  F658  1  0.388400  0.242700  0.111600  1.0  -0.1551
  F  F659  1  0.888400  0.742700  0.111600  1.0  -0.1551
  F  F660  1  0.888400  0.242700  0.611600  1.0  -0.1551
  F  F661  1  0.611600  0.742700  0.388400  1.0  -0.1554
  F  F662  1  0.611600  0.242700  0.888400  1.0  -0.1554
  F  F663  1  0.111600  0.742700  0.888400  1.0  -0.1554
  F  F664  1  0.111600  0.242700  0.388400  1.0  -0.1554
  F  F665  1  0.388400  0.257300  0.388400  1.0  -0.1557
  F  F666  1  0.388400  0.757300  0.888400  1.0  -0.1557
  F  F667  1  0.888400  0.257300  0.888400  1.0  -0.1557
  F  F668  1  0.888400  0.757300  0.388400  1.0  -0.1557
  F  F669  1  0.611600  0.257300  0.611600  1.0  -0.1547
  F  F670  1  0.611600  0.757300  0.111600  1.0  -0.1547
  F  F671  1  0.111600  0.257300  0.111600  1.0  -0.1547
  F  F672  1  0.111600  0.757300  0.611600  1.0  -0.1547
  F  F673  1  0.388400  0.611600  0.257300  1.0  -0.1581
  F  F674  1  0.388400  0.111600  0.757300  1.0  -0.1581
  F  F675  1  0.888400  0.611600  0.757300  1.0  -0.1581
  F  F676  1  0.888400  0.111600  0.257300  1.0  -0.1581
  F  F677  1  0.611600  0.388400  0.257300  1.0  -0.1578
  F  F678  1  0.611600  0.888400  0.757300  1.0  -0.1578
  F  F679  1  0.111600  0.388400  0.757300  1.0  -0.1578
  F  F680  1  0.111600  0.888400  0.257300  1.0  -0.1578
  F  F681  1  0.388400  0.388400  0.742700  1.0  -0.1563
  F  F682  1  0.388400  0.888400  0.242700  1.0  -0.1563
  F  F683  1  0.888400  0.388400  0.242700  1.0  -0.1563
  F  F684  1  0.888400  0.888400  0.742700  1.0  -0.1563
  F  F685  1  0.611600  0.611600  0.742700  1.0  -0.1555
  F  F686  1  0.611600  0.111600  0.242700  1.0  -0.1555
  F  F687  1  0.111600  0.611600  0.242700  1.0  -0.1555
  F  F688  1  0.111600  0.111600  0.742700  1.0  -0.1555
  F  F689  1  0.611600  0.742700  0.611600  1.0  -0.1562
  F  F690  1  0.611600  0.242700  0.111600  1.0  -0.1562
  F  F691  1  0.111600  0.742700  0.111600  1.0  -0.1562
  F  F692  1  0.111600  0.242700  0.611600  1.0  -0.1562
  F  F693  1  0.388400  0.742700  0.388400  1.0  -0.1552
  F  F694  1  0.388400  0.242700  0.888400  1.0  -0.1552
  F  F695  1  0.888400  0.742700  0.888400  1.0  -0.1552
  F  F696  1  0.888400  0.242700  0.388400  1.0  -0.1552
  F  F697  1  0.388400  0.257300  0.611600  1.0  -0.1562
  F  F698  1  0.388400  0.757300  0.111600  1.0  -0.1562
  F  F699  1  0.888400  0.257300  0.111600  1.0  -0.1562
  F  F700  1  0.888400  0.757300  0.611600  1.0  -0.1562
  F  F701  1  0.611600  0.257300  0.388400  1.0  -0.1543
  F  F702  1  0.611600  0.757300  0.888400  1.0  -0.1543
  F  F703  1  0.111600  0.257300  0.888400  1.0  -0.1543
  F  F704  1  0.111600  0.757300  0.388400  1.0  -0.1543
  F  F705  1  0.742700  0.388400  0.388400  1.0  -0.1573
  F  F706  1  0.742700  0.888400  0.888400  1.0  -0.1573
  F  F707  1  0.242700  0.388400  0.888400  1.0  -0.1573
  F  F708  1  0.242700  0.888400  0.388400  1.0  -0.1573
  F  F709  1  0.742700  0.611600  0.611600  1.0  -0.1582
  F  F710  1  0.742700  0.111600  0.111600  1.0  -0.1582
  F  F711  1  0.242700  0.611600  0.111600  1.0  -0.1582
  F  F712  1  0.242700  0.111600  0.611600  1.0  -0.1582
  F  F713  1  0.257300  0.388400  0.611600  1.0  -0.1572
  F  F714  1  0.257300  0.888400  0.111600  1.0  -0.1572
  F  F715  1  0.757300  0.388400  0.111600  1.0  -0.1572
  F  F716  1  0.757300  0.888400  0.611600  1.0  -0.1572
  F  F717  1  0.257300  0.611600  0.388400  1.0  -0.153
  F  F718  1  0.257300  0.111600  0.888400  1.0  -0.153
  F  F719  1  0.757300  0.611600  0.888400  1.0  -0.153
  F  F720  1  0.757300  0.111600  0.388400  1.0  -0.153
