# generated using pymatgen
data_Cd2H35C43N3O11
_symmetry_space_group_name_H-M   'P 1'
_cell_length_a   16.61440000
_cell_length_b   32.78200000
_cell_length_c   17.86620000
_cell_angle_alpha   90.00000000
_cell_angle_beta   90.00000000
_cell_angle_gamma   90.00000000
_symmetry_Int_Tables_number   1
_chemical_formula_structural   Cd2H35C43N3O11
_chemical_formula_sum   'Cd16 H280 C344 N24 O88'
_cell_volume   9730.88408810
_cell_formula_units_Z   8
loop_
 _symmetry_equiv_pos_site_id
 _symmetry_equiv_pos_as_xyz
  1  'x, y, z'
loop_
 _atom_site_type_symbol
 _atom_site_label
 _atom_site_symmetry_multiplicity
 _atom_site_fract_x
 _atom_site_fract_y
 _atom_site_fract_z
 _atom_site_occupancy
 _atom_site_charge
  Cd  Cd1  1  0.204940  0.162560  0.702990  1.0  1.0865
  Cd  Cd2  1  0.297220  0.130650  0.527480  1.0  1.1427
  Cd  Cd3  1  0.795060  0.337440  0.702990  1.0  1.0863
  Cd  Cd4  1  0.702780  0.369350  0.527480  1.0  1.1407
  Cd  Cd5  1  0.204940  0.837440  0.797010  1.0  1.0865
  Cd  Cd6  1  0.297220  0.869350  0.972520  1.0  1.1427
  Cd  Cd7  1  0.795060  0.662560  0.797010  1.0  1.0861
  Cd  Cd8  1  0.702780  0.630650  0.972520  1.0  1.1404
  Cd  Cd9  1  0.795060  0.837440  0.297010  1.0  1.0864
  Cd  Cd10  1  0.702780  0.869350  0.472520  1.0  1.1408
  Cd  Cd11  1  0.204940  0.662560  0.297010  1.0  1.0865
  Cd  Cd12  1  0.297220  0.630650  0.472520  1.0  1.1429
  Cd  Cd13  1  0.795060  0.162560  0.202990  1.0  1.0861
  Cd  Cd14  1  0.702780  0.130650  0.027480  1.0  1.1403
  Cd  Cd15  1  0.204940  0.337440  0.202990  1.0  1.0865
  Cd  Cd16  1  0.297220  0.369350  0.027480  1.0  1.1426
  H  H17  1  0.883000  0.240300  0.779700  1.0  0.1105
  H  H18  1  0.818900  0.240800  0.893300  1.0  0.1028
  H  H19  1  0.739800  0.126500  0.856400  1.0  0.1246
  H  H20  1  0.807200  0.125500  0.744500  1.0  0.1185
  H  H21  1  0.955900  0.172700  0.689500  1.0  0.0974
  H  H22  1  0.912100  0.212900  0.665100  1.0  0.1022
  H  H23  1  0.796700  0.245800  0.569000  1.0  0.1133
  H  H24  1  0.716700  0.224300  0.593700  1.0  0.1234
  H  H25  1  0.788100  0.228600  0.650500  1.0  0.1118
  H  H26  1  0.950300  0.111000  0.695300  1.0  0.1223
  H  H27  1  0.952200  0.074600  0.638300  1.0  0.1137
  H  H28  1  0.010100  0.111900  0.627400  1.0  0.1299
  H  H29  1  0.718600  0.108400  0.414100  1.0  0.1194
  H  H30  1  0.797300  0.120200  0.370700  1.0  0.1276
  H  H31  1  0.791600  0.078100  0.412200  1.0  0.1086
  H  H32  1  0.742400  0.185700  0.407100  1.0  0.0923
  H  H33  1  0.722000  0.215800  0.472500  1.0  0.0881
  H  H34  1  0.619700  0.186000  0.351300  1.0  0.1379
  H  H35  1  0.484200  0.166800  0.354900  1.0  0.1025
  H  H36  1  0.502500  0.125600  0.555300  1.0  0.0956
  H  H37  1  0.630500  0.155300  0.570200  1.0  0.1342
  H  H38  1  0.958900  0.062700  0.520200  1.0  0.115
  H  H39  1  0.914200  0.071500  0.444500  1.0  0.1085
  H  H40  1  0.789600  0.049500  0.597500  1.0  0.1231
  H  H41  1  0.718600  0.991800  0.616000  1.0  0.1222
  H  H42  1  0.839800  0.939000  0.445700  1.0  0.104
  H  H43  1  0.907600  0.001000  0.428600  1.0  0.126
  H  H44  1  0.009400  0.217600  0.525400  1.0  0.1051
  H  H45  1  0.922500  0.215500  0.425800  1.0  0.1173
  H  H46  1  0.025000  0.111800  0.355500  1.0  0.1354
  H  H47  1  0.109500  0.113100  0.462900  1.0  0.1019
  H  H48  1  0.330600  0.010100  0.621300  1.0  0.1216
  H  H49  1  0.313800  0.055900  0.831700  1.0  0.1181
  H  H50  1  0.442500  0.231000  0.548600  1.0  0.1065
  H  H51  1  0.442200  0.232100  0.771700  1.0  0.1113
  H  H52  1  0.117000  0.259700  0.779700  1.0  0.1101
  H  H53  1  0.181100  0.259200  0.893300  1.0  0.1035
  H  H54  1  0.260200  0.373500  0.856400  1.0  0.1253
  H  H55  1  0.192800  0.374500  0.744500  1.0  0.1195
  H  H56  1  0.044100  0.327300  0.689500  1.0  0.0954
  H  H57  1  0.087900  0.287100  0.665100  1.0  0.1019
  H  H58  1  0.203300  0.254200  0.569000  1.0  0.1133
  H  H59  1  0.283300  0.275700  0.593700  1.0  0.1258
  H  H60  1  0.211900  0.271400  0.650500  1.0  0.1123
  H  H61  1  0.049700  0.389000  0.695300  1.0  0.1228
  H  H62  1  0.047800  0.425400  0.638300  1.0  0.114
  H  H63  1  0.989900  0.388100  0.627400  1.0  0.1287
  H  H64  1  0.281400  0.391600  0.414100  1.0  0.1196
  H  H65  1  0.202700  0.379800  0.370700  1.0  0.1282
  H  H66  1  0.208400  0.421900  0.412200  1.0  0.1096
  H  H67  1  0.257600  0.314300  0.407100  1.0  0.0916
  H  H68  1  0.278000  0.284200  0.472500  1.0  0.088
  H  H69  1  0.380300  0.314000  0.351300  1.0  0.1383
  H  H70  1  0.515800  0.333200  0.354900  1.0  0.1033
  H  H71  1  0.497500  0.374400  0.555300  1.0  0.0961
  H  H72  1  0.369500  0.344700  0.570200  1.0  0.1326
  H  H73  1  0.041100  0.437300  0.520200  1.0  0.1147
  H  H74  1  0.085800  0.428500  0.444500  1.0  0.1092
  H  H75  1  0.210400  0.450500  0.597500  1.0  0.1219
  H  H76  1  0.281400  0.508200  0.616000  1.0  0.1208
  H  H77  1  0.160200  0.561000  0.445700  1.0  0.1039
  H  H78  1  0.092400  0.499000  0.428600  1.0  0.1262
  H  H79  1  0.990600  0.282400  0.525400  1.0  0.1055
  H  H80  1  0.077500  0.284500  0.425800  1.0  0.1173
  H  H81  1  0.975000  0.388200  0.355500  1.0  0.1366
  H  H82  1  0.890500  0.386900  0.462900  1.0  0.1023
  H  H83  1  0.669400  0.489900  0.621300  1.0  0.1214
  H  H84  1  0.686200  0.444100  0.831700  1.0  0.1183
  H  H85  1  0.557500  0.269000  0.548600  1.0  0.1066
  H  H86  1  0.557800  0.267900  0.771700  1.0  0.1117
  H  H87  1  0.883000  0.759700  0.720300  1.0  0.11
  H  H88  1  0.818900  0.759200  0.606700  1.0  0.1027
  H  H89  1  0.739800  0.873500  0.643600  1.0  0.1254
  H  H90  1  0.807200  0.874500  0.755500  1.0  0.1193
  H  H91  1  0.955900  0.827300  0.810500  1.0  0.0968
  H  H92  1  0.912100  0.787100  0.834900  1.0  0.1024
  H  H93  1  0.796700  0.754200  0.931000  1.0  0.1138
  H  H94  1  0.716700  0.775700  0.906300  1.0  0.1226
  H  H95  1  0.788100  0.771400  0.849500  1.0  0.1119
  H  H96  1  0.950300  0.889000  0.804700  1.0  0.1227
  H  H97  1  0.952200  0.925400  0.861700  1.0  0.1149
  H  H98  1  0.010100  0.888100  0.872600  1.0  0.1296
  H  H99  1  0.718600  0.891600  0.085900  1.0  0.1195
  H  H100  1  0.797300  0.879800  0.129300  1.0  0.1263
  H  H101  1  0.791600  0.921900  0.087800  1.0  0.1084
  H  H102  1  0.742400  0.814300  0.092900  1.0  0.0923
  H  H103  1  0.722000  0.784200  0.027500  1.0  0.0874
  H  H104  1  0.619700  0.814000  0.148700  1.0  0.138
  H  H105  1  0.484200  0.833200  0.145100  1.0  0.1031
  H  H106  1  0.502500  0.874400  0.944700  1.0  0.0959
  H  H107  1  0.630500  0.844700  0.929800  1.0  0.1355
  H  H108  1  0.958900  0.937300  0.979800  1.0  0.1144
  H  H109  1  0.914200  0.928500  0.055500  1.0  0.1096
  H  H110  1  0.789600  0.950500  0.902500  1.0  0.1221
  H  H111  1  0.718600  0.008200  0.884000  1.0  0.1207
  H  H112  1  0.839800  0.061000  0.054300  1.0  0.1038
  H  H113  1  0.907600  0.999000  0.071400  1.0  0.126
  H  H114  1  0.009400  0.782400  0.974600  1.0  0.1049
  H  H115  1  0.922500  0.784500  0.074200  1.0  0.1173
  H  H116  1  0.025000  0.888200  0.144500  1.0  0.1364
  H  H117  1  0.109500  0.886900  0.037100  1.0  0.102
  H  H118  1  0.330600  0.989900  0.878700  1.0  0.1205
  H  H119  1  0.313800  0.944100  0.668300  1.0  0.1185
  H  H120  1  0.442500  0.769000  0.951400  1.0  0.1068
  H  H121  1  0.442200  0.767900  0.728300  1.0  0.1111
  H  H122  1  0.117000  0.740300  0.720300  1.0  0.1101
  H  H123  1  0.181100  0.740800  0.606700  1.0  0.1029
  H  H124  1  0.260200  0.626500  0.643600  1.0  0.1251
  H  H125  1  0.192800  0.625500  0.755500  1.0  0.1187
  H  H126  1  0.044100  0.672700  0.810500  1.0  0.0948
  H  H127  1  0.087900  0.712900  0.834900  1.0  0.1019
  H  H128  1  0.203300  0.745800  0.931000  1.0  0.1135
  H  H129  1  0.283300  0.724300  0.906300  1.0  0.1255
  H  H130  1  0.211900  0.728600  0.849500  1.0  0.1128
  H  H131  1  0.049700  0.611000  0.804700  1.0  0.1212
  H  H132  1  0.047800  0.574600  0.861700  1.0  0.1146
  H  H133  1  0.989900  0.611900  0.872600  1.0  0.1278
  H  H134  1  0.281400  0.608400  0.085900  1.0  0.1197
  H  H135  1  0.202700  0.620200  0.129300  1.0  0.1269
  H  H136  1  0.208400  0.578100  0.087800  1.0  0.1095
  H  H137  1  0.257600  0.685700  0.092900  1.0  0.0915
  H  H138  1  0.278000  0.715800  0.027500  1.0  0.0879
  H  H139  1  0.380300  0.686000  0.148700  1.0  0.1373
  H  H140  1  0.515800  0.666800  0.145100  1.0  0.1033
  H  H141  1  0.497500  0.625600  0.944700  1.0  0.0957
  H  H142  1  0.369500  0.655300  0.929800  1.0  0.1344
  H  H143  1  0.041100  0.562700  0.979800  1.0  0.1145
  H  H144  1  0.085800  0.571500  0.055500  1.0  0.1088
  H  H145  1  0.210400  0.549500  0.902500  1.0  0.123
  H  H146  1  0.281400  0.491800  0.884000  1.0  0.1215
  H  H147  1  0.160200  0.439000  0.054300  1.0  0.1046
  H  H148  1  0.092400  0.501000  0.071400  1.0  0.126
  H  H149  1  0.990600  0.717600  0.974600  1.0  0.1053
  H  H150  1  0.077500  0.715500  0.074200  1.0  0.118
  H  H151  1  0.975000  0.611800  0.144500  1.0  0.1361
  H  H152  1  0.890500  0.613100  0.037100  1.0  0.1021
  H  H153  1  0.669400  0.510100  0.878700  1.0  0.121
  H  H154  1  0.686200  0.555900  0.668300  1.0  0.1188
  H  H155  1  0.557500  0.731000  0.951400  1.0  0.1069
  H  H156  1  0.557800  0.732100  0.728300  1.0  0.1113
  H  H157  1  0.117000  0.759700  0.220300  1.0  0.1097
  H  H158  1  0.181100  0.759200  0.106700  1.0  0.1033
  H  H159  1  0.260200  0.873500  0.143600  1.0  0.125
  H  H160  1  0.192800  0.874500  0.255500  1.0  0.1193
  H  H161  1  0.044100  0.827300  0.310500  1.0  0.0947
  H  H162  1  0.087900  0.787100  0.334900  1.0  0.102
  H  H163  1  0.203300  0.754200  0.431000  1.0  0.1141
  H  H164  1  0.283300  0.775700  0.406300  1.0  0.1254
  H  H165  1  0.211900  0.771400  0.349500  1.0  0.1127
  H  H166  1  0.049700  0.889000  0.304700  1.0  0.1229
  H  H167  1  0.047800  0.925400  0.361700  1.0  0.1154
  H  H168  1  0.989900  0.888100  0.372600  1.0  0.1286
  H  H169  1  0.281400  0.891600  0.585900  1.0  0.1196
  H  H170  1  0.202700  0.879800  0.629300  1.0  0.1266
  H  H171  1  0.208400  0.921900  0.587800  1.0  0.1097
  H  H172  1  0.257600  0.814300  0.592900  1.0  0.0917
  H  H173  1  0.278000  0.784200  0.527500  1.0  0.0875
  H  H174  1  0.380300  0.814000  0.648700  1.0  0.1362
  H  H175  1  0.515800  0.833200  0.645100  1.0  0.103
  H  H176  1  0.497500  0.874400  0.444700  1.0  0.0961
  H  H177  1  0.369500  0.844700  0.429800  1.0  0.1347
  H  H178  1  0.041100  0.937300  0.479800  1.0  0.1144
  H  H179  1  0.085800  0.928500  0.555500  1.0  0.1093
  H  H180  1  0.210400  0.950500  0.402500  1.0  0.1228
  H  H181  1  0.281400  0.008200  0.384000  1.0  0.1215
  H  H182  1  0.160200  0.061000  0.554300  1.0  0.1041
  H  H183  1  0.092400  0.999000  0.571400  1.0  0.126
  H  H184  1  0.990600  0.782400  0.474600  1.0  0.1047
  H  H185  1  0.077500  0.784500  0.574200  1.0  0.1179
  H  H186  1  0.975000  0.888200  0.644500  1.0  0.1357
  H  H187  1  0.890500  0.886900  0.537100  1.0  0.1023
  H  H188  1  0.669400  0.989900  0.378700  1.0  0.1209
  H  H189  1  0.686200  0.944100  0.168300  1.0  0.1174
  H  H190  1  0.557500  0.769000  0.451400  1.0  0.1068
  H  H191  1  0.557800  0.767900  0.228300  1.0  0.1112
  H  H192  1  0.883000  0.740300  0.220300  1.0  0.1101
  H  H193  1  0.818900  0.740800  0.106700  1.0  0.1028
  H  H194  1  0.739800  0.626500  0.143600  1.0  0.125
  H  H195  1  0.807200  0.625500  0.255500  1.0  0.1186
  H  H196  1  0.955900  0.672700  0.310500  1.0  0.0966
  H  H197  1  0.912100  0.712900  0.334900  1.0  0.1023
  H  H198  1  0.796700  0.745800  0.431000  1.0  0.1131
  H  H199  1  0.716700  0.724300  0.406300  1.0  0.123
  H  H200  1  0.788100  0.728600  0.349500  1.0  0.1117
  H  H201  1  0.950300  0.611000  0.304700  1.0  0.1212
  H  H202  1  0.952200  0.574600  0.361700  1.0  0.114
  H  H203  1  0.010100  0.611900  0.372600  1.0  0.1293
  H  H204  1  0.718600  0.608400  0.585900  1.0  0.12
  H  H205  1  0.797300  0.620200  0.629300  1.0  0.1268
  H  H206  1  0.791600  0.578100  0.587800  1.0  0.1088
  H  H207  1  0.742400  0.685700  0.592900  1.0  0.0922
  H  H208  1  0.722000  0.715800  0.527500  1.0  0.0879
  H  H209  1  0.619700  0.686000  0.648700  1.0  0.1363
  H  H210  1  0.484200  0.666800  0.645100  1.0  0.1027
  H  H211  1  0.502500  0.625600  0.444700  1.0  0.0953
  H  H212  1  0.630500  0.655300  0.429800  1.0  0.1357
  H  H213  1  0.958900  0.562700  0.479800  1.0  0.1149
  H  H214  1  0.914200  0.571500  0.555500  1.0  0.1097
  H  H215  1  0.789600  0.549500  0.402500  1.0  0.1224
  H  H216  1  0.718600  0.491800  0.384000  1.0  0.1207
  H  H217  1  0.839800  0.439000  0.554300  1.0  0.1041
  H  H218  1  0.907600  0.501000  0.571400  1.0  0.1261
  H  H219  1  0.009400  0.717600  0.474600  1.0  0.1053
  H  H220  1  0.922500  0.715500  0.574200  1.0  0.1179
  H  H221  1  0.025000  0.611800  0.644500  1.0  0.1354
  H  H222  1  0.109500  0.613100  0.537100  1.0  0.1022
  H  H223  1  0.330600  0.510100  0.378700  1.0  0.1209
  H  H224  1  0.313800  0.555900  0.168300  1.0  0.1179
  H  H225  1  0.442500  0.731000  0.451400  1.0  0.1069
  H  H226  1  0.442200  0.732100  0.228300  1.0  0.1111
  H  H227  1  0.117000  0.240300  0.279700  1.0  0.1104
  H  H228  1  0.181100  0.240800  0.393300  1.0  0.103
  H  H229  1  0.260200  0.126500  0.356400  1.0  0.1251
  H  H230  1  0.192800  0.125500  0.244500  1.0  0.1186
  H  H231  1  0.044100  0.172700  0.189500  1.0  0.0955
  H  H232  1  0.087900  0.212900  0.165100  1.0  0.1019
  H  H233  1  0.203300  0.245800  0.069000  1.0  0.114
  H  H234  1  0.283300  0.224300  0.093700  1.0  0.1256
  H  H235  1  0.211900  0.228600  0.150500  1.0  0.1124
  H  H236  1  0.049700  0.111000  0.195300  1.0  0.1224
  H  H237  1  0.047800  0.074600  0.138300  1.0  0.1139
  H  H238  1  0.989900  0.111900  0.127400  1.0  0.1283
  H  H239  1  0.281400  0.108400  0.914100  1.0  0.1193
  H  H240  1  0.202700  0.120200  0.870700  1.0  0.1275
  H  H241  1  0.208400  0.078100  0.912200  1.0  0.1091
  H  H242  1  0.257600  0.185700  0.907100  1.0  0.0921
  H  H243  1  0.278000  0.215800  0.972500  1.0  0.0885
  H  H244  1  0.380300  0.186000  0.851300  1.0  0.1365
  H  H245  1  0.515800  0.166800  0.854900  1.0  0.103
  H  H246  1  0.497500  0.125600  0.055300  1.0  0.096
  H  H247  1  0.369500  0.155300  0.070200  1.0  0.1325
  H  H248  1  0.041100  0.062700  0.020200  1.0  0.115
  H  H249  1  0.085800  0.071500  0.944500  1.0  0.1084
  H  H250  1  0.210400  0.049500  0.097500  1.0  0.1225
  H  H251  1  0.281400  0.991800  0.116000  1.0  0.1209
  H  H252  1  0.160200  0.939000  0.945700  1.0  0.1042
  H  H253  1  0.092400  0.001000  0.928600  1.0  0.1259
  H  H254  1  0.990600  0.217600  0.025400  1.0  0.1053
  H  H255  1  0.077500  0.215500  0.925800  1.0  0.1176
  H  H256  1  0.975000  0.111800  0.855500  1.0  0.1348
  H  H257  1  0.890500  0.113100  0.962900  1.0  0.1018
  H  H258  1  0.669400  0.010100  0.121300  1.0  0.1216
  H  H259  1  0.686200  0.055900  0.331700  1.0  0.1184
  H  H260  1  0.557500  0.231000  0.048600  1.0  0.1067
  H  H261  1  0.557800  0.232100  0.271700  1.0  0.1117
  H  H262  1  0.883000  0.259700  0.279700  1.0  0.1104
  H  H263  1  0.818900  0.259200  0.393300  1.0  0.103
  H  H264  1  0.739800  0.373500  0.356400  1.0  0.1253
  H  H265  1  0.807200  0.374500  0.244500  1.0  0.1196
  H  H266  1  0.955900  0.327300  0.189500  1.0  0.0975
  H  H267  1  0.912100  0.287100  0.165100  1.0  0.1022
  H  H268  1  0.796700  0.254200  0.069000  1.0  0.113
  H  H269  1  0.716700  0.275700  0.093700  1.0  0.1235
  H  H270  1  0.788100  0.271400  0.150500  1.0  0.1121
  H  H271  1  0.950300  0.389000  0.195300  1.0  0.1225
  H  H272  1  0.952200  0.425400  0.138300  1.0  0.1135
  H  H273  1  0.010100  0.388100  0.127400  1.0  0.1298
  H  H274  1  0.718600  0.391600  0.914100  1.0  0.1192
  H  H275  1  0.797300  0.379800  0.870700  1.0  0.1281
  H  H276  1  0.791600  0.421900  0.912200  1.0  0.1087
  H  H277  1  0.742400  0.314300  0.907100  1.0  0.0917
  H  H278  1  0.722000  0.284200  0.972500  1.0  0.0877
  H  H279  1  0.619700  0.314000  0.851300  1.0  0.137
  H  H280  1  0.484200  0.333200  0.854900  1.0  0.1023
  H  H281  1  0.502500  0.374400  0.055300  1.0  0.0958
  H  H282  1  0.630500  0.344700  0.070200  1.0  0.1337
  H  H283  1  0.958900  0.437300  0.020200  1.0  0.1146
  H  H284  1  0.914200  0.428500  0.944500  1.0  0.1091
  H  H285  1  0.789600  0.450500  0.097500  1.0  0.1226
  H  H286  1  0.718600  0.508200  0.116000  1.0  0.1221
  H  H287  1  0.839800  0.561000  0.945700  1.0  0.1036
  H  H288  1  0.907600  0.499000  0.928600  1.0  0.1261
  H  H289  1  0.009400  0.282400  0.025400  1.0  0.1055
  H  H290  1  0.922500  0.284500  0.925800  1.0  0.1168
  H  H291  1  0.025000  0.388200  0.855500  1.0  0.1358
  H  H292  1  0.109500  0.386900  0.962900  1.0  0.102
  H  H293  1  0.330600  0.489900  0.121300  1.0  0.1213
  H  H294  1  0.313800  0.444100  0.331700  1.0  0.1183
  H  H295  1  0.442500  0.269000  0.048600  1.0  0.1066
  H  H296  1  0.442200  0.267900  0.271700  1.0  0.1112
  C  C297  1  0.854800  0.217360  0.795500  1.0  0.0504
  C  C298  1  0.816300  0.217690  0.863300  1.0  -0.1767
  C  C299  1  0.773300  0.183650  0.887700  1.0  0.3723
  C  C300  1  0.769400  0.149200  0.841400  1.0  -0.1346
  C  C301  1  0.808900  0.148800  0.774300  1.0  0.0557
  C  C302  1  0.903700  0.184640  0.679000  1.0  -0.0569
  C  C303  1  0.866200  0.162690  0.615400  1.0  0.0188
  C  C304  1  0.894800  0.124530  0.597000  1.0  0.0884
  C  C305  1  0.867100  0.106050  0.532900  1.0  -0.059
  C  C306  1  0.809800  0.125800  0.484200  1.0  0.0717
  C  C307  1  0.780900  0.164150  0.509500  1.0  0.0687
  C  C308  1  0.809000  0.181800  0.571800  1.0  0.0727
  C  C309  1  0.774200  0.224340  0.598900  1.0  -0.3418
  C  C310  1  0.957500  0.103630  0.643700  1.0  -0.3348
  C  C311  1  0.776300  0.106350  0.413800  1.0  -0.3443
  C  C312  1  0.722500  0.187250  0.458100  1.0  -0.0672
  C  C313  1  0.597100  0.175600  0.395000  1.0  -0.0015
  C  C314  1  0.515800  0.163100  0.397300  1.0  -0.1321
  C  C315  1  0.482200  0.146000  0.458100  1.0  0.3044
  C  C316  1  0.524500  0.140500  0.516000  1.0  -0.1557
  C  C317  1  0.604300  0.155900  0.524200  1.0  0.0398
  C  C318  1  0.906500  0.067230  0.497800  1.0  -0.1464
  C  C319  1  0.798600  0.027100  0.566700  1.0  0.0427
  C  C320  1  0.757200  0.992560  0.578300  1.0  -0.1448
  C  C321  1  0.771100  0.956810  0.534000  1.0  0.2955
  C  C322  1  0.828500  0.961000  0.476900  1.0  -0.1566
  C  C323  1  0.869500  0.998510  0.466500  1.0  0.0375
  C  C324  1  0.118200  0.166210  0.573500  1.0  0.6714
  C  C325  1  0.066400  0.165100  0.505000  1.0  -0.0783
  C  C326  1  0.011700  0.195690  0.492300  1.0  -0.0439
  C  C327  1  0.960400  0.194960  0.432300  1.0  -0.0873
  C  C328  1  0.965700  0.163700  0.382200  1.0  -0.0575
  C  C329  1  0.021000  0.132660  0.390500  1.0  -0.1382
  C  C330  1  0.072200  0.133800  0.455000  1.0  -0.0485
  C  C331  1  0.908300  0.160920  0.317300  1.0  0.6484
  C  C332  1  0.306400  0.077800  0.678400  1.0  0.6193
  C  C333  1  0.316800  0.038740  0.720900  1.0  -0.0775
  C  C334  1  0.322900  0.005800  0.672200  1.0  -0.0847
  C  C335  1  0.317200  0.033610  0.799700  1.0  -0.0862
  C  C336  1  0.352800  0.202520  0.659400  1.0  0.7071
  C  C337  1  0.465300  0.238720  0.594100  1.0  -0.0235
  C  C338  1  0.428300  0.227130  0.659700  1.0  -0.0928
  C  C339  1  0.465600  0.239200  0.726200  1.0  -0.055
  C  C340  1  0.145200  0.282640  0.795500  1.0  0.051
  C  C341  1  0.183700  0.282310  0.863300  1.0  -0.1772
  C  C342  1  0.226700  0.316350  0.887700  1.0  0.3733
  C  C343  1  0.230600  0.350800  0.841400  1.0  -0.1336
  C  C344  1  0.191100  0.351200  0.774300  1.0  0.0553
  C  C345  1  0.096300  0.315360  0.679000  1.0  -0.0587
  C  C346  1  0.133800  0.337310  0.615400  1.0  0.0188
  C  C347  1  0.105200  0.375470  0.597000  1.0  0.0886
  C  C348  1  0.132900  0.393950  0.532900  1.0  -0.0588
  C  C349  1  0.190200  0.374200  0.484200  1.0  0.0709
  C  C350  1  0.219100  0.335850  0.509500  1.0  0.0678
  C  C351  1  0.191000  0.318200  0.571800  1.0  0.0738
  C  C352  1  0.225800  0.275660  0.598900  1.0  -0.343
  C  C353  1  0.042500  0.396370  0.643700  1.0  -0.3359
  C  C354  1  0.223700  0.393650  0.413800  1.0  -0.3451
  C  C355  1  0.277500  0.312750  0.458100  1.0  -0.065
  C  C356  1  0.402900  0.324400  0.395000  1.0  -0.0008
  C  C357  1  0.484200  0.336900  0.397300  1.0  -0.1313
  C  C358  1  0.517800  0.354000  0.458100  1.0  0.3021
  C  C359  1  0.475500  0.359500  0.516000  1.0  -0.157
  C  C360  1  0.395700  0.344100  0.524200  1.0  0.0396
  C  C361  1  0.093500  0.432770  0.497800  1.0  -0.1472
  C  C362  1  0.201400  0.472900  0.566700  1.0  0.045
  C  C363  1  0.242800  0.507440  0.578300  1.0  -0.1441
  C  C364  1  0.228900  0.543190  0.534000  1.0  0.2961
  C  C365  1  0.171500  0.539000  0.476900  1.0  -0.1562
  C  C366  1  0.130500  0.501490  0.466500  1.0  0.0376
  C  C367  1  0.881800  0.333790  0.573500  1.0  0.6698
  C  C368  1  0.933600  0.334900  0.505000  1.0  -0.0789
  C  C369  1  0.988300  0.304310  0.492300  1.0  -0.0433
  C  C370  1  0.039600  0.305040  0.432300  1.0  -0.0888
  C  C371  1  0.034300  0.336300  0.382200  1.0  -0.058
  C  C372  1  0.979000  0.367340  0.390500  1.0  -0.1374
  C  C373  1  0.927800  0.366200  0.455000  1.0  -0.0467
  C  C374  1  0.091700  0.339080  0.317300  1.0  0.6466
  C  C375  1  0.693600  0.422200  0.678400  1.0  0.6183
  C  C376  1  0.683200  0.461260  0.720900  1.0  -0.0775
  C  C377  1  0.677100  0.494200  0.672200  1.0  -0.0846
  C  C378  1  0.682800  0.466390  0.799700  1.0  -0.0861
  C  C379  1  0.647200  0.297480  0.659400  1.0  0.7075
  C  C380  1  0.534700  0.261280  0.594100  1.0  -0.0234
  C  C381  1  0.571700  0.272870  0.659700  1.0  -0.0926
  C  C382  1  0.534400  0.260800  0.726200  1.0  -0.055
  C  C383  1  0.854800  0.782640  0.704500  1.0  0.0503
  C  C384  1  0.816300  0.782310  0.636700  1.0  -0.1773
  C  C385  1  0.773300  0.816350  0.612300  1.0  0.372
  C  C386  1  0.769400  0.850800  0.658600  1.0  -0.1339
  C  C387  1  0.808900  0.851200  0.725700  1.0  0.0552
  C  C388  1  0.903700  0.815360  0.821000  1.0  -0.0571
  C  C389  1  0.866200  0.837310  0.884600  1.0  0.0178
  C  C390  1  0.894800  0.875470  0.903000  1.0  0.0892
  C  C391  1  0.867100  0.893950  0.967100  1.0  -0.0587
  C  C392  1  0.809800  0.874200  0.015800  1.0  0.0728
  C  C393  1  0.780900  0.835850  0.990500  1.0  0.0698
  C  C394  1  0.809000  0.818200  0.928200  1.0  0.0728
  C  C395  1  0.774200  0.775660  0.901100  1.0  -0.3432
  C  C396  1  0.957500  0.896370  0.856300  1.0  -0.3345
  C  C397  1  0.776300  0.893650  0.086200  1.0  -0.3466
  C  C398  1  0.722500  0.812750  0.041900  1.0  -0.0686
  C  C399  1  0.597100  0.824400  0.105000  1.0  -0.002
  C  C400  1  0.515800  0.836900  0.102700  1.0  -0.1314
  C  C401  1  0.482200  0.854000  0.041900  1.0  0.303
  C  C402  1  0.524500  0.859500  0.984000  1.0  -0.156
  C  C403  1  0.604300  0.844100  0.975800  1.0  0.0399
  C  C404  1  0.906500  0.932770  0.002200  1.0  -0.1438
  C  C405  1  0.798600  0.972900  0.933300  1.0  0.045
  C  C406  1  0.757200  0.007440  0.921700  1.0  -0.145
  C  C407  1  0.771100  0.043190  0.966000  1.0  0.297
  C  C408  1  0.828500  0.039000  0.023100  1.0  -0.1563
  C  C409  1  0.869500  0.001490  0.033500  1.0  0.0401
  C  C410  1  0.118200  0.833790  0.926500  1.0  0.6704
  C  C411  1  0.066400  0.834900  0.995000  1.0  -0.0785
  C  C412  1  0.011700  0.804310  0.007700  1.0  -0.0428
  C  C413  1  0.960400  0.805040  0.067700  1.0  -0.089
  C  C414  1  0.965700  0.836300  0.117800  1.0  -0.0585
  C  C415  1  0.021000  0.867340  0.109500  1.0  -0.1371
  C  C416  1  0.072200  0.866200  0.045000  1.0  -0.0488
  C  C417  1  0.908300  0.839080  0.182700  1.0  0.6476
  C  C418  1  0.306400  0.922200  0.821600  1.0  0.6193
  C  C419  1  0.316800  0.961260  0.779100  1.0  -0.0774
  C  C420  1  0.322900  0.994200  0.827800  1.0  -0.0849
  C  C421  1  0.317200  0.966390  0.700300  1.0  -0.0863
  C  C422  1  0.352800  0.797480  0.840600  1.0  0.7067
  C  C423  1  0.465300  0.761280  0.905900  1.0  -0.0246
  C  C424  1  0.428300  0.772870  0.840300  1.0  -0.0921
  C  C425  1  0.465600  0.760800  0.773800  1.0  -0.0565
  C  C426  1  0.145200  0.717360  0.704500  1.0  0.0496
  C  C427  1  0.183700  0.717690  0.636700  1.0  -0.1772
  C  C428  1  0.226700  0.683650  0.612300  1.0  0.3733
  C  C429  1  0.230600  0.649200  0.658600  1.0  -0.1336
  C  C430  1  0.191100  0.648800  0.725700  1.0  0.0559
  C  C431  1  0.096300  0.684640  0.821000  1.0  -0.0589
  C  C432  1  0.133800  0.662690  0.884600  1.0  0.0177
  C  C433  1  0.105200  0.624530  0.903000  1.0  0.0904
  C  C434  1  0.132900  0.606050  0.967100  1.0  -0.0595
  C  C435  1  0.190200  0.625800  0.015800  1.0  0.0727
  C  C436  1  0.219100  0.664150  0.990500  1.0  0.0684
  C  C437  1  0.191000  0.681800  0.928200  1.0  0.0736
  C  C438  1  0.225800  0.724340  0.901100  1.0  -0.3427
  C  C439  1  0.042500  0.603630  0.856300  1.0  -0.3339
  C  C440  1  0.223700  0.606350  0.086200  1.0  -0.3468
  C  C441  1  0.277500  0.687250  0.041900  1.0  -0.0659
  C  C442  1  0.402900  0.675600  0.105000  1.0  -0.001
  C  C443  1  0.484200  0.663100  0.102700  1.0  -0.1298
  C  C444  1  0.517800  0.646000  0.041900  1.0  0.303
  C  C445  1  0.475500  0.640500  0.984000  1.0  -0.1577
  C  C446  1  0.395700  0.655900  0.975800  1.0  0.0387
  C  C447  1  0.093500  0.567230  0.002200  1.0  -0.1465
  C  C448  1  0.201400  0.527100  0.933300  1.0  0.0444
  C  C449  1  0.242800  0.492560  0.921700  1.0  -0.1453
  C  C450  1  0.228900  0.456810  0.966000  1.0  0.2969
  C  C451  1  0.171500  0.461000  0.023100  1.0  -0.1567
  C  C452  1  0.130500  0.498510  0.033500  1.0  0.041
  C  C453  1  0.881800  0.666210  0.926500  1.0  0.6703
  C  C454  1  0.933600  0.665100  0.995000  1.0  -0.079
  C  C455  1  0.988300  0.695690  0.007700  1.0  -0.0429
  C  C456  1  0.039600  0.694960  0.067700  1.0  -0.0882
  C  C457  1  0.034300  0.663700  0.117800  1.0  -0.0581
  C  C458  1  0.979000  0.632660  0.109500  1.0  -0.1361
  C  C459  1  0.927800  0.633800  0.045000  1.0  -0.0478
  C  C460  1  0.091700  0.660920  0.182700  1.0  0.6476
  C  C461  1  0.693600  0.577800  0.821600  1.0  0.6195
  C  C462  1  0.683200  0.538740  0.779100  1.0  -0.0775
  C  C463  1  0.677100  0.505800  0.827800  1.0  -0.0841
  C  C464  1  0.682800  0.533610  0.700300  1.0  -0.0873
  C  C465  1  0.647200  0.702520  0.840600  1.0  0.7076
  C  C466  1  0.534700  0.738720  0.905900  1.0  -0.0243
  C  C467  1  0.571700  0.727130  0.840300  1.0  -0.0917
  C  C468  1  0.534400  0.739200  0.773800  1.0  -0.0567
  C  C469  1  0.145200  0.782640  0.204500  1.0  0.0508
  C  C470  1  0.183700  0.782310  0.136700  1.0  -0.1769
  C  C471  1  0.226700  0.816350  0.112300  1.0  0.3724
  C  C472  1  0.230600  0.850800  0.158600  1.0  -0.1333
  C  C473  1  0.191100  0.851200  0.225700  1.0  0.0551
  C  C474  1  0.096300  0.815360  0.321000  1.0  -0.0586
  C  C475  1  0.133800  0.837310  0.384600  1.0  0.0181
  C  C476  1  0.105200  0.875470  0.403000  1.0  0.0893
  C  C477  1  0.132900  0.893950  0.467100  1.0  -0.0592
  C  C478  1  0.190200  0.874200  0.515800  1.0  0.0726
  C  C479  1  0.219100  0.835850  0.490500  1.0  0.0687
  C  C480  1  0.191000  0.818200  0.428200  1.0  0.0737
  C  C481  1  0.225800  0.775660  0.401100  1.0  -0.3434
  C  C482  1  0.042500  0.896370  0.356300  1.0  -0.3336
  C  C483  1  0.223700  0.893650  0.586200  1.0  -0.3466
  C  C484  1  0.277500  0.812750  0.541900  1.0  -0.0665
  C  C485  1  0.402900  0.824400  0.605000  1.0  -0.0009
  C  C486  1  0.484200  0.836900  0.602700  1.0  -0.13
  C  C487  1  0.517800  0.854000  0.541900  1.0  0.3009
  C  C488  1  0.475500  0.859500  0.484000  1.0  -0.1564
  C  C489  1  0.395700  0.844100  0.475800  1.0  0.0381
  C  C490  1  0.093500  0.932770  0.502200  1.0  -0.1473
  C  C491  1  0.201400  0.972900  0.433300  1.0  0.0443
  C  C492  1  0.242800  0.007440  0.421700  1.0  -0.1452
  C  C493  1  0.228900  0.043190  0.466000  1.0  0.2968
  C  C494  1  0.171500  0.039000  0.523100  1.0  -0.156
  C  C495  1  0.130500  0.001490  0.533500  1.0  0.04
  C  C496  1  0.881800  0.833790  0.426500  1.0  0.6701
  C  C497  1  0.933600  0.834900  0.495000  1.0  -0.0795
  C  C498  1  0.988300  0.804310  0.507700  1.0  -0.0424
  C  C499  1  0.039600  0.805040  0.567700  1.0  -0.0892
  C  C500  1  0.034300  0.836300  0.617800  1.0  -0.0586
  C  C501  1  0.979000  0.867340  0.609500  1.0  -0.1366
  C  C502  1  0.927800  0.866200  0.545000  1.0  -0.0473
  C  C503  1  0.091700  0.839080  0.682700  1.0  0.6473
  C  C504  1  0.693600  0.922200  0.321600  1.0  0.6186
  C  C505  1  0.683200  0.961260  0.279100  1.0  -0.0777
  C  C506  1  0.677100  0.994200  0.327800  1.0  -0.0844
  C  C507  1  0.682800  0.966390  0.200300  1.0  -0.0864
  C  C508  1  0.647200  0.797480  0.340600  1.0  0.7076
  C  C509  1  0.534700  0.761280  0.405900  1.0  -0.0256
  C  C510  1  0.571700  0.772870  0.340300  1.0  -0.0921
  C  C511  1  0.534400  0.760800  0.273800  1.0  -0.0565
  C  C512  1  0.854800  0.717360  0.204500  1.0  0.0495
  C  C513  1  0.816300  0.717690  0.136700  1.0  -0.1769
  C  C514  1  0.773300  0.683650  0.112300  1.0  0.3728
  C  C515  1  0.769400  0.649200  0.158600  1.0  -0.1339
  C  C516  1  0.808900  0.648800  0.225700  1.0  0.0552
  C  C517  1  0.903700  0.684640  0.321000  1.0  -0.0572
  C  C518  1  0.866200  0.662690  0.384600  1.0  0.0177
  C  C519  1  0.894800  0.624530  0.403000  1.0  0.0893
  C  C520  1  0.867100  0.606050  0.467100  1.0  -0.0597
  C  C521  1  0.809800  0.625800  0.515800  1.0  0.073
  C  C522  1  0.780900  0.664150  0.490500  1.0  0.0692
  C  C523  1  0.809000  0.681800  0.428200  1.0  0.0725
  C  C524  1  0.774200  0.724340  0.401100  1.0  -0.3421
  C  C525  1  0.957500  0.603630  0.356300  1.0  -0.3357
  C  C526  1  0.776300  0.606350  0.586200  1.0  -0.3472
  C  C527  1  0.722500  0.687250  0.541900  1.0  -0.0677
  C  C528  1  0.597100  0.675600  0.605000  1.0  -0.002
  C  C529  1  0.515800  0.663100  0.602700  1.0  -0.1308
  C  C530  1  0.482200  0.646000  0.541900  1.0  0.3033
  C  C531  1  0.524500  0.640500  0.484000  1.0  -0.1562
  C  C532  1  0.604300  0.655900  0.475800  1.0  0.0393
  C  C533  1  0.906500  0.567230  0.502200  1.0  -0.1449
  C  C534  1  0.798600  0.527100  0.433300  1.0  0.0443
  C  C535  1  0.757200  0.492560  0.421700  1.0  -0.1445
  C  C536  1  0.771100  0.456810  0.466000  1.0  0.297
  C  C537  1  0.828500  0.461000  0.523100  1.0  -0.1566
  C  C538  1  0.869500  0.498510  0.533500  1.0  0.0405
  C  C539  1  0.118200  0.666210  0.426500  1.0  0.6707
  C  C540  1  0.066400  0.665100  0.495000  1.0  -0.0782
  C  C541  1  0.011700  0.695690  0.507700  1.0  -0.0434
  C  C542  1  0.960400  0.694960  0.567700  1.0  -0.0871
  C  C543  1  0.965700  0.663700  0.617800  1.0  -0.0578
  C  C544  1  0.021000  0.632660  0.609500  1.0  -0.1367
  C  C545  1  0.072200  0.633800  0.545000  1.0  -0.0488
  C  C546  1  0.908300  0.660920  0.682700  1.0  0.6481
  C  C547  1  0.306400  0.577800  0.321600  1.0  0.6198
  C  C548  1  0.316800  0.538740  0.279100  1.0  -0.0775
  C  C549  1  0.322900  0.505800  0.327800  1.0  -0.085
  C  C550  1  0.317200  0.533610  0.200300  1.0  -0.0871
  C  C551  1  0.352800  0.702520  0.340600  1.0  0.7072
  C  C552  1  0.465300  0.738720  0.405900  1.0  -0.0234
  C  C553  1  0.428300  0.727130  0.340300  1.0  -0.0924
  C  C554  1  0.465600  0.739200  0.273800  1.0  -0.0568
  C  C555  1  0.145200  0.217360  0.295500  1.0  0.0504
  C  C556  1  0.183700  0.217690  0.363300  1.0  -0.1771
  C  C557  1  0.226700  0.183650  0.387700  1.0  0.3737
  C  C558  1  0.230600  0.149200  0.341400  1.0  -0.1343
  C  C559  1  0.191100  0.148800  0.274300  1.0  0.0563
  C  C560  1  0.096300  0.184640  0.179000  1.0  -0.0587
  C  C561  1  0.133800  0.162690  0.115400  1.0  0.0187
  C  C562  1  0.105200  0.124530  0.097000  1.0  0.089
  C  C563  1  0.132900  0.106050  0.032900  1.0  -0.059
  C  C564  1  0.190200  0.125800  0.984200  1.0  0.0712
  C  C565  1  0.219100  0.164150  0.009500  1.0  0.0676
  C  C566  1  0.191000  0.181800  0.071800  1.0  0.0739
  C  C567  1  0.225800  0.224340  0.098900  1.0  -0.3421
  C  C568  1  0.042500  0.103630  0.143700  1.0  -0.3342
  C  C569  1  0.223700  0.106350  0.913800  1.0  -0.3449
  C  C570  1  0.277500  0.187250  0.958100  1.0  -0.0653
  C  C571  1  0.402900  0.175600  0.895000  1.0  -0.0012
  C  C572  1  0.484200  0.163100  0.897300  1.0  -0.1314
  C  C573  1  0.517800  0.146000  0.958100  1.0  0.3043
  C  C574  1  0.475500  0.140500  0.016000  1.0  -0.1576
  C  C575  1  0.395700  0.155900  0.024200  1.0  0.0393
  C  C576  1  0.093500  0.067230  0.997800  1.0  -0.1466
  C  C577  1  0.201400  0.027100  0.066700  1.0  0.0444
  C  C578  1  0.242800  0.992560  0.078300  1.0  -0.1443
  C  C579  1  0.228900  0.956810  0.034000  1.0  0.296
  C  C580  1  0.171500  0.961000  0.976900  1.0  -0.1564
  C  C581  1  0.130500  0.998510  0.966500  1.0  0.0376
  C  C582  1  0.881800  0.166210  0.073500  1.0  0.6698
  C  C583  1  0.933600  0.165100  0.005000  1.0  -0.0786
  C  C584  1  0.988300  0.195690  0.992300  1.0  -0.0433
  C  C585  1  0.039600  0.194960  0.932300  1.0  -0.0882
  C  C586  1  0.034300  0.163700  0.882200  1.0  -0.0575
  C  C587  1  0.979000  0.132660  0.890500  1.0  -0.1375
  C  C588  1  0.927800  0.133800  0.955000  1.0  -0.0473
  C  C589  1  0.091700  0.160920  0.817300  1.0  0.6473
  C  C590  1  0.693600  0.077800  0.178400  1.0  0.6192
  C  C591  1  0.683200  0.038740  0.220900  1.0  -0.0773
  C  C592  1  0.677100  0.005800  0.172200  1.0  -0.0845
  C  C593  1  0.682800  0.033610  0.299700  1.0  -0.0865
  C  C594  1  0.647200  0.202520  0.159400  1.0  0.7075
  C  C595  1  0.534700  0.238720  0.094100  1.0  -0.0244
  C  C596  1  0.571700  0.227130  0.159700  1.0  -0.0925
  C  C597  1  0.534400  0.239200  0.226200  1.0  -0.0546
  C  C598  1  0.854800  0.282640  0.295500  1.0  0.0507
  C  C599  1  0.816300  0.282310  0.363300  1.0  -0.1775
  C  C600  1  0.773300  0.316350  0.387700  1.0  0.3721
  C  C601  1  0.769400  0.350800  0.341400  1.0  -0.1345
  C  C602  1  0.808900  0.351200  0.274300  1.0  0.0556
  C  C603  1  0.903700  0.315360  0.179000  1.0  -0.057
  C  C604  1  0.866200  0.337310  0.115400  1.0  0.0189
  C  C605  1  0.894800  0.375470  0.097000  1.0  0.0885
  C  C606  1  0.867100  0.393950  0.032900  1.0  -0.0582
  C  C607  1  0.809800  0.374200  0.984200  1.0  0.0716
  C  C608  1  0.780900  0.335850  0.009500  1.0  0.069
  C  C609  1  0.809000  0.318200  0.071800  1.0  0.073
  C  C610  1  0.774200  0.275660  0.098900  1.0  -0.3431
  C  C611  1  0.957500  0.396370  0.143700  1.0  -0.3355
  C  C612  1  0.776300  0.393650  0.913800  1.0  -0.3442
  C  C613  1  0.722500  0.312750  0.958100  1.0  -0.0674
  C  C614  1  0.597100  0.324400  0.895000  1.0  -0.0015
  C  C615  1  0.515800  0.336900  0.897300  1.0  -0.1322
  C  C616  1  0.482200  0.354000  0.958100  1.0  0.3039
  C  C617  1  0.524500  0.359500  0.016000  1.0  -0.1569
  C  C618  1  0.604300  0.344100  0.024200  1.0  0.0409
  C  C619  1  0.906500  0.432770  0.997800  1.0  -0.145
  C  C620  1  0.798600  0.472900  0.066700  1.0  0.0437
  C  C621  1  0.757200  0.507440  0.078300  1.0  -0.1456
  C  C622  1  0.771100  0.543190  0.034000  1.0  0.2951
  C  C623  1  0.828500  0.539000  0.976900  1.0  -0.1566
  C  C624  1  0.869500  0.501490  0.966500  1.0  0.0377
  C  C625  1  0.118200  0.333790  0.073500  1.0  0.6712
  C  C626  1  0.066400  0.334900  0.005000  1.0  -0.0788
  C  C627  1  0.011700  0.304310  0.992300  1.0  -0.0438
  C  C628  1  0.960400  0.305040  0.932300  1.0  -0.0885
  C  C629  1  0.965700  0.336300  0.882200  1.0  -0.0581
  C  C630  1  0.021000  0.367340  0.890500  1.0  -0.138
  C  C631  1  0.072200  0.366200  0.955000  1.0  -0.0482
  C  C632  1  0.908300  0.339080  0.817300  1.0  0.6475
  C  C633  1  0.306400  0.422200  0.178400  1.0  0.6189
  C  C634  1  0.316800  0.461260  0.220900  1.0  -0.0773
  C  C635  1  0.322900  0.494200  0.172200  1.0  -0.0845
  C  C636  1  0.317200  0.466390  0.299700  1.0  -0.0856
  C  C637  1  0.352800  0.297480  0.159400  1.0  0.7065
  C  C638  1  0.465300  0.261280  0.094100  1.0  -0.0223
  C  C639  1  0.428300  0.272870  0.159700  1.0  -0.0925
  C  C640  1  0.465600  0.260800  0.226200  1.0  -0.0553
  N  N641  1  0.851900  0.182930  0.749900  1.0  -0.2251
  N  N642  1  0.641900  0.172050  0.459900  1.0  -0.099
  N  N643  1  0.853800  0.029720  0.510200  1.0  -0.002
  N  N644  1  0.148100  0.317070  0.749900  1.0  -0.2252
  N  N645  1  0.358100  0.327950  0.459900  1.0  -0.0983
  N  N646  1  0.146200  0.470280  0.510200  1.0  -0.0013
  N  N647  1  0.851900  0.817070  0.750100  1.0  -0.227
  N  N648  1  0.641900  0.827950  0.040100  1.0  -0.0994
  N  N649  1  0.853800  0.970280  0.989800  1.0  -0.0019
  N  N650  1  0.148100  0.682930  0.750100  1.0  -0.2258
  N  N651  1  0.358100  0.672050  0.040100  1.0  -0.0981
  N  N652  1  0.146200  0.529720  0.989800  1.0  -0.0023
  N  N653  1  0.148100  0.817070  0.250100  1.0  -0.2263
  N  N654  1  0.358100  0.827950  0.540100  1.0  -0.0984
  N  N655  1  0.146200  0.970280  0.489800  1.0  -0.0016
  N  N656  1  0.851900  0.682930  0.250100  1.0  -0.2264
  N  N657  1  0.641900  0.672050  0.540100  1.0  -0.0991
  N  N658  1  0.853800  0.529720  0.489800  1.0  -0.0023
  N  N659  1  0.148100  0.182930  0.249900  1.0  -0.2251
  N  N660  1  0.358100  0.172050  0.959900  1.0  -0.098
  N  N661  1  0.146200  0.029720  0.010200  1.0  -0.002
  N  N662  1  0.851900  0.317070  0.249900  1.0  -0.2257
  N  N663  1  0.641900  0.327950  0.959900  1.0  -0.0991
  N  N664  1  0.853800  0.470280  0.010200  1.0  -0.0015
  O  O665  1  0.743300  0.181040  0.953800  1.0  -0.6129
  O  O666  1  0.409800  0.129820  0.456500  1.0  -0.6413
  O  O667  1  0.737200  0.923640  0.543500  1.0  -0.6283
  O  O668  1  0.167100  0.136380  0.581500  1.0  -0.6969
  O  O669  1  0.110700  0.193040  0.619600  1.0  -0.5734
  O  O670  1  0.913900  0.132600  0.267900  1.0  -0.6551
  O  O671  1  0.853400  0.188180  0.309000  1.0  -0.6194
  O  O672  1  0.326700  0.086180  0.614900  1.0  -0.6182
  O  O673  1  0.276100  0.107170  0.725600  1.0  -0.624
  O  O674  1  0.334300  0.183530  0.604200  1.0  -0.6696
  O  O675  1  0.313800  0.201870  0.720200  1.0  -0.5932
  O  O676  1  0.256700  0.318960  0.953800  1.0  -0.6122
  O  O677  1  0.590200  0.370180  0.456500  1.0  -0.6408
  O  O678  1  0.262800  0.576360  0.543500  1.0  -0.6289
  O  O679  1  0.832900  0.363620  0.581500  1.0  -0.697
  O  O680  1  0.889300  0.306960  0.619600  1.0  -0.5737
  O  O681  1  0.086100  0.367400  0.267900  1.0  -0.6528
  O  O682  1  0.146600  0.311820  0.309000  1.0  -0.6195
  O  O683  1  0.673300  0.413820  0.614900  1.0  -0.6189
  O  O684  1  0.723900  0.392830  0.725600  1.0  -0.6232
  O  O685  1  0.665700  0.316470  0.604200  1.0  -0.6702
  O  O686  1  0.686200  0.298130  0.720200  1.0  -0.5936
  O  O687  1  0.743300  0.818960  0.546200  1.0  -0.6128
  O  O688  1  0.409800  0.870180  0.043500  1.0  -0.6412
  O  O689  1  0.737200  0.076360  0.956500  1.0  -0.629
  O  O690  1  0.167100  0.863620  0.918500  1.0  -0.6968
  O  O691  1  0.110700  0.806960  0.880400  1.0  -0.5744
  O  O692  1  0.913900  0.867400  0.232100  1.0  -0.6545
  O  O693  1  0.853400  0.811820  0.191000  1.0  -0.6196
  O  O694  1  0.326700  0.913820  0.885100  1.0  -0.6178
  O  O695  1  0.276100  0.892830  0.774400  1.0  -0.6245
  O  O696  1  0.334300  0.816470  0.895800  1.0  -0.6685
  O  O697  1  0.313800  0.798130  0.779800  1.0  -0.5933
  O  O698  1  0.256700  0.681040  0.546200  1.0  -0.6119
  O  O699  1  0.590200  0.629820  0.043500  1.0  -0.6408
  O  O700  1  0.262800  0.423640  0.956500  1.0  -0.6292
  O  O701  1  0.832900  0.636380  0.918500  1.0  -0.697
  O  O702  1  0.889300  0.693040  0.880400  1.0  -0.5742
  O  O703  1  0.086100  0.632600  0.232100  1.0  -0.6536
  O  O704  1  0.146600  0.688180  0.191000  1.0  -0.6192
  O  O705  1  0.673300  0.586180  0.885100  1.0  -0.6177
  O  O706  1  0.723900  0.607170  0.774400  1.0  -0.624
  O  O707  1  0.665700  0.683530  0.895800  1.0  -0.6708
  O  O708  1  0.686200  0.701870  0.779800  1.0  -0.5944
  O  O709  1  0.256700  0.818960  0.046200  1.0  -0.6119
  O  O710  1  0.590200  0.870180  0.543500  1.0  -0.6412
  O  O711  1  0.262800  0.076360  0.456500  1.0  -0.6296
  O  O712  1  0.832900  0.863620  0.418500  1.0  -0.696
  O  O713  1  0.889300  0.806960  0.380400  1.0  -0.5742
  O  O714  1  0.086100  0.867400  0.732100  1.0  -0.6539
  O  O715  1  0.146600  0.811820  0.691000  1.0  -0.6198
  O  O716  1  0.673300  0.913820  0.385100  1.0  -0.6182
  O  O717  1  0.723900  0.892830  0.274400  1.0  -0.6239
  O  O718  1  0.665700  0.816470  0.395800  1.0  -0.6706
  O  O719  1  0.686200  0.798130  0.279800  1.0  -0.5942
  O  O720  1  0.743300  0.681040  0.046200  1.0  -0.6126
  O  O721  1  0.409800  0.629820  0.543500  1.0  -0.6413
  O  O722  1  0.737200  0.423640  0.456500  1.0  -0.6287
  O  O723  1  0.167100  0.636380  0.418500  1.0  -0.6972
  O  O724  1  0.110700  0.693040  0.380400  1.0  -0.5743
  O  O725  1  0.913900  0.632600  0.732100  1.0  -0.654
  O  O726  1  0.853400  0.688180  0.691000  1.0  -0.6199
  O  O727  1  0.326700  0.586180  0.385100  1.0  -0.6179
  O  O728  1  0.276100  0.607170  0.274400  1.0  -0.6245
  O  O729  1  0.334300  0.683530  0.395800  1.0  -0.6697
  O  O730  1  0.313800  0.701870  0.279800  1.0  -0.5939
  O  O731  1  0.256700  0.181040  0.453800  1.0  -0.6122
  O  O732  1  0.590200  0.129820  0.956500  1.0  -0.6408
  O  O733  1  0.262800  0.923640  0.043500  1.0  -0.6297
  O  O734  1  0.832900  0.136380  0.081500  1.0  -0.6964
  O  O735  1  0.889300  0.193040  0.119600  1.0  -0.5739
  O  O736  1  0.086100  0.132600  0.767900  1.0  -0.6546
  O  O737  1  0.146600  0.188180  0.809000  1.0  -0.6185
  O  O738  1  0.673300  0.086180  0.114900  1.0  -0.6193
  O  O739  1  0.723900  0.107170  0.225600  1.0  -0.6228
  O  O740  1  0.665700  0.183530  0.104200  1.0  -0.6711
  O  O741  1  0.686200  0.201870  0.220200  1.0  -0.5935
  O  O742  1  0.743300  0.318960  0.453800  1.0  -0.6132
  O  O743  1  0.409800  0.370180  0.956500  1.0  -0.6408
  O  O744  1  0.737200  0.576360  0.043500  1.0  -0.6275
  O  O745  1  0.167100  0.363620  0.081500  1.0  -0.6978
  O  O746  1  0.110700  0.306960  0.119600  1.0  -0.5733
  O  O747  1  0.913900  0.367400  0.767900  1.0  -0.6535
  O  O748  1  0.853400  0.311820  0.809000  1.0  -0.62
  O  O749  1  0.326700  0.413820  0.114900  1.0  -0.6173
  O  O750  1  0.276100  0.392830  0.225600  1.0  -0.6237
  O  O751  1  0.334300  0.316470  0.104200  1.0  -0.6686
  O  O752  1  0.313800  0.298130  0.220200  1.0  -0.5936
