# generated using pymatgen
data_NaZnH27C48(NO2)4
_symmetry_space_group_name_H-M   'P 1'
_cell_length_a   10.86400000
_cell_length_b   21.56200000
_cell_length_c   45.16500000
_cell_angle_alpha   90.00000000
_cell_angle_beta   93.85800000
_cell_angle_gamma   90.00000000
_symmetry_Int_Tables_number   1
_chemical_formula_structural   NaZnH27C48(NO2)4
_chemical_formula_sum   'Na8 Zn8 H216 C384 N32 O64'
_cell_volume   10555.90633643
_cell_formula_units_Z   8
loop_
 _symmetry_equiv_pos_site_id
 _symmetry_equiv_pos_as_xyz
  1  'x, y, z'
loop_
 _atom_site_type_symbol
 _atom_site_label
 _atom_site_symmetry_multiplicity
 _atom_site_fract_x
 _atom_site_fract_y
 _atom_site_fract_z
 _atom_site_occupancy
 _atom_site_charge
  Na  Na1  1  0.373220  0.283870  0.131080  1.0  0.9696
  Na  Na2  1  0.623280  0.773530  0.377650  1.0  0.9374
  Na  Na3  1  0.126780  0.783870  0.368920  1.0  0.9687
  Na  Na4  1  0.876720  0.273530  0.122350  1.0  0.9408
  Na  Na5  1  0.626780  0.716130  0.868920  1.0  0.9689
  Na  Na6  1  0.376720  0.226470  0.622350  1.0  0.941
  Na  Na7  1  0.873220  0.216130  0.631080  1.0  0.9698
  Na  Na8  1  0.123280  0.726470  0.877650  1.0  0.9381
  Zn  Zn9  1  0.901610  0.775110  0.130540  1.0  0.8246
  Zn  Zn10  1  0.368370  0.775290  0.114470  1.0  0.8432
  Zn  Zn11  1  0.598390  0.275110  0.369460  1.0  0.8249
  Zn  Zn12  1  0.131630  0.275290  0.385530  1.0  0.8433
  Zn  Zn13  1  0.098390  0.224890  0.869460  1.0  0.8249
  Zn  Zn14  1  0.631630  0.224710  0.885530  1.0  0.8432
  Zn  Zn15  1  0.401610  0.724890  0.630540  1.0  0.8246
  Zn  Zn16  1  0.868370  0.724710  0.614470  1.0  0.843
  H  H17  1  0.693700  0.684200  0.219100  1.0  0.1146
  H  H18  1  0.711000  0.595800  0.186100  1.0  0.1209
  H  H19  1  0.844600  0.571100  0.075100  1.0  0.1173
  H  H20  1  0.957700  0.634700  0.041900  1.0  0.1247
  H  H21  1  0.171400  0.857800  0.050800  1.0  0.1254
  H  H22  1  0.151900  0.946800  0.083600  1.0  0.1272
  H  H23  1  0.908000  0.988800  0.180700  1.0  0.1287
  H  H24  1  0.794200  0.922400  0.213800  1.0  0.1262
  H  H25  1  0.860900  0.778600  0.254600  1.0  0.1073
  H  H26  1  0.764900  0.790800  0.298700  1.0  0.1069
  H  H27  1  0.458700  0.847700  0.253300  1.0  0.1159
  H  H28  1  0.555500  0.836500  0.209400  1.0  0.1017
  H  H29  1  0.392400  0.836800  0.324100  1.0  0.2852
  H  H30  1  0.926400  0.512800  0.126800  1.0  0.1053
  H  H31  1  0.848900  0.413700  0.123100  1.0  0.0987
  H  H32  1  0.510500  0.478600  0.134100  1.0  0.0901
  H  H33  1  0.579500  0.577600  0.133300  1.0  0.1222
  H  H34  1  0.986700  0.815800  0.015500  1.0  0.1151
  H  H35  1  0.056000  0.804300  0.968300  1.0  0.12
  H  H36  1  0.245500  0.653300  0.996000  1.0  0.1085
  H  H37  1  0.187700  0.667400  0.043100  1.0  0.1057
  H  H38  1  0.283800  0.667900  0.923100  1.0  0.3072
  H  H39  1  0.877900  0.029400  0.115000  1.0  0.1057
  H  H40  1  0.939700  0.130700  0.117200  1.0  0.0773
  H  H41  1  0.273100  0.082000  0.144900  1.0  0.1208
  H  H42  1  0.208700  0.980200  0.145600  1.0  0.07
  H  H43  1  0.108500  0.263400  0.135700  1.0  0.2981
  H  H44  1  0.382000  0.561200  0.067600  1.0  0.112
  H  H45  1  0.490400  0.624500  0.033500  1.0  0.1362
  H  H46  1  0.580400  0.867700  0.026100  1.0  0.1179
  H  H47  1  0.561000  0.958500  0.060200  1.0  0.1369
  H  H48  1  0.449900  0.974000  0.173200  1.0  0.1202
  H  H49  1  0.328100  0.912400  0.205600  1.0  0.1291
  H  H50  1  0.084000  0.695000  0.192300  1.0  0.1308
  H  H51  1  0.101700  0.607300  0.158800  1.0  0.1101
  H  H52  1  0.312000  0.539800  0.154400  1.0  0.1132
  H  H53  1  0.259800  0.436800  0.156600  1.0  0.1011
  H  H54  1  0.075100  0.449400  0.077200  1.0  0.121
  H  H55  1  0.133600  0.553000  0.074300  1.0  0.1062
  H  H56  1  0.418300  0.766400  0.990300  1.0  0.121
  H  H57  1  0.526100  0.750400  0.948100  1.0  0.1005
  H  H58  1  0.822900  0.696900  0.999100  1.0  0.1111
  H  H59  1  0.716300  0.716700  0.040700  1.0  0.1033
  H  H60  1  0.903300  0.676700  0.929800  1.0  0.303
  H  H61  1  0.376000  0.030200  0.089600  1.0  0.1113
  H  H62  1  0.441800  0.134700  0.094200  1.0  0.1138
  H  H63  1  0.728600  0.079500  0.148400  1.0  0.1311
  H  H64  1  0.659500  0.978000  0.144400  1.0  0.0941
  H  H65  1  0.607000  0.262400  0.112400  1.0  0.3349
  H  H66  1  0.273200  0.728900  0.228000  1.0  0.1235
  H  H67  1  0.214300  0.743200  0.276100  1.0  0.1095
  H  H68  1  0.038200  0.899600  0.250800  1.0  0.1236
  H  H69  1  0.103200  0.887800  0.203800  1.0  0.0905
  H  H70  1  0.012000  0.873900  0.326000  1.0  0.299
  H  H71  1  0.806300  0.184200  0.280900  1.0  0.1143
  H  H72  1  0.789000  0.095800  0.313900  1.0  0.1204
  H  H73  1  0.655400  0.071100  0.424900  1.0  0.1178
  H  H74  1  0.542300  0.134700  0.458100  1.0  0.1237
  H  H75  1  0.328600  0.357800  0.449200  1.0  0.1254
  H  H76  1  0.348100  0.446800  0.416400  1.0  0.1259
  H  H77  1  0.592000  0.488800  0.319300  1.0  0.1288
  H  H78  1  0.705800  0.422400  0.286200  1.0  0.1263
  H  H79  1  0.639100  0.278600  0.245400  1.0  0.1072
  H  H80  1  0.735100  0.290800  0.201300  1.0  0.1068
  H  H81  1  0.041300  0.347700  0.246700  1.0  0.1169
  H  H82  1  0.944500  0.336500  0.290600  1.0  0.1014
  H  H83  1  0.107600  0.336800  0.175900  1.0  0.2832
  H  H84  1  0.573600  0.012800  0.373200  1.0  0.1047
  H  H85  1  0.651100  0.913700  0.376900  1.0  0.098
  H  H86  1  0.989500  0.978600  0.365900  1.0  0.0895
  H  H87  1  0.920500  0.077600  0.366700  1.0  0.1217
  H  H88  1  0.513300  0.315800  0.484500  1.0  0.1139
  H  H89  1  0.444000  0.304300  0.531700  1.0  0.12
  H  H90  1  0.254500  0.153300  0.504000  1.0  0.1084
  H  H91  1  0.312300  0.167400  0.456900  1.0  0.1058
  H  H92  1  0.216200  0.167900  0.576900  1.0  0.3081
  H  H93  1  0.622100  0.529400  0.385000  1.0  0.1063
  H  H94  1  0.560300  0.630700  0.382800  1.0  0.0776
  H  H95  1  0.226900  0.582000  0.355100  1.0  0.1202
  H  H96  1  0.291300  0.480200  0.354400  1.0  0.0698
  H  H97  1  0.391500  0.763400  0.364300  1.0  0.297
  H  H98  1  0.118000  0.061200  0.432400  1.0  0.1122
  H  H99  1  0.009600  0.124500  0.466500  1.0  0.137
  H  H100  1  0.919600  0.367700  0.473900  1.0  0.1174
  H  H101  1  0.939000  0.458500  0.439800  1.0  0.1368
  H  H102  1  0.050100  0.474000  0.326800  1.0  0.1205
  H  H103  1  0.171900  0.412400  0.294400  1.0  0.1296
  H  H104  1  0.416000  0.195000  0.307700  1.0  0.1309
  H  H105  1  0.398300  0.107300  0.341200  1.0  0.1106
  H  H106  1  0.188000  0.039800  0.345600  1.0  0.1142
  H  H107  1  0.240200  0.936800  0.343400  1.0  0.1012
  H  H108  1  0.424900  0.949400  0.422800  1.0  0.1217
  H  H109  1  0.366400  0.053000  0.425700  1.0  0.1047
  H  H110  1  0.081700  0.266400  0.509700  1.0  0.1209
  H  H111  1  0.973900  0.250400  0.551900  1.0  0.1001
  H  H112  1  0.677100  0.196900  0.500900  1.0  0.1109
  H  H113  1  0.783700  0.216700  0.459300  1.0  0.1037
  H  H114  1  0.596700  0.176700  0.570200  1.0  0.306
  H  H115  1  0.124000  0.530200  0.410400  1.0  0.111
  H  H116  1  0.058200  0.634700  0.405800  1.0  0.1141
  H  H117  1  0.771400  0.579500  0.351600  1.0  0.1312
  H  H118  1  0.840500  0.478000  0.355600  1.0  0.0941
  H  H119  1  0.893000  0.762400  0.387600  1.0  0.3369
  H  H120  1  0.226800  0.228900  0.272000  1.0  0.1224
  H  H121  1  0.285700  0.243200  0.223900  1.0  0.1097
  H  H122  1  0.461800  0.399600  0.249200  1.0  0.1233
  H  H123  1  0.396800  0.387800  0.296200  1.0  0.0906
  H  H124  1  0.488000  0.373900  0.174000  1.0  0.297
  H  H125  1  0.306300  0.315800  0.780900  1.0  0.1142
  H  H126  1  0.289000  0.404200  0.813900  1.0  0.1208
  H  H127  1  0.155400  0.428900  0.924900  1.0  0.1174
  H  H128  1  0.042300  0.365300  0.958100  1.0  0.124
  H  H129  1  0.828600  0.142200  0.949200  1.0  0.1252
  H  H130  1  0.848100  0.053200  0.916400  1.0  0.126
  H  H131  1  0.092000  0.011200  0.819300  1.0  0.1294
  H  H132  1  0.205800  0.077600  0.786200  1.0  0.1269
  H  H133  1  0.139100  0.221400  0.745400  1.0  0.1074
  H  H134  1  0.235100  0.209200  0.701300  1.0  0.1071
  H  H135  1  0.541300  0.152300  0.746700  1.0  0.1167
  H  H136  1  0.444500  0.163500  0.790600  1.0  0.1014
  H  H137  1  0.607600  0.163200  0.675900  1.0  0.2834
  H  H138  1  0.073600  0.487200  0.873200  1.0  0.105
  H  H139  1  0.151100  0.586300  0.876900  1.0  0.0982
  H  H140  1  0.489500  0.521400  0.865900  1.0  0.0892
  H  H141  1  0.420500  0.422400  0.866700  1.0  0.1215
  H  H142  1  0.013300  0.184200  0.984500  1.0  0.1137
  H  H143  1  0.944000  0.195700  0.031700  1.0  0.1207
  H  H144  1  0.754500  0.346700  0.004000  1.0  0.1085
  H  H145  1  0.812300  0.332600  0.956900  1.0  0.1056
  H  H146  1  0.716200  0.332100  0.076900  1.0  0.3078
  H  H147  1  0.122100  0.970600  0.885000  1.0  0.1059
  H  H148  1  0.060300  0.869300  0.882800  1.0  0.0785
  H  H149  1  0.726900  0.918000  0.855100  1.0  0.1202
  H  H150  1  0.791300  0.019800  0.854400  1.0  0.0694
  H  H151  1  0.891500  0.736600  0.864300  1.0  0.2979
  H  H152  1  0.618000  0.438800  0.932400  1.0  0.1125
  H  H153  1  0.509600  0.375500  0.966500  1.0  0.1371
  H  H154  1  0.419600  0.132300  0.973900  1.0  0.1171
  H  H155  1  0.439000  0.041500  0.939800  1.0  0.1372
  H  H156  1  0.550100  0.026000  0.826800  1.0  0.1199
  H  H157  1  0.671900  0.087600  0.794400  1.0  0.1288
  H  H158  1  0.916000  0.305000  0.807700  1.0  0.1309
  H  H159  1  0.898300  0.392700  0.841200  1.0  0.1105
  H  H160  1  0.688000  0.460200  0.845600  1.0  0.1142
  H  H161  1  0.740200  0.563200  0.843400  1.0  0.1009
  H  H162  1  0.924900  0.550600  0.922800  1.0  0.1212
  H  H163  1  0.866400  0.447000  0.925700  1.0  0.1048
  H  H164  1  0.581700  0.233600  0.009700  1.0  0.1211
  H  H165  1  0.473900  0.249600  0.051900  1.0  0.1006
  H  H166  1  0.177100  0.303100  0.000900  1.0  0.111
  H  H167  1  0.283700  0.283300  0.959300  1.0  0.1038
  H  H168  1  0.096700  0.323300  0.070200  1.0  0.3054
  H  H169  1  0.624000  0.969800  0.910400  1.0  0.1114
  H  H170  1  0.558200  0.865300  0.905800  1.0  0.1146
  H  H171  1  0.271400  0.920500  0.851600  1.0  0.1309
  H  H172  1  0.340500  0.022000  0.855600  1.0  0.0937
  H  H173  1  0.393000  0.737600  0.887600  1.0  0.3381
  H  H174  1  0.726800  0.271100  0.772000  1.0  0.1231
  H  H175  1  0.785700  0.256800  0.723900  1.0  0.1105
  H  H176  1  0.961800  0.100400  0.749200  1.0  0.1232
  H  H177  1  0.896800  0.112200  0.796200  1.0  0.091
  H  H178  1  0.988000  0.126100  0.674000  1.0  0.2983
  H  H179  1  0.193700  0.815800  0.719100  1.0  0.1144
  H  H180  1  0.211000  0.904200  0.686100  1.0  0.1206
  H  H181  1  0.344600  0.928900  0.575100  1.0  0.1178
  H  H182  1  0.457700  0.865300  0.541900  1.0  0.1251
  H  H183  1  0.671400  0.642200  0.550800  1.0  0.1257
  H  H184  1  0.651900  0.553200  0.583600  1.0  0.1268
  H  H185  1  0.408000  0.511200  0.680700  1.0  0.1292
  H  H186  1  0.294200  0.577600  0.713800  1.0  0.1264
  H  H187  1  0.360900  0.721400  0.754600  1.0  0.1072
  H  H188  1  0.264900  0.709200  0.798700  1.0  0.1066
  H  H189  1  0.958700  0.652300  0.753300  1.0  0.1159
  H  H190  1  0.055500  0.663500  0.709400  1.0  0.1018
  H  H191  1  0.892400  0.663200  0.824100  1.0  0.2857
  H  H192  1  0.426400  0.987200  0.626800  1.0  0.1053
  H  H193  1  0.348900  0.086300  0.623100  1.0  0.0983
  H  H194  1  0.010500  0.021400  0.634100  1.0  0.09
  H  H195  1  0.079500  0.922400  0.633300  1.0  0.1216
  H  H196  1  0.486700  0.684200  0.515500  1.0  0.1136
  H  H197  1  0.556000  0.695700  0.468300  1.0  0.1196
  H  H198  1  0.745500  0.846700  0.496000  1.0  0.1087
  H  H199  1  0.687700  0.832600  0.543100  1.0  0.1056
  H  H200  1  0.783800  0.832100  0.423100  1.0  0.3072
  H  H201  1  0.377900  0.470600  0.615000  1.0  0.1055
  H  H202  1  0.439700  0.369300  0.617200  1.0  0.0774
  H  H203  1  0.773100  0.418000  0.644900  1.0  0.1212
  H  H204  1  0.708700  0.519800  0.645600  1.0  0.0693
  H  H205  1  0.608500  0.236600  0.635700  1.0  0.2986
  H  H206  1  0.882000  0.938800  0.567600  1.0  0.1122
  H  H207  1  0.990400  0.875500  0.533500  1.0  0.1367
  H  H208  1  0.080400  0.632300  0.526100  1.0  0.1176
  H  H209  1  0.061000  0.541500  0.560200  1.0  0.137
  H  H210  1  0.949900  0.526000  0.673200  1.0  0.1204
  H  H211  1  0.828100  0.587600  0.705600  1.0  0.1288
  H  H212  1  0.584000  0.805000  0.692300  1.0  0.1309
  H  H213  1  0.601700  0.892700  0.658800  1.0  0.11
  H  H214  1  0.812000  0.960200  0.654400  1.0  0.1134
  H  H215  1  0.759800  0.063200  0.656600  1.0  0.1012
  H  H216  1  0.575100  0.050600  0.577200  1.0  0.1207
  H  H217  1  0.633600  0.947000  0.574300  1.0  0.1068
  H  H218  1  0.918300  0.733600  0.490300  1.0  0.1208
  H  H219  1  0.026100  0.749600  0.448100  1.0  0.1005
  H  H220  1  0.322900  0.803100  0.499100  1.0  0.111
  H  H221  1  0.216300  0.783300  0.540700  1.0  0.1034
  H  H222  1  0.403300  0.823300  0.429800  1.0  0.3024
  H  H223  1  0.876000  0.469800  0.589600  1.0  0.1114
  H  H224  1  0.941800  0.365300  0.594200  1.0  0.1137
  H  H225  1  0.228600  0.420500  0.648400  1.0  0.131
  H  H226  1  0.159500  0.522000  0.644400  1.0  0.094
  H  H227  1  0.107000  0.237600  0.612400  1.0  0.3361
  H  H228  1  0.773200  0.771100  0.728000  1.0  0.1228
  H  H229  1  0.714300  0.756800  0.776100  1.0  0.1093
  H  H230  1  0.538200  0.600400  0.750800  1.0  0.1235
  H  H231  1  0.603200  0.612200  0.703800  1.0  0.0907
  H  H232  1  0.512000  0.626100  0.826000  1.0  0.3
  C  C233  1  0.828300  0.849060  0.184310  1.0  0.2302
  C  C234  1  0.780300  0.797420  0.198160  1.0  -0.0021
  C  C235  1  0.779500  0.736390  0.187310  1.0  0.19
  C  C236  1  0.728000  0.684620  0.200740  1.0  -0.1547
  C  C237  1  0.736800  0.636100  0.182650  1.0  -0.1536
  C  C238  1  0.793300  0.657850  0.156990  1.0  0.2169
  C  C239  1  0.810200  0.622930  0.131350  1.0  -0.043
  C  C240  1  0.868900  0.643500  0.106640  1.0  0.2242
  C  C241  1  0.877100  0.610240  0.079360  1.0  -0.1744
  C  C242  1  0.939200  0.644990  0.061100  1.0  -0.1513
  C  C243  1  0.972400  0.701790  0.076720  1.0  0.2021
  C  C244  1  0.038400  0.751770  0.064880  1.0  -0.0597
  C  C245  1  0.056400  0.808880  0.078870  1.0  0.2294
  C  C246  1  0.126600  0.859030  0.067660  1.0  -0.1787
  C  C247  1  0.116200  0.907920  0.085680  1.0  -0.1757
  C  C248  1  0.039700  0.888930  0.108760  1.0  0.1605
  C  C249  1  0.002900  0.926980  0.131630  1.0  -0.0649
  C  C250  1  0.927800  0.907570  0.154450  1.0  0.1614
  C  C251  1  0.891700  0.946640  0.178320  1.0  -0.1765
  C  C252  1  0.829500  0.910090  0.196580  1.0  -0.17
  C  C253  1  0.718100  0.806870  0.227070  1.0  0.0471
  C  C254  1  0.780000  0.792850  0.254080  1.0  -0.0996
  C  C255  1  0.722000  0.799910  0.280700  1.0  -0.0476
  C  C256  1  0.604200  0.819790  0.280340  1.0  -0.1513
  C  C257  1  0.539900  0.833900  0.253680  1.0  -0.0669
  C  C258  1  0.598700  0.827100  0.227330  1.0  -0.1017
  C  C259  1  0.541800  0.824990  0.308870  1.0  0.6264
  C  C260  1  0.762500  0.556870  0.130660  1.0  0.0788
  C  C261  1  0.842100  0.506090  0.127600  1.0  -0.0809
  C  C262  1  0.796200  0.446880  0.125730  1.0  -0.0125
  C  C263  1  0.672100  0.436710  0.127790  1.0  -0.1123
  C  C264  1  0.593400  0.486190  0.131710  1.0  -0.0566
  C  C265  1  0.634700  0.544880  0.132100  1.0  -0.1104
  C  C266  1  0.622900  0.371330  0.126840  1.0  0.6711
  C  C267  1  0.083100  0.742830  0.034890  1.0  0.0675
  C  C268  1  0.041000  0.783900  0.011660  1.0  -0.1073
  C  C269  1  0.080900  0.776550  0.983260  1.0  -0.0271
  C  C270  1  0.158000  0.727590  0.977500  1.0  -0.1376
  C  C271  1  0.195400  0.686760  0.000080  1.0  -0.0425
  C  C272  1  0.159800  0.694700  0.028250  1.0  -0.1296
  C  C273  1  0.194300  0.718150  0.946610  1.0  0.6034
  C  C274  1  0.037000  0.992680  0.130960  1.0  0.139
  C  C275  1  0.958200  0.038920  0.121950  1.0  -0.196
  C  C276  1  0.996500  0.100100  0.123000  1.0  -0.0423
  C  C277  1  0.109700  0.117180  0.131880  1.0  -0.0547
  C  C278  1  0.191200  0.072180  0.139580  1.0  -0.1482
  C  C279  1  0.151900  0.010500  0.139450  1.0  -0.1065
  C  C280  1  0.160600  0.181460  0.133980  1.0  0.6316
  C  C281  1  0.226400  0.662100  0.135170  1.0  0.1856
  C  C282  1  0.265500  0.624940  0.112610  1.0  -0.0679
  C  C283  1  0.340200  0.642340  0.090400  1.0  0.1765
  C  C284  1  0.390500  0.604110  0.068670  1.0  -0.1384
  C  C285  1  0.451600  0.638230  0.050010  1.0  -0.1715
  C  C286  1  0.444900  0.701710  0.060990  1.0  0.1251
  C  C287  1  0.492400  0.755600  0.047120  1.0  -0.0446
  C  C288  1  0.488200  0.816010  0.057670  1.0  0.2184
  C  C289  1  0.544200  0.867660  0.044150  1.0  -0.0793
  C  C290  1  0.534200  0.918180  0.063180  1.0  -0.1122
  C  C291  1  0.473800  0.894790  0.088340  1.0  0.18
  C  C292  1  0.464600  0.926690  0.114830  1.0  -0.0394
  C  C293  1  0.410600  0.904790  0.140350  1.0  0.1411
  C  C294  1  0.411100  0.936500  0.168480  1.0  -0.1531
  C  C295  1  0.346300  0.902490  0.186340  1.0  -0.1575
  C  C296  1  0.309100  0.846930  0.170050  1.0  0.179
  C  C297  1  0.238100  0.799470  0.180130  1.0  0.0094
  C  C298  1  0.210800  0.741360  0.165400  1.0  0.1243
  C  C299  1  0.131900  0.693030  0.175970  1.0  -0.1861
  C  C300  1  0.141900  0.645150  0.157560  1.0  -0.1529
  C  C301  1  0.231100  0.557560  0.113590  1.0  0.038
  C  C302  1  0.265700  0.521780  0.138550  1.0  -0.083
  C  C303  1  0.232600  0.460290  0.140210  1.0  -0.0542
  C  C304  1  0.159800  0.433500  0.117750  1.0  -0.1496
  C  C305  1  0.123000  0.467590  0.092710  1.0  -0.0688
  C  C306  1  0.158900  0.529870  0.090980  1.0  -0.08
  C  C307  1  0.115900  0.366600  0.119750  1.0  0.6807
  C  C308  1  0.558700  0.743330  0.019400  1.0  0.0301
  C  C309  1  0.499900  0.753200  0.992070  1.0  -0.1077
  C  C310  1  0.564600  0.742900  0.966730  1.0  -0.0224
  C  C311  1  0.685400  0.721800  0.969130  1.0  -0.1609
  C  C312  1  0.742200  0.711400  0.997060  1.0  -0.0492
  C  C313  1  0.677600  0.723000  0.021940  1.0  -0.1068
  C  C314  1  0.748700  0.708100  0.941600  1.0  0.6037
  C  C315  1  0.511000  0.993540  0.116330  1.0  0.0175
  C  C316  1  0.446700  0.039890  0.101460  1.0  -0.09
  C  C317  1  0.486400  0.103000  0.103920  1.0  -0.0229
  C  C318  1  0.590300  0.114840  0.120660  1.0  -0.1297
  C  C319  1  0.658000  0.069550  0.136520  1.0  -0.1089
  C  C320  1  0.616000  0.009200  0.133950  1.0  -0.0869
  C  C321  1  0.640500  0.181990  0.123820  1.0  0.6114
  C  C322  1  0.189100  0.806750  0.210530  1.0  0.0515
  C  C323  1  0.226100  0.763120  0.232650  1.0  -0.1003
  C  C324  1  0.191100  0.771940  0.261450  1.0  -0.0405
  C  C325  1  0.122900  0.822590  0.268350  1.0  -0.1484
  C  C326  1  0.086700  0.865800  0.246310  1.0  -0.083
  C  C327  1  0.123400  0.857810  0.218110  1.0  -0.1019
  C  C328  1  0.091000  0.830400  0.299650  1.0  0.6163
  C  C329  1  0.671700  0.349060  0.315690  1.0  0.2303
  C  C330  1  0.719700  0.297420  0.301840  1.0  -0.0016
  C  C331  1  0.720500  0.236390  0.312690  1.0  0.1894
  C  C332  1  0.772000  0.184620  0.299260  1.0  -0.1527
  C  C333  1  0.763200  0.136100  0.317350  1.0  -0.152
  C  C334  1  0.706700  0.157850  0.343010  1.0  0.2185
  C  C335  1  0.689800  0.122930  0.368650  1.0  -0.0428
  C  C336  1  0.631100  0.143500  0.393360  1.0  0.2247
  C  C337  1  0.622900  0.110240  0.420640  1.0  -0.1737
  C  C338  1  0.560800  0.144990  0.438900  1.0  -0.1517
  C  C339  1  0.527600  0.201790  0.423280  1.0  0.2035
  C  C340  1  0.461600  0.251770  0.435120  1.0  -0.0593
  C  C341  1  0.443600  0.308880  0.421130  1.0  0.2306
  C  C342  1  0.373400  0.359030  0.432340  1.0  -0.1814
  C  C343  1  0.383800  0.407920  0.414320  1.0  -0.1761
  C  C344  1  0.460300  0.388930  0.391240  1.0  0.1618
  C  C345  1  0.497100  0.426980  0.368370  1.0  -0.0653
  C  C346  1  0.572200  0.407570  0.345550  1.0  0.1619
  C  C347  1  0.608300  0.446640  0.321680  1.0  -0.1754
  C  C348  1  0.670500  0.410090  0.303420  1.0  -0.17
  C  C349  1  0.781900  0.306870  0.272930  1.0  0.0474
  C  C350  1  0.720000  0.292850  0.245920  1.0  -0.0993
  C  C351  1  0.778000  0.299910  0.219300  1.0  -0.0475
  C  C352  1  0.895800  0.319790  0.219660  1.0  -0.1511
  C  C353  1  0.960100  0.333900  0.246320  1.0  -0.0651
  C  C354  1  0.901300  0.327100  0.272670  1.0  -0.1022
  C  C355  1  0.958200  0.324990  0.191130  1.0  0.6273
  C  C356  1  0.737500  0.056870  0.369340  1.0  0.0796
  C  C357  1  0.657900  0.006090  0.372400  1.0  -0.0811
  C  C358  1  0.703800  0.946880  0.374270  1.0  -0.012
  C  C359  1  0.827900  0.936710  0.372210  1.0  -0.1117
  C  C360  1  0.906600  0.986190  0.368290  1.0  -0.0565
  C  C361  1  0.865300  0.044880  0.367900  1.0  -0.1107
  C  C362  1  0.877100  0.871330  0.373160  1.0  0.6717
  C  C363  1  0.416900  0.242830  0.465110  1.0  0.07
  C  C364  1  0.459000  0.283900  0.488340  1.0  -0.1075
  C  C365  1  0.419100  0.276550  0.516740  1.0  -0.026
  C  C366  1  0.342000  0.227590  0.522500  1.0  -0.1357
  C  C367  1  0.304600  0.186760  0.499920  1.0  -0.0421
  C  C368  1  0.340200  0.194700  0.471750  1.0  -0.1285
  C  C369  1  0.305700  0.218150  0.553390  1.0  0.6035
  C  C370  1  0.463000  0.492680  0.369040  1.0  0.1406
  C  C371  1  0.541800  0.538920  0.378050  1.0  -0.1952
  C  C372  1  0.503500  0.600100  0.377000  1.0  -0.0428
  C  C373  1  0.390300  0.617180  0.368120  1.0  -0.0547
  C  C374  1  0.308800  0.572180  0.360420  1.0  -0.1487
  C  C375  1  0.348100  0.510500  0.360550  1.0  -0.1058
  C  C376  1  0.339400  0.681460  0.366020  1.0  0.6317
  C  C377  1  0.273600  0.162100  0.364830  1.0  0.1855
  C  C378  1  0.234500  0.124940  0.387390  1.0  -0.0681
  C  C379  1  0.159800  0.142340  0.409600  1.0  0.177
  C  C380  1  0.109500  0.104110  0.431330  1.0  -0.1378
  C  C381  1  0.048400  0.138230  0.449990  1.0  -0.1685
  C  C382  1  0.055100  0.201710  0.439010  1.0  0.1259
  C  C383  1  0.007600  0.255600  0.452880  1.0  -0.0439
  C  C384  1  0.011800  0.316010  0.442330  1.0  0.2182
  C  C385  1  0.955800  0.367660  0.455850  1.0  -0.08
  C  C386  1  0.965800  0.418180  0.436820  1.0  -0.1143
  C  C387  1  0.026200  0.394790  0.411660  1.0  0.1803
  C  C388  1  0.035400  0.426690  0.385170  1.0  -0.0399
  C  C389  1  0.089400  0.404790  0.359650  1.0  0.1402
  C  C390  1  0.088900  0.436500  0.331520  1.0  -0.1539
  C  C391  1  0.153700  0.402490  0.313660  1.0  -0.1579
  C  C392  1  0.190900  0.346930  0.329950  1.0  0.1776
  C  C393  1  0.261900  0.299470  0.319870  1.0  0.0099
  C  C394  1  0.289200  0.241360  0.334600  1.0  0.1251
  C  C395  1  0.368100  0.193030  0.324030  1.0  -0.1844
  C  C396  1  0.358100  0.145150  0.342440  1.0  -0.1527
  C  C397  1  0.268900  0.057560  0.386410  1.0  0.037
  C  C398  1  0.234300  0.021780  0.361450  1.0  -0.0813
  C  C399  1  0.267400  0.960290  0.359790  1.0  -0.0549
  C  C400  1  0.340200  0.933500  0.382250  1.0  -0.1489
  C  C401  1  0.377000  0.967590  0.407290  1.0  -0.0702
  C  C402  1  0.341100  0.029870  0.409020  1.0  -0.0795
  C  C403  1  0.384100  0.866600  0.380250  1.0  0.6804
  C  C404  1  0.941300  0.243330  0.480600  1.0  0.0268
  C  C405  1  0.000100  0.253200  0.507930  1.0  -0.109
  C  C406  1  0.935400  0.242900  0.533270  1.0  -0.0216
  C  C407  1  0.814600  0.221800  0.530870  1.0  -0.162
  C  C408  1  0.757800  0.211400  0.502940  1.0  -0.0499
  C  C409  1  0.822400  0.223000  0.478060  1.0  -0.1069
  C  C410  1  0.751300  0.208100  0.558400  1.0  0.6044
  C  C411  1  0.989000  0.493540  0.383670  1.0  0.0166
  C  C412  1  0.053300  0.539890  0.398540  1.0  -0.0924
  C  C413  1  0.013600  0.603000  0.396080  1.0  -0.0217
  C  C414  1  0.909700  0.614840  0.379340  1.0  -0.1287
  C  C415  1  0.842000  0.569550  0.363480  1.0  -0.1093
  C  C416  1  0.884000  0.509200  0.366050  1.0  -0.0865
  C  C417  1  0.859500  0.681990  0.376180  1.0  0.6118
  C  C418  1  0.310900  0.306750  0.289470  1.0  0.05
  C  C419  1  0.273900  0.263120  0.267350  1.0  -0.0993
  C  C420  1  0.308900  0.271940  0.238550  1.0  -0.0416
  C  C421  1  0.377100  0.322590  0.231650  1.0  -0.1489
  C  C422  1  0.413300  0.365800  0.253690  1.0  -0.084
  C  C423  1  0.376600  0.357810  0.281890  1.0  -0.1038
  C  C424  1  0.409000  0.330400  0.200350  1.0  0.6167
  C  C425  1  0.171700  0.150940  0.815690  1.0  0.2306
  C  C426  1  0.219700  0.202580  0.801840  1.0  -0.0022
  C  C427  1  0.220500  0.263610  0.812690  1.0  0.1892
  C  C428  1  0.272000  0.315380  0.799260  1.0  -0.1524
  C  C429  1  0.263200  0.363900  0.817350  1.0  -0.1531
  C  C430  1  0.206700  0.342150  0.843010  1.0  0.2187
  C  C431  1  0.189800  0.377070  0.868650  1.0  -0.0434
  C  C432  1  0.131100  0.356500  0.893360  1.0  0.2249
  C  C433  1  0.122900  0.389760  0.920640  1.0  -0.175
  C  C434  1  0.060800  0.355010  0.938900  1.0  -0.1507
  C  C435  1  0.027600  0.298210  0.923280  1.0  0.2029
  C  C436  1  0.961600  0.248230  0.935120  1.0  -0.0602
  C  C437  1  0.943600  0.191120  0.921130  1.0  0.2306
  C  C438  1  0.873400  0.140970  0.932340  1.0  -0.1802
  C  C439  1  0.883800  0.092080  0.914320  1.0  -0.1783
  C  C440  1  0.960300  0.111070  0.891240  1.0  0.1614
  C  C441  1  0.997100  0.073020  0.868370  1.0  -0.0649
  C  C442  1  0.072200  0.092430  0.845550  1.0  0.1619
  C  C443  1  0.108300  0.053360  0.821680  1.0  -0.1764
  C  C444  1  0.170500  0.089910  0.803420  1.0  -0.1713
  C  C445  1  0.281900  0.193130  0.772930  1.0  0.0469
  C  C446  1  0.220000  0.207150  0.745920  1.0  -0.0995
  C  C447  1  0.278000  0.200090  0.719300  1.0  -0.0473
  C  C448  1  0.395800  0.180210  0.719660  1.0  -0.1514
  C  C449  1  0.460100  0.166100  0.746320  1.0  -0.0646
  C  C450  1  0.401300  0.172900  0.772670  1.0  -0.1017
  C  C451  1  0.458200  0.175010  0.691130  1.0  0.6273
  C  C452  1  0.237500  0.443130  0.869340  1.0  0.0795
  C  C453  1  0.157900  0.493910  0.872400  1.0  -0.0808
  C  C454  1  0.203800  0.553120  0.874270  1.0  -0.0126
  C  C455  1  0.327900  0.563290  0.872210  1.0  -0.1116
  C  C456  1  0.406600  0.513810  0.868290  1.0  -0.0559
  C  C457  1  0.365300  0.455120  0.867900  1.0  -0.1109
  C  C458  1  0.377100  0.628670  0.873160  1.0  0.6719
  C  C459  1  0.916900  0.257170  0.965110  1.0  0.0697
  C  C460  1  0.959000  0.216100  0.988340  1.0  -0.1061
  C  C461  1  0.919100  0.223450  0.016740  1.0  -0.0262
  C  C462  1  0.842000  0.272410  0.022500  1.0  -0.1355
  C  C463  1  0.804600  0.313240  0.999920  1.0  -0.0427
  C  C464  1  0.840200  0.305300  0.971750  1.0  -0.1283
  C  C465  1  0.805700  0.281850  0.053390  1.0  0.6033
  C  C466  1  0.963000  0.007320  0.869040  1.0  0.1406
  C  C467  1  0.041800  0.961080  0.878050  1.0  -0.1952
  C  C468  1  0.003500  0.899900  0.877000  1.0  -0.0432
  C  C469  1  0.890300  0.882820  0.868120  1.0  -0.0548
  C  C470  1  0.808800  0.927820  0.860420  1.0  -0.1481
  C  C471  1  0.848100  0.989500  0.860550  1.0  -0.106
  C  C472  1  0.839400  0.818540  0.866020  1.0  0.6323
  C  C473  1  0.773600  0.337900  0.864830  1.0  0.1853
  C  C474  1  0.734500  0.375060  0.887390  1.0  -0.0691
  C  C475  1  0.659800  0.357660  0.909600  1.0  0.1768
  C  C476  1  0.609500  0.395890  0.931330  1.0  -0.1378
  C  C477  1  0.548400  0.361770  0.949990  1.0  -0.169
  C  C478  1  0.555100  0.298290  0.939010  1.0  0.1256
  C  C479  1  0.507600  0.244400  0.952880  1.0  -0.0442
  C  C480  1  0.511800  0.183990  0.942330  1.0  0.2184
  C  C481  1  0.455800  0.132340  0.955850  1.0  -0.081
  C  C482  1  0.465800  0.081820  0.936820  1.0  -0.1128
  C  C483  1  0.526200  0.105210  0.911660  1.0  0.1798
  C  C484  1  0.535400  0.073310  0.885170  1.0  -0.0389
  C  C485  1  0.589400  0.095210  0.859650  1.0  0.1401
  C  C486  1  0.588900  0.063500  0.831520  1.0  -0.1541
  C  C487  1  0.653700  0.097510  0.813660  1.0  -0.158
  C  C488  1  0.690900  0.153070  0.829950  1.0  0.1789
  C  C489  1  0.761900  0.200530  0.819870  1.0  0.0094
  C  C490  1  0.789200  0.258640  0.834600  1.0  0.1246
  C  C491  1  0.868100  0.306970  0.824030  1.0  -0.1847
  C  C492  1  0.858100  0.354850  0.842440  1.0  -0.1516
  C  C493  1  0.768900  0.442440  0.886410  1.0  0.0366
  C  C494  1  0.734300  0.478220  0.861450  1.0  -0.081
  C  C495  1  0.767400  0.539710  0.859790  1.0  -0.0551
  C  C496  1  0.840200  0.566500  0.882250  1.0  -0.1489
  C  C497  1  0.877000  0.532410  0.907290  1.0  -0.0707
  C  C498  1  0.841100  0.470130  0.909020  1.0  -0.0791
  C  C499  1  0.884100  0.633400  0.880250  1.0  0.6803
  C  C500  1  0.441300  0.256670  0.980600  1.0  0.0265
  C  C501  1  0.500100  0.246800  0.007930  1.0  -0.109
  C  C502  1  0.435400  0.257100  0.033270  1.0  -0.0207
  C  C503  1  0.314600  0.278200  0.030870  1.0  -0.1618
  C  C504  1  0.257800  0.288600  0.002940  1.0  -0.0497
  C  C505  1  0.322400  0.277000  0.978060  1.0  -0.1069
  C  C506  1  0.251300  0.291900  0.058400  1.0  0.6044
  C  C507  1  0.489000  0.006460  0.883670  1.0  0.0171
  C  C508  1  0.553300  0.960110  0.898540  1.0  -0.0925
  C  C509  1  0.513600  0.897000  0.896080  1.0  -0.0221
  C  C510  1  0.409700  0.885160  0.879340  1.0  -0.1292
  C  C511  1  0.342000  0.930450  0.863480  1.0  -0.1095
  C  C512  1  0.384000  0.990800  0.866050  1.0  -0.0859
  C  C513  1  0.359500  0.818010  0.876180  1.0  0.6134
  C  C514  1  0.810900  0.193250  0.789470  1.0  0.05
  C  C515  1  0.773900  0.236880  0.767350  1.0  -0.1012
  C  C516  1  0.808900  0.228060  0.738550  1.0  -0.0412
  C  C517  1  0.877100  0.177410  0.731650  1.0  -0.149
  C  C518  1  0.913300  0.134200  0.753690  1.0  -0.0844
  C  C519  1  0.876600  0.142190  0.781890  1.0  -0.1037
  C  C520  1  0.909000  0.169600  0.700350  1.0  0.6172
  C  C521  1  0.328300  0.650940  0.684310  1.0  0.231
  C  C522  1  0.280300  0.702580  0.698160  1.0  -0.0025
  C  C523  1  0.279500  0.763610  0.687310  1.0  0.1895
  C  C524  1  0.228000  0.815380  0.700740  1.0  -0.1545
  C  C525  1  0.236800  0.863900  0.682650  1.0  -0.1542
  C  C526  1  0.293300  0.842150  0.656990  1.0  0.2169
  C  C527  1  0.310200  0.877070  0.631350  1.0  -0.0437
  C  C528  1  0.368900  0.856500  0.606640  1.0  0.2241
  C  C529  1  0.377100  0.889760  0.579360  1.0  -0.1751
  C  C530  1  0.439200  0.855010  0.561100  1.0  -0.1508
  C  C531  1  0.472400  0.798210  0.576720  1.0  0.2019
  C  C532  1  0.538400  0.748230  0.564880  1.0  -0.0602
  C  C533  1  0.556400  0.691120  0.578870  1.0  0.229
  C  C534  1  0.626600  0.640970  0.567660  1.0  -0.1784
  C  C535  1  0.616200  0.592080  0.585680  1.0  -0.1757
  C  C536  1  0.539700  0.611070  0.608760  1.0  0.1601
  C  C537  1  0.502900  0.573020  0.631630  1.0  -0.0646
  C  C538  1  0.427800  0.592430  0.654450  1.0  0.1616
  C  C539  1  0.391700  0.553360  0.678320  1.0  -0.1758
  C  C540  1  0.329500  0.589910  0.696580  1.0  -0.1697
  C  C541  1  0.218100  0.693130  0.727070  1.0  0.0467
  C  C542  1  0.280000  0.707150  0.754080  1.0  -0.0995
  C  C543  1  0.222000  0.700090  0.780700  1.0  -0.0479
  C  C544  1  0.104200  0.680210  0.780340  1.0  -0.1514
  C  C545  1  0.039900  0.666100  0.753680  1.0  -0.0664
  C  C546  1  0.098700  0.672900  0.727330  1.0  -0.1017
  C  C547  1  0.041800  0.675010  0.808870  1.0  0.6263
  C  C548  1  0.262500  0.943130  0.630660  1.0  0.0789
  C  C549  1  0.342100  0.993910  0.627600  1.0  -0.0815
  C  C550  1  0.296200  0.053120  0.625730  1.0  -0.0129
  C  C551  1  0.172100  0.063290  0.627790  1.0  -0.1121
  C  C552  1  0.093400  0.013810  0.631710  1.0  -0.0561
  C  C553  1  0.134700  0.955120  0.632100  1.0  -0.1107
  C  C554  1  0.122900  0.128670  0.626840  1.0  0.6712
  C  C555  1  0.583100  0.757170  0.534890  1.0  0.0671
  C  C556  1  0.541000  0.716100  0.511660  1.0  -0.1055
  C  C557  1  0.580900  0.723450  0.483260  1.0  -0.0254
  C  C558  1  0.658000  0.772410  0.477500  1.0  -0.1372
  C  C559  1  0.695400  0.813240  0.500080  1.0  -0.0431
  C  C560  1  0.659800  0.805300  0.528250  1.0  -0.1299
  C  C561  1  0.694300  0.781850  0.446610  1.0  0.6021
  C  C562  1  0.537000  0.507320  0.630960  1.0  0.1393
  C  C563  1  0.458200  0.461080  0.621950  1.0  -0.1963
  C  C564  1  0.496500  0.399900  0.623000  1.0  -0.0427
  C  C565  1  0.609700  0.382820  0.631880  1.0  -0.0544
  C  C566  1  0.691200  0.427820  0.639580  1.0  -0.1477
  C  C567  1  0.651900  0.489500  0.639450  1.0  -0.1069
  C  C568  1  0.660600  0.318540  0.633980  1.0  0.6318
  C  C569  1  0.726400  0.837900  0.635170  1.0  0.1854
  C  C570  1  0.765500  0.875060  0.612610  1.0  -0.0686
  C  C571  1  0.840200  0.857660  0.590400  1.0  0.1762
  C  C572  1  0.890500  0.895890  0.568670  1.0  -0.1379
  C  C573  1  0.951600  0.861770  0.550010  1.0  -0.1699
  C  C574  1  0.944900  0.798290  0.560990  1.0  0.125
  C  C575  1  0.992400  0.744400  0.547120  1.0  -0.0447
  C  C576  1  0.988200  0.683990  0.557670  1.0  0.2184
  C  C577  1  0.044200  0.632340  0.544150  1.0  -0.0802
  C  C578  1  0.034200  0.581820  0.563180  1.0  -0.1122
  C  C579  1  0.973800  0.605210  0.588340  1.0  0.18
  C  C580  1  0.964600  0.573310  0.614830  1.0  -0.0394
  C  C581  1  0.910600  0.595210  0.640350  1.0  0.1405
  C  C582  1  0.911100  0.563500  0.668480  1.0  -0.1534
  C  C583  1  0.846300  0.597510  0.686340  1.0  -0.1572
  C  C584  1  0.809100  0.653070  0.670050  1.0  0.1804
  C  C585  1  0.738100  0.700530  0.680130  1.0  0.0092
  C  C586  1  0.710800  0.758640  0.665400  1.0  0.124
  C  C587  1  0.631900  0.806970  0.675970  1.0  -0.1871
  C  C588  1  0.641900  0.854850  0.657560  1.0  -0.1525
  C  C589  1  0.731100  0.942440  0.613590  1.0  0.0375
  C  C590  1  0.765700  0.978220  0.638550  1.0  -0.083
  C  C591  1  0.732600  0.039710  0.640210  1.0  -0.0544
  C  C592  1  0.659800  0.066500  0.617750  1.0  -0.1497
  C  C593  1  0.623000  0.032410  0.592710  1.0  -0.0688
  C  C594  1  0.658900  0.970130  0.590980  1.0  -0.08
  C  C595  1  0.615900  0.133400  0.619750  1.0  0.6804
  C  C596  1  0.058700  0.756670  0.519400  1.0  0.0298
  C  C597  1  0.999900  0.746800  0.492070  1.0  -0.1077
  C  C598  1  0.064600  0.757100  0.466730  1.0  -0.0224
  C  C599  1  0.185400  0.778200  0.469130  1.0  -0.1606
  C  C600  1  0.242200  0.788600  0.497060  1.0  -0.0491
  C  C601  1  0.177600  0.777000  0.521940  1.0  -0.107
  C  C602  1  0.248700  0.791900  0.441600  1.0  0.6038
  C  C603  1  0.011000  0.506460  0.616330  1.0  0.0181
  C  C604  1  0.946700  0.460110  0.601460  1.0  -0.0903
  C  C605  1  0.986400  0.397000  0.603920  1.0  -0.0231
  C  C606  1  0.090300  0.385160  0.620660  1.0  -0.1299
  C  C607  1  0.158000  0.430450  0.636520  1.0  -0.1087
  C  C608  1  0.116000  0.490800  0.633950  1.0  -0.0863
  C  C609  1  0.140500  0.318010  0.623820  1.0  0.6126
  C  C610  1  0.689100  0.693250  0.710530  1.0  0.0518
  C  C611  1  0.726100  0.736880  0.732650  1.0  -0.101
  C  C612  1  0.691100  0.728060  0.761450  1.0  -0.0407
  C  C613  1  0.622900  0.677410  0.768350  1.0  -0.1483
  C  C614  1  0.586700  0.634200  0.746310  1.0  -0.0819
  C  C615  1  0.623400  0.642190  0.718110  1.0  -0.1025
  C  C616  1  0.591000  0.669600  0.799650  1.0  0.6166
  N  N617  1  0.818800  0.719480  0.160170  1.0  -0.4193
  N  N618  1  0.924900  0.700000  0.103890  1.0  -0.4061
  N  N619  1  0.010100  0.826940  0.104570  1.0  -0.3819
  N  N620  1  0.887200  0.848100  0.159260  1.0  -0.3943
  N  N621  1  0.377700  0.702480  0.085200  1.0  -0.3963
  N  N622  1  0.444600  0.832270  0.084400  1.0  -0.4259
  N  N623  1  0.350700  0.848430  0.142140  1.0  -0.4359
  N  N624  1  0.262100  0.722760  0.140340  1.0  -0.4089
  N  N625  1  0.681200  0.219480  0.339830  1.0  -0.4198
  N  N626  1  0.575100  0.200000  0.396110  1.0  -0.4054
  N  N627  1  0.489900  0.326940  0.395430  1.0  -0.3826
  N  N628  1  0.612800  0.348100  0.340740  1.0  -0.3964
  N  N629  1  0.122300  0.202480  0.414800  1.0  -0.3952
  N  N630  1  0.055400  0.332270  0.415600  1.0  -0.4265
  N  N631  1  0.149300  0.348430  0.357860  1.0  -0.4358
  N  N632  1  0.237900  0.222760  0.359660  1.0  -0.4077
  N  N633  1  0.181200  0.280520  0.839830  1.0  -0.4199
  N  N634  1  0.075100  0.300000  0.896110  1.0  -0.4051
  N  N635  1  0.989900  0.173060  0.895430  1.0  -0.3818
  N  N636  1  0.112800  0.151900  0.840740  1.0  -0.3971
  N  N637  1  0.622300  0.297520  0.914800  1.0  -0.3942
  N  N638  1  0.555400  0.167730  0.915600  1.0  -0.4258
  N  N639  1  0.649300  0.151570  0.857860  1.0  -0.4368
  N  N640  1  0.737900  0.277240  0.859660  1.0  -0.4077
  N  N641  1  0.318800  0.780520  0.660170  1.0  -0.4205
  N  N642  1  0.424900  0.800000  0.603890  1.0  -0.4048
  N  N643  1  0.510100  0.673060  0.604570  1.0  -0.3811
  N  N644  1  0.387200  0.651900  0.659260  1.0  -0.395
  N  N645  1  0.877700  0.797520  0.585200  1.0  -0.3956
  N  N646  1  0.944600  0.667730  0.584400  1.0  -0.4258
  N  N647  1  0.850700  0.651570  0.642140  1.0  -0.4355
  N  N648  1  0.762100  0.777240  0.640340  1.0  -0.4092
  O  O649  1  0.596700  0.817890  0.332090  1.0  -0.6166
  O  O650  1  0.423300  0.838600  0.304970  1.0  -0.5175
  O  O651  1  0.521800  0.360260  0.137620  1.0  -0.6248
  O  O652  1  0.680600  0.330040  0.112650  1.0  -0.777
  O  O653  1  0.164200  0.752840  0.926520  1.0  -0.5644
  O  O654  1  0.263500  0.666667  0.943230  1.0  -0.5443
  O  O655  1  0.267200  0.192960  0.136300  1.0  -0.6209
  O  O656  1  0.074100  0.223200  0.132840  1.0  -0.5564
  O  O657  1  0.166000  0.333800  0.140400  1.0  -0.7133
  O  O658  1  0.031000  0.346960  0.101880  1.0  -0.6449
  O  O659  1  0.701200  0.708760  0.917290  1.0  -0.5972
  O  O660  1  0.868100  0.690190  0.947480  1.0  -0.5269
  O  O661  1  0.564200  0.223940  0.112310  1.0  -0.5588
  O  O662  1  0.743800  0.191710  0.135070  1.0  -0.6436
  O  O663  1  0.116400  0.791060  0.318270  1.0  -0.5725
  O  O664  1  0.030700  0.881790  0.306050  1.0  -0.5181
  O  O665  1  0.903300  0.317890  0.167910  1.0  -0.6189
  O  O666  1  0.076700  0.338600  0.195030  1.0  -0.5185
  O  O667  1  0.978200  0.860260  0.362380  1.0  -0.6246
  O  O668  1  0.819400  0.830040  0.387350  1.0  -0.7782
  O  O669  1  0.335800  0.252840  0.573480  1.0  -0.5651
  O  O670  1  0.236500  0.166610  0.556770  1.0  -0.5425
  O  O671  1  0.232800  0.692960  0.363700  1.0  -0.6233
  O  O672  1  0.425900  0.723200  0.367160  1.0  -0.557
  O  O673  1  0.334000  0.833800  0.359600  1.0  -0.7171
  O  O674  1  0.469000  0.846960  0.398120  1.0  -0.644
  O  O675  1  0.798800  0.208760  0.582710  1.0  -0.5951
  O  O676  1  0.631900  0.190190  0.552520  1.0  -0.5268
  O  O677  1  0.935800  0.723940  0.387690  1.0  -0.559
  O  O678  1  0.756200  0.691710  0.364930  1.0  -0.6436
  O  O679  1  0.383600  0.291060  0.181730  1.0  -0.5718
  O  O680  1  0.469300  0.381790  0.193950  1.0  -0.5166
  O  O681  1  0.403300  0.182110  0.667910  1.0  -0.6189
  O  O682  1  0.576700  0.161400  0.695030  1.0  -0.5181
  O  O683  1  0.478200  0.639740  0.862380  1.0  -0.6245
  O  O684  1  0.319400  0.669960  0.887350  1.0  -0.7782
  O  O685  1  0.835800  0.247160  0.073480  1.0  -0.5648
  O  O686  1  0.736500  0.333390  0.056770  1.0  -0.5419
  O  O687  1  0.732800  0.807040  0.863700  1.0  -0.6235
  O  O688  1  0.925900  0.776800  0.867160  1.0  -0.5573
  O  O689  1  0.834000  0.666200  0.859600  1.0  -0.7168
  O  O690  1  0.969000  0.653040  0.898120  1.0  -0.6442
  O  O691  1  0.298800  0.291240  0.082710  1.0  -0.5951
  O  O692  1  0.131900  0.309810  0.052520  1.0  -0.5268
  O  O693  1  0.435800  0.776060  0.887690  1.0  -0.5591
  O  O694  1  0.256200  0.808290  0.864930  1.0  -0.6433
  O  O695  1  0.883600  0.208940  0.681730  1.0  -0.5714
  O  O696  1  0.969300  0.118210  0.693950  1.0  -0.5159
  O  O697  1  0.096700  0.682110  0.832090  1.0  -0.6168
  O  O698  1  0.923300  0.661400  0.804970  1.0  -0.5183
  O  O699  1  0.021800  0.139740  0.637620  1.0  -0.6247
  O  O700  1  0.180600  0.169960  0.612650  1.0  -0.7774
  O  O701  1  0.664200  0.747160  0.426520  1.0  -0.5651
  O  O702  1  0.763500  0.833390  0.443230  1.0  -0.5421
  O  O703  1  0.767200  0.307040  0.636300  1.0  -0.6215
  O  O704  1  0.574100  0.276800  0.632840  1.0  -0.5562
  O  O705  1  0.666000  0.166200  0.640400  1.0  -0.713
  O  O706  1  0.531000  0.153040  0.601880  1.0  -0.645
  O  O707  1  0.201200  0.791240  0.417290  1.0  -0.5969
  O  O708  1  0.368100  0.809810  0.447480  1.0  -0.5277
  O  O709  1  0.064200  0.276060  0.612310  1.0  -0.5581
  O  O710  1  0.243800  0.308290  0.635070  1.0  -0.6436
  O  O711  1  0.616400  0.708940  0.818270  1.0  -0.573
  O  O712  1  0.530700  0.618210  0.806050  1.0  -0.5179
