# generated using pymatgen
data_Cd6H96C143(N6O11)2
_symmetry_space_group_name_H-M   'P 1'
_cell_length_a   22.92000000
_cell_length_b   28.73800000
_cell_length_c   22.99900000
_cell_angle_alpha   90.00000000
_cell_angle_beta   94.90800000
_cell_angle_gamma   90.00000000
_symmetry_Int_Tables_number   1
_chemical_formula_structural   Cd6H96C143(N6O11)2
_chemical_formula_sum   'Cd24 H384 C572 N48 O88'
_cell_volume   15093.31996959
_cell_formula_units_Z   4
loop_
 _symmetry_equiv_pos_site_id
 _symmetry_equiv_pos_as_xyz
  1  'x, y, z'
loop_
 _atom_site_type_symbol
 _atom_site_label
 _atom_site_symmetry_multiplicity
 _atom_site_fract_x
 _atom_site_fract_y
 _atom_site_fract_z
 _atom_site_occupancy
 _atom_site_charge
  Cd  Cd1  1  0.232550  0.436460  0.342080  1.0  0.9286
  Cd  Cd2  1  0.731130  0.687360  0.346660  1.0  0.9094
  Cd  Cd3  1  0.732550  0.936460  0.842080  1.0  0.9286
  Cd  Cd4  1  0.231130  0.187360  0.846660  1.0  0.9094
  Cd  Cd5  1  0.883500  0.127000  0.049010  1.0  0.9624
  Cd  Cd6  1  0.383500  0.627000  0.549010  1.0  0.9621
  Cd  Cd7  1  0.383500  0.873000  0.049010  1.0  0.962
  Cd  Cd8  1  0.883500  0.373000  0.549010  1.0  0.9617
  Cd  Cd9  1  0.045790  0.374300  0.870580  1.0  0.9789
  Cd  Cd10  1  0.545790  0.874300  0.370580  1.0  0.9792
  Cd  Cd11  1  0.545790  0.625700  0.870580  1.0  0.9789
  Cd  Cd12  1  0.045790  0.125700  0.370580  1.0  0.9791
  Cd  Cd13  1  0.732550  0.563540  0.342080  1.0  0.9284
  Cd  Cd14  1  0.231130  0.312640  0.346660  1.0  0.9095
  Cd  Cd15  1  0.232550  0.063540  0.842080  1.0  0.9284
  Cd  Cd16  1  0.731130  0.812640  0.846660  1.0  0.9095
  Cd  Cd17  1  0.191820  0.565230  0.088720  1.0  0.948
  Cd  Cd18  1  0.689830  0.313470  0.092380  1.0  0.9509
  Cd  Cd19  1  0.691820  0.065230  0.588720  1.0  0.948
  Cd  Cd20  1  0.189830  0.813470  0.592380  1.0  0.9509
  Cd  Cd21  1  0.691820  0.434770  0.088720  1.0  0.9487
  Cd  Cd22  1  0.189830  0.686530  0.092380  1.0  0.951
  Cd  Cd23  1  0.191820  0.934770  0.588720  1.0  0.9487
  Cd  Cd24  1  0.689830  0.186530  0.592380  1.0  0.951
  H  H25  1  0.153900  0.294000  0.566200  1.0  0.0976
  H  H26  1  0.314600  0.391700  0.551000  1.0  0.1018
  H  H27  1  0.933800  0.656200  0.272400  1.0  0.118
  H  H28  1  0.317700  0.301200  0.112700  1.0  0.116
  H  H29  1  0.311000  0.340400  0.200100  1.0  0.0922
  H  H30  1  0.018300  0.609800  0.277000  1.0  0.1089
  H  H31  1  0.967500  0.544800  0.419600  1.0  0.1074
  H  H32  1  0.887600  0.591600  0.418100  1.0  0.0964
  H  H33  1  0.161600  0.336800  0.482300  1.0  0.0903
  H  H34  1  0.534200  0.660000  0.406400  1.0  0.103
  H  H35  1  0.575100  0.588900  0.264800  1.0  0.1015
  H  H36  1  0.076800  0.559000  0.266900  1.0  0.1184
  H  H37  1  0.160200  0.515000  0.269400  1.0  0.0769
  H  H38  1  0.054800  0.514100  0.429900  1.0  0.1062
  H  H39  1  0.132900  0.465600  0.422200  1.0  0.0702
  H  H40  1  0.284700  0.326000  0.718500  1.0  0.1207
  H  H41  1  0.167300  0.198500  0.719000  1.0  0.0704
  H  H42  1  0.279800  0.281900  0.799400  1.0  0.0842
  H  H43  1  0.169800  0.238900  0.632700  1.0  0.1162
  H  H44  1  0.312400  0.345500  0.632500  1.0  0.112
  H  H45  1  0.496400  0.539300  0.273600  1.0  0.1024
  H  H46  1  0.393800  0.552600  0.428000  1.0  0.1156
  H  H47  1  0.316400  0.506400  0.426500  1.0  0.0556
  H  H48  1  0.395400  0.531200  0.253500  1.0  0.1128
  H  H49  1  0.451900  0.612400  0.413600  1.0  0.1142
  H  H50  1  0.320400  0.479600  0.262500  1.0  0.0713
  H  H51  1  0.162600  0.269500  0.906300  1.0  0.0661
  H  H52  1  0.181700  0.377600  0.037500  1.0  0.1224
  H  H53  1  0.180200  0.419800  0.124000  1.0  0.0898
  H  H54  1  0.325000  0.230300  0.945600  1.0  0.0949
  H  H55  1  0.163700  0.318400  0.984500  1.0  0.1176
  H  H56  1  0.334600  0.282800  0.020400  1.0  0.1177
  H  H57  1  0.653900  0.794000  0.066200  1.0  0.0976
  H  H58  1  0.814600  0.891700  0.051000  1.0  0.1018
  H  H59  1  0.433800  0.156200  0.772400  1.0  0.118
  H  H60  1  0.817700  0.801200  0.612700  1.0  0.116
  H  H61  1  0.811000  0.840400  0.700100  1.0  0.0922
  H  H62  1  0.518300  0.109800  0.777000  1.0  0.1089
  H  H63  1  0.467500  0.044800  0.919600  1.0  0.1074
  H  H64  1  0.387600  0.091600  0.918100  1.0  0.0964
  H  H65  1  0.661600  0.836800  0.982300  1.0  0.0903
  H  H66  1  0.034200  0.160000  0.906400  1.0  0.103
  H  H67  1  0.075100  0.088900  0.764800  1.0  0.1015
  H  H68  1  0.576800  0.059000  0.766900  1.0  0.1184
  H  H69  1  0.660200  0.015000  0.769400  1.0  0.0769
  H  H70  1  0.554800  0.014100  0.929900  1.0  0.1062
  H  H71  1  0.632900  0.965600  0.922200  1.0  0.0702
  H  H72  1  0.784700  0.826000  0.218500  1.0  0.1207
  H  H73  1  0.667300  0.698500  0.219000  1.0  0.0704
  H  H74  1  0.779800  0.781900  0.299400  1.0  0.0842
  H  H75  1  0.669800  0.738900  0.132700  1.0  0.1162
  H  H76  1  0.812400  0.845500  0.132500  1.0  0.112
  H  H77  1  0.996400  0.039300  0.773600  1.0  0.1024
  H  H78  1  0.893800  0.052600  0.928000  1.0  0.1156
  H  H79  1  0.816400  0.006400  0.926500  1.0  0.0556
  H  H80  1  0.895400  0.031200  0.753500  1.0  0.1128
  H  H81  1  0.951900  0.112400  0.913600  1.0  0.1142
  H  H82  1  0.820400  0.979600  0.762500  1.0  0.0713
  H  H83  1  0.662600  0.769500  0.406300  1.0  0.0661
  H  H84  1  0.681700  0.877600  0.537500  1.0  0.1224
  H  H85  1  0.680200  0.919800  0.624000  1.0  0.0898
  H  H86  1  0.825000  0.730300  0.445600  1.0  0.0949
  H  H87  1  0.663700  0.818400  0.484500  1.0  0.1176
  H  H88  1  0.834600  0.782800  0.520400  1.0  0.1177
  H  H89  1  0.174400  0.055100  0.046900  1.0  0.1086
  H  H90  1  0.859300  0.153600  0.845700  1.0  0.1221
  H  H91  1  0.087200  0.097800  0.046500  1.0  0.0955
  H  H92  1  0.909200  0.269000  0.936600  1.0  0.0862
  H  H93  1  0.994500  0.979500  0.060400  1.0  0.1128
  H  H94  1  0.083200  0.935300  0.056100  1.0  0.1164
  H  H95  1  0.249300  0.015100  0.083200  1.0  0.1043
  H  H96  1  0.159200  0.907500  0.013600  1.0  0.0845
  H  H97  1  0.332300  0.969900  0.092300  1.0  0.1027
  H  H98  1  0.245700  0.862800  0.025500  1.0  0.0906
  H  H99  1  0.918500  0.310000  0.851200  1.0  0.1241
  H  H100  1  0.857500  0.198200  0.758500  1.0  0.1138
  H  H101  1  0.885700  0.350800  0.773300  1.0  0.1187
  H  H102  1  0.885800  0.387800  0.686900  1.0  0.0871
  H  H103  1  0.889500  0.228800  0.684900  1.0  0.1256
  H  H104  1  0.888400  0.271200  0.598200  1.0  0.0862
  H  H105  1  0.674400  0.555100  0.546900  1.0  0.1086
  H  H106  1  0.359300  0.653600  0.345700  1.0  0.1221
  H  H107  1  0.587200  0.597800  0.546500  1.0  0.0955
  H  H108  1  0.409200  0.769000  0.436600  1.0  0.0862
  H  H109  1  0.494500  0.479500  0.560400  1.0  0.1128
  H  H110  1  0.583200  0.435300  0.556100  1.0  0.1164
  H  H111  1  0.749300  0.515100  0.583200  1.0  0.1043
  H  H112  1  0.659200  0.407500  0.513600  1.0  0.0845
  H  H113  1  0.832300  0.469900  0.592300  1.0  0.1027
  H  H114  1  0.745700  0.362800  0.525500  1.0  0.0906
  H  H115  1  0.418500  0.810000  0.351200  1.0  0.1241
  H  H116  1  0.357500  0.698200  0.258500  1.0  0.1138
  H  H117  1  0.385700  0.850800  0.273300  1.0  0.1187
  H  H118  1  0.385800  0.887800  0.186900  1.0  0.0871
  H  H119  1  0.389500  0.728800  0.184900  1.0  0.1256
  H  H120  1  0.388400  0.771200  0.098200  1.0  0.0862
  H  H121  1  0.674400  0.944900  0.046900  1.0  0.1094
  H  H122  1  0.359300  0.846400  0.845700  1.0  0.1224
  H  H123  1  0.587200  0.902200  0.046500  1.0  0.0958
  H  H124  1  0.409200  0.731000  0.936600  1.0  0.0861
  H  H125  1  0.494500  0.020500  0.060400  1.0  0.1134
  H  H126  1  0.583200  0.064700  0.056100  1.0  0.1171
  H  H127  1  0.749300  0.984900  0.083200  1.0  0.1047
  H  H128  1  0.659200  0.092500  0.013600  1.0  0.0843
  H  H129  1  0.832300  0.030100  0.092300  1.0  0.1026
  H  H130  1  0.745700  0.137200  0.025500  1.0  0.0904
  H  H131  1  0.418500  0.690000  0.851200  1.0  0.1242
  H  H132  1  0.357500  0.801800  0.758500  1.0  0.114
  H  H133  1  0.385700  0.649200  0.773300  1.0  0.119
  H  H134  1  0.385800  0.612200  0.686900  1.0  0.0882
  H  H135  1  0.389500  0.771200  0.684900  1.0  0.1259
  H  H136  1  0.388400  0.728800  0.598200  1.0  0.0866
  H  H137  1  0.174400  0.444900  0.546900  1.0  0.1094
  H  H138  1  0.859300  0.346400  0.345700  1.0  0.1224
  H  H139  1  0.087200  0.402200  0.546500  1.0  0.0958
  H  H140  1  0.909200  0.231000  0.436600  1.0  0.0861
  H  H141  1  0.994500  0.520500  0.560400  1.0  0.1134
  H  H142  1  0.083200  0.564700  0.556100  1.0  0.1171
  H  H143  1  0.249300  0.484900  0.583200  1.0  0.1047
  H  H144  1  0.159200  0.592500  0.513600  1.0  0.0843
  H  H145  1  0.332300  0.530100  0.592300  1.0  0.1026
  H  H146  1  0.245700  0.637200  0.525500  1.0  0.0904
  H  H147  1  0.918500  0.190000  0.351200  1.0  0.1242
  H  H148  1  0.857500  0.301800  0.258500  1.0  0.114
  H  H149  1  0.885700  0.149200  0.273300  1.0  0.119
  H  H150  1  0.885800  0.112200  0.186900  1.0  0.0882
  H  H151  1  0.889500  0.271200  0.184900  1.0  0.1259
  H  H152  1  0.888400  0.228800  0.098200  1.0  0.0866
  H  H153  1  0.065000  0.350800  0.081400  1.0  0.0834
  H  H154  1  0.845200  0.411700  0.877400  1.0  0.1119
  H  H155  1  0.940100  0.528800  0.865500  1.0  0.1135
  H  H156  1  0.761000  0.457100  0.878500  1.0  0.1249
  H  H157  1  0.860400  0.571800  0.864800  1.0  0.1117
  H  H158  1  0.699900  0.502700  0.921200  1.0  0.1195
  H  H159  1  0.770000  0.606000  0.831800  1.0  0.1245
  H  H160  1  0.612400  0.536000  0.902900  1.0  0.0717
  H  H161  1  0.682300  0.642400  0.828800  1.0  0.078
  H  H162  1  0.020600  0.193000  0.073400  1.0  0.1181
  H  H163  1  0.024300  0.238200  0.985600  1.0  0.0949
  H  H164  1  0.058700  0.228100  0.323500  1.0  0.0824
  H  H165  1  0.038900  0.113100  0.230500  1.0  0.1046
  H  H166  1  0.057300  0.310200  0.165500  1.0  0.1139
  H  H167  1  0.038600  0.155900  0.146500  1.0  0.1147
  H  H168  1  0.043400  0.272800  0.243100  1.0  0.1176
  H  H169  1  0.565000  0.850800  0.581400  1.0  0.0834
  H  H170  1  0.345200  0.911700  0.377400  1.0  0.1119
  H  H171  1  0.440100  0.028800  0.365500  1.0  0.1135
  H  H172  1  0.261000  0.957100  0.378500  1.0  0.1249
  H  H173  1  0.360400  0.071800  0.364800  1.0  0.1117
  H  H174  1  0.199900  0.002700  0.421200  1.0  0.1195
  H  H175  1  0.270000  0.106000  0.331800  1.0  0.1245
  H  H176  1  0.112400  0.036000  0.402900  1.0  0.0717
  H  H177  1  0.182300  0.142400  0.328800  1.0  0.0779
  H  H178  1  0.520600  0.693000  0.573400  1.0  0.1181
  H  H179  1  0.524300  0.738200  0.485600  1.0  0.0949
  H  H180  1  0.558700  0.728100  0.823500  1.0  0.0824
  H  H181  1  0.538900  0.613100  0.730500  1.0  0.1046
  H  H182  1  0.557300  0.810200  0.665500  1.0  0.1139
  H  H183  1  0.538600  0.655900  0.646500  1.0  0.1147
  H  H184  1  0.543400  0.772800  0.743100  1.0  0.1176
  H  H185  1  0.565000  0.649200  0.081400  1.0  0.0836
  H  H186  1  0.345200  0.588300  0.877400  1.0  0.112
  H  H187  1  0.440100  0.471200  0.865500  1.0  0.1131
  H  H188  1  0.261000  0.542900  0.878500  1.0  0.1246
  H  H189  1  0.360400  0.428200  0.864800  1.0  0.1114
  H  H190  1  0.199900  0.497300  0.921200  1.0  0.119
  H  H191  1  0.270000  0.394000  0.831800  1.0  0.1247
  H  H192  1  0.112400  0.464000  0.902900  1.0  0.0716
  H  H193  1  0.182300  0.357600  0.828800  1.0  0.078
  H  H194  1  0.520600  0.807000  0.073400  1.0  0.1188
  H  H195  1  0.524300  0.761800  0.985600  1.0  0.0949
  H  H196  1  0.558700  0.771900  0.323500  1.0  0.0827
  H  H197  1  0.538900  0.886900  0.230500  1.0  0.1056
  H  H198  1  0.557300  0.689800  0.165500  1.0  0.1137
  H  H199  1  0.538600  0.844100  0.146500  1.0  0.1153
  H  H200  1  0.543400  0.727200  0.243100  1.0  0.1184
  H  H201  1  0.065000  0.149200  0.581400  1.0  0.0836
  H  H202  1  0.845200  0.088300  0.377400  1.0  0.112
  H  H203  1  0.940100  0.971200  0.365500  1.0  0.1131
  H  H204  1  0.761000  0.042900  0.378500  1.0  0.1246
  H  H205  1  0.860400  0.928200  0.364800  1.0  0.1114
  H  H206  1  0.699900  0.997300  0.421200  1.0  0.119
  H  H207  1  0.770000  0.894000  0.331800  1.0  0.1247
  H  H208  1  0.612400  0.964000  0.402900  1.0  0.0716
  H  H209  1  0.682300  0.857600  0.328800  1.0  0.078
  H  H210  1  0.020600  0.307000  0.573400  1.0  0.1188
  H  H211  1  0.024300  0.261800  0.485600  1.0  0.0949
  H  H212  1  0.058700  0.271900  0.823500  1.0  0.0827
  H  H213  1  0.038900  0.386900  0.730500  1.0  0.1056
  H  H214  1  0.057300  0.189800  0.665500  1.0  0.1137
  H  H215  1  0.038600  0.344100  0.646500  1.0  0.1153
  H  H216  1  0.043400  0.227200  0.743100  1.0  0.1184
  H  H217  1  0.653900  0.706000  0.566200  1.0  0.0974
  H  H218  1  0.814600  0.608300  0.551000  1.0  0.1019
  H  H219  1  0.433800  0.343800  0.272400  1.0  0.1176
  H  H220  1  0.817700  0.698800  0.112700  1.0  0.1159
  H  H221  1  0.811000  0.659600  0.200100  1.0  0.092
  H  H222  1  0.518300  0.390200  0.277000  1.0  0.1086
  H  H223  1  0.467500  0.455200  0.419600  1.0  0.1088
  H  H224  1  0.387600  0.408400  0.418100  1.0  0.0967
  H  H225  1  0.661600  0.663200  0.482300  1.0  0.0904
  H  H226  1  0.034200  0.340000  0.406400  1.0  0.1034
  H  H227  1  0.075100  0.411100  0.264800  1.0  0.1015
  H  H228  1  0.576800  0.441000  0.266900  1.0  0.118
  H  H229  1  0.660200  0.485000  0.269400  1.0  0.0769
  H  H230  1  0.554800  0.485900  0.429900  1.0  0.1064
  H  H231  1  0.632900  0.534400  0.422200  1.0  0.0702
  H  H232  1  0.784700  0.674000  0.718500  1.0  0.1205
  H  H233  1  0.667300  0.801500  0.719000  1.0  0.0703
  H  H234  1  0.779800  0.718100  0.799400  1.0  0.0843
  H  H235  1  0.669800  0.761100  0.632700  1.0  0.1162
  H  H236  1  0.812400  0.654500  0.632500  1.0  0.1123
  H  H237  1  0.996400  0.460700  0.273600  1.0  0.1029
  H  H238  1  0.893800  0.447400  0.428000  1.0  0.1157
  H  H239  1  0.816400  0.493600  0.426500  1.0  0.0554
  H  H240  1  0.895400  0.468800  0.253500  1.0  0.1126
  H  H241  1  0.951900  0.387600  0.413600  1.0  0.1142
  H  H242  1  0.820400  0.520400  0.262500  1.0  0.0712
  H  H243  1  0.662600  0.730500  0.906300  1.0  0.0662
  H  H244  1  0.681700  0.622400  0.037500  1.0  0.122
  H  H245  1  0.680200  0.580200  0.124000  1.0  0.0896
  H  H246  1  0.825000  0.769700  0.945600  1.0  0.0948
  H  H247  1  0.663700  0.681600  0.984500  1.0  0.1173
  H  H248  1  0.834600  0.717200  0.020400  1.0  0.1179
  H  H249  1  0.153900  0.206000  0.066200  1.0  0.0974
  H  H250  1  0.314600  0.108300  0.051000  1.0  0.1019
  H  H251  1  0.933800  0.843800  0.772400  1.0  0.1176
  H  H252  1  0.317700  0.198800  0.612700  1.0  0.1159
  H  H253  1  0.311000  0.159600  0.700100  1.0  0.092
  H  H254  1  0.018300  0.890200  0.777000  1.0  0.1086
  H  H255  1  0.967500  0.955200  0.919600  1.0  0.1088
  H  H256  1  0.887600  0.908400  0.918100  1.0  0.0967
  H  H257  1  0.161600  0.163200  0.982300  1.0  0.0904
  H  H258  1  0.534200  0.840000  0.906400  1.0  0.1034
  H  H259  1  0.575100  0.911100  0.764800  1.0  0.1015
  H  H260  1  0.076800  0.941000  0.766900  1.0  0.118
  H  H261  1  0.160200  0.985000  0.769400  1.0  0.0769
  H  H262  1  0.054800  0.985900  0.929900  1.0  0.1064
  H  H263  1  0.132900  0.034400  0.922200  1.0  0.0702
  H  H264  1  0.284700  0.174000  0.218500  1.0  0.1205
  H  H265  1  0.167300  0.301500  0.219000  1.0  0.0703
  H  H266  1  0.279800  0.218100  0.299400  1.0  0.0843
  H  H267  1  0.169800  0.261100  0.132700  1.0  0.1162
  H  H268  1  0.312400  0.154500  0.132500  1.0  0.1123
  H  H269  1  0.496400  0.960700  0.773600  1.0  0.1029
  H  H270  1  0.393800  0.947400  0.928000  1.0  0.1157
  H  H271  1  0.316400  0.993600  0.926500  1.0  0.0554
  H  H272  1  0.395400  0.968800  0.753500  1.0  0.1126
  H  H273  1  0.451900  0.887600  0.913600  1.0  0.1142
  H  H274  1  0.320400  0.020400  0.762500  1.0  0.0712
  H  H275  1  0.162600  0.230500  0.406300  1.0  0.0662
  H  H276  1  0.181700  0.122400  0.537500  1.0  0.122
  H  H277  1  0.180200  0.080200  0.624000  1.0  0.0896
  H  H278  1  0.325000  0.269700  0.445600  1.0  0.0948
  H  H279  1  0.163700  0.181600  0.484500  1.0  0.1173
  H  H280  1  0.334600  0.217200  0.520400  1.0  0.1179
  H  H281  1  0.118500  0.663800  0.232200  1.0  0.0917
  H  H282  1  0.248400  0.634600  0.391300  1.0  0.1029
  H  H283  1  0.110400  0.703100  0.316800  1.0  0.0998
  H  H284  1  0.407800  0.387300  0.154100  1.0  0.1038
  H  H285  1  0.490300  0.340200  0.151600  1.0  0.1207
  H  H286  1  0.537300  0.413400  0.009800  1.0  0.106
  H  H287  1  0.255900  0.591300  0.305900  1.0  0.1201
  H  H288  1  0.448800  0.454600  0.006700  1.0  0.1034
  H  H289  1  0.279800  0.503000  0.168400  1.0  0.0782
  H  H290  1  0.359800  0.453400  0.168000  1.0  0.1195
  H  H291  1  0.272100  0.517900  0.000900  1.0  0.0746
  H  H292  1  0.098200  0.648000  0.802500  1.0  0.121
  H  H293  1  0.099800  0.601400  0.886000  1.0  0.102
  H  H294  1  0.262300  0.648900  0.938400  1.0  0.1067
  H  H295  1  0.260800  0.695500  0.854800  1.0  0.1116
  H  H296  1  0.350000  0.467700  0.994600  1.0  0.1028
  H  H297  1  0.875200  0.382400  0.185300  1.0  0.1176
  H  H298  1  0.870600  0.367100  0.016100  1.0  0.0906
  H  H299  1  0.092100  0.716400  0.414800  1.0  0.1253
  H  H300  1  0.266900  0.704500  0.436700  1.0  0.0905
  H  H301  1  0.268900  0.750600  0.515000  1.0  0.0802
  H  H302  1  0.101700  0.761700  0.500600  1.0  0.0697
  H  H303  1  0.272100  0.767800  0.698400  1.0  0.1012
  H  H304  1  0.099900  0.742000  0.655800  1.0  0.1037
  H  H305  1  0.096700  0.696800  0.740000  1.0  0.126
  H  H306  1  0.268900  0.722500  0.782600  1.0  0.1153
  H  H307  1  0.037500  0.437700  0.013700  1.0  0.1254
  H  H308  1  0.014200  0.486100  0.174600  1.0  0.105
  H  H309  1  0.951900  0.433100  0.177800  1.0  0.1025
  H  H310  1  0.116600  0.489800  0.011600  1.0  0.0713
  H  H311  1  0.091200  0.537500  0.169000  1.0  0.1075
  H  H312  1  0.953700  0.411200  0.011900  1.0  0.1125
  H  H313  1  0.618500  0.163800  0.732200  1.0  0.0917
  H  H314  1  0.748400  0.134600  0.891300  1.0  0.1029
  H  H315  1  0.610400  0.203100  0.816800  1.0  0.0998
  H  H316  1  0.907800  0.887300  0.654100  1.0  0.1038
  H  H317  1  0.990300  0.840200  0.651600  1.0  0.1207
  H  H318  1  0.037300  0.913400  0.509800  1.0  0.106
  H  H319  1  0.755900  0.091300  0.805900  1.0  0.1201
  H  H320  1  0.948800  0.954600  0.506700  1.0  0.1034
  H  H321  1  0.779800  0.003000  0.668400  1.0  0.0782
  H  H322  1  0.859800  0.953400  0.668000  1.0  0.1195
  H  H323  1  0.772100  0.017900  0.500900  1.0  0.0746
  H  H324  1  0.598200  0.148000  0.302500  1.0  0.121
  H  H325  1  0.599800  0.101400  0.386000  1.0  0.102
  H  H326  1  0.762300  0.148900  0.438400  1.0  0.1067
  H  H327  1  0.760800  0.195500  0.354800  1.0  0.1116
  H  H328  1  0.850000  0.967700  0.494600  1.0  0.1028
  H  H329  1  0.375200  0.882400  0.685300  1.0  0.1176
  H  H330  1  0.370600  0.867100  0.516100  1.0  0.0906
  H  H331  1  0.592100  0.216400  0.914800  1.0  0.1253
  H  H332  1  0.766900  0.204500  0.936700  1.0  0.0905
  H  H333  1  0.768900  0.250600  0.015000  1.0  0.0802
  H  H334  1  0.601700  0.261700  0.000600  1.0  0.0697
  H  H335  1  0.772100  0.267800  0.198400  1.0  0.1012
  H  H336  1  0.599900  0.242000  0.155800  1.0  0.1037
  H  H337  1  0.596700  0.196800  0.240000  1.0  0.126
  H  H338  1  0.768900  0.222500  0.282600  1.0  0.1153
  H  H339  1  0.537500  0.937700  0.513700  1.0  0.1254
  H  H340  1  0.514200  0.986100  0.674600  1.0  0.105
  H  H341  1  0.451900  0.933100  0.677800  1.0  0.1025
  H  H342  1  0.616600  0.989800  0.511600  1.0  0.0713
  H  H343  1  0.591200  0.037500  0.669000  1.0  0.1075
  H  H344  1  0.453700  0.911200  0.511900  1.0  0.1125
  H  H345  1  0.618500  0.336200  0.232200  1.0  0.0913
  H  H346  1  0.748400  0.365400  0.391300  1.0  0.1028
  H  H347  1  0.610400  0.296900  0.316800  1.0  0.0992
  H  H348  1  0.907800  0.612700  0.154100  1.0  0.1042
  H  H349  1  0.990300  0.659800  0.151600  1.0  0.1212
  H  H350  1  0.037300  0.586600  0.009800  1.0  0.1061
  H  H351  1  0.755900  0.408700  0.305900  1.0  0.1199
  H  H352  1  0.948800  0.545400  0.006700  1.0  0.1036
  H  H353  1  0.779800  0.497000  0.168400  1.0  0.0784
  H  H354  1  0.859800  0.546600  0.168000  1.0  0.1192
  H  H355  1  0.772100  0.482100  0.000900  1.0  0.0743
  H  H356  1  0.598200  0.352000  0.802500  1.0  0.1213
  H  H357  1  0.599800  0.398600  0.886000  1.0  0.101
  H  H358  1  0.762300  0.351100  0.938400  1.0  0.106
  H  H359  1  0.760800  0.304500  0.854800  1.0  0.1108
  H  H360  1  0.850000  0.532300  0.994600  1.0  0.1026
  H  H361  1  0.375200  0.617600  0.185300  1.0  0.1175
  H  H362  1  0.370600  0.632900  0.016100  1.0  0.0909
  H  H363  1  0.592100  0.283600  0.414800  1.0  0.1253
  H  H364  1  0.766900  0.295500  0.436700  1.0  0.0905
  H  H365  1  0.768900  0.249400  0.515000  1.0  0.0802
  H  H366  1  0.601700  0.238300  0.500600  1.0  0.0699
  H  H367  1  0.772100  0.232200  0.698400  1.0  0.1012
  H  H368  1  0.599900  0.258000  0.655800  1.0  0.1038
  H  H369  1  0.596700  0.303200  0.740000  1.0  0.1258
  H  H370  1  0.768900  0.277500  0.782600  1.0  0.1149
  H  H371  1  0.537500  0.562300  0.013700  1.0  0.1257
  H  H372  1  0.514200  0.513900  0.174600  1.0  0.105
  H  H373  1  0.451900  0.566900  0.177800  1.0  0.1018
  H  H374  1  0.616600  0.510200  0.011600  1.0  0.0716
  H  H375  1  0.591200  0.462500  0.169000  1.0  0.1077
  H  H376  1  0.453700  0.588800  0.011900  1.0  0.1125
  H  H377  1  0.118500  0.836200  0.732200  1.0  0.0913
  H  H378  1  0.248400  0.865400  0.891300  1.0  0.1028
  H  H379  1  0.110400  0.796900  0.816800  1.0  0.0992
  H  H380  1  0.407800  0.112700  0.654100  1.0  0.1042
  H  H381  1  0.490300  0.159800  0.651600  1.0  0.1212
  H  H382  1  0.537300  0.086600  0.509800  1.0  0.1061
  H  H383  1  0.255900  0.908700  0.805900  1.0  0.1199
  H  H384  1  0.448800  0.045400  0.506700  1.0  0.1036
  H  H385  1  0.279800  0.997000  0.668400  1.0  0.0784
  H  H386  1  0.359800  0.046600  0.668000  1.0  0.1192
  H  H387  1  0.272100  0.982100  0.500900  1.0  0.0743
  H  H388  1  0.098200  0.852000  0.302500  1.0  0.1213
  H  H389  1  0.099800  0.898600  0.386000  1.0  0.101
  H  H390  1  0.262300  0.851100  0.438400  1.0  0.106
  H  H391  1  0.260800  0.804500  0.354800  1.0  0.1108
  H  H392  1  0.350000  0.032300  0.494600  1.0  0.1026
  H  H393  1  0.875200  0.117600  0.685300  1.0  0.1175
  H  H394  1  0.870600  0.132900  0.516100  1.0  0.0909
  H  H395  1  0.092100  0.783600  0.914800  1.0  0.1253
  H  H396  1  0.266900  0.795500  0.936700  1.0  0.0905
  H  H397  1  0.268900  0.749400  0.015000  1.0  0.0802
  H  H398  1  0.101700  0.738300  0.000600  1.0  0.0699
  H  H399  1  0.272100  0.732200  0.198400  1.0  0.1012
  H  H400  1  0.099900  0.758000  0.155800  1.0  0.1038
  H  H401  1  0.096700  0.803200  0.240000  1.0  0.1258
  H  H402  1  0.268900  0.777500  0.282600  1.0  0.1149
  H  H403  1  0.037500  0.062300  0.513700  1.0  0.1257
  H  H404  1  0.014200  0.013900  0.674600  1.0  0.105
  H  H405  1  0.951900  0.066900  0.677800  1.0  0.1018
  H  H406  1  0.116600  0.010200  0.511600  1.0  0.0716
  H  H407  1  0.091200  0.962500  0.669000  1.0  0.1077
  H  H408  1  0.953700  0.088800  0.511900  1.0  0.1125
  C  C409  1  0.903100  0.629900  0.347100  1.0  -0.1105
  C  C410  1  0.237100  0.370600  0.508400  1.0  -0.1263
  C  C411  1  0.565200  0.626000  0.336400  1.0  -0.1368
  C  C412  1  0.187100  0.313300  0.563500  1.0  -0.1138
  C  C413  1  0.282100  0.371600  0.554100  1.0  -0.107
  C  C414  1  0.941500  0.634500  0.303300  1.0  -0.1292
  C  C415  1  0.288600  0.324500  0.115400  1.0  -0.1175
  C  C416  1  0.848700  0.661400  0.344900  1.0  0.6578
  C  C417  1  0.285600  0.348800  0.167000  1.0  -0.0343
  C  C418  1  0.004700  0.574100  0.348600  1.0  0.0366
  C  C419  1  0.991900  0.606200  0.306300  1.0  -0.1087
  C  C420  1  0.962000  0.568300  0.390700  1.0  -0.1414
  C  C421  1  0.914400  0.595700  0.389300  1.0  -0.033
  C  C422  1  0.246500  0.385200  0.171400  1.0  -0.099
  C  C423  1  0.191100  0.339800  0.513700  1.0  -0.0505
  C  C424  1  0.237400  0.408500  0.227100  1.0  0.6208
  C  C425  1  0.526300  0.635200  0.379600  1.0  -0.0481
  C  C426  1  0.619100  0.655300  0.335900  1.0  0.6436
  C  C427  1  0.551200  0.593000  0.296100  1.0  -0.072
  C  C428  1  0.241600  0.401700  0.457900  1.0  0.6632
  C  C429  1  0.054700  0.544700  0.349000  1.0  0.0335
  C  C430  1  0.088300  0.541600  0.301100  1.0  -0.2356
  C  C431  1  0.137500  0.514100  0.302200  1.0  0.1686
  C  C432  1  0.074700  0.514800  0.395300  1.0  -0.2037
  C  C433  1  0.122900  0.486400  0.390800  1.0  0.1779
  C  C434  1  0.260200  0.299300  0.716800  1.0  -0.2358
  C  C435  1  0.192000  0.225000  0.718700  1.0  0.1942
  C  C436  1  0.228600  0.287500  0.664400  1.0  0.1078
  C  C437  1  0.256500  0.273200  0.765000  1.0  0.1812
  C  C438  1  0.231700  0.314300  0.611200  1.0  0.0101
  C  C439  1  0.193100  0.249000  0.666500  1.0  -0.2098
  C  C440  1  0.280500  0.344400  0.603300  1.0  -0.1413
  C  C441  1  0.502500  0.565000  0.299400  1.0  -0.1278
  C  C442  1  0.462300  0.573900  0.340200  1.0  0.0608
  C  C443  1  0.379600  0.538400  0.392300  1.0  -0.1956
  C  C444  1  0.407500  0.546200  0.343300  1.0  0.0737
  C  C445  1  0.332800  0.511400  0.390500  1.0  0.1913
  C  C446  1  0.381100  0.525300  0.290300  1.0  -0.2254
  C  C447  1  0.476300  0.607900  0.382700  1.0  -0.0566
  C  C448  1  0.334700  0.497000  0.295900  1.0  0.1822
  C  C449  1  0.197900  0.271100  0.931200  1.0  0.1767
  C  C450  1  0.208300  0.370300  0.070300  1.0  -0.1805
  C  C451  1  0.249500  0.333800  0.067800  1.0  0.03
  C  C452  1  0.207600  0.395200  0.121900  1.0  -0.0304
  C  C453  1  0.248600  0.305200  0.013800  1.0  0.0783
  C  C454  1  0.292200  0.249000  0.953000  1.0  0.1446
  C  C455  1  0.197700  0.301100  0.977600  1.0  -0.2114
  C  C456  1  0.297800  0.279100  0.998600  1.0  -0.1909
  C  C457  1  0.403100  0.129900  0.847100  1.0  -0.1105
  C  C458  1  0.737100  0.870600  0.008400  1.0  -0.1263
  C  C459  1  0.065200  0.126000  0.836400  1.0  -0.1368
  C  C460  1  0.687100  0.813300  0.063500  1.0  -0.1138
  C  C461  1  0.782100  0.871600  0.054100  1.0  -0.107
  C  C462  1  0.441500  0.134500  0.803300  1.0  -0.1292
  C  C463  1  0.788600  0.824500  0.615400  1.0  -0.1175
  C  C464  1  0.348700  0.161400  0.844900  1.0  0.6578
  C  C465  1  0.785600  0.848800  0.667000  1.0  -0.0343
  C  C466  1  0.504700  0.074100  0.848600  1.0  0.0366
  C  C467  1  0.491900  0.106200  0.806300  1.0  -0.1087
  C  C468  1  0.462000  0.068300  0.890700  1.0  -0.1414
  C  C469  1  0.414400  0.095700  0.889300  1.0  -0.033
  C  C470  1  0.746500  0.885200  0.671400  1.0  -0.099
  C  C471  1  0.691100  0.839800  0.013700  1.0  -0.0505
  C  C472  1  0.737400  0.908500  0.727100  1.0  0.6208
  C  C473  1  0.026300  0.135200  0.879600  1.0  -0.0481
  C  C474  1  0.119100  0.155300  0.835900  1.0  0.6436
  C  C475  1  0.051200  0.093000  0.796100  1.0  -0.072
  C  C476  1  0.741600  0.901700  0.957900  1.0  0.6632
  C  C477  1  0.554700  0.044700  0.849000  1.0  0.0335
  C  C478  1  0.588300  0.041600  0.801100  1.0  -0.2356
  C  C479  1  0.637500  0.014100  0.802200  1.0  0.1686
  C  C480  1  0.574700  0.014800  0.895300  1.0  -0.2037
  C  C481  1  0.622900  0.986400  0.890800  1.0  0.1779
  C  C482  1  0.760200  0.799300  0.216800  1.0  -0.2358
  C  C483  1  0.692000  0.725000  0.218700  1.0  0.1942
  C  C484  1  0.728600  0.787500  0.164400  1.0  0.1078
  C  C485  1  0.756500  0.773200  0.265000  1.0  0.1812
  C  C486  1  0.731700  0.814300  0.111200  1.0  0.0101
  C  C487  1  0.693100  0.749000  0.166500  1.0  -0.2098
  C  C488  1  0.780500  0.844400  0.103300  1.0  -0.1413
  C  C489  1  0.002500  0.065000  0.799400  1.0  -0.1278
  C  C490  1  0.962300  0.073900  0.840200  1.0  0.0608
  C  C491  1  0.879600  0.038400  0.892300  1.0  -0.1956
  C  C492  1  0.907500  0.046200  0.843300  1.0  0.0737
  C  C493  1  0.832800  0.011400  0.890500  1.0  0.1913
  C  C494  1  0.881100  0.025300  0.790300  1.0  -0.2254
  C  C495  1  0.976300  0.107900  0.882700  1.0  -0.0566
  C  C496  1  0.834700  0.997000  0.795900  1.0  0.1822
  C  C497  1  0.697900  0.771100  0.431200  1.0  0.1767
  C  C498  1  0.708300  0.870300  0.570300  1.0  -0.1805
  C  C499  1  0.749500  0.833800  0.567800  1.0  0.03
  C  C500  1  0.707600  0.895200  0.621900  1.0  -0.0304
  C  C501  1  0.748600  0.805200  0.513800  1.0  0.0783
  C  C502  1  0.792200  0.749000  0.453000  1.0  0.1446
  C  C503  1  0.697700  0.801100  0.477600  1.0  -0.2114
  C  C504  1  0.797800  0.779100  0.498600  1.0  -0.1909
  C  C505  1  0.877200  0.182200  0.955600  1.0  0.6186
  C  C506  1  0.883800  0.210900  0.900300  1.0  -0.01
  C  C507  1  0.137000  0.990900  0.053300  1.0  0.0035
  C  C508  1  0.980900  0.070300  0.054300  1.0  0.6754
  C  C509  1  0.032600  0.043000  0.053300  1.0  -0.0658
  C  C510  1  0.189700  0.963600  0.053100  1.0  0.0649
  C  C511  1  0.138300  0.039400  0.049400  1.0  -0.1854
  C  C512  1  0.869000  0.185700  0.846300  1.0  -0.1191
  C  C513  1  0.085900  0.064800  0.049300  1.0  -0.0592
  C  C514  1  0.900000  0.253900  0.900200  1.0  -0.044
  C  C515  1  0.030700  0.994900  0.057000  1.0  -0.0559
  C  C516  1  0.084400  0.968400  0.055500  1.0  -0.1516
  C  C517  1  0.246800  0.983300  0.072300  1.0  -0.1587
  C  C518  1  0.193600  0.921300  0.032300  1.0  -0.1483
  C  C519  1  0.296700  0.957100  0.075000  1.0  0.1427
  C  C520  1  0.246700  0.894800  0.036000  1.0  0.1415
  C  C521  1  0.888100  0.257500  0.794200  1.0  0.0279
  C  C522  1  0.886600  0.283600  0.740300  1.0  0.0485
  C  C523  1  0.904600  0.278800  0.849500  1.0  -0.187
  C  C524  1  0.870100  0.212500  0.794700  1.0  -0.0943
  C  C525  1  0.885600  0.333200  0.738300  1.0  -0.2063
  C  C526  1  0.884500  0.354800  0.686700  1.0  0.1575
  C  C527  1  0.887700  0.261800  0.686400  1.0  -0.1501
  C  C528  1  0.886100  0.287400  0.634000  1.0  0.1609
  C  C529  1  0.377200  0.682200  0.455600  1.0  0.6186
  C  C530  1  0.383800  0.710900  0.400300  1.0  -0.01
  C  C531  1  0.637000  0.490900  0.553300  1.0  0.0035
  C  C532  1  0.480900  0.570300  0.554300  1.0  0.6754
  C  C533  1  0.532600  0.543000  0.553300  1.0  -0.0658
  C  C534  1  0.689700  0.463600  0.553100  1.0  0.0649
  C  C535  1  0.638300  0.539400  0.549400  1.0  -0.1854
  C  C536  1  0.369000  0.685700  0.346300  1.0  -0.1191
  C  C537  1  0.585900  0.564800  0.549300  1.0  -0.0592
  C  C538  1  0.400000  0.753900  0.400200  1.0  -0.044
  C  C539  1  0.530700  0.494900  0.557000  1.0  -0.0559
  C  C540  1  0.584400  0.468400  0.555500  1.0  -0.1516
  C  C541  1  0.746800  0.483300  0.572300  1.0  -0.1587
  C  C542  1  0.693600  0.421300  0.532300  1.0  -0.1483
  C  C543  1  0.796700  0.457100  0.575000  1.0  0.1427
  C  C544  1  0.746700  0.394800  0.536000  1.0  0.1415
  C  C545  1  0.388100  0.757500  0.294200  1.0  0.0279
  C  C546  1  0.386600  0.783600  0.240300  1.0  0.0485
  C  C547  1  0.404600  0.778800  0.349500  1.0  -0.187
  C  C548  1  0.370100  0.712500  0.294700  1.0  -0.0943
  C  C549  1  0.385600  0.833200  0.238300  1.0  -0.2063
  C  C550  1  0.384500  0.854800  0.186700  1.0  0.1575
  C  C551  1  0.387700  0.761800  0.186400  1.0  -0.1501
  C  C552  1  0.386100  0.787400  0.134000  1.0  0.1609
  C  C553  1  0.377200  0.817800  0.955600  1.0  0.6183
  C  C554  1  0.383800  0.789100  0.900300  1.0  -0.011
  C  C555  1  0.637000  0.009100  0.053300  1.0  0.0021
  C  C556  1  0.480900  0.929700  0.054300  1.0  0.6746
  C  C557  1  0.532600  0.957000  0.053300  1.0  -0.0662
  C  C558  1  0.689700  0.036400  0.053100  1.0  0.0656
  C  C559  1  0.638300  0.960600  0.049400  1.0  -0.1846
  C  C560  1  0.369000  0.814300  0.846300  1.0  -0.1197
  C  C561  1  0.585900  0.935200  0.049300  1.0  -0.0598
  C  C562  1  0.400000  0.746100  0.900200  1.0  -0.044
  C  C563  1  0.530700  0.005100  0.057000  1.0  -0.0576
  C  C564  1  0.584400  0.031600  0.055500  1.0  -0.1516
  C  C565  1  0.746800  0.016700  0.072300  1.0  -0.1585
  C  C566  1  0.693600  0.078700  0.032300  1.0  -0.1496
  C  C567  1  0.796700  0.042900  0.075000  1.0  0.1433
  C  C568  1  0.746700  0.105200  0.036000  1.0  0.1416
  C  C569  1  0.388100  0.742500  0.794200  1.0  0.0277
  C  C570  1  0.386600  0.716400  0.740300  1.0  0.0487
  C  C571  1  0.404600  0.721200  0.849500  1.0  -0.1863
  C  C572  1  0.370100  0.787500  0.794700  1.0  -0.0947
  C  C573  1  0.385600  0.666800  0.738300  1.0  -0.2067
  C  C574  1  0.384500  0.645200  0.686700  1.0  0.1577
  C  C575  1  0.387700  0.738200  0.686400  1.0  -0.1499
  C  C576  1  0.386100  0.712600  0.634000  1.0  0.1612
  C  C577  1  0.877200  0.317800  0.455600  1.0  0.6183
  C  C578  1  0.883800  0.289100  0.400300  1.0  -0.011
  C  C579  1  0.137000  0.509100  0.553300  1.0  0.0021
  C  C580  1  0.980900  0.429700  0.554300  1.0  0.6746
  C  C581  1  0.032600  0.457000  0.553300  1.0  -0.0662
  C  C582  1  0.189700  0.536400  0.553100  1.0  0.0656
  C  C583  1  0.138300  0.460600  0.549400  1.0  -0.1846
  C  C584  1  0.869000  0.314300  0.346300  1.0  -0.1197
  C  C585  1  0.085900  0.435200  0.549300  1.0  -0.0598
  C  C586  1  0.900000  0.246100  0.400200  1.0  -0.044
  C  C587  1  0.030700  0.505100  0.557000  1.0  -0.0576
  C  C588  1  0.084400  0.531600  0.555500  1.0  -0.1516
  C  C589  1  0.246800  0.516700  0.572300  1.0  -0.1585
  C  C590  1  0.193600  0.578700  0.532300  1.0  -0.1496
  C  C591  1  0.296700  0.542900  0.575000  1.0  0.1433
  C  C592  1  0.246700  0.605200  0.536000  1.0  0.1416
  C  C593  1  0.888100  0.242500  0.294200  1.0  0.0277
  C  C594  1  0.886600  0.216400  0.240300  1.0  0.0487
  C  C595  1  0.904600  0.221200  0.349500  1.0  -0.1863
  C  C596  1  0.870100  0.287500  0.294700  1.0  -0.0947
  C  C597  1  0.885600  0.166800  0.238300  1.0  -0.2067
  C  C598  1  0.884500  0.145200  0.186700  1.0  0.1577
  C  C599  1  0.887700  0.238200  0.186400  1.0  -0.1499
  C  C600  1  0.886100  0.212600  0.134000  1.0  0.1612
  C  C601  1  0.045800  0.299800  0.024200  1.0  -0.0926
  C  C602  1  0.047600  0.325700  0.968600  1.0  0.677
  C  C603  1  0.055200  0.318700  0.078600  1.0  -0.0822
  C  C604  1  0.955700  0.436100  0.867700  1.0  0.6704
  C  C605  1  0.901200  0.466500  0.869000  1.0  -0.1313
  C  C606  1  0.847400  0.444600  0.874400  1.0  -0.0026
  C  C607  1  0.903300  0.513900  0.867200  1.0  -0.0918
  C  C608  1  0.802600  0.520100  0.871800  1.0  0.0567
  C  C609  1  0.744400  0.546800  0.872100  1.0  0.0826
  C  C610  1  0.798000  0.471300  0.875400  1.0  -0.0706
  C  C611  1  0.856900  0.539000  0.867500  1.0  -0.1402
  C  C612  1  0.696400  0.530000  0.898000  1.0  -0.2468
  C  C613  1  0.737900  0.591100  0.847400  1.0  -0.1873
  C  C614  1  0.645400  0.551900  0.890400  1.0  0.19
  C  C615  1  0.685400  0.612200  0.845900  1.0  0.1508
  C  C616  1  0.040000  0.248500  0.128700  1.0  0.006
  C  C617  1  0.039300  0.219900  0.183300  1.0  0.0957
  C  C618  1  0.029300  0.225300  0.075100  1.0  -0.1644
  C  C619  1  0.032100  0.252900  0.022500  1.0  -0.0422
  C  C620  1  0.050500  0.213300  0.286800  1.0  0.1767
  C  C621  1  0.041200  0.146100  0.233000  1.0  0.1166
  C  C622  1  0.051500  0.294300  0.129200  1.0  -0.1834
  C  C623  1  0.039600  0.171600  0.182900  1.0  -0.1466
  C  C624  1  0.044400  0.239900  0.239100  1.0  -0.1911
  C  C625  1  0.545800  0.799800  0.524200  1.0  -0.0926
  C  C626  1  0.547600  0.825700  0.468600  1.0  0.677
  C  C627  1  0.555200  0.818700  0.578600  1.0  -0.0822
  C  C628  1  0.455700  0.936100  0.367700  1.0  0.6704
  C  C629  1  0.401200  0.966500  0.369000  1.0  -0.1313
  C  C630  1  0.347400  0.944600  0.374400  1.0  -0.0026
  C  C631  1  0.403300  0.013900  0.367200  1.0  -0.0918
  C  C632  1  0.302600  0.020100  0.371800  1.0  0.0567
  C  C633  1  0.244400  0.046800  0.372100  1.0  0.0826
  C  C634  1  0.298000  0.971300  0.375400  1.0  -0.0706
  C  C635  1  0.356900  0.039000  0.367500  1.0  -0.1402
  C  C636  1  0.196400  0.030000  0.398000  1.0  -0.2468
  C  C637  1  0.237900  0.091100  0.347400  1.0  -0.1873
  C  C638  1  0.145400  0.051900  0.390400  1.0  0.19
  C  C639  1  0.185400  0.112200  0.345900  1.0  0.1508
  C  C640  1  0.540000  0.748500  0.628700  1.0  0.006
  C  C641  1  0.539300  0.719900  0.683300  1.0  0.0957
  C  C642  1  0.529300  0.725300  0.575100  1.0  -0.1644
  C  C643  1  0.532100  0.752900  0.522500  1.0  -0.0422
  C  C644  1  0.550500  0.713300  0.786800  1.0  0.1757
  C  C645  1  0.541200  0.646100  0.733000  1.0  0.1162
  C  C646  1  0.551500  0.794300  0.629200  1.0  -0.1834
  C  C647  1  0.539600  0.671600  0.682900  1.0  -0.1466
  C  C648  1  0.544400  0.739900  0.739100  1.0  -0.1911
  C  C649  1  0.545800  0.700200  0.024200  1.0  -0.0936
  C  C650  1  0.547600  0.674300  0.968600  1.0  0.6768
  C  C651  1  0.555200  0.681300  0.078600  1.0  -0.0822
  C  C652  1  0.455700  0.563900  0.867700  1.0  0.6689
  C  C653  1  0.401200  0.533500  0.869000  1.0  -0.1297
  C  C654  1  0.347400  0.555400  0.874400  1.0  -0.0032
  C  C655  1  0.403300  0.486100  0.867200  1.0  -0.0912
  C  C656  1  0.302600  0.479900  0.871800  1.0  0.0563
  C  C657  1  0.244400  0.453200  0.872100  1.0  0.083
  C  C658  1  0.298000  0.528700  0.875400  1.0  -0.0709
  C  C659  1  0.356900  0.461000  0.867500  1.0  -0.1437
  C  C660  1  0.196400  0.470000  0.898000  1.0  -0.2469
  C  C661  1  0.237900  0.408900  0.847400  1.0  -0.1872
  C  C662  1  0.145400  0.448100  0.890400  1.0  0.1897
  C  C663  1  0.185400  0.387800  0.845900  1.0  0.1508
  C  C664  1  0.540000  0.751500  0.128700  1.0  0.0059
  C  C665  1  0.539300  0.780100  0.183300  1.0  0.0959
  C  C666  1  0.529300  0.774700  0.075100  1.0  -0.1648
  C  C667  1  0.532100  0.747100  0.022500  1.0  -0.0427
  C  C668  1  0.550500  0.786700  0.286800  1.0  0.1764
  C  C669  1  0.541200  0.853900  0.233000  1.0  0.1171
  C  C670  1  0.551500  0.705700  0.129200  1.0  -0.1812
  C  C671  1  0.539600  0.828400  0.182900  1.0  -0.1472
  C  C672  1  0.544400  0.760100  0.239100  1.0  -0.1902
  C  C673  1  0.045800  0.200200  0.524200  1.0  -0.0936
  C  C674  1  0.047600  0.174300  0.468600  1.0  0.6768
  C  C675  1  0.055200  0.181300  0.578600  1.0  -0.0822
  C  C676  1  0.955700  0.063900  0.367700  1.0  0.6689
  C  C677  1  0.901200  0.033500  0.369000  1.0  -0.1297
  C  C678  1  0.847400  0.055400  0.374400  1.0  -0.0032
  C  C679  1  0.903300  0.986100  0.367200  1.0  -0.0912
  C  C680  1  0.802600  0.979900  0.371800  1.0  0.0563
  C  C681  1  0.744400  0.953200  0.372100  1.0  0.083
  C  C682  1  0.798000  0.028700  0.375400  1.0  -0.0709
  C  C683  1  0.856900  0.961000  0.367500  1.0  -0.1437
  C  C684  1  0.696400  0.970000  0.398000  1.0  -0.2469
  C  C685  1  0.737900  0.908900  0.347400  1.0  -0.1872
  C  C686  1  0.645400  0.948100  0.390400  1.0  0.1897
  C  C687  1  0.685400  0.887800  0.345900  1.0  0.1508
  C  C688  1  0.040000  0.251500  0.628700  1.0  0.0059
  C  C689  1  0.039300  0.280100  0.683300  1.0  0.0959
  C  C690  1  0.029300  0.274700  0.575100  1.0  -0.1648
  C  C691  1  0.032100  0.247100  0.522500  1.0  -0.0427
  C  C692  1  0.050500  0.286700  0.786800  1.0  0.1754
  C  C693  1  0.041200  0.353900  0.733000  1.0  0.1167
  C  C694  1  0.051500  0.205700  0.629200  1.0  -0.1812
  C  C695  1  0.039600  0.328400  0.682900  1.0  -0.1472
  C  C696  1  0.044400  0.260100  0.739100  1.0  -0.1902
  C  C697  1  0.403100  0.370100  0.347100  1.0  -0.1126
  C  C698  1  0.737100  0.629400  0.508400  1.0  -0.1266
  C  C699  1  0.065200  0.374000  0.336400  1.0  -0.1371
  C  C700  1  0.687100  0.686700  0.563500  1.0  -0.1134
  C  C701  1  0.782100  0.628400  0.554100  1.0  -0.1066
  C  C702  1  0.441500  0.365500  0.303300  1.0  -0.131
  C  C703  1  0.788600  0.675500  0.115400  1.0  -0.1184
  C  C704  1  0.348700  0.338600  0.344900  1.0  0.6593
  C  C705  1  0.785600  0.651200  0.167000  1.0  -0.0346
  C  C706  1  0.504700  0.425900  0.348600  1.0  0.0368
  C  C707  1  0.491900  0.393800  0.306300  1.0  -0.1087
  C  C708  1  0.462000  0.431700  0.390700  1.0  -0.1418
  C  C709  1  0.414400  0.404300  0.389300  1.0  -0.0333
  C  C710  1  0.746500  0.614800  0.171400  1.0  -0.0995
  C  C711  1  0.691100  0.660200  0.513700  1.0  -0.0498
  C  C712  1  0.737400  0.591500  0.227100  1.0  0.621
  C  C713  1  0.026300  0.364800  0.379600  1.0  -0.0481
  C  C714  1  0.119100  0.344700  0.335900  1.0  0.6438
  C  C715  1  0.051200  0.407000  0.296100  1.0  -0.0723
  C  C716  1  0.741600  0.598300  0.457900  1.0  0.6628
  C  C717  1  0.554700  0.455300  0.349000  1.0  0.0337
  C  C718  1  0.588300  0.458400  0.301100  1.0  -0.2353
  C  C719  1  0.637500  0.485900  0.302200  1.0  0.1684
  C  C720  1  0.574700  0.485200  0.395300  1.0  -0.2036
  C  C721  1  0.622900  0.513600  0.390800  1.0  0.1784
  C  C722  1  0.760200  0.700700  0.716800  1.0  -0.234
  C  C723  1  0.692000  0.775000  0.718700  1.0  0.1949
  C  C724  1  0.728600  0.712500  0.664400  1.0  0.1085
  C  C725  1  0.756500  0.726800  0.765000  1.0  0.1816
  C  C726  1  0.731700  0.685700  0.611200  1.0  0.0094
  C  C727  1  0.693100  0.751000  0.666500  1.0  -0.2096
  C  C728  1  0.780500  0.655600  0.603300  1.0  -0.1411
  C  C729  1  0.002500  0.435000  0.299400  1.0  -0.1274
  C  C730  1  0.962300  0.426100  0.340200  1.0  0.0612
  C  C731  1  0.879600  0.461600  0.392300  1.0  -0.1957
  C  C732  1  0.907500  0.453800  0.343300  1.0  0.0736
  C  C733  1  0.832800  0.488600  0.390500  1.0  0.1912
  C  C734  1  0.881100  0.474700  0.290300  1.0  -0.2255
  C  C735  1  0.976300  0.392100  0.382700  1.0  -0.0563
  C  C736  1  0.834700  0.503000  0.295900  1.0  0.1823
  C  C737  1  0.697900  0.728900  0.931200  1.0  0.1769
  C  C738  1  0.708300  0.629700  0.070300  1.0  -0.1799
  C  C739  1  0.749500  0.666200  0.067800  1.0  0.0297
  C  C740  1  0.707600  0.604800  0.121900  1.0  -0.0303
  C  C741  1  0.748600  0.694800  0.013800  1.0  0.0783
  C  C742  1  0.792200  0.751000  0.953000  1.0  0.1454
  C  C743  1  0.697700  0.698900  0.977600  1.0  -0.2113
  C  C744  1  0.797800  0.720900  0.998600  1.0  -0.1918
  C  C745  1  0.903100  0.870100  0.847100  1.0  -0.1126
  C  C746  1  0.237100  0.129400  0.008400  1.0  -0.1266
  C  C747  1  0.565200  0.874000  0.836400  1.0  -0.1371
  C  C748  1  0.187100  0.186700  0.063500  1.0  -0.1134
  C  C749  1  0.282100  0.128400  0.054100  1.0  -0.1066
  C  C750  1  0.941500  0.865500  0.803300  1.0  -0.131
  C  C751  1  0.288600  0.175500  0.615400  1.0  -0.1184
  C  C752  1  0.848700  0.838600  0.844900  1.0  0.6593
  C  C753  1  0.285600  0.151200  0.667000  1.0  -0.0346
  C  C754  1  0.004700  0.925900  0.848600  1.0  0.0368
  C  C755  1  0.991900  0.893800  0.806300  1.0  -0.1087
  C  C756  1  0.962000  0.931700  0.890700  1.0  -0.1418
  C  C757  1  0.914400  0.904300  0.889300  1.0  -0.0333
  C  C758  1  0.246500  0.114800  0.671400  1.0  -0.0995
  C  C759  1  0.191100  0.160200  0.013700  1.0  -0.0498
  C  C760  1  0.237400  0.091500  0.727100  1.0  0.621
  C  C761  1  0.526300  0.864800  0.879600  1.0  -0.0481
  C  C762  1  0.619100  0.844700  0.835900  1.0  0.6438
  C  C763  1  0.551200  0.907000  0.796100  1.0  -0.0723
  C  C764  1  0.241600  0.098300  0.957900  1.0  0.6628
  C  C765  1  0.054700  0.955300  0.849000  1.0  0.0337
  C  C766  1  0.088300  0.958400  0.801100  1.0  -0.2353
  C  C767  1  0.137500  0.985900  0.802200  1.0  0.1684
  C  C768  1  0.074700  0.985200  0.895300  1.0  -0.2036
  C  C769  1  0.122900  0.013600  0.890800  1.0  0.1784
  C  C770  1  0.260200  0.200700  0.216800  1.0  -0.234
  C  C771  1  0.192000  0.275000  0.218700  1.0  0.1949
  C  C772  1  0.228600  0.212500  0.164400  1.0  0.1085
  C  C773  1  0.256500  0.226800  0.265000  1.0  0.1816
  C  C774  1  0.231700  0.185700  0.111200  1.0  0.0094
  C  C775  1  0.193100  0.251000  0.166500  1.0  -0.2096
  C  C776  1  0.280500  0.155600  0.103300  1.0  -0.1411
  C  C777  1  0.502500  0.935000  0.799400  1.0  -0.1274
  C  C778  1  0.462300  0.926100  0.840200  1.0  0.0612
  C  C779  1  0.379600  0.961600  0.892300  1.0  -0.1957
  C  C780  1  0.407500  0.953800  0.843300  1.0  0.0736
  C  C781  1  0.332800  0.988600  0.890500  1.0  0.1912
  C  C782  1  0.381100  0.974700  0.790300  1.0  -0.2255
  C  C783  1  0.476300  0.892100  0.882700  1.0  -0.0563
  C  C784  1  0.334700  0.003000  0.795900  1.0  0.1823
  C  C785  1  0.197900  0.228900  0.431200  1.0  0.1769
  C  C786  1  0.208300  0.129700  0.570300  1.0  -0.1799
  C  C787  1  0.249500  0.166200  0.567800  1.0  0.0297
  C  C788  1  0.207600  0.104800  0.621900  1.0  -0.0303
  C  C789  1  0.248600  0.194800  0.513800  1.0  0.0783
  C  C790  1  0.292200  0.251000  0.453000  1.0  0.1454
  C  C791  1  0.197700  0.198900  0.477600  1.0  -0.2113
  C  C792  1  0.297800  0.220900  0.498600  1.0  -0.1918
  C  C793  1  0.523900  0.375400  0.080600  1.0  -0.1312
  C  C794  1  0.858700  0.370800  0.099300  1.0  0.0897
  C  C795  1  0.145800  0.657100  0.264600  1.0  -0.0754
  C  C796  1  0.221500  0.640700  0.358500  1.0  -0.1138
  C  C797  1  0.141200  0.681100  0.315200  1.0  -0.1682
  C  C798  1  0.188000  0.623700  0.258000  1.0  -0.0595
  C  C799  1  0.433900  0.392000  0.124700  1.0  -0.112
  C  C800  1  0.368500  0.457300  0.081500  1.0  0.0921
  C  C801  1  0.483000  0.364800  0.124400  1.0  -0.1141
  C  C802  1  0.420800  0.428200  0.080500  1.0  -0.0056
  C  C803  1  0.510800  0.407800  0.038700  1.0  -0.0652
  C  C804  1  0.179400  0.674800  0.363800  1.0  0.0842
  C  C805  1  0.190400  0.597800  0.201500  1.0  0.6846
  C  C806  1  0.809300  0.341600  0.105100  1.0  0.6665
  C  C807  1  0.226700  0.614600  0.307100  1.0  -0.1317
  C  C808  1  0.576100  0.348200  0.079900  1.0  0.5976
  C  C809  1  0.458300  0.433400  0.037700  1.0  -0.1226
  C  C810  1  0.295100  0.496700  0.132100  1.0  0.1773
  C  C811  1  0.343900  0.466900  0.132400  1.0  -0.2018
  C  C812  1  0.290500  0.505000  0.035900  1.0  0.176
  C  C813  1  0.179400  0.676100  0.820800  1.0  0.0235
  C  C814  1  0.131600  0.648200  0.830100  1.0  -0.1263
  C  C815  1  0.132400  0.620500  0.879700  1.0  -0.0201
  C  C816  1  0.181200  0.620800  0.920100  1.0  0.0234
  C  C817  1  0.229000  0.648700  0.910800  1.0  -0.0337
  C  C818  1  0.228100  0.676400  0.861200  1.0  -0.1786
  C  C819  1  0.338100  0.475500  0.031900  1.0  -0.1909
  C  C820  1  0.887800  0.389200  0.147900  1.0  -0.1785
  C  C821  1  0.886900  0.380200  0.051700  1.0  -0.073
  C  C822  1  0.179600  0.703400  0.415500  1.0  0.127
  C  C823  1  0.129500  0.722000  0.434700  1.0  -0.1938
  C  C824  1  0.230800  0.716000  0.448200  1.0  -0.1813
  C  C825  1  0.231900  0.743600  0.495000  1.0  0.1776
  C  C826  1  0.136600  0.750200  0.486300  1.0  0.1702
  C  C827  1  0.236500  0.753400  0.706800  1.0  0.1789
  C  C828  1  0.134200  0.738100  0.681500  1.0  0.1513
  C  C829  1  0.132300  0.711200  0.731500  1.0  -0.1363
  C  C830  1  0.182500  0.705400  0.769200  1.0  -0.0326
  C  C831  1  0.234600  0.726500  0.756900  1.0  -0.0911
  C  C832  1  0.047200  0.457400  0.046300  1.0  -0.1906
  C  C833  1  0.963200  0.427400  0.095400  1.0  0.256
  C  C834  1  0.013400  0.456400  0.094300  1.0  0.0828
  C  C835  1  0.034100  0.486200  0.140100  1.0  -0.1204
  C  C836  1  0.936400  0.418300  0.143000  1.0  -0.1189
  C  C837  1  0.096600  0.488100  0.046100  1.0  0.163
  C  C838  1  0.082100  0.516100  0.138200  1.0  0.1357
  C  C839  1  0.937700  0.407300  0.048400  1.0  -0.1996
  C  C840  1  0.023900  0.875400  0.580600  1.0  -0.1312
  C  C841  1  0.358700  0.870800  0.599300  1.0  0.0897
  C  C842  1  0.645800  0.157100  0.764600  1.0  -0.0754
  C  C843  1  0.721500  0.140700  0.858500  1.0  -0.1138
  C  C844  1  0.641200  0.181100  0.815200  1.0  -0.1682
  C  C845  1  0.688000  0.123700  0.758000  1.0  -0.0595
  C  C846  1  0.933900  0.892000  0.624700  1.0  -0.112
  C  C847  1  0.868500  0.957300  0.581500  1.0  0.0921
  C  C848  1  0.983000  0.864800  0.624400  1.0  -0.1141
  C  C849  1  0.920800  0.928200  0.580500  1.0  -0.0056
  C  C850  1  0.010800  0.907800  0.538700  1.0  -0.0652
  C  C851  1  0.679400  0.174800  0.863800  1.0  0.0842
  C  C852  1  0.690400  0.097800  0.701500  1.0  0.6846
  C  C853  1  0.309300  0.841600  0.605100  1.0  0.6665
  C  C854  1  0.726700  0.114600  0.807100  1.0  -0.1317
  C  C855  1  0.076100  0.848200  0.579900  1.0  0.5976
  C  C856  1  0.958300  0.933400  0.537700  1.0  -0.1226
  C  C857  1  0.795100  0.996700  0.632100  1.0  0.1773
  C  C858  1  0.843900  0.966900  0.632400  1.0  -0.2018
  C  C859  1  0.790500  0.005000  0.535900  1.0  0.176
  C  C860  1  0.679400  0.176100  0.320800  1.0  0.0235
  C  C861  1  0.631600  0.148200  0.330100  1.0  -0.1263
  C  C862  1  0.632400  0.120500  0.379700  1.0  -0.0201
  C  C863  1  0.681200  0.120800  0.420100  1.0  0.0234
  C  C864  1  0.729000  0.148700  0.410800  1.0  -0.0337
  C  C865  1  0.728100  0.176400  0.361200  1.0  -0.1786
  C  C866  1  0.838100  0.975500  0.531900  1.0  -0.1909
  C  C867  1  0.387800  0.889200  0.647900  1.0  -0.1785
  C  C868  1  0.386900  0.880200  0.551700  1.0  -0.073
  C  C869  1  0.679600  0.203400  0.915500  1.0  0.127
  C  C870  1  0.629500  0.222000  0.934700  1.0  -0.1938
  C  C871  1  0.730800  0.216000  0.948200  1.0  -0.1813
  C  C872  1  0.731900  0.243600  0.995000  1.0  0.1776
  C  C873  1  0.636600  0.250200  0.986300  1.0  0.1702
  C  C874  1  0.736500  0.253400  0.206800  1.0  0.1789
  C  C875  1  0.634200  0.238100  0.181500  1.0  0.1513
  C  C876  1  0.632300  0.211200  0.231500  1.0  -0.1363
  C  C877  1  0.682500  0.205400  0.269200  1.0  -0.0326
  C  C878  1  0.734600  0.226500  0.256900  1.0  -0.0911
  C  C879  1  0.547200  0.957400  0.546300  1.0  -0.1906
  C  C880  1  0.463200  0.927400  0.595400  1.0  0.256
  C  C881  1  0.513400  0.956400  0.594300  1.0  0.0828
  C  C882  1  0.534100  0.986200  0.640100  1.0  -0.1204
  C  C883  1  0.436400  0.918300  0.643000  1.0  -0.1189
  C  C884  1  0.596600  0.988100  0.546100  1.0  0.163
  C  C885  1  0.582100  0.016100  0.638200  1.0  0.1357
  C  C886  1  0.437700  0.907300  0.548400  1.0  -0.1996
  C  C887  1  0.023900  0.624600  0.080600  1.0  -0.1294
  C  C888  1  0.358700  0.629200  0.099300  1.0  0.0901
  C  C889  1  0.645800  0.342900  0.264600  1.0  -0.0758
  C  C890  1  0.721500  0.359300  0.358500  1.0  -0.1144
  C  C891  1  0.641200  0.318900  0.315200  1.0  -0.1685
  C  C892  1  0.688000  0.376300  0.258000  1.0  -0.0589
  C  C893  1  0.933900  0.608000  0.124700  1.0  -0.1117
  C  C894  1  0.868500  0.542700  0.081500  1.0  0.0928
  C  C895  1  0.983000  0.635200  0.124400  1.0  -0.1139
  C  C896  1  0.920800  0.571800  0.080500  1.0  -0.0049
  C  C897  1  0.010800  0.592200  0.038700  1.0  -0.0652
  C  C898  1  0.679400  0.325200  0.363800  1.0  0.0844
  C  C899  1  0.690400  0.402200  0.201500  1.0  0.685
  C  C900  1  0.309300  0.658400  0.105100  1.0  0.6662
  C  C901  1  0.726700  0.385400  0.307100  1.0  -0.1321
  C  C902  1  0.076100  0.651800  0.079900  1.0  0.5983
  C  C903  1  0.958300  0.566600  0.037700  1.0  -0.1222
  C  C904  1  0.795100  0.503300  0.132100  1.0  0.1777
  C  C905  1  0.843900  0.533100  0.132400  1.0  -0.202
  C  C906  1  0.790500  0.495000  0.035900  1.0  0.1758
  C  C907  1  0.679400  0.323900  0.820800  1.0  0.0234
  C  C908  1  0.631600  0.351800  0.830100  1.0  -0.1256
  C  C909  1  0.632400  0.379500  0.879700  1.0  -0.0218
  C  C910  1  0.681200  0.379200  0.920100  1.0  0.0211
  C  C911  1  0.729000  0.351300  0.910800  1.0  -0.0337
  C  C912  1  0.728100  0.323600  0.861200  1.0  -0.1782
  C  C913  1  0.838100  0.524500  0.031900  1.0  -0.1908
  C  C914  1  0.387800  0.610800  0.147900  1.0  -0.179
  C  C915  1  0.386900  0.619800  0.051700  1.0  -0.0729
  C  C916  1  0.679600  0.296600  0.415500  1.0  0.1272
  C  C917  1  0.629500  0.278000  0.434700  1.0  -0.1936
  C  C918  1  0.730800  0.284000  0.448200  1.0  -0.1812
  C  C919  1  0.731900  0.256400  0.495000  1.0  0.1779
  C  C920  1  0.636600  0.249800  0.486300  1.0  0.1702
  C  C921  1  0.736500  0.246600  0.706800  1.0  0.1785
  C  C922  1  0.634200  0.261900  0.681500  1.0  0.1489
  C  C923  1  0.632300  0.288800  0.731500  1.0  -0.1364
  C  C924  1  0.682500  0.294600  0.769200  1.0  -0.0327
  C  C925  1  0.734600  0.273500  0.756900  1.0  -0.0909
  C  C926  1  0.547200  0.542600  0.046300  1.0  -0.1903
  C  C927  1  0.463200  0.572600  0.095400  1.0  0.256
  C  C928  1  0.513400  0.543600  0.094300  1.0  0.0829
  C  C929  1  0.534100  0.513800  0.140100  1.0  -0.1204
  C  C930  1  0.436400  0.581700  0.143000  1.0  -0.1194
  C  C931  1  0.596600  0.511900  0.046100  1.0  0.1631
  C  C932  1  0.582100  0.483900  0.138200  1.0  0.1356
  C  C933  1  0.437700  0.592700  0.048400  1.0  -0.1997
  C  C934  1  0.523900  0.124600  0.580600  1.0  -0.1294
  C  C935  1  0.858700  0.129200  0.599300  1.0  0.0901
  C  C936  1  0.145800  0.842900  0.764600  1.0  -0.0758
  C  C937  1  0.221500  0.859300  0.858500  1.0  -0.1144
  C  C938  1  0.141200  0.818900  0.815200  1.0  -0.1685
  C  C939  1  0.188000  0.876300  0.758000  1.0  -0.0589
  C  C940  1  0.433900  0.108000  0.624700  1.0  -0.1117
  C  C941  1  0.368500  0.042700  0.581500  1.0  0.0928
  C  C942  1  0.483000  0.135200  0.624400  1.0  -0.1139
  C  C943  1  0.420800  0.071800  0.580500  1.0  -0.0049
  C  C944  1  0.510800  0.092200  0.538700  1.0  -0.0652
  C  C945  1  0.179400  0.825200  0.863800  1.0  0.0844
  C  C946  1  0.190400  0.902200  0.701500  1.0  0.685
  C  C947  1  0.809300  0.158400  0.605100  1.0  0.6662
  C  C948  1  0.226700  0.885400  0.807100  1.0  -0.1321
  C  C949  1  0.576100  0.151800  0.579900  1.0  0.5983
  C  C950  1  0.458300  0.066600  0.537700  1.0  -0.1222
  C  C951  1  0.295100  0.003300  0.632100  1.0  0.1777
  C  C952  1  0.343900  0.033100  0.632400  1.0  -0.202
  C  C953  1  0.290500  0.995000  0.535900  1.0  0.1758
  C  C954  1  0.179400  0.823900  0.320800  1.0  0.0234
  C  C955  1  0.131600  0.851800  0.330100  1.0  -0.1256
  C  C956  1  0.132400  0.879500  0.379700  1.0  -0.0218
  C  C957  1  0.181200  0.879200  0.420100  1.0  0.0211
  C  C958  1  0.229000  0.851300  0.410800  1.0  -0.0337
  C  C959  1  0.228100  0.823600  0.361200  1.0  -0.1782
  C  C960  1  0.338100  0.024500  0.531900  1.0  -0.1908
  C  C961  1  0.887800  0.110800  0.647900  1.0  -0.179
  C  C962  1  0.886900  0.119800  0.551700  1.0  -0.0729
  C  C963  1  0.179600  0.796600  0.915500  1.0  0.1272
  C  C964  1  0.129500  0.778000  0.934700  1.0  -0.1936
  C  C965  1  0.230800  0.784000  0.948200  1.0  -0.1812
  C  C966  1  0.231900  0.756400  0.995000  1.0  0.1779
  C  C967  1  0.136600  0.749800  0.986300  1.0  0.1702
  C  C968  1  0.236500  0.746600  0.206800  1.0  0.1785
  C  C969  1  0.134200  0.761900  0.181500  1.0  0.1489
  C  C970  1  0.132300  0.788800  0.231500  1.0  -0.1364
  C  C971  1  0.182500  0.794600  0.269200  1.0  -0.0327
  C  C972  1  0.234600  0.773500  0.256900  1.0  -0.0909
  C  C973  1  0.047200  0.042600  0.546300  1.0  -0.1903
  C  C974  1  0.963200  0.072600  0.595400  1.0  0.256
  C  C975  1  0.013400  0.043600  0.594300  1.0  0.0829
  C  C976  1  0.034100  0.013800  0.640100  1.0  -0.1204
  C  C977  1  0.936400  0.081700  0.643000  1.0  -0.1194
  C  C978  1  0.096600  0.011900  0.546100  1.0  0.1631
  C  C979  1  0.082100  0.983900  0.638200  1.0  0.1356
  C  C980  1  0.937700  0.092700  0.548400  1.0  -0.1997
  N  N981  1  0.155600  0.485800  0.347300  1.0  -0.3599
  N  N982  1  0.222000  0.236000  0.767300  1.0  -0.3501
  N  N983  1  0.307000  0.491200  0.345500  1.0  -0.3784
  N  N984  1  0.241300  0.244100  0.916800  1.0  -0.3822
  N  N985  1  0.655600  0.985800  0.847300  1.0  -0.3599
  N  N986  1  0.722000  0.736000  0.267300  1.0  -0.3501
  N  N987  1  0.807000  0.991200  0.845500  1.0  -0.3784
  N  N988  1  0.741300  0.744100  0.416800  1.0  -0.3822
  N  N989  1  0.296300  0.914200  0.053800  1.0  -0.3097
  N  N990  1  0.881700  0.332900  0.633300  1.0  -0.339
  N  N991  1  0.796300  0.414200  0.553800  1.0  -0.3097
  N  N992  1  0.381700  0.832900  0.133300  1.0  -0.339
  N  N993  1  0.796300  0.085800  0.053800  1.0  -0.3107
  N  N994  1  0.381700  0.667100  0.633300  1.0  -0.341
  N  N995  1  0.296300  0.585800  0.553800  1.0  -0.3107
  N  N996  1  0.881700  0.167100  0.133300  1.0  -0.341
  N  N997  1  0.635500  0.593800  0.867100  1.0  -0.3532
  N  N998  1  0.045900  0.166700  0.285800  1.0  -0.3453
  N  N999  1  0.135500  0.093800  0.367100  1.0  -0.3532
  N  N1000  1  0.545900  0.666667  0.785800  1.0  -0.3419
  N  N1001  1  0.135500  0.406200  0.867100  1.0  -0.3544
  N  N1002  1  0.545900  0.833300  0.285800  1.0  -0.3456
  N  N1003  1  0.635500  0.906200  0.367100  1.0  -0.3543
  N  N1004  1  0.045900  0.333333  0.785800  1.0  -0.3421
  N  N1005  1  0.655600  0.514200  0.347300  1.0  -0.3604
  N  N1006  1  0.722000  0.764000  0.767300  1.0  -0.3505
  N  N1007  1  0.807000  0.508800  0.345500  1.0  -0.3781
  N  N1008  1  0.741300  0.755900  0.916800  1.0  -0.3819
  N  N1009  1  0.155600  0.014200  0.847300  1.0  -0.3604
  N  N1010  1  0.222000  0.264000  0.267300  1.0  -0.3505
  N  N1011  1  0.307000  0.008800  0.845500  1.0  -0.3781
  N  N1012  1  0.241300  0.255900  0.416800  1.0  -0.3819
  N  N1013  1  0.269600  0.516100  0.086100  1.0  -0.337
  N  N1014  1  0.184600  0.761700  0.515100  1.0  -0.3376
  N  N1015  1  0.186300  0.759200  0.669200  1.0  -0.3669
  N  N1016  1  0.116000  0.514500  0.091800  1.0  -0.3481
  N  N1017  1  0.769600  0.016100  0.586100  1.0  -0.337
  N  N1018  1  0.684600  0.261700  0.015100  1.0  -0.3376
  N  N1019  1  0.686300  0.259200  0.169200  1.0  -0.3669
  N  N1020  1  0.616000  0.014500  0.591800  1.0  -0.3481
  N  N1021  1  0.769600  0.483900  0.086100  1.0  -0.3387
  N  N1022  1  0.684600  0.238300  0.515100  1.0  -0.3371
  N  N1023  1  0.686300  0.240800  0.669200  1.0  -0.3683
  N  N1024  1  0.616000  0.485500  0.091800  1.0  -0.3479
  N  N1025  1  0.269600  0.983900  0.586100  1.0  -0.3387
  N  N1026  1  0.184600  0.738300  0.015100  1.0  -0.3371
  N  N1027  1  0.186300  0.740800  0.169200  1.0  -0.3683
  N  N1028  1  0.116000  0.985500  0.591800  1.0  -0.3479
  O  O1029  1  0.810500  0.648600  0.379900  1.0  -0.6035
  O  O1030  1  0.271300  0.393800  0.272300  1.0  -0.5737
  O  O1031  1  0.206800  0.444100  0.229300  1.0  -0.6529
  O  O1032  1  0.206100  0.391500  0.413200  1.0  -0.6351
  O  O1033  1  0.273500  0.436100  0.460600  1.0  -0.6112
  O  O1034  1  0.657600  0.641700  0.303700  1.0  -0.6447
  O  O1035  1  0.626600  0.690100  0.366600  1.0  -0.5894
  O  O1036  1  0.844000  0.693500  0.312200  1.0  -0.5324
  O  O1037  1  0.310500  0.148600  0.879900  1.0  -0.6035
  O  O1038  1  0.771300  0.893800  0.772300  1.0  -0.5737
  O  O1039  1  0.706800  0.944100  0.729300  1.0  -0.6529
  O  O1040  1  0.706100  0.891500  0.913200  1.0  -0.6351
  O  O1041  1  0.773500  0.936100  0.960600  1.0  -0.6112
  O  O1042  1  0.157600  0.141700  0.803700  1.0  -0.645
  O  O1043  1  0.126600  0.190100  0.866600  1.0  -0.5894
  O  O1044  1  0.344000  0.193500  0.812200  1.0  -0.5322
  O  O1045  1  0.861000  0.141500  0.952200  1.0  -0.5686
  O  O1046  1  0.982900  0.114400  0.050500  1.0  -0.6364
  O  O1047  1  0.894200  0.202300  0.003600  1.0  -0.6319
  O  O1048  1  0.930700  0.052000  0.052600  1.0  -0.6191
  O  O1049  1  0.361000  0.641500  0.452200  1.0  -0.5686
  O  O1050  1  0.482900  0.614400  0.550500  1.0  -0.6364
  O  O1051  1  0.394200  0.702300  0.503600  1.0  -0.6319
  O  O1052  1  0.430700  0.552000  0.552600  1.0  -0.6191
  O  O1053  1  0.361000  0.858500  0.952200  1.0  -0.5688
  O  O1054  1  0.482900  0.885600  0.050500  1.0  -0.6362
  O  O1055  1  0.394200  0.797700  0.003600  1.0  -0.6317
  O  O1056  1  0.430700  0.948000  0.052600  1.0  -0.6218
  O  O1057  1  0.861000  0.358500  0.452200  1.0  -0.5688
  O  O1058  1  0.982900  0.385600  0.550500  1.0  -0.6362
  O  O1059  1  0.894200  0.297700  0.503600  1.0  -0.6317
  O  O1060  1  0.930700  0.448000  0.552600  1.0  -0.6218
  O  O1061  1  0.059900  0.367500  0.970900  1.0  -0.6036
  O  O1062  1  0.039300  0.305000  0.921100  1.0  -0.6026
  O  O1063  1  0.948600  0.393000  0.863800  1.0  -0.5997
  O  O1064  1  0.006300  0.452800  0.865600  1.0  -0.6744
  O  O1065  1  0.559900  0.867500  0.470900  1.0  -0.6036
  O  O1066  1  0.539300  0.805000  0.421100  1.0  -0.6026
  O  O1067  1  0.448600  0.893000  0.363800  1.0  -0.5997
  O  O1068  1  0.506300  0.952800  0.365600  1.0  -0.6746
  O  O1069  1  0.559900  0.632500  0.970900  1.0  -0.6034
  O  O1070  1  0.539300  0.695000  0.921100  1.0  -0.6028
  O  O1071  1  0.448600  0.607000  0.863800  1.0  -0.6005
  O  O1072  1  0.506300  0.547200  0.865600  1.0  -0.6735
  O  O1073  1  0.059900  0.132500  0.470900  1.0  -0.6034
  O  O1074  1  0.039300  0.195000  0.421100  1.0  -0.6028
  O  O1075  1  0.948600  0.107000  0.363800  1.0  -0.6005
  O  O1076  1  0.006300  0.047200  0.365600  1.0  -0.6736
  O  O1077  1  0.310500  0.351400  0.379900  1.0  -0.6027
  O  O1078  1  0.771300  0.606200  0.272300  1.0  -0.5731
  O  O1079  1  0.706800  0.555900  0.229300  1.0  -0.6528
  O  O1080  1  0.706100  0.608500  0.413200  1.0  -0.6344
  O  O1081  1  0.773500  0.563900  0.460600  1.0  -0.6108
  O  O1082  1  0.157600  0.358300  0.303700  1.0  -0.6441
  O  O1083  1  0.126600  0.309900  0.366600  1.0  -0.5893
  O  O1084  1  0.344000  0.306500  0.312200  1.0  -0.5343
  O  O1085  1  0.810500  0.851400  0.879900  1.0  -0.6027
  O  O1086  1  0.271300  0.106200  0.772300  1.0  -0.5731
  O  O1087  1  0.206800  0.055900  0.729300  1.0  -0.6528
  O  O1088  1  0.206100  0.108500  0.913200  1.0  -0.6344
  O  O1089  1  0.273500  0.063900  0.960600  1.0  -0.6108
  O  O1090  1  0.657600  0.858300  0.803700  1.0  -0.6446
  O  O1091  1  0.626600  0.809900  0.866600  1.0  -0.5893
  O  O1092  1  0.844000  0.806500  0.812200  1.0  -0.5339
  O  O1093  1  0.223000  0.562800  0.202400  1.0  -0.6625
  O  O1094  1  0.580300  0.309000  0.112700  1.0  -0.6779
  O  O1095  1  0.166100  0.613000  0.157200  1.0  -0.6077
  O  O1096  1  0.616400  0.359400  0.046700  1.0  -0.6504
  O  O1097  1  0.768900  0.356100  0.128800  1.0  -0.596
  O  O1098  1  0.802600  0.309100  0.067200  1.0  -0.6584
  O  O1099  1  0.723000  0.062800  0.702400  1.0  -0.6625
  O  O1100  1  0.080300  0.809000  0.612700  1.0  -0.6779
  O  O1101  1  0.666100  0.113000  0.657200  1.0  -0.6077
  O  O1102  1  0.116400  0.859400  0.546700  1.0  -0.6504
  O  O1103  1  0.268900  0.856100  0.628800  1.0  -0.596
  O  O1104  1  0.302600  0.809100  0.567200  1.0  -0.6584
  O  O1105  1  0.723000  0.437200  0.202400  1.0  -0.6631
  O  O1106  1  0.080300  0.691000  0.112700  1.0  -0.6785
  O  O1107  1  0.666100  0.387000  0.157200  1.0  -0.6084
  O  O1108  1  0.116400  0.640600  0.046700  1.0  -0.6521
  O  O1109  1  0.268900  0.643900  0.128800  1.0  -0.5964
  O  O1110  1  0.302600  0.690900  0.067200  1.0  -0.6578
  O  O1111  1  0.223000  0.937200  0.702400  1.0  -0.6631
  O  O1112  1  0.580300  0.191000  0.612700  1.0  -0.6785
  O  O1113  1  0.166100  0.887000  0.657200  1.0  -0.6084
  O  O1114  1  0.616400  0.140600  0.546700  1.0  -0.6521
  O  O1115  1  0.768900  0.143900  0.628800  1.0  -0.5964
  O  O1116  1  0.802600  0.190900  0.567200  1.0  -0.6578
