# generated using pymatgen
data_Zn5H72(C16O5)6
_symmetry_space_group_name_H-M   'P 1'
_cell_length_a   25.12200000
_cell_length_b   25.12200000
_cell_length_c   23.41200000
_cell_angle_alpha   90.00000000
_cell_angle_beta   90.00000000
_cell_angle_gamma   90.00000000
_symmetry_Int_Tables_number   1
_chemical_formula_structural   Zn5H72(C16O5)6
_chemical_formula_sum   'Zn20 H288 C384 O120'
_cell_volume   14775.66166421
_cell_formula_units_Z   4
loop_
 _symmetry_equiv_pos_site_id
 _symmetry_equiv_pos_as_xyz
  1  'x, y, z'
loop_
 _atom_site_type_symbol
 _atom_site_label
 _atom_site_symmetry_multiplicity
 _atom_site_fract_x
 _atom_site_fract_y
 _atom_site_fract_z
 _atom_site_occupancy
 _atom_site_charge
  Zn  Zn1  1  0.537500  0.093000  0.951500  1.0  0.9911
  Zn  Zn2  1  0.619300  0.058200  0.054500  1.0  1.0366
  Zn  Zn3  1  0.462500  0.907000  0.951500  1.0  0.9948
  Zn  Zn4  1  0.380700  0.941800  0.054500  1.0  1.0364
  Zn  Zn5  1  0.407000  0.962500  0.451500  1.0  0.9911
  Zn  Zn6  1  0.441800  0.880700  0.554500  1.0  1.0381
  Zn  Zn7  1  0.593000  0.037500  0.451500  1.0  0.9956
  Zn  Zn8  1  0.558200  0.119300  0.554500  1.0  1.0377
  Zn  Zn9  1  0.500000  0.000000  0.032500  1.0  1.0704
  Zn  Zn10  1  0.500000  0.000000  0.532500  1.0  1.0704
  Zn  Zn11  1  0.093000  0.462500  0.048500  1.0  0.9949
  Zn  Zn12  1  0.058200  0.380700  0.945500  1.0  1.0349
  Zn  Zn13  1  0.907000  0.537500  0.048500  1.0  0.9928
  Zn  Zn14  1  0.941800  0.619300  0.945500  1.0  1.0355
  Zn  Zn15  1  0.962500  0.593000  0.548500  1.0  0.9914
  Zn  Zn16  1  0.880700  0.558200  0.445500  1.0  1.0336
  Zn  Zn17  1  0.037500  0.407000  0.548500  1.0  0.9956
  Zn  Zn18  1  0.119300  0.441800  0.445500  1.0  1.0337
  Zn  Zn19  1  0.000000  0.500000  0.967500  1.0  1.0728
  Zn  Zn20  1  0.000000  0.500000  0.467500  1.0  1.0728
  H  H21  1  0.544000  0.209800  0.190000  1.0  0.0618
  H  H22  1  0.706100  0.466800  0.148400  1.0  0.0804
  H  H23  1  0.755700  0.433900  0.170900  1.0  0.078
  H  H24  1  0.784300  0.528000  0.212200  1.0  0.091
  H  H25  1  0.798800  0.516800  0.147200  1.0  0.086
  H  H26  1  0.749000  0.604100  0.102100  1.0  0.0768
  H  H27  1  0.788900  0.599200  0.152600  1.0  0.0763
  H  H28  1  0.696500  0.655100  0.151900  1.0  0.0723
  H  H29  1  0.754300  0.678100  0.151000  1.0  0.0726
  H  H30  1  0.666200  0.650900  0.410100  1.0  0.0714
  H  H31  1  0.715600  0.689700  0.414800  1.0  0.1057
  H  H32  1  0.773900  0.603600  0.407700  1.0  0.1145
  H  H33  1  0.745200  0.610100  0.467700  1.0  0.0907
  H  H34  1  0.735800  0.510900  0.464700  1.0  0.0758
  H  H35  1  0.764800  0.515300  0.405100  1.0  0.08
  H  H36  1  0.711700  0.437200  0.417000  1.0  0.0622
  H  H37  1  0.661700  0.475000  0.413900  1.0  0.0743
  H  H38  1  0.568200  0.806100  0.205200  1.0  0.0987
  H  H39  1  0.545400  0.877400  0.143200  1.0  0.0838
  H  H40  1  0.686800  0.934400  0.149300  1.0  0.0719
  H  H41  1  0.720400  0.858600  0.201900  1.0  0.1221
  H  H42  1  0.688200  0.201900  0.131900  1.0  0.0794
  H  H43  1  0.704000  0.284200  0.171800  1.0  0.0743
  H  H44  1  0.564300  0.291400  0.233500  1.0  0.103
  H  H45  1  0.684400  0.381700  0.185100  1.0  0.0753
  H  H46  1  0.654100  0.387700  0.379700  1.0  0.1174
  H  H47  1  0.571200  0.322900  0.384900  1.0  0.1263
  H  H48  1  0.556000  0.251000  0.440600  1.0  0.0516
  H  H49  1  0.663800  0.169600  0.367400  1.0  0.1338
  H  H50  1  0.683700  0.239000  0.306700  1.0  0.0913
  H  H51  1  0.687500  0.729700  0.182800  1.0  0.1476
  H  H52  1  0.658800  0.734800  0.375300  1.0  0.1339
  H  H53  1  0.550600  0.792600  0.305800  1.0  0.0843
  H  H54  1  0.498700  0.846600  0.366400  1.0  0.0817
  H  H55  1  0.632800  0.919100  0.420500  1.0  0.1111
  H  H56  1  0.676500  0.868300  0.346900  1.0  0.0707
  H  H57  1  0.456000  0.790200  0.190000  1.0  0.0613
  H  H58  1  0.293900  0.533200  0.148400  1.0  0.0813
  H  H59  1  0.244300  0.566100  0.170900  1.0  0.0807
  H  H60  1  0.215700  0.472000  0.212200  1.0  0.0925
  H  H61  1  0.201200  0.483200  0.147200  1.0  0.0862
  H  H62  1  0.251000  0.395900  0.102100  1.0  0.0772
  H  H63  1  0.211100  0.400800  0.152600  1.0  0.0756
  H  H64  1  0.303500  0.344900  0.151900  1.0  0.0696
  H  H65  1  0.245700  0.321900  0.151000  1.0  0.0716
  H  H66  1  0.333800  0.349100  0.410100  1.0  0.0687
  H  H67  1  0.284400  0.310300  0.414800  1.0  0.1074
  H  H68  1  0.226100  0.396400  0.407700  1.0  0.1154
  H  H69  1  0.254800  0.389900  0.467700  1.0  0.0906
  H  H70  1  0.264200  0.489100  0.464700  1.0  0.0752
  H  H71  1  0.235200  0.484700  0.405100  1.0  0.0791
  H  H72  1  0.288300  0.562800  0.417000  1.0  0.0619
  H  H73  1  0.338300  0.525000  0.413900  1.0  0.0739
  H  H74  1  0.431800  0.193900  0.205200  1.0  0.101
  H  H75  1  0.454600  0.122600  0.143200  1.0  0.0853
  H  H76  1  0.313200  0.065600  0.149300  1.0  0.0728
  H  H77  1  0.279600  0.141400  0.201900  1.0  0.1231
  H  H78  1  0.311800  0.798100  0.131900  1.0  0.079
  H  H79  1  0.296000  0.715800  0.171800  1.0  0.0734
  H  H80  1  0.435700  0.708600  0.233500  1.0  0.1055
  H  H81  1  0.315600  0.618300  0.185100  1.0  0.0755
  H  H82  1  0.345900  0.612300  0.379700  1.0  0.1162
  H  H83  1  0.428800  0.677100  0.384900  1.0  0.1266
  H  H84  1  0.444000  0.749000  0.440600  1.0  0.052
  H  H85  1  0.336200  0.830400  0.367400  1.0  0.1334
  H  H86  1  0.316300  0.761000  0.306700  1.0  0.0915
  H  H87  1  0.312500  0.270300  0.182800  1.0  0.1466
  H  H88  1  0.341200  0.265200  0.375300  1.0  0.1345
  H  H89  1  0.449400  0.207400  0.305800  1.0  0.081
  H  H90  1  0.501300  0.153400  0.366400  1.0  0.0808
  H  H91  1  0.367200  0.080900  0.420500  1.0  0.1115
  H  H92  1  0.323500  0.131700  0.346900  1.0  0.071
  H  H93  1  0.290200  0.956000  0.690000  1.0  0.0616
  H  H94  1  0.033200  0.793900  0.648400  1.0  0.0796
  H  H95  1  0.066100  0.744300  0.670900  1.0  0.0802
  H  H96  1  0.972000  0.715700  0.712200  1.0  0.0912
  H  H97  1  0.983200  0.701200  0.647200  1.0  0.0864
  H  H98  1  0.895900  0.751000  0.602100  1.0  0.0752
  H  H99  1  0.900800  0.711100  0.652600  1.0  0.0776
  H  H100  1  0.844900  0.803500  0.651900  1.0  0.0693
  H  H101  1  0.821900  0.745700  0.651000  1.0  0.0703
  H  H102  1  0.849100  0.833800  0.910100  1.0  0.0741
  H  H103  1  0.810300  0.784400  0.914800  1.0  0.1096
  H  H104  1  0.896400  0.726100  0.907700  1.0  0.1144
  H  H105  1  0.889900  0.754800  0.967700  1.0  0.0907
  H  H106  1  0.989100  0.764200  0.964700  1.0  0.0762
  H  H107  1  0.984700  0.735200  0.905100  1.0  0.0802
  H  H108  1  0.062800  0.788300  0.917000  1.0  0.0593
  H  H109  1  0.025000  0.838300  0.913900  1.0  0.0744
  H  H110  1  0.693900  0.931800  0.705200  1.0  0.1015
  H  H111  1  0.622600  0.954600  0.643200  1.0  0.0863
  H  H112  1  0.565600  0.813200  0.649300  1.0  0.0727
  H  H113  1  0.641400  0.779600  0.701900  1.0  0.1235
  H  H114  1  0.298100  0.811800  0.631900  1.0  0.0796
  H  H115  1  0.215800  0.796000  0.671800  1.0  0.0732
  H  H116  1  0.208600  0.935700  0.733500  1.0  0.1059
  H  H117  1  0.118300  0.815600  0.685100  1.0  0.075
  H  H118  1  0.112300  0.845900  0.879700  1.0  0.1169
  H  H119  1  0.177100  0.928800  0.884900  1.0  0.1265
  H  H120  1  0.249000  0.944000  0.940600  1.0  0.0518
  H  H121  1  0.330400  0.836200  0.867400  1.0  0.1326
  H  H122  1  0.261000  0.816300  0.806700  1.0  0.092
  H  H123  1  0.770300  0.812500  0.682800  1.0  0.1466
  H  H124  1  0.765200  0.841200  0.875300  1.0  0.1344
  H  H125  1  0.707400  0.949400  0.805800  1.0  0.0832
  H  H126  1  0.653400  0.001300  0.866400  1.0  0.0793
  H  H127  1  0.580900  0.867200  0.920500  1.0  0.1117
  H  H128  1  0.631700  0.823500  0.846900  1.0  0.0732
  H  H129  1  0.709800  0.044000  0.690000  1.0  0.0607
  H  H130  1  0.966800  0.206100  0.648400  1.0  0.078
  H  H131  1  0.933900  0.255700  0.670900  1.0  0.0784
  H  H132  1  0.028000  0.284300  0.712200  1.0  0.0909
  H  H133  1  0.016800  0.298800  0.647200  1.0  0.0861
  H  H134  1  0.104100  0.249000  0.602100  1.0  0.0745
  H  H135  1  0.099200  0.288900  0.652600  1.0  0.0829
  H  H136  1  0.155100  0.196500  0.651900  1.0  0.0677
  H  H137  1  0.178100  0.254300  0.651000  1.0  0.0695
  H  H138  1  0.150900  0.166200  0.910100  1.0  0.0721
  H  H139  1  0.189700  0.215600  0.914800  1.0  0.1083
  H  H140  1  0.103600  0.273900  0.907700  1.0  0.1152
  H  H141  1  0.110100  0.245200  0.967700  1.0  0.091
  H  H142  1  0.010900  0.235800  0.964700  1.0  0.0764
  H  H143  1  0.015300  0.264800  0.905100  1.0  0.0803
  H  H144  1  0.937200  0.211700  0.917000  1.0  0.0596
  H  H145  1  0.975000  0.161700  0.913900  1.0  0.0721
  H  H146  1  0.306100  0.068200  0.705200  1.0  0.0989
  H  H147  1  0.377400  0.045400  0.643200  1.0  0.0835
  H  H148  1  0.434400  0.186800  0.649300  1.0  0.0732
  H  H149  1  0.358600  0.220400  0.701900  1.0  0.1227
  H  H150  1  0.701900  0.188200  0.631900  1.0  0.0795
  H  H151  1  0.784200  0.204000  0.671800  1.0  0.073
  H  H152  1  0.791400  0.064300  0.733500  1.0  0.1021
  H  H153  1  0.881700  0.184400  0.685100  1.0  0.0748
  H  H154  1  0.887700  0.154100  0.879700  1.0  0.1155
  H  H155  1  0.822900  0.071200  0.884900  1.0  0.1263
  H  H156  1  0.751000  0.056000  0.940600  1.0  0.0514
  H  H157  1  0.669600  0.163800  0.867400  1.0  0.1326
  H  H158  1  0.739000  0.183700  0.806700  1.0  0.0916
  H  H159  1  0.229700  0.187500  0.682800  1.0  0.1461
  H  H160  1  0.234800  0.158800  0.875300  1.0  0.1337
  H  H161  1  0.292600  0.050600  0.805800  1.0  0.0843
  H  H162  1  0.346600  0.998700  0.866400  1.0  0.079
  H  H163  1  0.419100  0.132800  0.920500  1.0  0.1119
  H  H164  1  0.368300  0.176500  0.846900  1.0  0.0721
  H  H165  1  0.209800  0.456000  0.810000  1.0  0.0628
  H  H166  1  0.466800  0.293900  0.851600  1.0  0.0818
  H  H167  1  0.433900  0.244300  0.829100  1.0  0.0779
  H  H168  1  0.528000  0.215700  0.787800  1.0  0.0926
  H  H169  1  0.516800  0.201200  0.852800  1.0  0.0873
  H  H170  1  0.604100  0.251000  0.897900  1.0  0.0756
  H  H171  1  0.599200  0.211100  0.847400  1.0  0.0815
  H  H172  1  0.655100  0.303500  0.848100  1.0  0.0701
  H  H173  1  0.678100  0.245700  0.849000  1.0  0.0691
  H  H174  1  0.650900  0.333800  0.589900  1.0  0.0739
  H  H175  1  0.689700  0.284400  0.585200  1.0  0.1105
  H  H176  1  0.603600  0.226100  0.592300  1.0  0.1144
  H  H177  1  0.610100  0.254800  0.532300  1.0  0.0911
  H  H178  1  0.510900  0.264200  0.535300  1.0  0.0776
  H  H179  1  0.515300  0.235200  0.594900  1.0  0.0798
  H  H180  1  0.437200  0.288300  0.583000  1.0  0.0597
  H  H181  1  0.475000  0.338300  0.586100  1.0  0.0744
  H  H182  1  0.806100  0.431800  0.794800  1.0  0.0975
  H  H183  1  0.877400  0.454600  0.856800  1.0  0.0839
  H  H184  1  0.934400  0.313200  0.850700  1.0  0.0734
  H  H185  1  0.858600  0.279600  0.798100  1.0  0.1231
  H  H186  1  0.201900  0.311800  0.868100  1.0  0.0799
  H  H187  1  0.284200  0.296000  0.828200  1.0  0.0734
  H  H188  1  0.291400  0.435700  0.766500  1.0  0.1021
  H  H189  1  0.381700  0.315600  0.814900  1.0  0.073
  H  H190  1  0.387700  0.345900  0.620300  1.0  0.1163
  H  H191  1  0.322900  0.428800  0.615100  1.0  0.1271
  H  H192  1  0.251000  0.444000  0.559400  1.0  0.0518
  H  H193  1  0.169600  0.336200  0.632600  1.0  0.1328
  H  H194  1  0.239000  0.316300  0.693300  1.0  0.0921
  H  H195  1  0.729700  0.312500  0.817200  1.0  0.1453
  H  H196  1  0.734800  0.341200  0.624700  1.0  0.1342
  H  H197  1  0.792600  0.449400  0.694200  1.0  0.0826
  H  H198  1  0.846600  0.501300  0.633600  1.0  0.0794
  H  H199  1  0.919100  0.367200  0.579500  1.0  0.1119
  H  H200  1  0.868300  0.323500  0.653100  1.0  0.0725
  H  H201  1  0.790200  0.544000  0.810000  1.0  0.06
  H  H202  1  0.533200  0.706100  0.851600  1.0  0.0821
  H  H203  1  0.566100  0.755700  0.829100  1.0  0.0771
  H  H204  1  0.472000  0.784300  0.787800  1.0  0.0924
  H  H205  1  0.483200  0.798800  0.852800  1.0  0.0865
  H  H206  1  0.395900  0.749000  0.897900  1.0  0.0754
  H  H207  1  0.400800  0.788900  0.847400  1.0  0.0795
  H  H208  1  0.344900  0.696500  0.848100  1.0  0.0683
  H  H209  1  0.321900  0.754300  0.849000  1.0  0.0702
  H  H210  1  0.349100  0.666200  0.589900  1.0  0.0714
  H  H211  1  0.310300  0.715600  0.585200  1.0  0.11
  H  H212  1  0.396400  0.773900  0.592300  1.0  0.1143
  H  H213  1  0.389900  0.745200  0.532300  1.0  0.0911
  H  H214  1  0.489100  0.735800  0.535300  1.0  0.0775
  H  H215  1  0.484700  0.764800  0.594900  1.0  0.0791
  H  H216  1  0.562800  0.711700  0.583000  1.0  0.0604
  H  H217  1  0.525000  0.661700  0.586100  1.0  0.0712
  H  H218  1  0.193900  0.568200  0.794800  1.0  0.1011
  H  H219  1  0.122600  0.545400  0.856800  1.0  0.0837
  H  H220  1  0.065600  0.686800  0.850700  1.0  0.074
  H  H221  1  0.141400  0.720400  0.798100  1.0  0.1235
  H  H222  1  0.798100  0.688200  0.868100  1.0  0.0792
  H  H223  1  0.715800  0.704000  0.828200  1.0  0.0735
  H  H224  1  0.708600  0.564300  0.766500  1.0  0.1071
  H  H225  1  0.618300  0.684400  0.814900  1.0  0.0745
  H  H226  1  0.612300  0.654100  0.620300  1.0  0.1168
  H  H227  1  0.677100  0.571200  0.615100  1.0  0.1263
  H  H228  1  0.749000  0.556000  0.559400  1.0  0.0514
  H  H229  1  0.830400  0.663800  0.632600  1.0  0.1325
  H  H230  1  0.761000  0.683700  0.693300  1.0  0.0916
  H  H231  1  0.270300  0.687500  0.817200  1.0  0.1448
  H  H232  1  0.265200  0.658800  0.624700  1.0  0.1324
  H  H233  1  0.207400  0.550600  0.694200  1.0  0.0844
  H  H234  1  0.153400  0.498700  0.633600  1.0  0.0792
  H  H235  1  0.080900  0.632800  0.579500  1.0  0.1116
  H  H236  1  0.131700  0.676500  0.653100  1.0  0.0716
  H  H237  1  0.956000  0.709800  0.310000  1.0  0.0623
  H  H238  1  0.793900  0.966800  0.351600  1.0  0.0805
  H  H239  1  0.744300  0.933900  0.329100  1.0  0.0791
  H  H240  1  0.715700  0.028000  0.287800  1.0  0.092
  H  H241  1  0.701200  0.016800  0.352800  1.0  0.0861
  H  H242  1  0.751000  0.104100  0.397900  1.0  0.0764
  H  H243  1  0.711100  0.099200  0.347400  1.0  0.0771
  H  H244  1  0.803500  0.155100  0.348100  1.0  0.0697
  H  H245  1  0.745700  0.178100  0.349000  1.0  0.0712
  H  H246  1  0.833800  0.150900  0.089900  1.0  0.0685
  H  H247  1  0.784400  0.189700  0.085200  1.0  0.1077
  H  H248  1  0.726100  0.103600  0.092300  1.0  0.1141
  H  H249  1  0.754800  0.110100  0.032300  1.0  0.091
  H  H250  1  0.764200  0.010900  0.035300  1.0  0.0769
  H  H251  1  0.735200  0.015300  0.094900  1.0  0.0778
  H  H252  1  0.788300  0.937200  0.083000  1.0  0.0616
  H  H253  1  0.838300  0.975000  0.086100  1.0  0.0745
  H  H254  1  0.931800  0.306100  0.294800  1.0  0.0984
  H  H255  1  0.954600  0.377400  0.356800  1.0  0.0839
  H  H256  1  0.813200  0.434400  0.350700  1.0  0.0726
  H  H257  1  0.779600  0.358600  0.298100  1.0  0.1229
  H  H258  1  0.811800  0.701900  0.368100  1.0  0.0793
  H  H259  1  0.796000  0.784200  0.328200  1.0  0.073
  H  H260  1  0.935700  0.791400  0.266500  1.0  0.1035
  H  H261  1  0.815600  0.881700  0.314900  1.0  0.0741
  H  H262  1  0.845900  0.887700  0.120300  1.0  0.117
  H  H263  1  0.928800  0.822900  0.115100  1.0  0.1271
  H  H264  1  0.944000  0.751000  0.059400  1.0  0.0517
  H  H265  1  0.836200  0.669600  0.132600  1.0  0.1329
  H  H266  1  0.816300  0.739000  0.193300  1.0  0.0915
  H  H267  1  0.812500  0.229700  0.317200  1.0  0.1452
  H  H268  1  0.841200  0.234800  0.124700  1.0  0.1338
  H  H269  1  0.949400  0.292600  0.194200  1.0  0.0828
  H  H270  1  0.001300  0.346600  0.133600  1.0  0.0813
  H  H271  1  0.867200  0.419100  0.079500  1.0  0.1111
  H  H272  1  0.823500  0.368300  0.153100  1.0  0.0702
  H  H273  1  0.044000  0.290200  0.310000  1.0  0.062
  H  H274  1  0.206100  0.033200  0.351600  1.0  0.0816
  H  H275  1  0.255700  0.066100  0.329100  1.0  0.0765
  H  H276  1  0.284300  0.972000  0.287800  1.0  0.0931
  H  H277  1  0.298800  0.983200  0.352800  1.0  0.0871
  H  H278  1  0.249000  0.895900  0.397900  1.0  0.0783
  H  H279  1  0.288900  0.900800  0.347400  1.0  0.0741
  H  H280  1  0.196500  0.844900  0.348100  1.0  0.0724
  H  H281  1  0.254300  0.821900  0.349000  1.0  0.0728
  H  H282  1  0.166200  0.849100  0.089900  1.0  0.0714
  H  H283  1  0.215600  0.810300  0.085200  1.0  0.1081
  H  H284  1  0.273900  0.896400  0.092300  1.0  0.1147
  H  H285  1  0.245200  0.889900  0.032300  1.0  0.0909
  H  H286  1  0.235800  0.989100  0.035300  1.0  0.0764
  H  H287  1  0.264800  0.984700  0.094900  1.0  0.0793
  H  H288  1  0.211700  0.062800  0.083000  1.0  0.0625
  H  H289  1  0.161700  0.025000  0.086100  1.0  0.0745
  H  H290  1  0.068200  0.693900  0.294800  1.0  0.099
  H  H291  1  0.045400  0.622600  0.356800  1.0  0.0833
  H  H292  1  0.186800  0.565600  0.350700  1.0  0.0728
  H  H293  1  0.220400  0.641400  0.298100  1.0  0.123
  H  H294  1  0.188200  0.298100  0.368100  1.0  0.0788
  H  H295  1  0.204000  0.215800  0.328200  1.0  0.0745
  H  H296  1  0.064300  0.208600  0.266500  1.0  0.108
  H  H297  1  0.184400  0.118300  0.314900  1.0  0.0752
  H  H298  1  0.154100  0.112300  0.120300  1.0  0.1172
  H  H299  1  0.071200  0.177100  0.115100  1.0  0.1256
  H  H300  1  0.056000  0.249000  0.059400  1.0  0.0517
  H  H301  1  0.163800  0.330400  0.132600  1.0  0.1342
  H  H302  1  0.183700  0.261000  0.193300  1.0  0.0914
  H  H303  1  0.187500  0.770300  0.317200  1.0  0.1474
  H  H304  1  0.158800  0.765200  0.124700  1.0  0.133
  H  H305  1  0.050600  0.707400  0.194200  1.0  0.0847
  H  H306  1  0.998700  0.653400  0.133600  1.0  0.0817
  H  H307  1  0.132800  0.580900  0.079500  1.0  0.1114
  H  H308  1  0.176500  0.631700  0.153100  1.0  0.0699
  C  C309  1  0.598000  0.150000  0.120000  1.0  0.6805
  C  C310  1  0.610000  0.198000  0.154000  1.0  -0.0145
  C  C311  1  0.578000  0.224000  0.185000  1.0  -0.0786
  C  C312  1  0.734600  0.465800  0.176300  1.0  -0.0002
  C  C313  1  0.770200  0.518800  0.174900  1.0  0.0526
  C  C314  1  0.751000  0.601000  0.143000  1.0  0.0979
  C  C315  1  0.732000  0.650000  0.166000  1.0  0.0815
  C  C316  1  0.704000  0.655000  0.401000  1.0  -0.0124
  C  C317  1  0.740000  0.607000  0.427000  1.0  -0.0839
  C  C318  1  0.730000  0.514000  0.424000  1.0  0.1188
  C  C319  1  0.699000  0.471000  0.402000  1.0  0.1174
  C  C320  1  0.645000  0.824000  0.207000  1.0  0.0755
  C  C321  1  0.594000  0.830000  0.192000  1.0  -0.1954
  C  C322  1  0.580000  0.874000  0.156000  1.0  -0.0281
  C  C323  1  0.615000  0.910000  0.140000  1.0  -0.1058
  C  C324  1  0.664000  0.907000  0.158000  1.0  -0.021
  C  C325  1  0.685000  0.862000  0.192000  1.0  -0.1141
  C  C326  1  0.599000  0.959000  0.106000  1.0  0.6874
  C  C327  1  0.661000  0.220000  0.152000  1.0  -0.1499
  C  C328  1  0.672000  0.268000  0.179000  1.0  -0.1385
  C  C329  1  0.640000  0.291000  0.213000  1.0  0.2795
  C  C330  1  0.591000  0.273000  0.214000  1.0  -0.1067
  C  C331  1  0.656000  0.338000  0.248000  1.0  -0.0073
  C  C332  1  0.678000  0.382000  0.224000  1.0  -0.1361
  C  C333  1  0.692000  0.425000  0.252000  1.0  0.1989
  C  C334  1  0.685000  0.425000  0.313000  1.0  0.1578
  C  C335  1  0.661000  0.385000  0.341000  1.0  -0.1547
  C  C336  1  0.645000  0.338000  0.309000  1.0  -0.0099
  C  C337  1  0.633000  0.291000  0.342000  1.0  0.1044
  C  C338  1  0.592000  0.293000  0.381000  1.0  -0.2589
  C  C339  1  0.583000  0.249000  0.413000  1.0  -0.1085
  C  C340  1  0.607000  0.205000  0.410000  1.0  0.1235
  C  C341  1  0.645000  0.201000  0.371000  1.0  -0.1245
  C  C342  1  0.658000  0.244000  0.335000  1.0  -0.2125
  C  C343  1  0.596000  0.157000  0.450000  1.0  0.6748
  C  C344  1  0.696000  0.691000  0.312000  1.0  0.168
  C  C345  1  0.705000  0.693000  0.251000  1.0  0.2694
  C  C346  1  0.686000  0.733000  0.222000  1.0  -0.1061
  C  C347  1  0.662000  0.781000  0.244000  1.0  0.0136
  C  C348  1  0.651000  0.778000  0.303000  1.0  -0.0766
  C  C349  1  0.667000  0.735000  0.337000  1.0  -0.1649
  C  C350  1  0.618000  0.820000  0.330000  1.0  0.2433
  C  C351  1  0.567000  0.817000  0.329000  1.0  -0.1363
  C  C352  1  0.535000  0.852000  0.364000  1.0  -0.0834
  C  C353  1  0.560000  0.894000  0.395000  1.0  -0.09
  C  C354  1  0.614000  0.897000  0.396000  1.0  -0.1198
  C  C355  1  0.641000  0.861000  0.356000  1.0  -0.1011
  C  C356  1  0.526000  0.929000  0.429000  1.0  0.704
  C  C357  1  0.402000  0.850000  0.120000  1.0  0.6818
  C  C358  1  0.390000  0.802000  0.154000  1.0  -0.0176
  C  C359  1  0.422000  0.776000  0.185000  1.0  -0.0756
  C  C360  1  0.265400  0.534200  0.176300  1.0  0.0006
  C  C361  1  0.229800  0.481200  0.174900  1.0  0.0481
  C  C362  1  0.249000  0.399000  0.143000  1.0  0.0983
  C  C363  1  0.268000  0.350000  0.166000  1.0  0.0809
  C  C364  1  0.296000  0.345000  0.401000  1.0  -0.0116
  C  C365  1  0.260000  0.393000  0.427000  1.0  -0.0838
  C  C366  1  0.270000  0.486000  0.424000  1.0  0.1178
  C  C367  1  0.301000  0.529000  0.402000  1.0  0.117
  C  C368  1  0.355000  0.176000  0.207000  1.0  0.0758
  C  C369  1  0.406000  0.170000  0.192000  1.0  -0.1972
  C  C370  1  0.420000  0.126000  0.156000  1.0  -0.0264
  C  C371  1  0.385000  0.090000  0.140000  1.0  -0.106
  C  C372  1  0.336000  0.093000  0.158000  1.0  -0.021
  C  C373  1  0.315000  0.138000  0.192000  1.0  -0.1153
  C  C374  1  0.401000  0.041000  0.106000  1.0  0.6876
  C  C375  1  0.339000  0.780000  0.152000  1.0  -0.1487
  C  C376  1  0.328000  0.732000  0.179000  1.0  -0.1388
  C  C377  1  0.360000  0.709000  0.213000  1.0  0.2809
  C  C378  1  0.409000  0.727000  0.214000  1.0  -0.1051
  C  C379  1  0.344000  0.662000  0.248000  1.0  -0.0055
  C  C380  1  0.322000  0.618000  0.224000  1.0  -0.1332
  C  C381  1  0.308000  0.575000  0.252000  1.0  0.1993
  C  C382  1  0.315000  0.575000  0.313000  1.0  0.1555
  C  C383  1  0.339000  0.615000  0.341000  1.0  -0.1529
  C  C384  1  0.355000  0.662000  0.309000  1.0  -0.0104
  C  C385  1  0.367000  0.709000  0.342000  1.0  0.1051
  C  C386  1  0.408000  0.707000  0.381000  1.0  -0.2593
  C  C387  1  0.417000  0.751000  0.413000  1.0  -0.1023
  C  C388  1  0.393000  0.795000  0.410000  1.0  0.1243
  C  C389  1  0.355000  0.799000  0.371000  1.0  -0.1231
  C  C390  1  0.342000  0.756000  0.335000  1.0  -0.2132
  C  C391  1  0.404000  0.843000  0.450000  1.0  0.6737
  C  C392  1  0.304000  0.309000  0.312000  1.0  0.1679
  C  C393  1  0.295000  0.307000  0.251000  1.0  0.2698
  C  C394  1  0.314000  0.267000  0.222000  1.0  -0.109
  C  C395  1  0.338000  0.219000  0.244000  1.0  0.0146
  C  C396  1  0.349000  0.222000  0.303000  1.0  -0.0762
  C  C397  1  0.333000  0.265000  0.337000  1.0  -0.1653
  C  C398  1  0.382000  0.180000  0.330000  1.0  0.2435
  C  C399  1  0.433000  0.183000  0.329000  1.0  -0.1316
  C  C400  1  0.465000  0.148000  0.364000  1.0  -0.0785
  C  C401  1  0.440000  0.106000  0.395000  1.0  -0.0934
  C  C402  1  0.386000  0.103000  0.396000  1.0  -0.1215
  C  C403  1  0.359000  0.139000  0.356000  1.0  -0.104
  C  C404  1  0.474000  0.071000  0.429000  1.0  0.7038
  C  C405  1  0.350000  0.902000  0.620000  1.0  0.6814
  C  C406  1  0.302000  0.890000  0.654000  1.0  -0.0164
  C  C407  1  0.276000  0.922000  0.685000  1.0  -0.0782
  C  C408  1  0.034200  0.765400  0.676300  1.0  0.0016
  C  C409  1  0.981200  0.729800  0.674900  1.0  0.0455
  C  C410  1  0.899000  0.749000  0.643000  1.0  0.0997
  C  C411  1  0.850000  0.768000  0.666000  1.0  0.0795
  C  C412  1  0.845000  0.796000  0.901000  1.0  -0.0147
  C  C413  1  0.893000  0.760000  0.927000  1.0  -0.085
  C  C414  1  0.986000  0.770000  0.924000  1.0  0.1158
  C  C415  1  0.029000  0.801000  0.902000  1.0  0.1137
  C  C416  1  0.676000  0.855000  0.707000  1.0  0.0751
  C  C417  1  0.670000  0.906000  0.692000  1.0  -0.2003
  C  C418  1  0.626000  0.920000  0.656000  1.0  -0.0318
  C  C419  1  0.590000  0.885000  0.640000  1.0  -0.104
  C  C420  1  0.593000  0.836000  0.658000  1.0  -0.0208
  C  C421  1  0.638000  0.815000  0.692000  1.0  -0.1109
  C  C422  1  0.541000  0.901000  0.606000  1.0  0.6884
  C  C423  1  0.280000  0.839000  0.652000  1.0  -0.1494
  C  C424  1  0.232000  0.828000  0.679000  1.0  -0.1396
  C  C425  1  0.209000  0.860000  0.713000  1.0  0.279
  C  C426  1  0.227000  0.909000  0.714000  1.0  -0.1059
  C  C427  1  0.162000  0.844000  0.748000  1.0  -0.0069
  C  C428  1  0.118000  0.822000  0.724000  1.0  -0.1371
  C  C429  1  0.075000  0.808000  0.752000  1.0  0.1977
  C  C430  1  0.075000  0.815000  0.813000  1.0  0.1557
  C  C431  1  0.115000  0.839000  0.841000  1.0  -0.1574
  C  C432  1  0.162000  0.855000  0.809000  1.0  -0.0089
  C  C433  1  0.209000  0.867000  0.842000  1.0  0.1031
  C  C434  1  0.207000  0.908000  0.881000  1.0  -0.2598
  C  C435  1  0.251000  0.917000  0.913000  1.0  -0.1086
  C  C436  1  0.295000  0.893000  0.910000  1.0  0.1143
  C  C437  1  0.299000  0.855000  0.871000  1.0  -0.127
  C  C438  1  0.256000  0.842000  0.835000  1.0  -0.2114
  C  C439  1  0.343000  0.904000  0.950000  1.0  0.6744
  C  C440  1  0.809000  0.804000  0.812000  1.0  0.1688
  C  C441  1  0.807000  0.795000  0.751000  1.0  0.2706
  C  C442  1  0.767000  0.814000  0.722000  1.0  -0.1079
  C  C443  1  0.719000  0.838000  0.744000  1.0  0.0139
  C  C444  1  0.722000  0.849000  0.803000  1.0  -0.0771
  C  C445  1  0.765000  0.833000  0.837000  1.0  -0.163
  C  C446  1  0.680000  0.882000  0.830000  1.0  0.2455
  C  C447  1  0.683000  0.933000  0.829000  1.0  -0.1289
  C  C448  1  0.648000  0.965000  0.864000  1.0  -0.0793
  C  C449  1  0.606000  0.940000  0.895000  1.0  -0.092
  C  C450  1  0.603000  0.886000  0.896000  1.0  -0.1218
  C  C451  1  0.639000  0.859000  0.856000  1.0  -0.1052
  C  C452  1  0.571000  0.974000  0.929000  1.0  0.7038
  C  C453  1  0.650000  0.098000  0.620000  1.0  0.6811
  C  C454  1  0.698000  0.110000  0.654000  1.0  -0.0221
  C  C455  1  0.724000  0.078000  0.685000  1.0  -0.081
  C  C456  1  0.965800  0.234600  0.676300  1.0  -0.0003
  C  C457  1  0.018800  0.270200  0.674900  1.0  0.0474
  C  C458  1  0.101000  0.251000  0.643000  1.0  0.0989
  C  C459  1  0.150000  0.232000  0.666000  1.0  0.0788
  C  C460  1  0.155000  0.204000  0.901000  1.0  -0.0149
  C  C461  1  0.107000  0.240000  0.927000  1.0  -0.0809
  C  C462  1  0.014000  0.230000  0.924000  1.0  0.1194
  C  C463  1  0.971000  0.199000  0.902000  1.0  0.1169
  C  C464  1  0.324000  0.145000  0.707000  1.0  0.0758
  C  C465  1  0.330000  0.094000  0.692000  1.0  -0.1982
  C  C466  1  0.374000  0.080000  0.656000  1.0  -0.0321
  C  C467  1  0.410000  0.115000  0.640000  1.0  -0.104
  C  C468  1  0.407000  0.164000  0.658000  1.0  -0.0197
  C  C469  1  0.362000  0.185000  0.692000  1.0  -0.1149
  C  C470  1  0.459000  0.099000  0.606000  1.0  0.6875
  C  C471  1  0.720000  0.161000  0.652000  1.0  -0.1514
  C  C472  1  0.768000  0.172000  0.679000  1.0  -0.1406
  C  C473  1  0.791000  0.140000  0.713000  1.0  0.2798
  C  C474  1  0.773000  0.091000  0.714000  1.0  -0.1085
  C  C475  1  0.838000  0.156000  0.748000  1.0  -0.0066
  C  C476  1  0.882000  0.178000  0.724000  1.0  -0.139
  C  C477  1  0.925000  0.192000  0.752000  1.0  0.1991
  C  C478  1  0.925000  0.185000  0.813000  1.0  0.1585
  C  C479  1  0.885000  0.161000  0.841000  1.0  -0.1553
  C  C480  1  0.838000  0.145000  0.809000  1.0  -0.0096
  C  C481  1  0.791000  0.133000  0.842000  1.0  0.1051
  C  C482  1  0.793000  0.092000  0.881000  1.0  -0.259
  C  C483  1  0.749000  0.083000  0.913000  1.0  -0.0981
  C  C484  1  0.705000  0.107000  0.910000  1.0  0.1162
  C  C485  1  0.701000  0.145000  0.871000  1.0  -0.1251
  C  C486  1  0.744000  0.158000  0.835000  1.0  -0.2103
  C  C487  1  0.657000  0.096000  0.950000  1.0  0.6723
  C  C488  1  0.191000  0.196000  0.812000  1.0  0.1675
  C  C489  1  0.193000  0.205000  0.751000  1.0  0.2698
  C  C490  1  0.233000  0.186000  0.722000  1.0  -0.1085
  C  C491  1  0.281000  0.162000  0.744000  1.0  0.0136
  C  C492  1  0.278000  0.151000  0.803000  1.0  -0.0772
  C  C493  1  0.235000  0.167000  0.837000  1.0  -0.1627
  C  C494  1  0.320000  0.118000  0.830000  1.0  0.2453
  C  C495  1  0.317000  0.067000  0.829000  1.0  -0.1355
  C  C496  1  0.352000  0.035000  0.864000  1.0  -0.0789
  C  C497  1  0.394000  0.060000  0.895000  1.0  -0.091
  C  C498  1  0.397000  0.114000  0.896000  1.0  -0.12
  C  C499  1  0.361000  0.141000  0.856000  1.0  -0.104
  C  C500  1  0.429000  0.026000  0.929000  1.0  0.7047
  C  C501  1  0.150000  0.402000  0.880000  1.0  0.6803
  C  C502  1  0.198000  0.390000  0.846000  1.0  -0.0211
  C  C503  1  0.224000  0.422000  0.815000  1.0  -0.0833
  C  C504  1  0.465800  0.265400  0.823700  1.0  -0.0012
  C  C505  1  0.518800  0.229800  0.825100  1.0  0.0465
  C  C506  1  0.601000  0.249000  0.857000  1.0  0.1002
  C  C507  1  0.650000  0.268000  0.834000  1.0  0.0802
  C  C508  1  0.655000  0.296000  0.599000  1.0  -0.0159
  C  C509  1  0.607000  0.260000  0.573000  1.0  -0.0832
  C  C510  1  0.514000  0.270000  0.576000  1.0  0.1167
  C  C511  1  0.471000  0.301000  0.598000  1.0  0.1142
  C  C512  1  0.824000  0.355000  0.793000  1.0  0.0737
  C  C513  1  0.830000  0.406000  0.808000  1.0  -0.1998
  C  C514  1  0.874000  0.420000  0.844000  1.0  -0.0311
  C  C515  1  0.910000  0.385000  0.860000  1.0  -0.1044
  C  C516  1  0.907000  0.336000  0.842000  1.0  -0.0198
  C  C517  1  0.862000  0.315000  0.808000  1.0  -0.1125
  C  C518  1  0.959000  0.401000  0.894000  1.0  0.6879
  C  C519  1  0.220000  0.339000  0.848000  1.0  -0.1521
  C  C520  1  0.268000  0.328000  0.821000  1.0  -0.1364
  C  C521  1  0.291000  0.360000  0.787000  1.0  0.2787
  C  C522  1  0.273000  0.409000  0.786000  1.0  -0.1094
  C  C523  1  0.338000  0.344000  0.752000  1.0  -0.007
  C  C524  1  0.382000  0.322000  0.776000  1.0  -0.1347
  C  C525  1  0.425000  0.308000  0.748000  1.0  0.1992
  C  C526  1  0.425000  0.315000  0.687000  1.0  0.1565
  C  C527  1  0.385000  0.339000  0.659000  1.0  -0.1569
  C  C528  1  0.338000  0.355000  0.691000  1.0  -0.0067
  C  C529  1  0.291000  0.367000  0.658000  1.0  0.1045
  C  C530  1  0.293000  0.408000  0.619000  1.0  -0.2582
  C  C531  1  0.249000  0.417000  0.587000  1.0  -0.1064
  C  C532  1  0.205000  0.393000  0.590000  1.0  0.1162
  C  C533  1  0.201000  0.355000  0.629000  1.0  -0.1257
  C  C534  1  0.244000  0.342000  0.665000  1.0  -0.2123
  C  C535  1  0.157000  0.404000  0.550000  1.0  0.6728
  C  C536  1  0.691000  0.304000  0.688000  1.0  0.1679
  C  C537  1  0.693000  0.295000  0.749000  1.0  0.2703
  C  C538  1  0.733000  0.314000  0.778000  1.0  -0.107
  C  C539  1  0.781000  0.338000  0.756000  1.0  0.0132
  C  C540  1  0.778000  0.349000  0.697000  1.0  -0.0773
  C  C541  1  0.735000  0.333000  0.663000  1.0  -0.1669
  C  C542  1  0.820000  0.382000  0.670000  1.0  0.2461
  C  C543  1  0.817000  0.433000  0.671000  1.0  -0.1308
  C  C544  1  0.852000  0.465000  0.636000  1.0  -0.0789
  C  C545  1  0.894000  0.440000  0.605000  1.0  -0.0924
  C  C546  1  0.897000  0.386000  0.604000  1.0  -0.1211
  C  C547  1  0.861000  0.359000  0.644000  1.0  -0.1047
  C  C548  1  0.929000  0.474000  0.571000  1.0  0.7043
  C  C549  1  0.850000  0.598000  0.880000  1.0  0.6799
  C  C550  1  0.802000  0.610000  0.846000  1.0  -0.0171
  C  C551  1  0.776000  0.578000  0.815000  1.0  -0.0793
  C  C552  1  0.534200  0.734600  0.823700  1.0  0.0006
  C  C553  1  0.481200  0.770200  0.825100  1.0  0.0471
  C  C554  1  0.399000  0.751000  0.857000  1.0  0.1014
  C  C555  1  0.350000  0.732000  0.834000  1.0  0.0823
  C  C556  1  0.345000  0.704000  0.599000  1.0  -0.0156
  C  C557  1  0.393000  0.740000  0.573000  1.0  -0.0837
  C  C558  1  0.486000  0.730000  0.576000  1.0  0.1179
  C  C559  1  0.529000  0.699000  0.598000  1.0  0.1142
  C  C560  1  0.176000  0.645000  0.793000  1.0  0.0746
  C  C561  1  0.170000  0.594000  0.808000  1.0  -0.2004
  C  C562  1  0.126000  0.580000  0.844000  1.0  -0.0341
  C  C563  1  0.090000  0.615000  0.860000  1.0  -0.1041
  C  C564  1  0.093000  0.664000  0.842000  1.0  -0.0202
  C  C565  1  0.138000  0.685000  0.808000  1.0  -0.1127
  C  C566  1  0.041000  0.599000  0.894000  1.0  0.6895
  C  C567  1  0.780000  0.661000  0.848000  1.0  -0.1507
  C  C568  1  0.732000  0.672000  0.821000  1.0  -0.1395
  C  C569  1  0.709000  0.640000  0.787000  1.0  0.2777
  C  C570  1  0.727000  0.591000  0.786000  1.0  -0.1065
  C  C571  1  0.662000  0.656000  0.752000  1.0  -0.0063
  C  C572  1  0.618000  0.678000  0.776000  1.0  -0.1352
  C  C573  1  0.575000  0.692000  0.748000  1.0  0.1982
  C  C574  1  0.575000  0.685000  0.687000  1.0  0.1558
  C  C575  1  0.615000  0.661000  0.659000  1.0  -0.1572
  C  C576  1  0.662000  0.645000  0.691000  1.0  -0.0092
  C  C577  1  0.709000  0.633000  0.658000  1.0  0.1026
  C  C578  1  0.707000  0.592000  0.619000  1.0  -0.2605
  C  C579  1  0.751000  0.583000  0.587000  1.0  -0.1086
  C  C580  1  0.795000  0.607000  0.590000  1.0  0.1152
  C  C581  1  0.799000  0.645000  0.629000  1.0  -0.1268
  C  C582  1  0.756000  0.658000  0.665000  1.0  -0.2116
  C  C583  1  0.843000  0.596000  0.550000  1.0  0.6733
  C  C584  1  0.309000  0.696000  0.688000  1.0  0.1699
  C  C585  1  0.307000  0.705000  0.749000  1.0  0.2705
  C  C586  1  0.267000  0.686000  0.778000  1.0  -0.1067
  C  C587  1  0.219000  0.662000  0.756000  1.0  0.0137
  C  C588  1  0.222000  0.651000  0.697000  1.0  -0.0784
  C  C589  1  0.265000  0.667000  0.663000  1.0  -0.1656
  C  C590  1  0.180000  0.618000  0.670000  1.0  0.2459
  C  C591  1  0.183000  0.567000  0.671000  1.0  -0.132
  C  C592  1  0.148000  0.535000  0.636000  1.0  -0.0789
  C  C593  1  0.106000  0.560000  0.605000  1.0  -0.0921
  C  C594  1  0.103000  0.614000  0.604000  1.0  -0.1206
  C  C595  1  0.139000  0.641000  0.644000  1.0  -0.1068
  C  C596  1  0.071000  0.526000  0.571000  1.0  0.7034
  C  C597  1  0.902000  0.650000  0.380000  1.0  0.6804
  C  C598  1  0.890000  0.698000  0.346000  1.0  -0.0172
  C  C599  1  0.922000  0.724000  0.315000  1.0  -0.0781
  C  C600  1  0.765400  0.965800  0.323700  1.0  -0.0
  C  C601  1  0.729800  0.018800  0.325100  1.0  0.0485
  C  C602  1  0.749000  0.101000  0.357000  1.0  0.1
  C  C603  1  0.768000  0.150000  0.334000  1.0  0.0857
  C  C604  1  0.796000  0.155000  0.099000  1.0  -0.0147
  C  C605  1  0.760000  0.107000  0.073000  1.0  -0.0835
  C  C606  1  0.770000  0.014000  0.076000  1.0  0.1184
  C  C607  1  0.801000  0.971000  0.098000  1.0  0.1155
  C  C608  1  0.855000  0.324000  0.293000  1.0  0.075
  C  C609  1  0.906000  0.330000  0.308000  1.0  -0.1973
  C  C610  1  0.920000  0.374000  0.344000  1.0  -0.0271
  C  C611  1  0.885000  0.410000  0.360000  1.0  -0.1069
  C  C612  1  0.836000  0.407000  0.342000  1.0  -0.0219
  C  C613  1  0.815000  0.362000  0.308000  1.0  -0.1153
  C  C614  1  0.901000  0.459000  0.394000  1.0  0.6891
  C  C615  1  0.839000  0.720000  0.348000  1.0  -0.1505
  C  C616  1  0.828000  0.768000  0.321000  1.0  -0.138
  C  C617  1  0.860000  0.791000  0.287000  1.0  0.279
  C  C618  1  0.909000  0.773000  0.286000  1.0  -0.108
  C  C619  1  0.844000  0.838000  0.252000  1.0  -0.0045
  C  C620  1  0.822000  0.882000  0.276000  1.0  -0.1332
  C  C621  1  0.808000  0.925000  0.248000  1.0  0.1999
  C  C622  1  0.815000  0.925000  0.187000  1.0  0.156
  C  C623  1  0.839000  0.885000  0.159000  1.0  -0.1549
  C  C624  1  0.855000  0.838000  0.191000  1.0  -0.0076
  C  C625  1  0.867000  0.791000  0.158000  1.0  0.1048
  C  C626  1  0.908000  0.793000  0.119000  1.0  -0.2582
  C  C627  1  0.917000  0.749000  0.087000  1.0  -0.1062
  C  C628  1  0.893000  0.705000  0.090000  1.0  0.1244
  C  C629  1  0.855000  0.701000  0.129000  1.0  -0.1247
  C  C630  1  0.842000  0.744000  0.165000  1.0  -0.2133
  C  C631  1  0.904000  0.657000  0.050000  1.0  0.6739
  C  C632  1  0.804000  0.191000  0.188000  1.0  0.1692
  C  C633  1  0.795000  0.193000  0.249000  1.0  0.2684
  C  C634  1  0.814000  0.233000  0.278000  1.0  -0.1063
  C  C635  1  0.838000  0.281000  0.256000  1.0  0.0135
  C  C636  1  0.849000  0.278000  0.197000  1.0  -0.0768
  C  C637  1  0.833000  0.235000  0.163000  1.0  -0.1671
  C  C638  1  0.882000  0.320000  0.170000  1.0  0.2444
  C  C639  1  0.933000  0.317000  0.171000  1.0  -0.131
  C  C640  1  0.965000  0.352000  0.136000  1.0  -0.0768
  C  C641  1  0.940000  0.394000  0.105000  1.0  -0.0926
  C  C642  1  0.886000  0.397000  0.104000  1.0  -0.1196
  C  C643  1  0.859000  0.361000  0.144000  1.0  -0.1054
  C  C644  1  0.974000  0.429000  0.071000  1.0  0.7031
  C  C645  1  0.098000  0.350000  0.380000  1.0  0.6802
  C  C646  1  0.110000  0.302000  0.346000  1.0  -0.0149
  C  C647  1  0.078000  0.276000  0.315000  1.0  -0.0764
  C  C648  1  0.234600  0.034200  0.323700  1.0  -0.0005
  C  C649  1  0.270200  0.981200  0.325100  1.0  0.0527
  C  C650  1  0.251000  0.899000  0.357000  1.0  0.0996
  C  C651  1  0.232000  0.850000  0.334000  1.0  0.0838
  C  C652  1  0.204000  0.845000  0.099000  1.0  -0.0128
  C  C653  1  0.240000  0.893000  0.073000  1.0  -0.0846
  C  C654  1  0.230000  0.986000  0.076000  1.0  0.1181
  C  C655  1  0.199000  0.029000  0.098000  1.0  0.1177
  C  C656  1  0.145000  0.676000  0.293000  1.0  0.0736
  C  C657  1  0.094000  0.670000  0.308000  1.0  -0.1971
  C  C658  1  0.080000  0.626000  0.344000  1.0  -0.0284
  C  C659  1  0.115000  0.590000  0.360000  1.0  -0.1048
  C  C660  1  0.164000  0.593000  0.342000  1.0  -0.0203
  C  C661  1  0.185000  0.638000  0.308000  1.0  -0.1142
  C  C662  1  0.099000  0.541000  0.394000  1.0  0.6872
  C  C663  1  0.161000  0.280000  0.348000  1.0  -0.1499
  C  C664  1  0.172000  0.232000  0.321000  1.0  -0.1374
  C  C665  1  0.140000  0.209000  0.287000  1.0  0.2779
  C  C666  1  0.091000  0.227000  0.286000  1.0  -0.1078
  C  C667  1  0.156000  0.162000  0.252000  1.0  -0.0074
  C  C668  1  0.178000  0.118000  0.276000  1.0  -0.1321
  C  C669  1  0.192000  0.075000  0.248000  1.0  0.2001
  C  C670  1  0.185000  0.075000  0.187000  1.0  0.1567
  C  C671  1  0.161000  0.115000  0.159000  1.0  -0.1533
  C  C672  1  0.145000  0.162000  0.191000  1.0  -0.0108
  C  C673  1  0.133000  0.209000  0.158000  1.0  0.1041
  C  C674  1  0.092000  0.207000  0.119000  1.0  -0.2599
  C  C675  1  0.083000  0.251000  0.087000  1.0  -0.1097
  C  C676  1  0.107000  0.295000  0.090000  1.0  0.1247
  C  C677  1  0.145000  0.299000  0.129000  1.0  -0.1235
  C  C678  1  0.158000  0.256000  0.165000  1.0  -0.213
  C  C679  1  0.096000  0.343000  0.050000  1.0  0.6747
  C  C680  1  0.196000  0.809000  0.188000  1.0  0.1684
  C  C681  1  0.205000  0.807000  0.249000  1.0  0.2705
  C  C682  1  0.186000  0.767000  0.278000  1.0  -0.1046
  C  C683  1  0.162000  0.719000  0.256000  1.0  0.0136
  C  C684  1  0.151000  0.722000  0.197000  1.0  -0.0768
  C  C685  1  0.167000  0.765000  0.163000  1.0  -0.1678
  C  C686  1  0.118000  0.680000  0.170000  1.0  0.2437
  C  C687  1  0.067000  0.683000  0.171000  1.0  -0.1365
  C  C688  1  0.035000  0.648000  0.136000  1.0  -0.0835
  C  C689  1  0.060000  0.606000  0.105000  1.0  -0.0914
  C  C690  1  0.114000  0.603000  0.104000  1.0  -0.1207
  C  C691  1  0.141000  0.639000  0.144000  1.0  -0.1045
  C  C692  1  0.026000  0.571000  0.071000  1.0  0.7041
  O  O693  1  0.634000  0.122000  0.100000  1.0  -0.5903
  O  O694  1  0.548000  0.138000  0.118000  1.0  -0.5495
  O  O695  1  0.716000  0.470000  0.231000  1.0  -0.3368
  O  O696  1  0.729000  0.553000  0.158000  1.0  -0.3552
  O  O697  1  0.731000  0.654000  0.226000  1.0  -0.2772
  O  O698  1  0.712000  0.651000  0.342000  1.0  -0.2997
  O  O699  1  0.702000  0.560000  0.412000  1.0  -0.4131
  O  O700  1  0.703000  0.472000  0.341000  1.0  -0.3493
  O  O701  1  0.563000  0.166000  0.490000  1.0  -0.6145
  O  O702  1  0.621000  0.116000  0.444000  1.0  -0.6013
  O  O703  1  0.545600  0.960000  0.465000  1.0  -0.6636
  O  O704  1  0.477000  0.927000  0.422000  1.0  -0.6203
  O  O705  1  0.633000  0.991000  0.092000  1.0  -0.5897
  O  O706  1  0.549000  0.962000  0.093400  1.0  -0.6671
  O  O707  1  0.546000  0.065000  0.033000  1.0  -0.7645
  O  O708  1  0.366000  0.878000  0.100000  1.0  -0.5894
  O  O709  1  0.452000  0.862000  0.118000  1.0  -0.55
  O  O710  1  0.284000  0.530000  0.231000  1.0  -0.337
  O  O711  1  0.271000  0.447000  0.158000  1.0  -0.3548
  O  O712  1  0.269000  0.346000  0.226000  1.0  -0.2769
  O  O713  1  0.288000  0.349000  0.342000  1.0  -0.2967
  O  O714  1  0.298000  0.440000  0.412000  1.0  -0.414
  O  O715  1  0.297000  0.528000  0.341000  1.0  -0.3491
  O  O716  1  0.437000  0.834000  0.490000  1.0  -0.614
  O  O717  1  0.379000  0.884000  0.444000  1.0  -0.6005
  O  O718  1  0.454400  0.040000  0.465000  1.0  -0.6691
  O  O719  1  0.523000  0.073000  0.422000  1.0  -0.6201
  O  O720  1  0.367000  0.009000  0.092000  1.0  -0.5852
  O  O721  1  0.451000  0.038000  0.093400  1.0  -0.6656
  O  O722  1  0.454000  0.935000  0.033000  1.0  -0.7649
  O  O723  1  0.378000  0.866000  0.600000  1.0  -0.5896
  O  O724  1  0.362000  0.952000  0.618000  1.0  -0.5489
  O  O725  1  0.030000  0.784000  0.731000  1.0  -0.3347
  O  O726  1  0.947000  0.771000  0.658000  1.0  -0.3577
  O  O727  1  0.846000  0.769000  0.726000  1.0  -0.2837
  O  O728  1  0.849000  0.788000  0.842000  1.0  -0.2995
  O  O729  1  0.940000  0.798000  0.912000  1.0  -0.41
  O  O730  1  0.028000  0.797000  0.841000  1.0  -0.3484
  O  O731  1  0.334000  0.937000  0.990000  1.0  -0.6155
  O  O732  1  0.384000  0.879000  0.944000  1.0  -0.6029
  O  O733  1  0.540000  0.954400  0.965000  1.0  -0.6657
  O  O734  1  0.573000  0.023000  0.922000  1.0  -0.6226
  O  O735  1  0.509000  0.867000  0.592000  1.0  -0.5843
  O  O736  1  0.538000  0.951000  0.593400  1.0  -0.6676
  O  O737  1  0.435000  0.954000  0.533000  1.0  -0.764
  O  O738  1  0.622000  0.134000  0.600000  1.0  -0.5891
  O  O739  1  0.638000  0.048000  0.618000  1.0  -0.551
  O  O740  1  0.970000  0.216000  0.731000  1.0  -0.3361
  O  O741  1  0.053000  0.229000  0.658000  1.0  -0.3551
  O  O742  1  0.154000  0.231000  0.726000  1.0  -0.2788
  O  O743  1  0.151000  0.212000  0.842000  1.0  -0.2991
  O  O744  1  0.060000  0.202000  0.912000  1.0  -0.4086
  O  O745  1  0.972000  0.203000  0.841000  1.0  -0.35
  O  O746  1  0.666000  0.063000  0.990000  1.0  -0.6154
  O  O747  1  0.616000  0.121000  0.944000  1.0  -0.602
  O  O748  1  0.460000  0.045600  0.965000  1.0  -0.6624
  O  O749  1  0.427000  0.977000  0.922000  1.0  -0.6213
  O  O750  1  0.491000  0.133000  0.592000  1.0  -0.5884
  O  O751  1  0.462000  0.049000  0.593400  1.0  -0.6666
  O  O752  1  0.565000  0.046000  0.533000  1.0  -0.7647
  O  O753  1  0.122000  0.366000  0.900000  1.0  -0.5895
  O  O754  1  0.138000  0.452000  0.882000  1.0  -0.5495
  O  O755  1  0.470000  0.284000  0.769000  1.0  -0.3352
  O  O756  1  0.553000  0.271000  0.842000  1.0  -0.3548
  O  O757  1  0.654000  0.269000  0.774000  1.0  -0.2762
  O  O758  1  0.651000  0.288000  0.658000  1.0  -0.2975
  O  O759  1  0.560000  0.298000  0.588000  1.0  -0.4086
  O  O760  1  0.472000  0.297000  0.659000  1.0  -0.3494
  O  O761  1  0.166000  0.437000  0.510000  1.0  -0.616
  O  O762  1  0.116000  0.379000  0.556000  1.0  -0.6022
  O  O763  1  0.960000  0.454400  0.535000  1.0  -0.6657
  O  O764  1  0.927000  0.523000  0.578000  1.0  -0.6222
  O  O765  1  0.991000  0.367000  0.908000  1.0  -0.5889
  O  O766  1  0.962000  0.451000  0.906600  1.0  -0.6666
  O  O767  1  0.065000  0.454000  0.967000  1.0  -0.7647
  O  O768  1  0.878000  0.634000  0.900000  1.0  -0.5887
  O  O769  1  0.862000  0.548000  0.882000  1.0  -0.5485
  O  O770  1  0.530000  0.716000  0.769000  1.0  -0.3311
  O  O771  1  0.447000  0.729000  0.842000  1.0  -0.3545
  O  O772  1  0.346000  0.731000  0.774000  1.0  -0.2784
  O  O773  1  0.349000  0.712000  0.658000  1.0  -0.299
  O  O774  1  0.440000  0.702000  0.588000  1.0  -0.4098
  O  O775  1  0.528000  0.703000  0.659000  1.0  -0.3505
  O  O776  1  0.834000  0.563000  0.510000  1.0  -0.6152
  O  O777  1  0.884000  0.621000  0.556000  1.0  -0.6021
  O  O778  1  0.040000  0.545600  0.535000  1.0  -0.663
  O  O779  1  0.073000  0.477000  0.578000  1.0  -0.6218
  O  O780  1  0.009000  0.633000  0.908000  1.0  -0.5873
  O  O781  1  0.038000  0.549000  0.906600  1.0  -0.6667
  O  O782  1  0.935000  0.546000  0.967000  1.0  -0.7642
  O  O783  1  0.866000  0.622000  0.400000  1.0  -0.5897
  O  O784  1  0.952000  0.638000  0.382000  1.0  -0.5497
  O  O785  1  0.784000  0.970000  0.269000  1.0  -0.3345
  O  O786  1  0.771000  0.053000  0.342000  1.0  -0.3541
  O  O787  1  0.769000  0.154000  0.274000  1.0  -0.2747
  O  O788  1  0.788000  0.151000  0.158000  1.0  -0.2988
  O  O789  1  0.798000  0.060000  0.088000  1.0  -0.4141
  O  O790  1  0.797000  0.972000  0.159000  1.0  -0.3504
  O  O791  1  0.937000  0.666000  0.010000  1.0  -0.6139
  O  O792  1  0.879000  0.616000  0.056000  1.0  -0.601
  O  O793  1  0.954400  0.460000  0.035000  1.0  -0.6697
  O  O794  1  0.023000  0.427000  0.078000  1.0  -0.62
  O  O795  1  0.867000  0.491000  0.408000  1.0  -0.5889
  O  O796  1  0.951000  0.462000  0.406600  1.0  -0.6652
  O  O797  1  0.954000  0.565000  0.467000  1.0  -0.7657
  O  O798  1  0.134000  0.378000  0.400000  1.0  -0.5899
  O  O799  1  0.048000  0.362000  0.382000  1.0  -0.5491
  O  O800  1  0.216000  0.030000  0.269000  1.0  -0.3325
  O  O801  1  0.229000  0.947000  0.342000  1.0  -0.3544
  O  O802  1  0.231000  0.846000  0.274000  1.0  -0.2758
  O  O803  1  0.212000  0.849000  0.158000  1.0  -0.2984
  O  O804  1  0.202000  0.940000  0.088000  1.0  -0.4143
  O  O805  1  0.203000  0.028000  0.159000  1.0  -0.3508
  O  O806  1  0.063000  0.334000  0.010000  1.0  -0.6145
  O  O807  1  0.121000  0.384000  0.056000  1.0  -0.6003
  O  O808  1  0.045600  0.540000  0.035000  1.0  -0.664
  O  O809  1  0.977000  0.573000  0.078000  1.0  -0.6199
  O  O810  1  0.133000  0.509000  0.408000  1.0  -0.5901
  O  O811  1  0.049000  0.538000  0.406600  1.0  -0.6667
  O  O812  1  0.046000  0.435000  0.467000  1.0  -0.7633
