# generated using pymatgen
data_Zn5H72(C16O5)6
_symmetry_space_group_name_H-M   'P 1'
_cell_length_a   25.10700000
_cell_length_b   25.10700000
_cell_length_c   23.53100000
_cell_angle_alpha   90.00000000
_cell_angle_beta   90.00000000
_cell_angle_gamma   90.00000000
_symmetry_Int_Tables_number   1
_chemical_formula_structural   Zn5H72(C16O5)6
_chemical_formula_sum   'Zn20 H288 C384 O120'
_cell_volume   14833.03525642
_cell_formula_units_Z   4
loop_
 _symmetry_equiv_pos_site_id
 _symmetry_equiv_pos_as_xyz
  1  'x, y, z'
loop_
 _atom_site_type_symbol
 _atom_site_label
 _atom_site_symmetry_multiplicity
 _atom_site_fract_x
 _atom_site_fract_y
 _atom_site_fract_z
 _atom_site_occupancy
 _atom_site_charge
  Zn  Zn1  1  0.037690  0.407730  0.048330  1.0  0.996
  Zn  Zn2  1  0.119080  0.439940  0.944800  1.0  1.0524
  Zn  Zn3  1  0.962310  0.592270  0.048330  1.0  0.9951
  Zn  Zn4  1  0.880920  0.560060  0.944800  1.0  1.0517
  Zn  Zn5  1  0.092270  0.462310  0.548330  1.0  0.9955
  Zn  Zn6  1  0.060060  0.380920  0.444800  1.0  1.0529
  Zn  Zn7  1  0.907730  0.537690  0.548330  1.0  0.9952
  Zn  Zn8  1  0.939940  0.619080  0.444800  1.0  1.0537
  Zn  Zn9  1  0.000000  0.500000  0.966560  1.0  1.005
  Zn  Zn10  1  0.000000  0.500000  0.466560  1.0  1.005
  Zn  Zn11  1  0.407730  0.962310  0.951670  1.0  0.9939
  Zn  Zn12  1  0.439940  0.880920  0.055200  1.0  1.0559
  Zn  Zn13  1  0.592270  0.037690  0.951670  1.0  0.9952
  Zn  Zn14  1  0.560060  0.119080  0.055200  1.0  1.0558
  Zn  Zn15  1  0.462310  0.907730  0.451670  1.0  0.9951
  Zn  Zn16  1  0.380920  0.939940  0.555200  1.0  1.0546
  Zn  Zn17  1  0.537690  0.092270  0.451670  1.0  0.9943
  Zn  Zn18  1  0.619080  0.060060  0.555200  1.0  1.055
  Zn  Zn19  1  0.500000  0.000000  0.033440  1.0  1.005
  Zn  Zn20  1  0.500000  0.000000  0.533440  1.0  1.005
  H  H21  1  0.292000  0.000400  0.868800  1.0  0.1164
  H  H22  1  0.296100  0.988100  0.802500  1.0  0.1303
  H  H23  1  0.266700  0.894300  0.893000  1.0  0.0801
  H  H24  1  0.292000  0.899900  0.832000  1.0  0.0551
  H  H25  1  0.241800  0.816000  0.851000  1.0  0.082
  H  H26  1  0.190500  0.851300  0.842500  1.0  0.0696
  H  H27  1  0.169500  0.843700  0.589000  1.0  0.0586
  H  H28  1  0.223300  0.812000  0.583100  1.0  0.0698
  H  H29  1  0.069500  0.694700  0.800900  1.0  0.1052
  H  H30  1  0.043800  0.621400  0.852600  1.0  0.1035
  H  H31  1  0.191900  0.565900  0.851400  1.0  0.0948
  H  H32  1  0.219400  0.637000  0.797600  1.0  0.0975
  H  H33  1  0.184600  0.296000  0.873300  1.0  0.1028
  H  H34  1  0.206800  0.216200  0.825100  1.0  0.106
  H  H35  1  0.059700  0.211200  0.763700  1.0  0.112
  H  H36  1  0.038400  0.287700  0.812300  1.0  0.1024
  H  H37  1  0.178900  0.117100  0.814200  1.0  0.1021
  H  H38  1  0.152300  0.115400  0.619700  1.0  0.1201
  H  H39  1  0.066200  0.176700  0.617500  1.0  0.1004
  H  H40  1  0.047100  0.246600  0.559700  1.0  0.1176
  H  H41  1  0.163900  0.330100  0.634700  1.0  0.0823
  H  H42  1  0.181700  0.258800  0.692000  1.0  0.0863
  H  H43  1  0.246600  0.065600  0.831300  1.0  0.0806
  H  H44  1  0.203200  0.024200  0.849900  1.0  0.0731
  H  H45  1  0.269200  0.896200  0.584700  1.0  0.0799
  H  H46  1  0.233900  0.888300  0.530000  1.0  0.0823
  H  H47  1  0.238300  0.987600  0.536500  1.0  0.0666
  H  H48  1  0.263300  0.983700  0.597700  1.0  0.068
  H  H49  1  0.211300  0.064200  0.582200  1.0  0.0742
  H  H50  1  0.160300  0.027400  0.581800  1.0  0.0795
  H  H51  1  0.197600  0.760600  0.819100  1.0  0.1211
  H  H52  1  0.162300  0.763400  0.627800  1.0  0.0931
  H  H53  1  0.048500  0.708700  0.686900  1.0  0.1072
  H  H54  1  0.998500  0.649500  0.635800  1.0  0.1087
  H  H55  1  0.130700  0.578000  0.583200  1.0  0.0954
  H  H56  1  0.181700  0.635500  0.636400  1.0  0.1022
  H  H57  1  0.708000  0.999600  0.868800  1.0  0.1159
  H  H58  1  0.703900  0.011900  0.802500  1.0  0.1301
  H  H59  1  0.733300  0.105700  0.893000  1.0  0.079
  H  H60  1  0.708000  0.100100  0.832000  1.0  0.0551
  H  H61  1  0.758200  0.184000  0.851000  1.0  0.0814
  H  H62  1  0.809500  0.148700  0.842500  1.0  0.0715
  H  H63  1  0.830500  0.156300  0.589000  1.0  0.055
  H  H64  1  0.776700  0.188000  0.583100  1.0  0.0708
  H  H65  1  0.930500  0.305300  0.800900  1.0  0.1047
  H  H66  1  0.956200  0.378600  0.852600  1.0  0.1028
  H  H67  1  0.808100  0.434100  0.851400  1.0  0.0949
  H  H68  1  0.780600  0.363000  0.797600  1.0  0.0969
  H  H69  1  0.815400  0.704000  0.873300  1.0  0.1032
  H  H70  1  0.793200  0.783800  0.825100  1.0  0.1053
  H  H71  1  0.940300  0.788800  0.763700  1.0  0.1122
  H  H72  1  0.961600  0.712300  0.812300  1.0  0.1033
  H  H73  1  0.821100  0.882900  0.814200  1.0  0.1011
  H  H74  1  0.847700  0.884600  0.619700  1.0  0.1204
  H  H75  1  0.933800  0.823300  0.617500  1.0  0.1014
  H  H76  1  0.952900  0.753400  0.559700  1.0  0.1183
  H  H77  1  0.836100  0.669900  0.634700  1.0  0.0812
  H  H78  1  0.818300  0.741200  0.692000  1.0  0.0866
  H  H79  1  0.753400  0.934400  0.831300  1.0  0.0814
  H  H80  1  0.796800  0.975800  0.849900  1.0  0.0721
  H  H81  1  0.730800  0.103800  0.584700  1.0  0.0784
  H  H82  1  0.766100  0.111700  0.530000  1.0  0.0822
  H  H83  1  0.761700  0.012400  0.536500  1.0  0.066
  H  H84  1  0.736700  0.016300  0.597700  1.0  0.0678
  H  H85  1  0.788700  0.935800  0.582200  1.0  0.073
  H  H86  1  0.839700  0.972600  0.581800  1.0  0.0791
  H  H87  1  0.802400  0.239400  0.819100  1.0  0.1202
  H  H88  1  0.837700  0.236600  0.627800  1.0  0.0935
  H  H89  1  0.951500  0.291300  0.686900  1.0  0.1066
  H  H90  1  0.001500  0.350500  0.635800  1.0  0.1098
  H  H91  1  0.869300  0.422000  0.583200  1.0  0.0954
  H  H92  1  0.818300  0.364500  0.636400  1.0  0.1025
  H  H93  1  0.499600  0.208000  0.368800  1.0  0.1163
  H  H94  1  0.511900  0.203900  0.302500  1.0  0.1294
  H  H95  1  0.605700  0.233300  0.393000  1.0  0.0799
  H  H96  1  0.600100  0.208000  0.332000  1.0  0.0563
  H  H97  1  0.684000  0.258200  0.351000  1.0  0.0815
  H  H98  1  0.648700  0.309500  0.342500  1.0  0.0711
  H  H99  1  0.656300  0.330500  0.089000  1.0  0.059
  H  H100  1  0.688000  0.276700  0.083100  1.0  0.0704
  H  H101  1  0.805300  0.430500  0.300900  1.0  0.105
  H  H102  1  0.878600  0.456200  0.352600  1.0  0.1016
  H  H103  1  0.934100  0.308100  0.351400  1.0  0.0958
  H  H104  1  0.863000  0.280600  0.297600  1.0  0.0978
  H  H105  1  0.204000  0.315400  0.373300  1.0  0.1032
  H  H106  1  0.283800  0.293200  0.325100  1.0  0.1065
  H  H107  1  0.288800  0.440300  0.263700  1.0  0.1119
  H  H108  1  0.212300  0.461600  0.312300  1.0  0.1037
  H  H109  1  0.382900  0.321100  0.314200  1.0  0.1015
  H  H110  1  0.384600  0.347700  0.119700  1.0  0.1197
  H  H111  1  0.323300  0.433800  0.117500  1.0  0.1016
  H  H112  1  0.253400  0.452900  0.059700  1.0  0.117
  H  H113  1  0.169900  0.336100  0.134700  1.0  0.0818
  H  H114  1  0.241200  0.318300  0.192000  1.0  0.0871
  H  H115  1  0.434400  0.253400  0.331300  1.0  0.0786
  H  H116  1  0.475800  0.296800  0.349900  1.0  0.0748
  H  H117  1  0.603800  0.230800  0.084700  1.0  0.0818
  H  H118  1  0.611700  0.266100  0.030000  1.0  0.0817
  H  H119  1  0.512400  0.261700  0.036500  1.0  0.0676
  H  H120  1  0.516300  0.236700  0.097700  1.0  0.07
  H  H121  1  0.435800  0.288700  0.082200  1.0  0.0715
  H  H122  1  0.472600  0.339700  0.081800  1.0  0.0806
  H  H123  1  0.739400  0.302400  0.319100  1.0  0.1205
  H  H124  1  0.736600  0.337700  0.127800  1.0  0.0925
  H  H125  1  0.791300  0.451500  0.186900  1.0  0.1067
  H  H126  1  0.850500  0.501500  0.135800  1.0  0.1095
  H  H127  1  0.922000  0.369300  0.083200  1.0  0.0961
  H  H128  1  0.864500  0.318300  0.136400  1.0  0.0999
  H  H129  1  0.500400  0.792000  0.368800  1.0  0.116
  H  H130  1  0.488100  0.796100  0.302500  1.0  0.1309
  H  H131  1  0.394300  0.766700  0.393000  1.0  0.0792
  H  H132  1  0.399900  0.792000  0.332000  1.0  0.0564
  H  H133  1  0.316000  0.741800  0.351000  1.0  0.0815
  H  H134  1  0.351300  0.690500  0.342500  1.0  0.0705
  H  H135  1  0.343700  0.669500  0.089000  1.0  0.0575
  H  H136  1  0.312000  0.723300  0.083100  1.0  0.0692
  H  H137  1  0.194700  0.569500  0.300900  1.0  0.1045
  H  H138  1  0.121400  0.543800  0.352600  1.0  0.1023
  H  H139  1  0.065900  0.691900  0.351400  1.0  0.0954
  H  H140  1  0.137000  0.719400  0.297600  1.0  0.097
  H  H141  1  0.796000  0.684600  0.373300  1.0  0.1028
  H  H142  1  0.716200  0.706800  0.325100  1.0  0.1059
  H  H143  1  0.711200  0.559700  0.263700  1.0  0.1112
  H  H144  1  0.787700  0.538400  0.312300  1.0  0.1039
  H  H145  1  0.617100  0.678900  0.314200  1.0  0.1019
  H  H146  1  0.615400  0.652300  0.119700  1.0  0.1202
  H  H147  1  0.676700  0.566200  0.117500  1.0  0.1011
  H  H148  1  0.746600  0.547100  0.059700  1.0  0.1171
  H  H149  1  0.830100  0.663900  0.134700  1.0  0.0818
  H  H150  1  0.758800  0.681700  0.192000  1.0  0.0868
  H  H151  1  0.565600  0.746600  0.331300  1.0  0.078
  H  H152  1  0.524200  0.703200  0.349900  1.0  0.0751
  H  H153  1  0.396200  0.769200  0.084700  1.0  0.0805
  H  H154  1  0.388300  0.733900  0.030000  1.0  0.0826
  H  H155  1  0.487600  0.738300  0.036500  1.0  0.0672
  H  H156  1  0.483700  0.763300  0.097700  1.0  0.0691
  H  H157  1  0.564200  0.711300  0.082200  1.0  0.0728
  H  H158  1  0.527400  0.660300  0.081800  1.0  0.0798
  H  H159  1  0.260600  0.697600  0.319100  1.0  0.1204
  H  H160  1  0.263400  0.662300  0.127800  1.0  0.0924
  H  H161  1  0.208700  0.548500  0.186900  1.0  0.1066
  H  H162  1  0.149500  0.498500  0.135800  1.0  0.1092
  H  H163  1  0.078000  0.630700  0.083200  1.0  0.096
  H  H164  1  0.135500  0.681700  0.136400  1.0  0.1003
  H  H165  1  0.000400  0.708000  0.131200  1.0  0.1162
  H  H166  1  0.988100  0.703900  0.197500  1.0  0.1298
  H  H167  1  0.894300  0.733300  0.107000  1.0  0.0794
  H  H168  1  0.899900  0.708000  0.168000  1.0  0.0563
  H  H169  1  0.816000  0.758200  0.149000  1.0  0.0832
  H  H170  1  0.851300  0.809500  0.157500  1.0  0.0711
  H  H171  1  0.843700  0.830500  0.411000  1.0  0.0587
  H  H172  1  0.812000  0.776700  0.416900  1.0  0.0702
  H  H173  1  0.694700  0.930500  0.199100  1.0  0.1046
  H  H174  1  0.621400  0.956200  0.147400  1.0  0.1017
  H  H175  1  0.565900  0.808100  0.148600  1.0  0.0957
  H  H176  1  0.637000  0.780600  0.202400  1.0  0.0973
  H  H177  1  0.296000  0.815400  0.126700  1.0  0.1034
  H  H178  1  0.216200  0.793200  0.174900  1.0  0.1063
  H  H179  1  0.211200  0.940300  0.236300  1.0  0.1116
  H  H180  1  0.287700  0.961600  0.187700  1.0  0.1037
  H  H181  1  0.117100  0.821100  0.185800  1.0  0.1022
  H  H182  1  0.115400  0.847700  0.380300  1.0  0.1206
  H  H183  1  0.176700  0.933800  0.382500  1.0  0.1017
  H  H184  1  0.246600  0.952900  0.440300  1.0  0.1171
  H  H185  1  0.330100  0.836100  0.365300  1.0  0.0812
  H  H186  1  0.258800  0.818300  0.308000  1.0  0.0866
  H  H187  1  0.065600  0.753400  0.168700  1.0  0.0779
  H  H188  1  0.024200  0.796800  0.150100  1.0  0.0729
  H  H189  1  0.896200  0.730800  0.415300  1.0  0.0816
  H  H190  1  0.888300  0.766100  0.470000  1.0  0.0811
  H  H191  1  0.987600  0.761700  0.463500  1.0  0.066
  H  H192  1  0.983700  0.736700  0.402300  1.0  0.0702
  H  H193  1  0.064200  0.788700  0.417800  1.0  0.0724
  H  H194  1  0.027400  0.839700  0.418200  1.0  0.0807
  H  H195  1  0.760600  0.802400  0.180900  1.0  0.1195
  H  H196  1  0.763400  0.837700  0.372200  1.0  0.0915
  H  H197  1  0.708700  0.951500  0.313100  1.0  0.1067
  H  H198  1  0.649500  0.001500  0.364200  1.0  0.1099
  H  H199  1  0.578000  0.869300  0.416800  1.0  0.0961
  H  H200  1  0.635500  0.818300  0.363600  1.0  0.0999
  H  H201  1  0.999600  0.292000  0.131200  1.0  0.1158
  H  H202  1  0.011900  0.296100  0.197500  1.0  0.1309
  H  H203  1  0.105700  0.266700  0.107000  1.0  0.0798
  H  H204  1  0.100100  0.292000  0.168000  1.0  0.0556
  H  H205  1  0.184000  0.241800  0.149000  1.0  0.0824
  H  H206  1  0.148700  0.190500  0.157500  1.0  0.0694
  H  H207  1  0.156300  0.169500  0.411000  1.0  0.0587
  H  H208  1  0.188000  0.223300  0.416900  1.0  0.0696
  H  H209  1  0.305300  0.069500  0.199100  1.0  0.1049
  H  H210  1  0.378600  0.043800  0.147400  1.0  0.1024
  H  H211  1  0.434100  0.191900  0.148600  1.0  0.0955
  H  H212  1  0.363000  0.219400  0.202400  1.0  0.0972
  H  H213  1  0.704000  0.184600  0.126700  1.0  0.1029
  H  H214  1  0.783800  0.206800  0.174900  1.0  0.1068
  H  H215  1  0.788800  0.059700  0.236300  1.0  0.1112
  H  H216  1  0.712300  0.038400  0.187700  1.0  0.1034
  H  H217  1  0.882900  0.178900  0.185800  1.0  0.1024
  H  H218  1  0.884600  0.152300  0.380300  1.0  0.1207
  H  H219  1  0.823300  0.066200  0.382500  1.0  0.1014
  H  H220  1  0.753400  0.047100  0.440300  1.0  0.1167
  H  H221  1  0.669900  0.163900  0.365300  1.0  0.0807
  H  H222  1  0.741200  0.181700  0.308000  1.0  0.0865
  H  H223  1  0.934400  0.246600  0.168700  1.0  0.0776
  H  H224  1  0.975800  0.203200  0.150100  1.0  0.0704
  H  H225  1  0.103800  0.269200  0.415300  1.0  0.0817
  H  H226  1  0.111700  0.233900  0.470000  1.0  0.0818
  H  H227  1  0.012400  0.238300  0.463500  1.0  0.066
  H  H228  1  0.016300  0.263300  0.402300  1.0  0.0708
  H  H229  1  0.935800  0.211300  0.417800  1.0  0.0716
  H  H230  1  0.972600  0.160300  0.418200  1.0  0.0809
  H  H231  1  0.239400  0.197600  0.180900  1.0  0.1205
  H  H232  1  0.236600  0.162300  0.372200  1.0  0.0934
  H  H233  1  0.291300  0.048500  0.313100  1.0  0.1063
  H  H234  1  0.350500  0.998500  0.364200  1.0  0.1092
  H  H235  1  0.422000  0.130700  0.416800  1.0  0.0965
  H  H236  1  0.364500  0.181700  0.363600  1.0  0.1004
  H  H237  1  0.208000  0.500400  0.631200  1.0  0.1155
  H  H238  1  0.203900  0.488100  0.697500  1.0  0.1299
  H  H239  1  0.233300  0.394300  0.607000  1.0  0.0802
  H  H240  1  0.208000  0.399900  0.668000  1.0  0.055
  H  H241  1  0.258200  0.316000  0.649000  1.0  0.0827
  H  H242  1  0.309500  0.351300  0.657500  1.0  0.0731
  H  H243  1  0.330500  0.343700  0.911000  1.0  0.0549
  H  H244  1  0.276700  0.312000  0.916900  1.0  0.0701
  H  H245  1  0.430500  0.194700  0.699100  1.0  0.105
  H  H246  1  0.456200  0.121400  0.647400  1.0  0.1023
  H  H247  1  0.308100  0.065900  0.648600  1.0  0.0954
  H  H248  1  0.280600  0.137000  0.702400  1.0  0.0971
  H  H249  1  0.315400  0.796000  0.626700  1.0  0.1028
  H  H250  1  0.293200  0.716200  0.674900  1.0  0.1057
  H  H251  1  0.440300  0.711200  0.736300  1.0  0.1115
  H  H252  1  0.461600  0.787700  0.687700  1.0  0.1033
  H  H253  1  0.321100  0.617100  0.685800  1.0  0.1024
  H  H254  1  0.347700  0.615400  0.880300  1.0  0.1206
  H  H255  1  0.433800  0.676700  0.882500  1.0  0.1016
  H  H256  1  0.452900  0.746600  0.940300  1.0  0.1181
  H  H257  1  0.336100  0.830100  0.865300  1.0  0.0813
  H  H258  1  0.318300  0.758800  0.808000  1.0  0.0861
  H  H259  1  0.253400  0.565600  0.668700  1.0  0.08
  H  H260  1  0.296800  0.524200  0.650100  1.0  0.0761
  H  H261  1  0.230800  0.396200  0.915300  1.0  0.0786
  H  H262  1  0.266100  0.388300  0.970000  1.0  0.0811
  H  H263  1  0.261700  0.487600  0.963500  1.0  0.0651
  H  H264  1  0.236700  0.483700  0.902300  1.0  0.0691
  H  H265  1  0.288700  0.564200  0.917800  1.0  0.0731
  H  H266  1  0.339700  0.527400  0.918200  1.0  0.0784
  H  H267  1  0.302400  0.260600  0.680900  1.0  0.1205
  H  H268  1  0.337700  0.263400  0.872200  1.0  0.0933
  H  H269  1  0.451500  0.208700  0.813100  1.0  0.1065
  H  H270  1  0.501500  0.149500  0.864200  1.0  0.1098
  H  H271  1  0.369300  0.078000  0.916800  1.0  0.0957
  H  H272  1  0.318300  0.135500  0.863600  1.0  0.1028
  H  H273  1  0.792000  0.499600  0.631200  1.0  0.1161
  H  H274  1  0.796100  0.511900  0.697500  1.0  0.1302
  H  H275  1  0.766700  0.605700  0.607000  1.0  0.0803
  H  H276  1  0.792000  0.600100  0.668000  1.0  0.0543
  H  H277  1  0.741800  0.684000  0.649000  1.0  0.0823
  H  H278  1  0.690500  0.648700  0.657500  1.0  0.0689
  H  H279  1  0.669500  0.656300  0.911000  1.0  0.0589
  H  H280  1  0.723300  0.688000  0.916900  1.0  0.0705
  H  H281  1  0.569500  0.805300  0.699100  1.0  0.1047
  H  H282  1  0.543800  0.878600  0.647400  1.0  0.1044
  H  H283  1  0.691900  0.934100  0.648600  1.0  0.0946
  H  H284  1  0.719400  0.863000  0.702400  1.0  0.097
  H  H285  1  0.684600  0.204000  0.626700  1.0  0.1032
  H  H286  1  0.706800  0.283800  0.674900  1.0  0.1063
  H  H287  1  0.559700  0.288800  0.736300  1.0  0.1116
  H  H288  1  0.538400  0.212300  0.687700  1.0  0.1027
  H  H289  1  0.678900  0.382900  0.685800  1.0  0.1015
  H  H290  1  0.652300  0.384600  0.880300  1.0  0.1209
  H  H291  1  0.566200  0.323300  0.882500  1.0  0.1014
  H  H292  1  0.547100  0.253400  0.940300  1.0  0.1176
  H  H293  1  0.663900  0.169900  0.865300  1.0  0.0806
  H  H294  1  0.681700  0.241200  0.808000  1.0  0.086
  H  H295  1  0.746600  0.434400  0.668700  1.0  0.0806
  H  H296  1  0.703200  0.475800  0.650100  1.0  0.0746
  H  H297  1  0.769200  0.603800  0.915300  1.0  0.0801
  H  H298  1  0.733900  0.611700  0.970000  1.0  0.0813
  H  H299  1  0.738300  0.512400  0.963500  1.0  0.0651
  H  H300  1  0.763300  0.516300  0.902300  1.0  0.069
  H  H301  1  0.711300  0.435800  0.917800  1.0  0.0742
  H  H302  1  0.660300  0.472600  0.918200  1.0  0.0801
  H  H303  1  0.697600  0.739400  0.680900  1.0  0.1205
  H  H304  1  0.662300  0.736600  0.872200  1.0  0.0933
  H  H305  1  0.548500  0.791300  0.813100  1.0  0.1064
  H  H306  1  0.498500  0.850500  0.864200  1.0  0.109
  H  H307  1  0.630700  0.922000  0.916800  1.0  0.0955
  H  H308  1  0.681700  0.864500  0.863600  1.0  0.102
  C  C309  1  0.137300  0.208600  0.786300  1.0  0.0615
  C  C310  1  0.272000  0.993000  0.834400  1.0  -0.0907
  C  C311  1  0.258800  0.896900  0.852700  1.0  0.0629
  C  C312  1  0.228000  0.848000  0.833100  1.0  0.0945
  C  C313  1  0.207300  0.844300  0.597700  1.0  0.1031
  C  C314  1  0.026290  0.570300  0.570200  1.0  0.7156
  C  C315  1  0.149100  0.673700  0.791700  1.0  0.0441
  C  C316  1  0.094300  0.668600  0.810300  1.0  -0.0976
  C  C317  1  0.079200  0.625200  0.841900  1.0  -0.0268
  C  C318  1  0.115300  0.587600  0.857700  1.0  -0.1386
  C  C319  1  0.167400  0.592000  0.840900  1.0  -0.0343
  C  C320  1  0.183900  0.634600  0.808400  1.0  -0.122
  C  C321  1  0.097000  0.540300  0.892900  1.0  0.7223
  C  C322  1  0.095000  0.348800  0.879100  1.0  0.6857
  C  C323  1  0.108400  0.297900  0.847300  1.0  -0.1485
  C  C324  1  0.159400  0.278600  0.851200  1.0  -0.024
  C  C325  1  0.173100  0.231200  0.820900  1.0  -0.1169
  C  C326  1  0.085700  0.228600  0.785000  1.0  -0.0704
  C  C327  1  0.072700  0.273800  0.814900  1.0  -0.0352
  C  C328  1  0.151300  0.160900  0.749200  1.0  0.029
  C  C329  1  0.173900  0.116700  0.775100  1.0  -0.1843
  C  C330  1  0.189300  0.072100  0.745200  1.0  0.2429
  C  C331  1  0.180300  0.072000  0.685700  1.0  0.2341
  C  C332  1  0.158200  0.115600  0.658700  1.0  -0.2211
  C  C333  1  0.144500  0.161400  0.692500  1.0  0.0035
  C  C334  1  0.128400  0.208560  0.658500  1.0  0.0387
  C  C335  1  0.086900  0.207400  0.619900  1.0  -0.1457
  C  C336  1  0.075100  0.249100  0.585400  1.0  -0.1178
  C  C337  1  0.105700  0.296240  0.588700  1.0  -0.0957
  C  C338  1  0.144600  0.298700  0.630000  1.0  -0.0741
  C  C339  1  0.155400  0.255800  0.664200  1.0  -0.1591
  C  C340  1  0.095700  0.341400  0.548000  1.0  0.6649
  C  C341  1  0.232500  0.030300  0.823700  1.0  0.1261
  C  C342  1  0.232900  0.892300  0.571000  1.0  0.1212
  C  C343  1  0.230100  0.984300  0.576600  1.0  0.0627
  C  C344  1  0.196500  0.030800  0.595600  1.0  0.082
  C  C345  1  0.198700  0.804600  0.687900  1.0  0.2803
  C  C346  1  0.210000  0.804000  0.745600  1.0  0.1713
  C  C347  1  0.191600  0.760700  0.780100  1.0  -0.2477
  C  C348  1  0.164300  0.718600  0.754200  1.0  0.0037
  C  C349  1  0.153800  0.720400  0.697500  1.0  0.0125
  C  C350  1  0.170600  0.762900  0.666300  1.0  -0.1427
  C  C351  1  0.121900  0.679400  0.668200  1.0  0.0351
  C  C352  1  0.065700  0.682000  0.666500  1.0  -0.1048
  C  C353  1  0.035400  0.646600  0.635900  1.0  -0.0729
  C  C354  1  0.060000  0.606400  0.605130  1.0  -0.1333
  C  C355  1  0.113900  0.603930  0.605000  1.0  -0.0435
  C  C356  1  0.144900  0.639200  0.636600  1.0  -0.1301
  C  C357  1  0.862700  0.791400  0.786300  1.0  0.0628
  C  C358  1  0.728000  0.007000  0.834400  1.0  -0.0923
  C  C359  1  0.741200  0.103100  0.852700  1.0  0.0628
  C  C360  1  0.772000  0.152000  0.833100  1.0  0.0972
  C  C361  1  0.792700  0.155700  0.597700  1.0  0.1012
  C  C362  1  0.973710  0.429700  0.570200  1.0  0.7161
  C  C363  1  0.850900  0.326300  0.791700  1.0  0.0448
  C  C364  1  0.905700  0.331400  0.810300  1.0  -0.0963
  C  C365  1  0.920800  0.374800  0.841900  1.0  -0.0241
  C  C366  1  0.884700  0.412400  0.857700  1.0  -0.1395
  C  C367  1  0.832600  0.408000  0.840900  1.0  -0.033
  C  C368  1  0.816100  0.365400  0.808400  1.0  -0.1218
  C  C369  1  0.903000  0.459700  0.892900  1.0  0.722
  C  C370  1  0.905000  0.651200  0.879100  1.0  0.686
  C  C371  1  0.891600  0.702100  0.847300  1.0  -0.1487
  C  C372  1  0.840600  0.721400  0.851200  1.0  -0.0241
  C  C373  1  0.826900  0.768800  0.820900  1.0  -0.1166
  C  C374  1  0.914300  0.771400  0.785000  1.0  -0.0707
  C  C375  1  0.927300  0.726200  0.814900  1.0  -0.0321
  C  C376  1  0.848700  0.839100  0.749200  1.0  0.0289
  C  C377  1  0.826100  0.883300  0.775100  1.0  -0.1839
  C  C378  1  0.810700  0.927900  0.745200  1.0  0.245
  C  C379  1  0.819700  0.928000  0.685700  1.0  0.2362
  C  C380  1  0.841800  0.884400  0.658700  1.0  -0.2208
  C  C381  1  0.855500  0.838600  0.692500  1.0  0.0049
  C  C382  1  0.871600  0.791440  0.658500  1.0  0.0399
  C  C383  1  0.913100  0.792600  0.619900  1.0  -0.1458
  C  C384  1  0.924900  0.750900  0.585400  1.0  -0.1171
  C  C385  1  0.894300  0.703760  0.588700  1.0  -0.0963
  C  C386  1  0.855400  0.701300  0.630000  1.0  -0.0749
  C  C387  1  0.844600  0.744200  0.664200  1.0  -0.1587
  C  C388  1  0.904300  0.658600  0.548000  1.0  0.665
  C  C389  1  0.767500  0.969700  0.823700  1.0  0.1242
  C  C390  1  0.767100  0.107700  0.571000  1.0  0.1214
  C  C391  1  0.769900  0.015700  0.576600  1.0  0.0635
  C  C392  1  0.803500  0.969200  0.595600  1.0  0.0797
  C  C393  1  0.801300  0.195400  0.687900  1.0  0.2793
  C  C394  1  0.790000  0.196000  0.745600  1.0  0.1697
  C  C395  1  0.808400  0.239300  0.780100  1.0  -0.2455
  C  C396  1  0.835700  0.281400  0.754200  1.0  0.0036
  C  C397  1  0.846200  0.279600  0.697500  1.0  0.0142
  C  C398  1  0.829400  0.237100  0.666300  1.0  -0.1428
  C  C399  1  0.878100  0.320600  0.668200  1.0  0.0352
  C  C400  1  0.934300  0.318000  0.666500  1.0  -0.1043
  C  C401  1  0.964600  0.353400  0.635900  1.0  -0.0718
  C  C402  1  0.940000  0.393600  0.605130  1.0  -0.1325
  C  C403  1  0.886100  0.396070  0.605000  1.0  -0.0425
  C  C404  1  0.855100  0.360800  0.636600  1.0  -0.1326
  C  C405  1  0.291400  0.362700  0.286300  1.0  0.0619
  C  C406  1  0.507000  0.228000  0.334400  1.0  -0.0919
  C  C407  1  0.603100  0.241200  0.352700  1.0  0.0625
  C  C408  1  0.652000  0.272000  0.333100  1.0  0.0936
  C  C409  1  0.655700  0.292700  0.097700  1.0  0.1012
  C  C410  1  0.929700  0.473710  0.070200  1.0  0.7151
  C  C411  1  0.826300  0.350900  0.291700  1.0  0.046
  C  C412  1  0.831400  0.405700  0.310300  1.0  -0.0998
  C  C413  1  0.874800  0.420800  0.341900  1.0  -0.0249
  C  C414  1  0.912400  0.384700  0.357700  1.0  -0.1375
  C  C415  1  0.908000  0.332600  0.340900  1.0  -0.0341
  C  C416  1  0.865400  0.316100  0.308400  1.0  -0.1214
  C  C417  1  0.959700  0.403000  0.392900  1.0  0.7225
  C  C418  1  0.151200  0.405000  0.379100  1.0  0.6838
  C  C419  1  0.202100  0.391600  0.347300  1.0  -0.1469
  C  C420  1  0.221400  0.340600  0.351200  1.0  -0.025
  C  C421  1  0.268800  0.326900  0.320900  1.0  -0.1159
  C  C422  1  0.271400  0.414300  0.285000  1.0  -0.077
  C  C423  1  0.226200  0.427300  0.314900  1.0  -0.0373
  C  C424  1  0.339100  0.348700  0.249200  1.0  0.0298
  C  C425  1  0.383300  0.326100  0.275100  1.0  -0.1868
  C  C426  1  0.427900  0.310700  0.245200  1.0  0.2421
  C  C427  1  0.428000  0.319700  0.185700  1.0  0.2323
  C  C428  1  0.384400  0.341800  0.158700  1.0  -0.2194
  C  C429  1  0.338600  0.355500  0.192500  1.0  0.0034
  C  C430  1  0.291440  0.371600  0.158500  1.0  0.0392
  C  C431  1  0.292600  0.413100  0.119900  1.0  -0.1461
  C  C432  1  0.250900  0.424900  0.085400  1.0  -0.1179
  C  C433  1  0.203760  0.394300  0.088700  1.0  -0.099
  C  C434  1  0.201300  0.355400  0.130000  1.0  -0.0782
  C  C435  1  0.244200  0.344600  0.164200  1.0  -0.1572
  C  C436  1  0.158600  0.404300  0.048000  1.0  0.6654
  C  C437  1  0.469700  0.267500  0.323700  1.0  0.1232
  C  C438  1  0.607700  0.267100  0.071000  1.0  0.1194
  C  C439  1  0.515700  0.269900  0.076600  1.0  0.0599
  C  C440  1  0.469200  0.303500  0.095600  1.0  0.0794
  C  C441  1  0.695400  0.301300  0.187900  1.0  0.2791
  C  C442  1  0.696000  0.290000  0.245600  1.0  0.1712
  C  C443  1  0.739300  0.308400  0.280100  1.0  -0.2471
  C  C444  1  0.781400  0.335700  0.254200  1.0  0.0033
  C  C445  1  0.779600  0.346200  0.197500  1.0  0.0122
  C  C446  1  0.737100  0.329400  0.166300  1.0  -0.1429
  C  C447  1  0.820600  0.378100  0.168200  1.0  0.0376
  C  C448  1  0.818000  0.434300  0.166500  1.0  -0.1055
  C  C449  1  0.853400  0.464600  0.135900  1.0  -0.0744
  C  C450  1  0.893600  0.440000  0.105130  1.0  -0.1339
  C  C451  1  0.896070  0.386100  0.105000  1.0  -0.0426
  C  C452  1  0.860800  0.355100  0.136600  1.0  -0.1318
  C  C453  1  0.708600  0.637300  0.286300  1.0  0.0611
  C  C454  1  0.493000  0.772000  0.334400  1.0  -0.0933
  C  C455  1  0.396900  0.758800  0.352700  1.0  0.0644
  C  C456  1  0.348000  0.728000  0.333100  1.0  0.0965
  C  C457  1  0.344300  0.707300  0.097700  1.0  0.1005
  C  C458  1  0.070300  0.526290  0.070200  1.0  0.7155
  C  C459  1  0.173700  0.649100  0.291700  1.0  0.046
  C  C460  1  0.168600  0.594300  0.310300  1.0  -0.099
  C  C461  1  0.125200  0.579200  0.341900  1.0  -0.0263
  C  C462  1  0.087600  0.615300  0.357700  1.0  -0.1377
  C  C463  1  0.092000  0.667400  0.340900  1.0  -0.0339
  C  C464  1  0.134600  0.683900  0.308400  1.0  -0.1207
  C  C465  1  0.040300  0.597000  0.392900  1.0  0.7231
  C  C466  1  0.848800  0.595000  0.379100  1.0  0.6846
  C  C467  1  0.797900  0.608400  0.347300  1.0  -0.1478
  C  C468  1  0.778600  0.659400  0.351200  1.0  -0.0261
  C  C469  1  0.731200  0.673100  0.320900  1.0  -0.1175
  C  C470  1  0.728600  0.585700  0.285000  1.0  -0.0746
  C  C471  1  0.773800  0.572700  0.314900  1.0  -0.0382
  C  C472  1  0.660900  0.651300  0.249200  1.0  0.0283
  C  C473  1  0.616700  0.673900  0.275100  1.0  -0.1888
  C  C474  1  0.572100  0.689300  0.245200  1.0  0.2421
  C  C475  1  0.572000  0.680300  0.185700  1.0  0.2334
  C  C476  1  0.615600  0.658200  0.158700  1.0  -0.2207
  C  C477  1  0.661400  0.644500  0.192500  1.0  0.0031
  C  C478  1  0.708560  0.628400  0.158500  1.0  0.0387
  C  C479  1  0.707400  0.586900  0.119900  1.0  -0.1469
  C  C480  1  0.749100  0.575100  0.085400  1.0  -0.1171
  C  C481  1  0.796240  0.605700  0.088700  1.0  -0.0996
  C  C482  1  0.798700  0.644600  0.130000  1.0  -0.0789
  C  C483  1  0.755800  0.655400  0.164200  1.0  -0.1576
  C  C484  1  0.841400  0.595700  0.048000  1.0  0.6641
  C  C485  1  0.530300  0.732500  0.323700  1.0  0.1241
  C  C486  1  0.392300  0.732900  0.071000  1.0  0.1198
  C  C487  1  0.484300  0.730100  0.076600  1.0  0.0629
  C  C488  1  0.530800  0.696500  0.095600  1.0  0.0779
  C  C489  1  0.304600  0.698700  0.187900  1.0  0.2785
  C  C490  1  0.304000  0.710000  0.245600  1.0  0.1705
  C  C491  1  0.260700  0.691600  0.280100  1.0  -0.2455
  C  C492  1  0.218600  0.664300  0.254200  1.0  0.0033
  C  C493  1  0.220400  0.653800  0.197500  1.0  0.0137
  C  C494  1  0.262900  0.670600  0.166300  1.0  -0.1422
  C  C495  1  0.179400  0.621900  0.168200  1.0  0.0375
  C  C496  1  0.182000  0.565700  0.166500  1.0  -0.106
  C  C497  1  0.146600  0.535400  0.135900  1.0  -0.0733
  C  C498  1  0.106400  0.560000  0.105130  1.0  -0.1341
  C  C499  1  0.103930  0.613900  0.105000  1.0  -0.0421
  C  C500  1  0.139200  0.644900  0.136600  1.0  -0.1328
  C  C501  1  0.208600  0.862700  0.213700  1.0  0.0621
  C  C502  1  0.993000  0.728000  0.165600  1.0  -0.0929
  C  C503  1  0.896900  0.741200  0.147300  1.0  0.0625
  C  C504  1  0.848000  0.772000  0.166900  1.0  0.0965
  C  C505  1  0.844300  0.792700  0.402300  1.0  0.103
  C  C506  1  0.570300  0.973710  0.429800  1.0  0.7158
  C  C507  1  0.673700  0.850900  0.208300  1.0  0.0454
  C  C508  1  0.668600  0.905700  0.189700  1.0  -0.1012
  C  C509  1  0.625200  0.920800  0.158100  1.0  -0.0261
  C  C510  1  0.587600  0.884700  0.142300  1.0  -0.1376
  C  C511  1  0.592000  0.832600  0.159100  1.0  -0.0343
  C  C512  1  0.634600  0.816100  0.191600  1.0  -0.1211
  C  C513  1  0.540300  0.903000  0.107100  1.0  0.7229
  C  C514  1  0.348800  0.905000  0.120900  1.0  0.6842
  C  C515  1  0.297900  0.891600  0.152700  1.0  -0.1472
  C  C516  1  0.278600  0.840600  0.148800  1.0  -0.0246
  C  C517  1  0.231200  0.826900  0.179100  1.0  -0.1177
  C  C518  1  0.228600  0.914300  0.215000  1.0  -0.0744
  C  C519  1  0.273800  0.927300  0.185100  1.0  -0.0361
  C  C520  1  0.160900  0.848700  0.250800  1.0  0.029
  C  C521  1  0.116700  0.826100  0.224900  1.0  -0.1929
  C  C522  1  0.072100  0.810700  0.254800  1.0  0.2429
  C  C523  1  0.072000  0.819700  0.314300  1.0  0.2334
  C  C524  1  0.115600  0.841800  0.341300  1.0  -0.2199
  C  C525  1  0.161400  0.855500  0.307500  1.0  0.0032
  C  C526  1  0.208560  0.871600  0.341500  1.0  0.0391
  C  C527  1  0.207400  0.913100  0.380100  1.0  -0.1461
  C  C528  1  0.249100  0.924900  0.414600  1.0  -0.1186
  C  C529  1  0.296240  0.894300  0.411300  1.0  -0.1003
  C  C530  1  0.298700  0.855400  0.370000  1.0  -0.0791
  C  C531  1  0.255800  0.844600  0.335800  1.0  -0.1575
  C  C532  1  0.341400  0.904300  0.452000  1.0  0.6646
  C  C533  1  0.030300  0.767500  0.176300  1.0  0.1246
  C  C534  1  0.892300  0.767100  0.429000  1.0  0.1194
  C  C535  1  0.984300  0.769900  0.423400  1.0  0.0606
  C  C536  1  0.030800  0.803500  0.404400  1.0  0.0779
  C  C537  1  0.804600  0.801300  0.312100  1.0  0.2804
  C  C538  1  0.804000  0.790000  0.254400  1.0  0.1711
  C  C539  1  0.760700  0.808400  0.219900  1.0  -0.2456
  C  C540  1  0.718600  0.835700  0.245800  1.0  0.0039
  C  C541  1  0.720400  0.846200  0.302500  1.0  0.0152
  C  C542  1  0.762900  0.829400  0.333700  1.0  -0.1404
  C  C543  1  0.679400  0.878100  0.331800  1.0  0.0375
  C  C544  1  0.682000  0.934300  0.333500  1.0  -0.1065
  C  C545  1  0.646600  0.964600  0.364100  1.0  -0.0743
  C  C546  1  0.606400  0.940000  0.394870  1.0  -0.1344
  C  C547  1  0.603930  0.886100  0.395000  1.0  -0.042
  C  C548  1  0.639200  0.855100  0.363400  1.0  -0.1325
  C  C549  1  0.791400  0.137300  0.213700  1.0  0.0624
  C  C550  1  0.007000  0.272000  0.165600  1.0  -0.093
  C  C551  1  0.103100  0.258800  0.147300  1.0  0.0628
  C  C552  1  0.152000  0.228000  0.166900  1.0  0.0957
  C  C553  1  0.155700  0.207300  0.402300  1.0  0.1021
  C  C554  1  0.429700  0.026290  0.429800  1.0  0.7146
  C  C555  1  0.326300  0.149100  0.208300  1.0  0.0453
  C  C556  1  0.331400  0.094300  0.189700  1.0  -0.0999
  C  C557  1  0.374800  0.079200  0.158100  1.0  -0.0265
  C  C558  1  0.412400  0.115300  0.142300  1.0  -0.1373
  C  C559  1  0.408000  0.167400  0.159100  1.0  -0.0344
  C  C560  1  0.365400  0.183900  0.191600  1.0  -0.1206
  C  C561  1  0.459700  0.097000  0.107100  1.0  0.7216
  C  C562  1  0.651200  0.095000  0.120900  1.0  0.6841
  C  C563  1  0.702100  0.108400  0.152700  1.0  -0.1477
  C  C564  1  0.721400  0.159400  0.148800  1.0  -0.0242
  C  C565  1  0.768800  0.173100  0.179100  1.0  -0.1185
  C  C566  1  0.771400  0.085700  0.215000  1.0  -0.0749
  C  C567  1  0.726200  0.072700  0.185100  1.0  -0.038
  C  C568  1  0.839100  0.151300  0.250800  1.0  0.0287
  C  C569  1  0.883300  0.173900  0.224900  1.0  -0.1935
  C  C570  1  0.927900  0.189300  0.254800  1.0  0.2407
  C  C571  1  0.928000  0.180300  0.314300  1.0  0.2334
  C  C572  1  0.884400  0.158200  0.341300  1.0  -0.2196
  C  C573  1  0.838600  0.144500  0.307500  1.0  0.0039
  C  C574  1  0.791440  0.128400  0.341500  1.0  0.0395
  C  C575  1  0.792600  0.086900  0.380100  1.0  -0.1466
  C  C576  1  0.750900  0.075100  0.414600  1.0  -0.1173
  C  C577  1  0.703760  0.105700  0.411300  1.0  -0.0999
  C  C578  1  0.701300  0.144600  0.370000  1.0  -0.0788
  C  C579  1  0.744200  0.155400  0.335800  1.0  -0.1568
  C  C580  1  0.658600  0.095700  0.452000  1.0  0.6649
  C  C581  1  0.969700  0.232500  0.176300  1.0  0.1248
  C  C582  1  0.107700  0.232900  0.429000  1.0  0.1197
  C  C583  1  0.015700  0.230100  0.423400  1.0  0.0638
  C  C584  1  0.969200  0.196500  0.404400  1.0  0.0793
  C  C585  1  0.195400  0.198700  0.312100  1.0  0.2789
  C  C586  1  0.196000  0.210000  0.254400  1.0  0.1704
  C  C587  1  0.239300  0.191600  0.219900  1.0  -0.246
  C  C588  1  0.281400  0.164300  0.245800  1.0  0.0034
  C  C589  1  0.279600  0.153800  0.302500  1.0  0.0121
  C  C590  1  0.237100  0.170600  0.333700  1.0  -0.1419
  C  C591  1  0.320600  0.121900  0.331800  1.0  0.037
  C  C592  1  0.318000  0.065700  0.333500  1.0  -0.1054
  C  C593  1  0.353400  0.035400  0.364100  1.0  -0.074
  C  C594  1  0.393600  0.060000  0.394870  1.0  -0.1342
  C  C595  1  0.396070  0.113900  0.395000  1.0  -0.0427
  C  C596  1  0.360800  0.144900  0.363400  1.0  -0.1334
  C  C597  1  0.362700  0.708600  0.713700  1.0  0.0637
  C  C598  1  0.228000  0.493000  0.665600  1.0  -0.0916
  C  C599  1  0.241200  0.396900  0.647300  1.0  0.0623
  C  C600  1  0.272000  0.348000  0.666900  1.0  0.0973
  C  C601  1  0.292700  0.344300  0.902300  1.0  0.1034
  C  C602  1  0.473710  0.070300  0.929800  1.0  0.7159
  C  C603  1  0.350900  0.173700  0.708300  1.0  0.0436
  C  C604  1  0.405700  0.168600  0.689700  1.0  -0.0983
  C  C605  1  0.420800  0.125200  0.658100  1.0  -0.025
  C  C606  1  0.384700  0.087600  0.642300  1.0  -0.1385
  C  C607  1  0.332600  0.092000  0.659100  1.0  -0.0339
  C  C608  1  0.316100  0.134600  0.691600  1.0  -0.1217
  C  C609  1  0.403000  0.040300  0.607100  1.0  0.7212
  C  C610  1  0.405000  0.848800  0.620900  1.0  0.6867
  C  C611  1  0.391600  0.797900  0.652700  1.0  -0.149
  C  C612  1  0.340600  0.778600  0.648800  1.0  -0.0225
  C  C613  1  0.326900  0.731200  0.679100  1.0  -0.1171
  C  C614  1  0.414300  0.728600  0.715000  1.0  -0.0693
  C  C615  1  0.427300  0.773800  0.685100  1.0  -0.0315
  C  C616  1  0.348700  0.660900  0.750800  1.0  0.0295
  C  C617  1  0.326100  0.616700  0.724900  1.0  -0.1882
  C  C618  1  0.310700  0.572100  0.754800  1.0  0.2428
  C  C619  1  0.319700  0.572000  0.814300  1.0  0.2347
  C  C620  1  0.341800  0.615600  0.841300  1.0  -0.2197
  C  C621  1  0.355500  0.661400  0.807500  1.0  0.0045
  C  C622  1  0.371600  0.708560  0.841500  1.0  0.0396
  C  C623  1  0.413100  0.707400  0.880100  1.0  -0.1453
  C  C624  1  0.424900  0.749100  0.914600  1.0  -0.1165
  C  C625  1  0.394300  0.796240  0.911300  1.0  -0.0969
  C  C626  1  0.355400  0.798700  0.870000  1.0  -0.0749
  C  C627  1  0.344600  0.755800  0.835800  1.0  -0.1584
  C  C628  1  0.404300  0.841400  0.952000  1.0  0.6643
  C  C629  1  0.267500  0.530300  0.676300  1.0  0.1264
  C  C630  1  0.267100  0.392300  0.929000  1.0  0.1217
  C  C631  1  0.269900  0.484300  0.923400  1.0  0.0629
  C  C632  1  0.303500  0.530800  0.904400  1.0  0.0798
  C  C633  1  0.301300  0.304600  0.812100  1.0  0.2811
  C  C634  1  0.290000  0.304000  0.754400  1.0  0.1711
  C  C635  1  0.308400  0.260700  0.719900  1.0  -0.2453
  C  C636  1  0.335700  0.218600  0.745800  1.0  0.0037
  C  C637  1  0.346200  0.220400  0.802500  1.0  0.0147
  C  C638  1  0.329400  0.262900  0.833700  1.0  -0.1413
  C  C639  1  0.378100  0.179400  0.831800  1.0  0.0351
  C  C640  1  0.434300  0.182000  0.833500  1.0  -0.105
  C  C641  1  0.464600  0.146600  0.864100  1.0  -0.0722
  C  C642  1  0.440000  0.106400  0.894870  1.0  -0.1335
  C  C643  1  0.386100  0.103930  0.895000  1.0  -0.0427
  C  C644  1  0.355100  0.139200  0.863400  1.0  -0.1327
  C  C645  1  0.637300  0.291400  0.713700  1.0  0.0621
  C  C646  1  0.772000  0.507000  0.665600  1.0  -0.092
  C  C647  1  0.758800  0.603100  0.647300  1.0  0.0623
  C  C648  1  0.728000  0.652000  0.666900  1.0  0.0963
  C  C649  1  0.707300  0.655700  0.902300  1.0  0.1042
  C  C650  1  0.526290  0.929700  0.929800  1.0  0.7152
  C  C651  1  0.649100  0.826300  0.708300  1.0  0.0435
  C  C652  1  0.594300  0.831400  0.689700  1.0  -0.0976
  C  C653  1  0.579200  0.874800  0.658100  1.0  -0.0273
  C  C654  1  0.615300  0.912400  0.642300  1.0  -0.1395
  C  C655  1  0.667400  0.908000  0.659100  1.0  -0.0339
  C  C656  1  0.683900  0.865400  0.691600  1.0  -0.1218
  C  C657  1  0.597000  0.959700  0.607100  1.0  0.7223
  C  C658  1  0.595000  0.151200  0.620900  1.0  0.685
  C  C659  1  0.608400  0.202100  0.652700  1.0  -0.1497
  C  C660  1  0.659400  0.221400  0.648800  1.0  -0.0235
  C  C661  1  0.673100  0.268800  0.679100  1.0  -0.1179
  C  C662  1  0.585700  0.271400  0.715000  1.0  -0.0697
  C  C663  1  0.572700  0.226200  0.685100  1.0  -0.0342
  C  C664  1  0.651300  0.339100  0.750800  1.0  0.0274
  C  C665  1  0.673900  0.383300  0.724900  1.0  -0.1892
  C  C666  1  0.689300  0.427900  0.754800  1.0  0.245
  C  C667  1  0.680300  0.428000  0.814300  1.0  0.2371
  C  C668  1  0.658200  0.384400  0.841300  1.0  -0.2213
  C  C669  1  0.644500  0.338600  0.807500  1.0  0.0039
  C  C670  1  0.628400  0.291440  0.841500  1.0  0.0395
  C  C671  1  0.586900  0.292600  0.880100  1.0  -0.1456
  C  C672  1  0.575100  0.250900  0.914600  1.0  -0.1178
  C  C673  1  0.605700  0.203760  0.911300  1.0  -0.0966
  C  C674  1  0.644600  0.201300  0.870000  1.0  -0.0752
  C  C675  1  0.655400  0.244200  0.835800  1.0  -0.159
  C  C676  1  0.595700  0.158600  0.952000  1.0  0.6657
  C  C677  1  0.732500  0.469700  0.676300  1.0  0.1256
  C  C678  1  0.732900  0.607700  0.929000  1.0  0.1203
  C  C679  1  0.730100  0.515700  0.923400  1.0  0.0634
  C  C680  1  0.696500  0.469200  0.904400  1.0  0.0805
  C  C681  1  0.698700  0.695400  0.812100  1.0  0.2798
  C  C682  1  0.710000  0.696000  0.754400  1.0  0.1707
  C  C683  1  0.691600  0.739300  0.719900  1.0  -0.2469
  C  C684  1  0.664300  0.781400  0.745800  1.0  0.0034
  C  C685  1  0.653800  0.779600  0.802500  1.0  0.0126
  C  C686  1  0.670600  0.737100  0.833700  1.0  -0.1421
  C  C687  1  0.621900  0.820600  0.831800  1.0  0.0349
  C  C688  1  0.565700  0.818000  0.833500  1.0  -0.1048
  C  C689  1  0.535400  0.853400  0.864100  1.0  -0.0736
  C  C690  1  0.560000  0.893600  0.894870  1.0  -0.1324
  C  C691  1  0.613900  0.896070  0.895000  1.0  -0.0437
  C  C692  1  0.644900  0.860800  0.863400  1.0  -0.1321
  O  O693  1  0.132790  0.376010  0.898940  1.0  -0.5769
  O  O694  1  0.046000  0.359730  0.883760  1.0  -0.5599
  O  O695  1  0.226600  0.941000  0.842200  1.0  -0.4917
  O  O696  1  0.976970  0.572440  0.579210  1.0  -0.6361
  O  O697  1  0.047440  0.539770  0.533810  1.0  -0.6717
  O  O698  1  0.133180  0.506370  0.905920  1.0  -0.6137
  O  O699  1  0.050350  0.537790  0.906400  1.0  -0.5994
  O  O700  1  0.044930  0.433950  0.967270  1.0  -0.7957
  O  O701  1  0.212660  0.028860  0.767500  1.0  -0.2885
  O  O702  1  0.235400  0.845660  0.770850  1.0  -0.2812
  O  O703  1  0.214940  0.847600  0.657100  1.0  -0.2726
  O  O704  1  0.201970  0.938080  0.586300  1.0  -0.3471
  O  O705  1  0.198270  0.027690  0.659040  1.0  -0.3529
  O  O706  1  0.063500  0.332770  0.509130  1.0  -0.5724
  O  O707  1  0.122480  0.383120  0.555630  1.0  -0.6191
  O  O708  1  0.867210  0.623990  0.898940  1.0  -0.5779
  O  O709  1  0.954000  0.640270  0.883760  1.0  -0.5604
  O  O710  1  0.773400  0.059000  0.842200  1.0  -0.4892
  O  O711  1  0.023030  0.427560  0.579210  1.0  -0.6369
  O  O712  1  0.952560  0.460230  0.533810  1.0  -0.6719
  O  O713  1  0.866820  0.493630  0.905920  1.0  -0.614
  O  O714  1  0.949650  0.462210  0.906400  1.0  -0.5998
  O  O715  1  0.955070  0.566050  0.967270  1.0  -0.7958
  O  O716  1  0.787340  0.971140  0.767500  1.0  -0.2871
  O  O717  1  0.764600  0.154340  0.770850  1.0  -0.2816
  O  O718  1  0.785060  0.152400  0.657100  1.0  -0.2729
  O  O719  1  0.798030  0.061920  0.586300  1.0  -0.347
  O  O720  1  0.801730  0.972310  0.659040  1.0  -0.3517
  O  O721  1  0.936500  0.667230  0.509130  1.0  -0.5725
  O  O722  1  0.877520  0.616880  0.555630  1.0  -0.62
  O  O723  1  0.123990  0.367210  0.398940  1.0  -0.5777
  O  O724  1  0.140270  0.454000  0.383760  1.0  -0.5597
  O  O725  1  0.559000  0.273400  0.342200  1.0  -0.4915
  O  O726  1  0.927560  0.523030  0.079210  1.0  -0.6396
  O  O727  1  0.960230  0.452560  0.033810  1.0  -0.6699
  O  O728  1  0.993630  0.366820  0.405920  1.0  -0.6129
  O  O729  1  0.962210  0.449650  0.406400  1.0  -0.6012
  O  O730  1  0.066050  0.455070  0.467270  1.0  -0.7967
  O  O731  1  0.471140  0.287340  0.267500  1.0  -0.2885
  O  O732  1  0.654340  0.264600  0.270850  1.0  -0.2837
  O  O733  1  0.652400  0.285060  0.157100  1.0  -0.2735
  O  O734  1  0.561920  0.298030  0.086300  1.0  -0.3443
  O  O735  1  0.472310  0.301730  0.159040  1.0  -0.3515
  O  O736  1  0.167230  0.436500  0.009130  1.0  -0.5742
  O  O737  1  0.116880  0.377520  0.055630  1.0  -0.6213
  O  O738  1  0.876010  0.632790  0.398940  1.0  -0.5763
  O  O739  1  0.859730  0.546000  0.383760  1.0  -0.561
  O  O740  1  0.441000  0.726600  0.342200  1.0  -0.488
  O  O741  1  0.072440  0.476970  0.079210  1.0  -0.6395
  O  O742  1  0.039770  0.547440  0.033810  1.0  -0.6695
  O  O743  1  0.006370  0.633180  0.405920  1.0  -0.6136
  O  O744  1  0.037790  0.550350  0.406400  1.0  -0.5993
  O  O745  1  0.933950  0.544930  0.467270  1.0  -0.7966
  O  O746  1  0.528860  0.712660  0.267500  1.0  -0.2876
  O  O747  1  0.345660  0.735400  0.270850  1.0  -0.2839
  O  O748  1  0.347600  0.714940  0.157100  1.0  -0.2733
  O  O749  1  0.438080  0.701970  0.086300  1.0  -0.3472
  O  O750  1  0.527690  0.698270  0.159040  1.0  -0.3522
  O  O751  1  0.832770  0.563500  0.009130  1.0  -0.5738
  O  O752  1  0.883120  0.622480  0.055630  1.0  -0.6196
  O  O753  1  0.376010  0.867210  0.101060  1.0  -0.5764
  O  O754  1  0.359730  0.954000  0.116240  1.0  -0.5597
  O  O755  1  0.941000  0.773400  0.157800  1.0  -0.4912
  O  O756  1  0.572440  0.023030  0.420790  1.0  -0.6397
  O  O757  1  0.539770  0.952560  0.466190  1.0  -0.6707
  O  O758  1  0.506370  0.866820  0.094080  1.0  -0.6153
  O  O759  1  0.537790  0.949650  0.093600  1.0  -0.6014
  O  O760  1  0.433950  0.955070  0.032730  1.0  -0.7957
  O  O761  1  0.028860  0.787340  0.232500  1.0  -0.2887
  O  O762  1  0.845660  0.764600  0.229150  1.0  -0.286
  O  O763  1  0.847600  0.785060  0.342900  1.0  -0.2733
  O  O764  1  0.938080  0.798030  0.413700  1.0  -0.343
  O  O765  1  0.027690  0.801730  0.340960  1.0  -0.3514
  O  O766  1  0.332770  0.936500  0.490870  1.0  -0.5732
  O  O767  1  0.383120  0.877520  0.444370  1.0  -0.6196
  O  O768  1  0.623990  0.132790  0.101060  1.0  -0.5765
  O  O769  1  0.640270  0.046000  0.116240  1.0  -0.5621
  O  O770  1  0.059000  0.226600  0.157800  1.0  -0.4887
  O  O771  1  0.427560  0.976970  0.420790  1.0  -0.6386
  O  O772  1  0.460230  0.047440  0.466190  1.0  -0.6711
  O  O773  1  0.493630  0.133180  0.094080  1.0  -0.6132
  O  O774  1  0.462210  0.050350  0.093600  1.0  -0.5997
  O  O775  1  0.566050  0.044930  0.032730  1.0  -0.7959
  O  O776  1  0.971140  0.212660  0.232500  1.0  -0.2902
  O  O777  1  0.154340  0.235400  0.229150  1.0  -0.2848
  O  O778  1  0.152400  0.214940  0.342900  1.0  -0.2718
  O  O779  1  0.061920  0.201970  0.413700  1.0  -0.3462
  O  O780  1  0.972310  0.198270  0.340960  1.0  -0.3528
  O  O781  1  0.667230  0.063500  0.490870  1.0  -0.5744
  O  O782  1  0.616880  0.122480  0.444370  1.0  -0.6208
  O  O783  1  0.367210  0.876010  0.601060  1.0  -0.5772
  O  O784  1  0.454000  0.859730  0.616240  1.0  -0.5607
  O  O785  1  0.273400  0.441000  0.657800  1.0  -0.4897
  O  O786  1  0.523030  0.072440  0.920790  1.0  -0.6364
  O  O787  1  0.452560  0.039770  0.966190  1.0  -0.6729
  O  O788  1  0.366820  0.006370  0.594080  1.0  -0.6147
  O  O789  1  0.449650  0.037790  0.593600  1.0  -0.6005
  O  O790  1  0.455070  0.933950  0.532730  1.0  -0.7978
  O  O791  1  0.287340  0.528860  0.732500  1.0  -0.289
  O  O792  1  0.264600  0.345660  0.729150  1.0  -0.2833
  O  O793  1  0.285060  0.347600  0.842900  1.0  -0.2718
  O  O794  1  0.298030  0.438080  0.913700  1.0  -0.3472
  O  O795  1  0.301730  0.527690  0.840960  1.0  -0.353
  O  O796  1  0.436500  0.832770  0.990870  1.0  -0.5725
  O  O797  1  0.377520  0.883120  0.944370  1.0  -0.6201
  O  O798  1  0.632790  0.123990  0.601060  1.0  -0.5767
  O  O799  1  0.546000  0.140270  0.616240  1.0  -0.5605
  O  O800  1  0.726600  0.559000  0.657800  1.0  -0.4931
  O  O801  1  0.476970  0.927560  0.920790  1.0  -0.636
  O  O802  1  0.547440  0.960230  0.966190  1.0  -0.6716
  O  O803  1  0.633180  0.993630  0.594080  1.0  -0.6144
  O  O804  1  0.550350  0.962210  0.593600  1.0  -0.5994
  O  O805  1  0.544930  0.066050  0.532730  1.0  -0.7974
  O  O806  1  0.712660  0.471140  0.732500  1.0  -0.2886
  O  O807  1  0.735400  0.654340  0.729150  1.0  -0.2832
  O  O808  1  0.714940  0.652400  0.842900  1.0  -0.2714
  O  O809  1  0.701970  0.561920  0.913700  1.0  -0.3458
  O  O810  1  0.698270  0.472310  0.840960  1.0  -0.3526
  O  O811  1  0.563500  0.167230  0.990870  1.0  -0.572
  O  O812  1  0.622480  0.116880  0.944370  1.0  -0.6197
