# generated using pymatgen
data_CdH32(C19N8)2
_symmetry_space_group_name_H-M   'P 1'
_cell_length_a   31.81810000
_cell_length_b   31.81810000
_cell_length_c   31.81810000
_cell_angle_alpha   90.00000000
_cell_angle_beta   90.00000000
_cell_angle_gamma   90.00000000
_symmetry_Int_Tables_number   1
_chemical_formula_structural   CdH32(C19N8)2
_chemical_formula_sum   'Cd24 H768 C912 N384'
_cell_volume   32212.37359192
_cell_formula_units_Z   24
loop_
 _symmetry_equiv_pos_site_id
 _symmetry_equiv_pos_as_xyz
  1  'x, y, z'
loop_
 _atom_site_type_symbol
 _atom_site_label
 _atom_site_symmetry_multiplicity
 _atom_site_fract_x
 _atom_site_fract_y
 _atom_site_fract_z
 _atom_site_occupancy
 _atom_site_charge
  Cd  Cd1  1  0.625000  0.000000  0.750000  1.0  0.8522
  Cd  Cd2  1  0.875000  0.000000  0.250000  1.0  0.8522
  Cd  Cd3  1  0.375000  0.500000  0.750000  1.0  0.8522
  Cd  Cd4  1  0.125000  0.500000  0.250000  1.0  0.8522
  Cd  Cd5  1  0.750000  0.625000  0.000000  1.0  0.8522
  Cd  Cd6  1  0.250000  0.875000  0.000000  1.0  0.8522
  Cd  Cd7  1  0.750000  0.375000  0.500000  1.0  0.8522
  Cd  Cd8  1  0.250000  0.125000  0.500000  1.0  0.8522
  Cd  Cd9  1  0.000000  0.750000  0.625000  1.0  0.8522
  Cd  Cd10  1  0.000000  0.250000  0.875000  1.0  0.8522
  Cd  Cd11  1  0.500000  0.750000  0.375000  1.0  0.8522
  Cd  Cd12  1  0.500000  0.250000  0.125000  1.0  0.8522
  Cd  Cd13  1  0.750000  0.875000  0.500000  1.0  0.8522
  Cd  Cd14  1  0.750000  0.125000  0.000000  1.0  0.8522
  Cd  Cd15  1  0.250000  0.625000  0.500000  1.0  0.8522
  Cd  Cd16  1  0.250000  0.375000  0.000000  1.0  0.8522
  Cd  Cd17  1  0.375000  0.000000  0.250000  1.0  0.8522
  Cd  Cd18  1  0.625000  0.500000  0.250000  1.0  0.8522
  Cd  Cd19  1  0.125000  0.000000  0.750000  1.0  0.8522
  Cd  Cd20  1  0.875000  0.500000  0.750000  1.0  0.8522
  Cd  Cd21  1  0.500000  0.250000  0.625000  1.0  0.8522
  Cd  Cd22  1  0.000000  0.250000  0.375000  1.0  0.8522
  Cd  Cd23  1  0.500000  0.750000  0.875000  1.0  0.8522
  Cd  Cd24  1  0.000000  0.750000  0.125000  1.0  0.8522
  H  H25  1  0.789500  0.958900  0.742400  1.0  0.1042
  H  H26  1  0.834000  0.927400  0.792100  1.0  0.1004
  H  H27  1  0.805400  0.885200  0.844500  1.0  0.0848
  H  H28  1  0.733000  0.872700  0.847200  1.0  0.1007
  H  H29  1  0.688400  0.905200  0.798000  1.0  0.109
  H  H30  1  0.614400  0.032700  0.647200  1.0  0.0875
  H  H31  1  0.674000  0.038300  0.597000  1.0  0.122
  H  H32  1  0.770300  0.004000  0.647400  1.0  0.0939
  H  H33  1  0.289500  0.458900  0.242400  1.0  0.1042
  H  H34  1  0.334000  0.427400  0.292100  1.0  0.1004
  H  H35  1  0.305400  0.385200  0.344500  1.0  0.0848
  H  H36  1  0.233000  0.372700  0.347200  1.0  0.1007
  H  H37  1  0.188400  0.405200  0.298000  1.0  0.109
  H  H38  1  0.114400  0.532700  0.147200  1.0  0.0875
  H  H39  1  0.174000  0.538300  0.097000  1.0  0.122
  H  H40  1  0.270300  0.504000  0.147400  1.0  0.0939
  H  H41  1  0.710500  0.041100  0.242400  1.0  0.1038
  H  H42  1  0.666000  0.072600  0.292100  1.0  0.0995
  H  H43  1  0.694600  0.114800  0.344500  1.0  0.0839
  H  H44  1  0.767000  0.127300  0.347200  1.0  0.1007
  H  H45  1  0.811600  0.094800  0.298000  1.0  0.1081
  H  H46  1  0.885600  0.967300  0.147200  1.0  0.0876
  H  H47  1  0.826000  0.961700  0.097000  1.0  0.1213
  H  H48  1  0.729700  0.996000  0.147400  1.0  0.095
  H  H49  1  0.210500  0.541100  0.742400  1.0  0.1038
  H  H50  1  0.166000  0.572600  0.792100  1.0  0.0995
  H  H51  1  0.194600  0.614800  0.844500  1.0  0.0839
  H  H52  1  0.267000  0.627300  0.847200  1.0  0.1007
  H  H53  1  0.311600  0.594800  0.798000  1.0  0.1081
  H  H54  1  0.385600  0.467300  0.647200  1.0  0.0876
  H  H55  1  0.326000  0.461700  0.597000  1.0  0.1213
  H  H56  1  0.229700  0.496000  0.647400  1.0  0.095
  H  H57  1  0.210500  0.458900  0.757600  1.0  0.1037
  H  H58  1  0.166000  0.427400  0.707900  1.0  0.0994
  H  H59  1  0.194600  0.385200  0.655500  1.0  0.0839
  H  H60  1  0.267000  0.372700  0.652800  1.0  0.1007
  H  H61  1  0.311600  0.405200  0.702000  1.0  0.1081
  H  H62  1  0.385600  0.532700  0.852800  1.0  0.0888
  H  H63  1  0.326000  0.538300  0.903000  1.0  0.1209
  H  H64  1  0.229700  0.504000  0.852600  1.0  0.0943
  H  H65  1  0.710500  0.958900  0.257600  1.0  0.1037
  H  H66  1  0.666000  0.927400  0.207900  1.0  0.0994
  H  H67  1  0.694600  0.885200  0.155500  1.0  0.0839
  H  H68  1  0.767000  0.872700  0.152800  1.0  0.1007
  H  H69  1  0.811600  0.905200  0.202000  1.0  0.1081
  H  H70  1  0.885600  0.032700  0.352800  1.0  0.0888
  H  H71  1  0.826000  0.038300  0.403000  1.0  0.1209
  H  H72  1  0.729700  0.004000  0.352600  1.0  0.0943
  H  H73  1  0.289500  0.541100  0.257600  1.0  0.1041
  H  H74  1  0.334000  0.572600  0.207900  1.0  0.1004
  H  H75  1  0.305400  0.614800  0.155500  1.0  0.0843
  H  H76  1  0.233000  0.627300  0.152800  1.0  0.1011
  H  H77  1  0.188400  0.594800  0.202000  1.0  0.1088
  H  H78  1  0.114400  0.467300  0.352800  1.0  0.0879
  H  H79  1  0.174000  0.461700  0.403000  1.0  0.1227
  H  H80  1  0.270300  0.496000  0.352600  1.0  0.0938
  H  H81  1  0.789500  0.041100  0.757600  1.0  0.1041
  H  H82  1  0.834000  0.072600  0.707900  1.0  0.1004
  H  H83  1  0.805400  0.114800  0.655500  1.0  0.0843
  H  H84  1  0.733000  0.127300  0.652800  1.0  0.1011
  H  H85  1  0.688400  0.094800  0.702000  1.0  0.1088
  H  H86  1  0.614400  0.967300  0.852800  1.0  0.0879
  H  H87  1  0.674000  0.961700  0.903000  1.0  0.1227
  H  H88  1  0.770300  0.996000  0.852600  1.0  0.0938
  H  H89  1  0.742400  0.789500  0.958900  1.0  0.1028
  H  H90  1  0.792100  0.834000  0.927400  1.0  0.1005
  H  H91  1  0.844500  0.805400  0.885200  1.0  0.0848
  H  H92  1  0.847200  0.733000  0.872700  1.0  0.1008
  H  H93  1  0.798000  0.688400  0.905200  1.0  0.1101
  H  H94  1  0.647200  0.614400  0.032700  1.0  0.0897
  H  H95  1  0.597000  0.674000  0.038300  1.0  0.1223
  H  H96  1  0.647400  0.770300  0.004000  1.0  0.095
  H  H97  1  0.242400  0.289500  0.458900  1.0  0.1028
  H  H98  1  0.292100  0.334000  0.427400  1.0  0.1005
  H  H99  1  0.344500  0.305400  0.385200  1.0  0.0848
  H  H100  1  0.347200  0.233000  0.372700  1.0  0.1008
  H  H101  1  0.298000  0.188400  0.405200  1.0  0.1101
  H  H102  1  0.147200  0.114400  0.532700  1.0  0.0897
  H  H103  1  0.097000  0.174000  0.538300  1.0  0.1223
  H  H104  1  0.147400  0.270300  0.504000  1.0  0.095
  H  H105  1  0.242400  0.710500  0.041100  1.0  0.1019
  H  H106  1  0.292100  0.666000  0.072600  1.0  0.1005
  H  H107  1  0.344500  0.694600  0.114800  1.0  0.0851
  H  H108  1  0.347200  0.767000  0.127300  1.0  0.1015
  H  H109  1  0.298000  0.811600  0.094800  1.0  0.1096
  H  H110  1  0.147200  0.885600  0.967300  1.0  0.0894
  H  H111  1  0.097000  0.826000  0.961700  1.0  0.1224
  H  H112  1  0.147400  0.729700  0.996000  1.0  0.0946
  H  H113  1  0.742400  0.210500  0.541100  1.0  0.1019
  H  H114  1  0.792100  0.166000  0.572600  1.0  0.1005
  H  H115  1  0.844500  0.194600  0.614800  1.0  0.0851
  H  H116  1  0.847200  0.267000  0.627300  1.0  0.1015
  H  H117  1  0.798000  0.311600  0.594800  1.0  0.1096
  H  H118  1  0.647200  0.385600  0.467300  1.0  0.0894
  H  H119  1  0.597000  0.326000  0.461700  1.0  0.1224
  H  H120  1  0.647400  0.229700  0.496000  1.0  0.0946
  H  H121  1  0.757600  0.210500  0.458900  1.0  0.1026
  H  H122  1  0.707900  0.166000  0.427400  1.0  0.1007
  H  H123  1  0.655500  0.194600  0.385200  1.0  0.0843
  H  H124  1  0.652800  0.267000  0.372700  1.0  0.1012
  H  H125  1  0.702000  0.311600  0.405200  1.0  0.1102
  H  H126  1  0.852800  0.385600  0.532700  1.0  0.0887
  H  H127  1  0.903000  0.326000  0.538300  1.0  0.122
  H  H128  1  0.852600  0.229700  0.504000  1.0  0.0948
  H  H129  1  0.257600  0.710500  0.958900  1.0  0.1026
  H  H130  1  0.207900  0.666000  0.927400  1.0  0.1007
  H  H131  1  0.155500  0.694600  0.885200  1.0  0.0843
  H  H132  1  0.152800  0.767000  0.872700  1.0  0.1012
  H  H133  1  0.202000  0.811600  0.905200  1.0  0.1102
  H  H134  1  0.352800  0.885600  0.032700  1.0  0.0887
  H  H135  1  0.403000  0.826000  0.038300  1.0  0.122
  H  H136  1  0.352600  0.729700  0.004000  1.0  0.0948
  H  H137  1  0.257600  0.289500  0.541100  1.0  0.1027
  H  H138  1  0.207900  0.334000  0.572600  1.0  0.1005
  H  H139  1  0.155500  0.305400  0.614800  1.0  0.0846
  H  H140  1  0.152800  0.233000  0.627300  1.0  0.1015
  H  H141  1  0.202000  0.188400  0.594800  1.0  0.1093
  H  H142  1  0.352800  0.114400  0.467300  1.0  0.0892
  H  H143  1  0.403000  0.174000  0.461700  1.0  0.1222
  H  H144  1  0.352600  0.270300  0.496000  1.0  0.0951
  H  H145  1  0.757600  0.789500  0.041100  1.0  0.1027
  H  H146  1  0.707900  0.834000  0.072600  1.0  0.1005
  H  H147  1  0.655500  0.805400  0.114800  1.0  0.0846
  H  H148  1  0.652800  0.733000  0.127300  1.0  0.1015
  H  H149  1  0.702000  0.688400  0.094800  1.0  0.1093
  H  H150  1  0.852800  0.614400  0.967300  1.0  0.0892
  H  H151  1  0.903000  0.674000  0.961700  1.0  0.1222
  H  H152  1  0.852600  0.770300  0.996000  1.0  0.0951
  H  H153  1  0.958900  0.742400  0.789500  1.0  0.1029
  H  H154  1  0.927400  0.792100  0.834000  1.0  0.0992
  H  H155  1  0.885200  0.844500  0.805400  1.0  0.084
  H  H156  1  0.872700  0.847200  0.733000  1.0  0.1004
  H  H157  1  0.905200  0.798000  0.688400  1.0  0.1108
  H  H158  1  0.032700  0.647200  0.614400  1.0  0.0897
  H  H159  1  0.038300  0.597000  0.674000  1.0  0.1218
  H  H160  1  0.004000  0.647400  0.770300  1.0  0.0936
  H  H161  1  0.458900  0.242400  0.289500  1.0  0.1029
  H  H162  1  0.427400  0.292100  0.334000  1.0  0.0992
  H  H163  1  0.385200  0.344500  0.305400  1.0  0.084
  H  H164  1  0.372700  0.347200  0.233000  1.0  0.1004
  H  H165  1  0.405200  0.298000  0.188400  1.0  0.1108
  H  H166  1  0.532700  0.147200  0.114400  1.0  0.0897
  H  H167  1  0.538300  0.097000  0.174000  1.0  0.1218
  H  H168  1  0.504000  0.147400  0.270300  1.0  0.0936
  H  H169  1  0.041100  0.242400  0.710500  1.0  0.1025
  H  H170  1  0.072600  0.292100  0.666000  1.0  0.0994
  H  H171  1  0.114800  0.344500  0.694600  1.0  0.0839
  H  H172  1  0.127300  0.347200  0.767000  1.0  0.1004
  H  H173  1  0.094800  0.298000  0.811600  1.0  0.1094
  H  H174  1  0.967300  0.147200  0.885600  1.0  0.0889
  H  H175  1  0.961700  0.097000  0.826000  1.0  0.1226
  H  H176  1  0.996000  0.147400  0.729700  1.0  0.0944
  H  H177  1  0.541100  0.742400  0.210500  1.0  0.1025
  H  H178  1  0.572600  0.792100  0.166000  1.0  0.0994
  H  H179  1  0.614800  0.844500  0.194600  1.0  0.0839
  H  H180  1  0.627300  0.847200  0.267000  1.0  0.1004
  H  H181  1  0.594800  0.798000  0.311600  1.0  0.1094
  H  H182  1  0.467300  0.647200  0.385600  1.0  0.0889
  H  H183  1  0.461700  0.597000  0.326000  1.0  0.1226
  H  H184  1  0.496000  0.647400  0.229700  1.0  0.0944
  H  H185  1  0.458900  0.757600  0.210500  1.0  0.1025
  H  H186  1  0.427400  0.707900  0.166000  1.0  0.0991
  H  H187  1  0.385200  0.655500  0.194600  1.0  0.084
  H  H188  1  0.372700  0.652800  0.267000  1.0  0.1003
  H  H189  1  0.405200  0.702000  0.311600  1.0  0.1107
  H  H190  1  0.532700  0.852800  0.385600  1.0  0.0894
  H  H191  1  0.538300  0.903000  0.326000  1.0  0.1221
  H  H192  1  0.504000  0.852600  0.229700  1.0  0.094
  H  H193  1  0.958900  0.257600  0.710500  1.0  0.1025
  H  H194  1  0.927400  0.207900  0.666000  1.0  0.0991
  H  H195  1  0.885200  0.155500  0.694600  1.0  0.084
  H  H196  1  0.872700  0.152800  0.767000  1.0  0.1003
  H  H197  1  0.905200  0.202000  0.811600  1.0  0.1107
  H  H198  1  0.032700  0.352800  0.885600  1.0  0.0894
  H  H199  1  0.038300  0.403000  0.826000  1.0  0.1221
  H  H200  1  0.004000  0.352600  0.729700  1.0  0.094
  H  H201  1  0.541100  0.257600  0.289500  1.0  0.1024
  H  H202  1  0.572600  0.207900  0.334000  1.0  0.0993
  H  H203  1  0.614800  0.155500  0.305400  1.0  0.0842
  H  H204  1  0.627300  0.152800  0.233000  1.0  0.1006
  H  H205  1  0.594800  0.202000  0.188400  1.0  0.1101
  H  H206  1  0.467300  0.352800  0.114400  1.0  0.0907
  H  H207  1  0.461700  0.403000  0.174000  1.0  0.1223
  H  H208  1  0.496000  0.352600  0.270300  1.0  0.0944
  H  H209  1  0.041100  0.757600  0.789500  1.0  0.1024
  H  H210  1  0.072600  0.707900  0.834000  1.0  0.0993
  H  H211  1  0.114800  0.655500  0.805400  1.0  0.0842
  H  H212  1  0.127300  0.652800  0.733000  1.0  0.1006
  H  H213  1  0.094800  0.702000  0.688400  1.0  0.1101
  H  H214  1  0.967300  0.852800  0.614400  1.0  0.0907
  H  H215  1  0.961700  0.903000  0.674000  1.0  0.1223
  H  H216  1  0.996000  0.852600  0.770300  1.0  0.0944
  H  H217  1  0.708900  0.039500  0.507600  1.0  0.1032
  H  H218  1  0.677400  0.084000  0.457900  1.0  0.1001
  H  H219  1  0.635200  0.055400  0.405500  1.0  0.084
  H  H220  1  0.622700  0.983000  0.402800  1.0  0.0992
  H  H221  1  0.655200  0.938400  0.452000  1.0  0.1093
  H  H222  1  0.782700  0.864400  0.602800  1.0  0.09
  H  H223  1  0.788300  0.924000  0.653000  1.0  0.1221
  H  H224  1  0.754000  0.020300  0.602600  1.0  0.0937
  H  H225  1  0.208900  0.539500  0.007600  1.0  0.1032
  H  H226  1  0.177400  0.584000  0.957900  1.0  0.1001
  H  H227  1  0.135200  0.555400  0.905500  1.0  0.084
  H  H228  1  0.122700  0.483000  0.902800  1.0  0.0992
  H  H229  1  0.155200  0.438400  0.952000  1.0  0.1093
  H  H230  1  0.282700  0.364400  0.102800  1.0  0.09
  H  H231  1  0.288300  0.424000  0.153000  1.0  0.1221
  H  H232  1  0.254000  0.520300  0.102600  1.0  0.0937
  H  H233  1  0.791100  0.960500  0.007600  1.0  0.1029
  H  H234  1  0.822600  0.916000  0.957900  1.0  0.1007
  H  H235  1  0.864800  0.944600  0.905500  1.0  0.0838
  H  H236  1  0.877300  0.017000  0.902800  1.0  0.1001
  H  H237  1  0.844800  0.061600  0.952000  1.0  0.109
  H  H238  1  0.717300  0.135600  0.102800  1.0  0.0897
  H  H239  1  0.711700  0.076000  0.153000  1.0  0.1229
  H  H240  1  0.746000  0.979700  0.102600  1.0  0.0938
  H  H241  1  0.291100  0.460500  0.507600  1.0  0.1029
  H  H242  1  0.322600  0.416000  0.457900  1.0  0.1007
  H  H243  1  0.364800  0.444600  0.405500  1.0  0.0838
  H  H244  1  0.377300  0.517000  0.402800  1.0  0.1001
  H  H245  1  0.344800  0.561600  0.452000  1.0  0.109
  H  H246  1  0.217300  0.635600  0.602800  1.0  0.0897
  H  H247  1  0.211700  0.576000  0.653000  1.0  0.1229
  H  H248  1  0.246000  0.479700  0.602600  1.0  0.0938
  H  H249  1  0.208900  0.460500  0.492400  1.0  0.1027
  H  H250  1  0.177400  0.416000  0.542100  1.0  0.1004
  H  H251  1  0.135200  0.444600  0.594500  1.0  0.0842
  H  H252  1  0.122700  0.517000  0.597200  1.0  0.0991
  H  H253  1  0.155200  0.561600  0.548000  1.0  0.1093
  H  H254  1  0.282700  0.635600  0.397200  1.0  0.0888
  H  H255  1  0.288300  0.576000  0.347000  1.0  0.1227
  H  H256  1  0.254000  0.479700  0.397400  1.0  0.0943
  H  H257  1  0.708900  0.960500  0.992400  1.0  0.1027
  H  H258  1  0.677400  0.916000  0.042100  1.0  0.1004
  H  H259  1  0.635200  0.944600  0.094500  1.0  0.0842
  H  H260  1  0.622700  0.017000  0.097200  1.0  0.0991
  H  H261  1  0.655200  0.061600  0.048000  1.0  0.1093
  H  H262  1  0.782700  0.135600  0.897200  1.0  0.0888
  H  H263  1  0.788300  0.076000  0.847000  1.0  0.1227
  H  H264  1  0.754000  0.979700  0.897400  1.0  0.0943
  H  H265  1  0.291100  0.539500  0.992400  1.0  0.1034
  H  H266  1  0.322600  0.584000  0.042100  1.0  0.1006
  H  H267  1  0.364800  0.555400  0.094500  1.0  0.0836
  H  H268  1  0.377300  0.483000  0.097200  1.0  0.0996
  H  H269  1  0.344800  0.438400  0.048000  1.0  0.1087
  H  H270  1  0.217300  0.364400  0.897200  1.0  0.0891
  H  H271  1  0.211700  0.424000  0.847000  1.0  0.1225
  H  H272  1  0.246000  0.520300  0.897400  1.0  0.094
  H  H273  1  0.791100  0.039500  0.492400  1.0  0.1034
  H  H274  1  0.822600  0.084000  0.542100  1.0  0.1006
  H  H275  1  0.864800  0.055400  0.594500  1.0  0.0836
  H  H276  1  0.877300  0.983000  0.597200  1.0  0.0996
  H  H277  1  0.844800  0.938400  0.548000  1.0  0.1087
  H  H278  1  0.717300  0.864400  0.397200  1.0  0.0891
  H  H279  1  0.711700  0.924000  0.347000  1.0  0.1225
  H  H280  1  0.746000  0.020300  0.397400  1.0  0.094
  H  H281  1  0.539500  0.992400  0.291100  1.0  0.1032
  H  H282  1  0.584000  0.042100  0.322600  1.0  0.1004
  H  H283  1  0.555400  0.094500  0.364800  1.0  0.0849
  H  H284  1  0.483000  0.097200  0.377300  1.0  0.101
  H  H285  1  0.438400  0.048000  0.344800  1.0  0.1091
  H  H286  1  0.364400  0.897200  0.217300  1.0  0.088
  H  H287  1  0.424000  0.847000  0.211700  1.0  0.1211
  H  H288  1  0.520300  0.897400  0.246000  1.0  0.0942
  H  H289  1  0.039500  0.492400  0.791100  1.0  0.1032
  H  H290  1  0.084000  0.542100  0.822600  1.0  0.1004
  H  H291  1  0.055400  0.594500  0.864800  1.0  0.0849
  H  H292  1  0.983000  0.597200  0.877300  1.0  0.101
  H  H293  1  0.938400  0.548000  0.844800  1.0  0.1091
  H  H294  1  0.864400  0.397200  0.717300  1.0  0.088
  H  H295  1  0.924000  0.347000  0.711700  1.0  0.1211
  H  H296  1  0.020300  0.397400  0.746000  1.0  0.0942
  H  H297  1  0.460500  0.492400  0.208900  1.0  0.1026
  H  H298  1  0.416000  0.542100  0.177400  1.0  0.0996
  H  H299  1  0.444600  0.594500  0.135200  1.0  0.0848
  H  H300  1  0.517000  0.597200  0.122700  1.0  0.1008
  H  H301  1  0.561600  0.548000  0.155200  1.0  0.1094
  H  H302  1  0.635600  0.397200  0.282700  1.0  0.0886
  H  H303  1  0.576000  0.347000  0.288300  1.0  0.1205
  H  H304  1  0.479700  0.397400  0.254000  1.0  0.0958
  H  H305  1  0.960500  0.992400  0.708900  1.0  0.1026
  H  H306  1  0.916000  0.042100  0.677400  1.0  0.0996
  H  H307  1  0.944600  0.094500  0.635200  1.0  0.0848
  H  H308  1  0.017000  0.097200  0.622700  1.0  0.1008
  H  H309  1  0.061600  0.048000  0.655200  1.0  0.1094
  H  H310  1  0.135600  0.897200  0.782700  1.0  0.0886
  H  H311  1  0.076000  0.847000  0.788300  1.0  0.1205
  H  H312  1  0.979700  0.897400  0.754000  1.0  0.0958
  H  H313  1  0.960500  0.007600  0.791100  1.0  0.1028
  H  H314  1  0.916000  0.957900  0.822600  1.0  0.0996
  H  H315  1  0.944600  0.905500  0.864800  1.0  0.0851
  H  H316  1  0.017000  0.902800  0.877300  1.0  0.1009
  H  H317  1  0.061600  0.952000  0.844800  1.0  0.1078
  H  H318  1  0.135600  0.102800  0.717300  1.0  0.0892
  H  H319  1  0.076000  0.153000  0.711700  1.0  0.1212
  H  H320  1  0.979700  0.102600  0.746000  1.0  0.0953
  H  H321  1  0.460500  0.507600  0.291100  1.0  0.1028
  H  H322  1  0.416000  0.457900  0.322600  1.0  0.0996
  H  H323  1  0.444600  0.405500  0.364800  1.0  0.0851
  H  H324  1  0.517000  0.402800  0.377300  1.0  0.1009
  H  H325  1  0.561600  0.452000  0.344800  1.0  0.1078
  H  H326  1  0.635600  0.602800  0.217300  1.0  0.0892
  H  H327  1  0.576000  0.653000  0.211700  1.0  0.1212
  H  H328  1  0.479700  0.602600  0.246000  1.0  0.0953
  H  H329  1  0.039500  0.507600  0.708900  1.0  0.103
  H  H330  1  0.084000  0.457900  0.677400  1.0  0.1003
  H  H331  1  0.055400  0.405500  0.635200  1.0  0.0852
  H  H332  1  0.983000  0.402800  0.622700  1.0  0.1006
  H  H333  1  0.938400  0.452000  0.655200  1.0  0.1095
  H  H334  1  0.864400  0.602800  0.782700  1.0  0.0886
  H  H335  1  0.924000  0.653000  0.788300  1.0  0.1215
  H  H336  1  0.020300  0.602600  0.754000  1.0  0.0953
  H  H337  1  0.539500  0.007600  0.208900  1.0  0.103
  H  H338  1  0.584000  0.957900  0.177400  1.0  0.1003
  H  H339  1  0.555400  0.905500  0.135200  1.0  0.0852
  H  H340  1  0.483000  0.902800  0.122700  1.0  0.1006
  H  H341  1  0.438400  0.952000  0.155200  1.0  0.1095
  H  H342  1  0.364400  0.102800  0.282700  1.0  0.0886
  H  H343  1  0.424000  0.153000  0.288300  1.0  0.1215
  H  H344  1  0.520300  0.102600  0.254000  1.0  0.0953
  H  H345  1  0.492400  0.208900  0.460500  1.0  0.1028
  H  H346  1  0.542100  0.177400  0.416000  1.0  0.0998
  H  H347  1  0.594500  0.135200  0.444600  1.0  0.0844
  H  H348  1  0.597200  0.122700  0.517000  1.0  0.1024
  H  H349  1  0.548000  0.155200  0.561600  1.0  0.1108
  H  H350  1  0.397200  0.282700  0.635600  1.0  0.0886
  H  H351  1  0.347000  0.288300  0.576000  1.0  0.1226
  H  H352  1  0.397400  0.254000  0.479700  1.0  0.0935
  H  H353  1  0.992400  0.708900  0.960500  1.0  0.1028
  H  H354  1  0.042100  0.677400  0.916000  1.0  0.0998
  H  H355  1  0.094500  0.635200  0.944600  1.0  0.0844
  H  H356  1  0.097200  0.622700  0.017000  1.0  0.1024
  H  H357  1  0.048000  0.655200  0.061600  1.0  0.1108
  H  H358  1  0.897200  0.782700  0.135600  1.0  0.0886
  H  H359  1  0.847000  0.788300  0.076000  1.0  0.1226
  H  H360  1  0.897400  0.754000  0.979700  1.0  0.0935
  H  H361  1  0.992400  0.291100  0.539500  1.0  0.1032
  H  H362  1  0.042100  0.322600  0.584000  1.0  0.1
  H  H363  1  0.094500  0.364800  0.555400  1.0  0.084
  H  H364  1  0.097200  0.377300  0.483000  1.0  0.1022
  H  H365  1  0.048000  0.344800  0.438400  1.0  0.1109
  H  H366  1  0.897200  0.217300  0.364400  1.0  0.0893
  H  H367  1  0.847000  0.211700  0.424000  1.0  0.1218
  H  H368  1  0.897400  0.246000  0.520300  1.0  0.0937
  H  H369  1  0.492400  0.791100  0.039500  1.0  0.1032
  H  H370  1  0.542100  0.822600  0.084000  1.0  0.1
  H  H371  1  0.594500  0.864800  0.055400  1.0  0.084
  H  H372  1  0.597200  0.877300  0.983000  1.0  0.1022
  H  H373  1  0.548000  0.844800  0.938400  1.0  0.1109
  H  H374  1  0.397200  0.717300  0.864400  1.0  0.0893
  H  H375  1  0.347000  0.711700  0.924000  1.0  0.1218
  H  H376  1  0.397400  0.746000  0.020300  1.0  0.0937
  H  H377  1  0.507600  0.708900  0.039500  1.0  0.1032
  H  H378  1  0.457900  0.677400  0.084000  1.0  0.0996
  H  H379  1  0.405500  0.635200  0.055400  1.0  0.0841
  H  H380  1  0.402800  0.622700  0.983000  1.0  0.102
  H  H381  1  0.452000  0.655200  0.938400  1.0  0.1108
  H  H382  1  0.602800  0.782700  0.864400  1.0  0.0893
  H  H383  1  0.653000  0.788300  0.924000  1.0  0.1227
  H  H384  1  0.602600  0.754000  0.020300  1.0  0.0938
  H  H385  1  0.007600  0.208900  0.539500  1.0  0.1032
  H  H386  1  0.957900  0.177400  0.584000  1.0  0.0996
  H  H387  1  0.905500  0.135200  0.555400  1.0  0.0841
  H  H388  1  0.902800  0.122700  0.483000  1.0  0.102
  H  H389  1  0.952000  0.155200  0.438400  1.0  0.1108
  H  H390  1  0.102800  0.282700  0.364400  1.0  0.0893
  H  H391  1  0.153000  0.288300  0.424000  1.0  0.1227
  H  H392  1  0.102600  0.254000  0.520300  1.0  0.0938
  H  H393  1  0.007600  0.791100  0.960500  1.0  0.1032
  H  H394  1  0.957900  0.822600  0.916000  1.0  0.0999
  H  H395  1  0.905500  0.864800  0.944600  1.0  0.0843
  H  H396  1  0.902800  0.877300  0.017000  1.0  0.1026
  H  H397  1  0.952000  0.844800  0.061600  1.0  0.1104
  H  H398  1  0.102800  0.717300  0.135600  1.0  0.0875
  H  H399  1  0.153000  0.711700  0.076000  1.0  0.1227
  H  H400  1  0.102600  0.746000  0.979700  1.0  0.0938
  H  H401  1  0.507600  0.291100  0.460500  1.0  0.1032
  H  H402  1  0.457900  0.322600  0.416000  1.0  0.0999
  H  H403  1  0.405500  0.364800  0.444600  1.0  0.0843
  H  H404  1  0.402800  0.377300  0.517000  1.0  0.1026
  H  H405  1  0.452000  0.344800  0.561600  1.0  0.1104
  H  H406  1  0.602800  0.217300  0.635600  1.0  0.0875
  H  H407  1  0.653000  0.211700  0.576000  1.0  0.1227
  H  H408  1  0.602600  0.246000  0.479700  1.0  0.0938
  H  H409  1  0.210500  0.041100  0.257600  1.0  0.1038
  H  H410  1  0.166000  0.072600  0.207900  1.0  0.0996
  H  H411  1  0.194600  0.114800  0.155500  1.0  0.0842
  H  H412  1  0.267000  0.127300  0.152800  1.0  0.101
  H  H413  1  0.311600  0.094800  0.202000  1.0  0.1085
  H  H414  1  0.385600  0.967300  0.352800  1.0  0.0881
  H  H415  1  0.326000  0.961700  0.403000  1.0  0.121
  H  H416  1  0.229700  0.996000  0.352600  1.0  0.0944
  H  H417  1  0.710500  0.541100  0.757600  1.0  0.1038
  H  H418  1  0.666000  0.572600  0.707900  1.0  0.0996
  H  H419  1  0.694600  0.614800  0.655500  1.0  0.0842
  H  H420  1  0.767000  0.627300  0.652800  1.0  0.101
  H  H421  1  0.811600  0.594800  0.702000  1.0  0.1085
  H  H422  1  0.885600  0.467300  0.852800  1.0  0.0881
  H  H423  1  0.826000  0.461700  0.903000  1.0  0.121
  H  H424  1  0.729700  0.496000  0.852600  1.0  0.0944
  H  H425  1  0.289500  0.958900  0.757600  1.0  0.1042
  H  H426  1  0.334000  0.927400  0.707900  1.0  0.1002
  H  H427  1  0.305400  0.885200  0.655500  1.0  0.0844
  H  H428  1  0.233000  0.872700  0.652800  1.0  0.1005
  H  H429  1  0.188400  0.905200  0.702000  1.0  0.1092
  H  H430  1  0.114400  0.032700  0.852800  1.0  0.0881
  H  H431  1  0.174000  0.038300  0.903000  1.0  0.1223
  H  H432  1  0.270300  0.004000  0.852600  1.0  0.0937
  H  H433  1  0.789500  0.458900  0.257600  1.0  0.1042
  H  H434  1  0.834000  0.427400  0.207900  1.0  0.1002
  H  H435  1  0.805400  0.385200  0.155500  1.0  0.0844
  H  H436  1  0.733000  0.372700  0.152800  1.0  0.1005
  H  H437  1  0.688400  0.405200  0.202000  1.0  0.1092
  H  H438  1  0.614400  0.532700  0.352800  1.0  0.0881
  H  H439  1  0.674000  0.538300  0.403000  1.0  0.1223
  H  H440  1  0.770300  0.504000  0.352600  1.0  0.0937
  H  H441  1  0.789500  0.541100  0.242400  1.0  0.1043
  H  H442  1  0.834000  0.572600  0.292100  1.0  0.1004
  H  H443  1  0.805400  0.614800  0.344500  1.0  0.0841
  H  H444  1  0.733000  0.627300  0.347200  1.0  0.1009
  H  H445  1  0.688400  0.594800  0.298000  1.0  0.1085
  H  H446  1  0.614400  0.467300  0.147200  1.0  0.0871
  H  H447  1  0.674000  0.461700  0.097000  1.0  0.1221
  H  H448  1  0.770300  0.496000  0.147400  1.0  0.0941
  H  H449  1  0.289500  0.041100  0.742400  1.0  0.1043
  H  H450  1  0.334000  0.072600  0.792100  1.0  0.1004
  H  H451  1  0.305400  0.114800  0.844500  1.0  0.0841
  H  H452  1  0.233000  0.127300  0.847200  1.0  0.1009
  H  H453  1  0.188400  0.094800  0.798000  1.0  0.1085
  H  H454  1  0.114400  0.967300  0.647200  1.0  0.0871
  H  H455  1  0.174000  0.961700  0.597000  1.0  0.1221
  H  H456  1  0.270300  0.996000  0.647400  1.0  0.0941
  H  H457  1  0.710500  0.458900  0.742400  1.0  0.1035
  H  H458  1  0.666000  0.427400  0.792100  1.0  0.0995
  H  H459  1  0.694600  0.385200  0.844500  1.0  0.0843
  H  H460  1  0.767000  0.372700  0.847200  1.0  0.1007
  H  H461  1  0.811600  0.405200  0.798000  1.0  0.1079
  H  H462  1  0.885600  0.532700  0.647200  1.0  0.0887
  H  H463  1  0.826000  0.538300  0.597000  1.0  0.1214
  H  H464  1  0.729700  0.504000  0.647400  1.0  0.0949
  H  H465  1  0.210500  0.958900  0.242400  1.0  0.1035
  H  H466  1  0.166000  0.927400  0.292100  1.0  0.0995
  H  H467  1  0.194600  0.885200  0.344500  1.0  0.0843
  H  H468  1  0.267000  0.872700  0.347200  1.0  0.1007
  H  H469  1  0.311600  0.905200  0.298000  1.0  0.1079
  H  H470  1  0.385600  0.032700  0.147200  1.0  0.0887
  H  H471  1  0.326000  0.038300  0.097000  1.0  0.1214
  H  H472  1  0.229700  0.004000  0.147400  1.0  0.0949
  H  H473  1  0.257600  0.210500  0.041100  1.0  0.1022
  H  H474  1  0.207900  0.166000  0.072600  1.0  0.1005
  H  H475  1  0.155500  0.194600  0.114800  1.0  0.0847
  H  H476  1  0.152800  0.267000  0.127300  1.0  0.1014
  H  H477  1  0.202000  0.311600  0.094800  1.0  0.1095
  H  H478  1  0.352800  0.385600  0.967300  1.0  0.0888
  H  H479  1  0.403000  0.326000  0.961700  1.0  0.1224
  H  H480  1  0.352600  0.229700  0.996000  1.0  0.0945
  H  H481  1  0.757600  0.710500  0.541100  1.0  0.1022
  H  H482  1  0.707900  0.666000  0.572600  1.0  0.1005
  H  H483  1  0.655500  0.694600  0.614800  1.0  0.0847
  H  H484  1  0.652800  0.767000  0.627300  1.0  0.1014
  H  H485  1  0.702000  0.811600  0.594800  1.0  0.1095
  H  H486  1  0.852800  0.885600  0.467300  1.0  0.0888
  H  H487  1  0.903000  0.826000  0.461700  1.0  0.1224
  H  H488  1  0.852600  0.729700  0.496000  1.0  0.0945
  H  H489  1  0.757600  0.289500  0.958900  1.0  0.1027
  H  H490  1  0.707900  0.334000  0.927400  1.0  0.1003
  H  H491  1  0.655500  0.305400  0.885200  1.0  0.0846
  H  H492  1  0.652800  0.233000  0.872700  1.0  0.1009
  H  H493  1  0.702000  0.188400  0.905200  1.0  0.1101
  H  H494  1  0.852800  0.114400  0.032700  1.0  0.0891
  H  H495  1  0.903000  0.174000  0.038300  1.0  0.1223
  H  H496  1  0.852600  0.270300  0.004000  1.0  0.0952
  H  H497  1  0.257600  0.789500  0.458900  1.0  0.1027
  H  H498  1  0.207900  0.834000  0.427400  1.0  0.1003
  H  H499  1  0.155500  0.805400  0.385200  1.0  0.0846
  H  H500  1  0.152800  0.733000  0.372700  1.0  0.1009
  H  H501  1  0.202000  0.688400  0.405200  1.0  0.1101
  H  H502  1  0.352800  0.614400  0.532700  1.0  0.0891
  H  H503  1  0.403000  0.674000  0.538300  1.0  0.1223
  H  H504  1  0.352600  0.770300  0.504000  1.0  0.0952
  H  H505  1  0.242400  0.789500  0.541100  1.0  0.1029
  H  H506  1  0.292100  0.834000  0.572600  1.0  0.1006
  H  H507  1  0.344500  0.805400  0.614800  1.0  0.0848
  H  H508  1  0.347200  0.733000  0.627300  1.0  0.1016
  H  H509  1  0.298000  0.688400  0.594800  1.0  0.1094
  H  H510  1  0.147200  0.614400  0.467300  1.0  0.0894
  H  H511  1  0.097000  0.674000  0.461700  1.0  0.1219
  H  H512  1  0.147400  0.770300  0.496000  1.0  0.0948
  H  H513  1  0.742400  0.289500  0.041100  1.0  0.1029
  H  H514  1  0.792100  0.334000  0.072600  1.0  0.1006
  H  H515  1  0.844500  0.305400  0.114800  1.0  0.0848
  H  H516  1  0.847200  0.233000  0.127300  1.0  0.1016
  H  H517  1  0.798000  0.188400  0.094800  1.0  0.1094
  H  H518  1  0.647200  0.114400  0.967300  1.0  0.0894
  H  H519  1  0.597000  0.174000  0.961700  1.0  0.1219
  H  H520  1  0.647400  0.270300  0.996000  1.0  0.0948
  H  H521  1  0.742400  0.710500  0.458900  1.0  0.1022
  H  H522  1  0.792100  0.666000  0.427400  1.0  0.1009
  H  H523  1  0.844500  0.694600  0.385200  1.0  0.0848
  H  H524  1  0.847200  0.767000  0.372700  1.0  0.1011
  H  H525  1  0.798000  0.811600  0.405200  1.0  0.1104
  H  H526  1  0.647200  0.885600  0.532700  1.0  0.0897
  H  H527  1  0.597000  0.826000  0.538300  1.0  0.122
  H  H528  1  0.647400  0.729700  0.504000  1.0  0.0949
  H  H529  1  0.242400  0.210500  0.958900  1.0  0.1022
  H  H530  1  0.292100  0.166000  0.927400  1.0  0.1009
  H  H531  1  0.344500  0.194600  0.885200  1.0  0.0848
  H  H532  1  0.347200  0.267000  0.872700  1.0  0.1011
  H  H533  1  0.298000  0.311600  0.905200  1.0  0.1104
  H  H534  1  0.147200  0.385600  0.032700  1.0  0.0897
  H  H535  1  0.097000  0.326000  0.038300  1.0  0.122
  H  H536  1  0.147400  0.229700  0.004000  1.0  0.0949
  H  H537  1  0.041100  0.257600  0.210500  1.0  0.1029
  H  H538  1  0.072600  0.207900  0.166000  1.0  0.0995
  H  H539  1  0.114800  0.155500  0.194600  1.0  0.0841
  H  H540  1  0.127300  0.152800  0.267000  1.0  0.1006
  H  H541  1  0.094800  0.202000  0.311600  1.0  0.1093
  H  H542  1  0.967300  0.352800  0.385600  1.0  0.0897
  H  H543  1  0.961700  0.403000  0.326000  1.0  0.1228
  H  H544  1  0.996000  0.352600  0.229700  1.0  0.0941
  H  H545  1  0.541100  0.757600  0.710500  1.0  0.1029
  H  H546  1  0.572600  0.707900  0.666000  1.0  0.0995
  H  H547  1  0.614800  0.655500  0.694600  1.0  0.0841
  H  H548  1  0.627300  0.652800  0.767000  1.0  0.1006
  H  H549  1  0.594800  0.702000  0.811600  1.0  0.1093
  H  H550  1  0.467300  0.852800  0.885600  1.0  0.0897
  H  H551  1  0.461700  0.903000  0.826000  1.0  0.1228
  H  H552  1  0.496000  0.852600  0.729700  1.0  0.0941
  H  H553  1  0.958900  0.757600  0.289500  1.0  0.1022
  H  H554  1  0.927400  0.707900  0.334000  1.0  0.0988
  H  H555  1  0.885200  0.655500  0.305400  1.0  0.0842
  H  H556  1  0.872700  0.652800  0.233000  1.0  0.1003
  H  H557  1  0.905200  0.702000  0.188400  1.0  0.1109
  H  H558  1  0.032700  0.852800  0.114400  1.0  0.0903
  H  H559  1  0.038300  0.903000  0.174000  1.0  0.1222
  H  H560  1  0.004000  0.852600  0.270300  1.0  0.0943
  H  H561  1  0.458900  0.257600  0.789500  1.0  0.1022
  H  H562  1  0.427400  0.207900  0.834000  1.0  0.0988
  H  H563  1  0.385200  0.155500  0.805400  1.0  0.0842
  H  H564  1  0.372700  0.152800  0.733000  1.0  0.1003
  H  H565  1  0.405200  0.202000  0.688400  1.0  0.1109
  H  H566  1  0.532700  0.352800  0.614400  1.0  0.0903
  H  H567  1  0.538300  0.403000  0.674000  1.0  0.1222
  H  H568  1  0.504000  0.352600  0.770300  1.0  0.0943
  H  H569  1  0.541100  0.242400  0.789500  1.0  0.1028
  H  H570  1  0.572600  0.292100  0.834000  1.0  0.0996
  H  H571  1  0.614800  0.344500  0.805400  1.0  0.0837
  H  H572  1  0.627300  0.347200  0.733000  1.0  0.1006
  H  H573  1  0.594800  0.298000  0.688400  1.0  0.1101
  H  H574  1  0.467300  0.147200  0.614400  1.0  0.0899
  H  H575  1  0.461700  0.097000  0.674000  1.0  0.1216
  H  H576  1  0.496000  0.147400  0.770300  1.0  0.0939
  H  H577  1  0.041100  0.742400  0.289500  1.0  0.1028
  H  H578  1  0.072600  0.792100  0.334000  1.0  0.0996
  H  H579  1  0.114800  0.844500  0.305400  1.0  0.0837
  H  H580  1  0.127300  0.847200  0.233000  1.0  0.1006
  H  H581  1  0.094800  0.798000  0.188400  1.0  0.1101
  H  H582  1  0.967300  0.647200  0.114400  1.0  0.0899
  H  H583  1  0.961700  0.597000  0.174000  1.0  0.1216
  H  H584  1  0.996000  0.647400  0.270300  1.0  0.0939
  H  H585  1  0.458900  0.742400  0.710500  1.0  0.1025
  H  H586  1  0.427400  0.792100  0.666000  1.0  0.0991
  H  H587  1  0.385200  0.844500  0.694600  1.0  0.0842
  H  H588  1  0.372700  0.847200  0.767000  1.0  0.1001
  H  H589  1  0.405200  0.798000  0.811600  1.0  0.1106
  H  H590  1  0.532700  0.647200  0.885600  1.0  0.0887
  H  H591  1  0.538300  0.597000  0.826000  1.0  0.1223
  H  H592  1  0.504000  0.647400  0.729700  1.0  0.0938
  H  H593  1  0.958900  0.242400  0.210500  1.0  0.1025
  H  H594  1  0.927400  0.292100  0.166000  1.0  0.0991
  H  H595  1  0.885200  0.344500  0.194600  1.0  0.0842
  H  H596  1  0.872700  0.347200  0.267000  1.0  0.1001
  H  H597  1  0.905200  0.298000  0.311600  1.0  0.1106
  H  H598  1  0.032700  0.147200  0.385600  1.0  0.0887
  H  H599  1  0.038300  0.097000  0.326000  1.0  0.1223
  H  H600  1  0.004000  0.147400  0.229700  1.0  0.0938
  H  H601  1  0.291100  0.960500  0.492400  1.0  0.1026
  H  H602  1  0.322600  0.916000  0.542100  1.0  0.1006
  H  H603  1  0.364800  0.944600  0.594500  1.0  0.0841
  H  H604  1  0.377300  0.017000  0.597200  1.0  0.0996
  H  H605  1  0.344800  0.061600  0.548000  1.0  0.1087
  H  H606  1  0.217300  0.135600  0.397200  1.0  0.0896
  H  H607  1  0.211700  0.076000  0.347000  1.0  0.1228
  H  H608  1  0.246000  0.979700  0.397400  1.0  0.0946
  H  H609  1  0.791100  0.460500  0.992400  1.0  0.1026
  H  H610  1  0.822600  0.416000  0.042100  1.0  0.1006
  H  H611  1  0.864800  0.444600  0.094500  1.0  0.0841
  H  H612  1  0.877300  0.517000  0.097200  1.0  0.0996
  H  H613  1  0.844800  0.561600  0.048000  1.0  0.1087
  H  H614  1  0.717300  0.635600  0.897200  1.0  0.0896
  H  H615  1  0.711700  0.576000  0.847000  1.0  0.1228
  H  H616  1  0.746000  0.479700  0.897400  1.0  0.0946
  H  H617  1  0.208900  0.039500  0.992400  1.0  0.103
  H  H618  1  0.177400  0.084000  0.042100  1.0  0.1002
  H  H619  1  0.135200  0.055400  0.094500  1.0  0.0838
  H  H620  1  0.122700  0.983000  0.097200  1.0  0.0994
  H  H621  1  0.155200  0.938400  0.048000  1.0  0.1092
  H  H622  1  0.282700  0.864400  0.897200  1.0  0.0892
  H  H623  1  0.288300  0.924000  0.847000  1.0  0.1225
  H  H624  1  0.254000  0.020300  0.897400  1.0  0.0939
  H  H625  1  0.708900  0.539500  0.492400  1.0  0.103
  H  H626  1  0.677400  0.584000  0.542100  1.0  0.1002
  H  H627  1  0.635200  0.555400  0.594500  1.0  0.0838
  H  H628  1  0.622700  0.483000  0.597200  1.0  0.0994
  H  H629  1  0.655200  0.438400  0.548000  1.0  0.1092
  H  H630  1  0.782700  0.364400  0.397200  1.0  0.0892
  H  H631  1  0.788300  0.424000  0.347000  1.0  0.1225
  H  H632  1  0.754000  0.520300  0.397400  1.0  0.0939
  H  H633  1  0.791100  0.539500  0.507600  1.0  0.1033
  H  H634  1  0.822600  0.584000  0.457900  1.0  0.1005
  H  H635  1  0.864800  0.555400  0.405500  1.0  0.0839
  H  H636  1  0.877300  0.483000  0.402800  1.0  0.0998
  H  H637  1  0.844800  0.438400  0.452000  1.0  0.109
  H  H638  1  0.717300  0.364400  0.602800  1.0  0.0898
  H  H639  1  0.711700  0.424000  0.653000  1.0  0.123
  H  H640  1  0.746000  0.520300  0.602600  1.0  0.0943
  H  H641  1  0.291100  0.039500  0.007600  1.0  0.1033
  H  H642  1  0.322600  0.084000  0.957900  1.0  0.1005
  H  H643  1  0.364800  0.055400  0.905500  1.0  0.0839
  H  H644  1  0.377300  0.983000  0.902800  1.0  0.0998
  H  H645  1  0.344800  0.938400  0.952000  1.0  0.109
  H  H646  1  0.217300  0.864400  0.102800  1.0  0.0898
  H  H647  1  0.211700  0.924000  0.153000  1.0  0.123
  H  H648  1  0.246000  0.020300  0.102600  1.0  0.0943
  H  H649  1  0.708900  0.460500  0.007600  1.0  0.1033
  H  H650  1  0.677400  0.416000  0.957900  1.0  0.1004
  H  H651  1  0.635200  0.444600  0.905500  1.0  0.0837
  H  H652  1  0.622700  0.517000  0.902800  1.0  0.0995
  H  H653  1  0.655200  0.561600  0.952000  1.0  0.1095
  H  H654  1  0.782700  0.635600  0.102800  1.0  0.0891
  H  H655  1  0.788300  0.576000  0.153000  1.0  0.1222
  H  H656  1  0.754000  0.479700  0.102600  1.0  0.0934
  H  H657  1  0.208900  0.960500  0.507600  1.0  0.1033
  H  H658  1  0.177400  0.916000  0.457900  1.0  0.1004
  H  H659  1  0.135200  0.944600  0.405500  1.0  0.0837
  H  H660  1  0.122700  0.017000  0.402800  1.0  0.0995
  H  H661  1  0.155200  0.061600  0.452000  1.0  0.1095
  H  H662  1  0.282700  0.135600  0.602800  1.0  0.0891
  H  H663  1  0.288300  0.076000  0.653000  1.0  0.1222
  H  H664  1  0.254000  0.979700  0.602600  1.0  0.0934
  H  H665  1  0.460500  0.007600  0.708900  1.0  0.1025
  H  H666  1  0.416000  0.957900  0.677400  1.0  0.0995
  H  H667  1  0.444600  0.905500  0.635200  1.0  0.0846
  H  H668  1  0.517000  0.902800  0.622700  1.0  0.1009
  H  H669  1  0.561600  0.952000  0.655200  1.0  0.1094
  H  H670  1  0.635600  0.102800  0.782700  1.0  0.0897
  H  H671  1  0.576000  0.153000  0.788300  1.0  0.1201
  H  H672  1  0.479700  0.102600  0.754000  1.0  0.0957
  H  H673  1  0.960500  0.507600  0.208900  1.0  0.1025
  H  H674  1  0.916000  0.457900  0.177400  1.0  0.0995
  H  H675  1  0.944600  0.405500  0.135200  1.0  0.0846
  H  H676  1  0.017000  0.402800  0.122700  1.0  0.1009
  H  H677  1  0.061600  0.452000  0.155200  1.0  0.1094
  H  H678  1  0.135600  0.602800  0.282700  1.0  0.0897
  H  H679  1  0.076000  0.653000  0.288300  1.0  0.1201
  H  H680  1  0.979700  0.602600  0.254000  1.0  0.0957
  H  H681  1  0.539500  0.507600  0.791100  1.0  0.103
  H  H682  1  0.584000  0.457900  0.822600  1.0  0.1005
  H  H683  1  0.555400  0.405500  0.864800  1.0  0.0854
  H  H684  1  0.483000  0.402800  0.877300  1.0  0.1013
  H  H685  1  0.438400  0.452000  0.844800  1.0  0.1092
  H  H686  1  0.364400  0.602800  0.717300  1.0  0.0885
  H  H687  1  0.424000  0.653000  0.711700  1.0  0.1219
  H  H688  1  0.520300  0.602600  0.746000  1.0  0.0948
  H  H689  1  0.039500  0.007600  0.291100  1.0  0.103
  H  H690  1  0.084000  0.957900  0.322600  1.0  0.1005
  H  H691  1  0.055400  0.905500  0.364800  1.0  0.0854
  H  H692  1  0.983000  0.902800  0.377300  1.0  0.1013
  H  H693  1  0.938400  0.952000  0.344800  1.0  0.1092
  H  H694  1  0.864400  0.102800  0.217300  1.0  0.0885
  H  H695  1  0.924000  0.153000  0.211700  1.0  0.1219
  H  H696  1  0.020300  0.102600  0.246000  1.0  0.0948
  H  H697  1  0.039500  0.992400  0.208900  1.0  0.1035
  H  H698  1  0.084000  0.042100  0.177400  1.0  0.1006
  H  H699  1  0.055400  0.094500  0.135200  1.0  0.085
  H  H700  1  0.983000  0.097200  0.122700  1.0  0.1008
  H  H701  1  0.938400  0.048000  0.155200  1.0  0.1094
  H  H702  1  0.864400  0.897200  0.282700  1.0  0.0885
  H  H703  1  0.924000  0.847000  0.288300  1.0  0.1218
  H  H704  1  0.020300  0.897400  0.254000  1.0  0.0945
  H  H705  1  0.539500  0.492400  0.708900  1.0  0.1035
  H  H706  1  0.584000  0.542100  0.677400  1.0  0.1006
  H  H707  1  0.555400  0.594500  0.635200  1.0  0.085
  H  H708  1  0.483000  0.597200  0.622700  1.0  0.1008
  H  H709  1  0.438400  0.548000  0.655200  1.0  0.1094
  H  H710  1  0.364400  0.397200  0.782700  1.0  0.0885
  H  H711  1  0.424000  0.347000  0.788300  1.0  0.1218
  H  H712  1  0.520300  0.397400  0.754000  1.0  0.0945
  H  H713  1  0.960500  0.492400  0.291100  1.0  0.1025
  H  H714  1  0.916000  0.542100  0.322600  1.0  0.0993
  H  H715  1  0.944600  0.594500  0.364800  1.0  0.0849
  H  H716  1  0.017000  0.597200  0.377300  1.0  0.1006
  H  H717  1  0.061600  0.548000  0.344800  1.0  0.1078
  H  H718  1  0.135600  0.397200  0.217300  1.0  0.0881
  H  H719  1  0.076000  0.347000  0.211700  1.0  0.1205
  H  H720  1  0.979700  0.397400  0.246000  1.0  0.0956
  H  H721  1  0.460500  0.992400  0.791100  1.0  0.1025
  H  H722  1  0.416000  0.042100  0.822600  1.0  0.0993
  H  H723  1  0.444600  0.094500  0.864800  1.0  0.0849
  H  H724  1  0.517000  0.097200  0.877300  1.0  0.1006
  H  H725  1  0.561600  0.048000  0.844800  1.0  0.1078
  H  H726  1  0.635600  0.897200  0.717300  1.0  0.0881
  H  H727  1  0.576000  0.847000  0.711700  1.0  0.1205
  H  H728  1  0.479700  0.897400  0.746000  1.0  0.0956
  H  H729  1  0.507600  0.791100  0.539500  1.0  0.1033
  H  H730  1  0.457900  0.822600  0.584000  1.0  0.0998
  H  H731  1  0.405500  0.864800  0.555400  1.0  0.0838
  H  H732  1  0.402800  0.877300  0.483000  1.0  0.1025
  H  H733  1  0.452000  0.844800  0.438400  1.0  0.1108
  H  H734  1  0.602800  0.717300  0.364400  1.0  0.0888
  H  H735  1  0.653000  0.711700  0.424000  1.0  0.122
  H  H736  1  0.602600  0.746000  0.520300  1.0  0.0936
  H  H737  1  0.007600  0.291100  0.039500  1.0  0.1033
  H  H738  1  0.957900  0.322600  0.084000  1.0  0.0998
  H  H739  1  0.905500  0.364800  0.055400  1.0  0.0838
  H  H740  1  0.902800  0.377300  0.983000  1.0  0.1025
  H  H741  1  0.952000  0.344800  0.938400  1.0  0.1108
  H  H742  1  0.102800  0.217300  0.864400  1.0  0.0888
  H  H743  1  0.153000  0.211700  0.924000  1.0  0.122
  H  H744  1  0.102600  0.246000  0.020300  1.0  0.0936
  H  H745  1  0.007600  0.708900  0.460500  1.0  0.1032
  H  H746  1  0.957900  0.677400  0.416000  1.0  0.0996
  H  H747  1  0.905500  0.635200  0.444600  1.0  0.084
  H  H748  1  0.902800  0.622700  0.517000  1.0  0.1024
  H  H749  1  0.952000  0.655200  0.561600  1.0  0.1108
  H  H750  1  0.102800  0.782700  0.635600  1.0  0.088
  H  H751  1  0.153000  0.788300  0.576000  1.0  0.1228
  H  H752  1  0.102600  0.754000  0.479700  1.0  0.094
  H  H753  1  0.507600  0.208900  0.960500  1.0  0.1032
  H  H754  1  0.457900  0.177400  0.916000  1.0  0.0996
  H  H755  1  0.405500  0.135200  0.944600  1.0  0.084
  H  H756  1  0.402800  0.122700  0.017000  1.0  0.1024
  H  H757  1  0.452000  0.155200  0.061600  1.0  0.1108
  H  H758  1  0.602800  0.282700  0.135600  1.0  0.088
  H  H759  1  0.653000  0.288300  0.076000  1.0  0.1228
  H  H760  1  0.602600  0.254000  0.979700  1.0  0.094
  H  H761  1  0.492400  0.291100  0.960500  1.0  0.103
  H  H762  1  0.542100  0.322600  0.916000  1.0  0.0999
  H  H763  1  0.594500  0.364800  0.944600  1.0  0.0843
  H  H764  1  0.597200  0.377300  0.017000  1.0  0.1023
  H  H765  1  0.548000  0.344800  0.061600  1.0  0.1104
  H  H766  1  0.397200  0.217300  0.135600  1.0  0.0884
  H  H767  1  0.347000  0.211700  0.076000  1.0  0.1229
  H  H768  1  0.397400  0.246000  0.979700  1.0  0.0936
  H  H769  1  0.992400  0.791100  0.460500  1.0  0.103
  H  H770  1  0.042100  0.822600  0.416000  1.0  0.0999
  H  H771  1  0.094500  0.864800  0.444600  1.0  0.0843
  H  H772  1  0.097200  0.877300  0.517000  1.0  0.1023
  H  H773  1  0.048000  0.844800  0.561600  1.0  0.1104
  H  H774  1  0.897200  0.717300  0.635600  1.0  0.0884
  H  H775  1  0.847000  0.711700  0.576000  1.0  0.1229
  H  H776  1  0.897400  0.746000  0.479700  1.0  0.0936
  H  H777  1  0.992400  0.208900  0.039500  1.0  0.103
  H  H778  1  0.042100  0.177400  0.084000  1.0  0.0998
  H  H779  1  0.094500  0.135200  0.055400  1.0  0.0846
  H  H780  1  0.097200  0.122700  0.983000  1.0  0.102
  H  H781  1  0.048000  0.155200  0.938400  1.0  0.1107
  H  H782  1  0.897200  0.282700  0.864400  1.0  0.0895
  H  H783  1  0.847000  0.288300  0.924000  1.0  0.1222
  H  H784  1  0.897400  0.254000  0.020300  1.0  0.0936
  H  H785  1  0.492400  0.708900  0.539500  1.0  0.103
  H  H786  1  0.542100  0.677400  0.584000  1.0  0.0998
  H  H787  1  0.594500  0.635200  0.555400  1.0  0.0846
  H  H788  1  0.597200  0.622700  0.483000  1.0  0.102
  H  H789  1  0.548000  0.655200  0.438400  1.0  0.1107
  H  H790  1  0.397200  0.782700  0.364400  1.0  0.0895
  H  H791  1  0.347000  0.788300  0.424000  1.0  0.1222
  H  H792  1  0.397400  0.754000  0.520300  1.0  0.0936
  C  C793  1  0.778270  0.941400  0.763820  1.0  -0.0964
  C  C794  1  0.804500  0.922900  0.793300  1.0  -0.1332
  C  C795  1  0.787500  0.897700  0.824200  1.0  -0.1039
  C  C796  1  0.744300  0.890400  0.826100  1.0  -0.1012
  C  C797  1  0.718000  0.909300  0.796750  1.0  -0.1464
  C  C798  1  0.735400  0.933990  0.766040  1.0  0.1498
  C  C799  1  0.694310  0.989910  0.679590  1.0  0.413
  C  C800  1  0.641750  0.021610  0.651500  1.0  -0.0125
  C  C801  1  0.674380  0.024840  0.623630  1.0  -0.1263
  C  C802  1  0.278270  0.441400  0.263820  1.0  -0.0964
  C  C803  1  0.304500  0.422900  0.293300  1.0  -0.1332
  C  C804  1  0.287500  0.397700  0.324200  1.0  -0.1039
  C  C805  1  0.244300  0.390400  0.326100  1.0  -0.1012
  C  C806  1  0.218000  0.409300  0.296750  1.0  -0.1464
  C  C807  1  0.235400  0.433990  0.266040  1.0  0.1498
  C  C808  1  0.194310  0.489910  0.179590  1.0  0.413
  C  C809  1  0.141750  0.521610  0.151500  1.0  -0.0125
  C  C810  1  0.174380  0.524840  0.123630  1.0  -0.1263
  C  C811  1  0.721730  0.058600  0.263820  1.0  -0.0978
  C  C812  1  0.695500  0.077100  0.293300  1.0  -0.134
  C  C813  1  0.712500  0.102300  0.324200  1.0  -0.1035
  C  C814  1  0.755700  0.109600  0.326100  1.0  -0.1008
  C  C815  1  0.782000  0.090700  0.296750  1.0  -0.1437
  C  C816  1  0.764600  0.066010  0.266040  1.0  0.15
  C  C817  1  0.805690  0.010090  0.179590  1.0  0.4133
  C  C818  1  0.858250  0.978390  0.151500  1.0  -0.0114
  C  C819  1  0.825620  0.975160  0.123630  1.0  -0.1272
  C  C820  1  0.221730  0.558600  0.763820  1.0  -0.0978
  C  C821  1  0.195500  0.577100  0.793300  1.0  -0.134
  C  C822  1  0.212500  0.602300  0.824200  1.0  -0.1035
  C  C823  1  0.255700  0.609600  0.826100  1.0  -0.1008
  C  C824  1  0.282000  0.590700  0.796750  1.0  -0.1437
  C  C825  1  0.264600  0.566010  0.766040  1.0  0.15
  C  C826  1  0.305690  0.510090  0.679590  1.0  0.4133
  C  C827  1  0.358250  0.478390  0.651500  1.0  -0.0114
  C  C828  1  0.325620  0.475160  0.623630  1.0  -0.1272
  C  C829  1  0.221730  0.441400  0.736180  1.0  -0.0968
  C  C830  1  0.195500  0.422900  0.706700  1.0  -0.1341
  C  C831  1  0.212500  0.397700  0.675800  1.0  -0.1039
  C  C832  1  0.255700  0.390400  0.673900  1.0  -0.1021
  C  C833  1  0.282000  0.409300  0.703250  1.0  -0.1455
  C  C834  1  0.264600  0.433990  0.733960  1.0  0.1498
  C  C835  1  0.305690  0.489910  0.820410  1.0  0.4089
  C  C836  1  0.358250  0.521610  0.848500  1.0  -0.0115
  C  C837  1  0.325620  0.524840  0.876370  1.0  -0.1271
  C  C838  1  0.721730  0.941400  0.236180  1.0  -0.0968
  C  C839  1  0.695500  0.922900  0.206700  1.0  -0.1341
  C  C840  1  0.712500  0.897700  0.175800  1.0  -0.1039
  C  C841  1  0.755700  0.890400  0.173900  1.0  -0.1021
  C  C842  1  0.782000  0.909300  0.203250  1.0  -0.1455
  C  C843  1  0.764600  0.933990  0.233960  1.0  0.1498
  C  C844  1  0.805690  0.989910  0.320410  1.0  0.4089
  C  C845  1  0.858250  0.021610  0.348500  1.0  -0.0115
  C  C846  1  0.825620  0.024840  0.376370  1.0  -0.1271
  C  C847  1  0.278270  0.558600  0.236180  1.0  -0.0962
  C  C848  1  0.304500  0.577100  0.206700  1.0  -0.1338
  C  C849  1  0.287500  0.602300  0.175800  1.0  -0.1031
  C  C850  1  0.244300  0.609600  0.173900  1.0  -0.0998
  C  C851  1  0.218000  0.590700  0.203250  1.0  -0.1454
  C  C852  1  0.235400  0.566010  0.233960  1.0  0.1482
  C  C853  1  0.194310  0.510090  0.320410  1.0  0.4128
  C  C854  1  0.141750  0.478390  0.348500  1.0  -0.0117
  C  C855  1  0.174380  0.475160  0.376370  1.0  -0.1271
  C  C856  1  0.778270  0.058600  0.736180  1.0  -0.0962
  C  C857  1  0.804500  0.077100  0.706700  1.0  -0.1338
  C  C858  1  0.787500  0.102300  0.675800  1.0  -0.1031
  C  C859  1  0.744300  0.109600  0.673900  1.0  -0.0998
  C  C860  1  0.718000  0.090700  0.703250  1.0  -0.1454
  C  C861  1  0.735400  0.066010  0.733960  1.0  0.1482
  C  C862  1  0.694310  0.010090  0.820410  1.0  0.4128
  C  C863  1  0.641750  0.978390  0.848500  1.0  -0.0117
  C  C864  1  0.674380  0.975160  0.876370  1.0  -0.1271
  C  C865  1  0.763820  0.778270  0.941400  1.0  -0.0992
  C  C866  1  0.793300  0.804500  0.922900  1.0  -0.1314
  C  C867  1  0.824200  0.787500  0.897700  1.0  -0.1045
  C  C868  1  0.826100  0.744300  0.890400  1.0  -0.0955
  C  C869  1  0.796750  0.718000  0.909300  1.0  -0.1498
  C  C870  1  0.766040  0.735400  0.933990  1.0  0.1452
  C  C871  1  0.679590  0.694310  0.989910  1.0  0.4132
  C  C872  1  0.651500  0.641750  0.021610  1.0  -0.0101
  C  C873  1  0.623630  0.674380  0.024840  1.0  -0.1284
  C  C874  1  0.263820  0.278270  0.441400  1.0  -0.0992
  C  C875  1  0.293300  0.304500  0.422900  1.0  -0.1314
  C  C876  1  0.324200  0.287500  0.397700  1.0  -0.1045
  C  C877  1  0.326100  0.244300  0.390400  1.0  -0.0955
  C  C878  1  0.296750  0.218000  0.409300  1.0  -0.1498
  C  C879  1  0.266040  0.235400  0.433990  1.0  0.1452
  C  C880  1  0.179590  0.194310  0.489910  1.0  0.4132
  C  C881  1  0.151500  0.141750  0.521610  1.0  -0.0101
  C  C882  1  0.123630  0.174380  0.524840  1.0  -0.1284
  C  C883  1  0.263820  0.721730  0.058600  1.0  -0.0997
  C  C884  1  0.293300  0.695500  0.077100  1.0  -0.1331
  C  C885  1  0.324200  0.712500  0.102300  1.0  -0.1069
  C  C886  1  0.326100  0.755700  0.109600  1.0  -0.094
  C  C887  1  0.296750  0.782000  0.090700  1.0  -0.1491
  C  C888  1  0.266040  0.764600  0.066010  1.0  0.1473
  C  C889  1  0.179590  0.805690  0.010090  1.0  0.4164
  C  C890  1  0.151500  0.858250  0.978390  1.0  -0.0106
  C  C891  1  0.123630  0.825620  0.975160  1.0  -0.1292
  C  C892  1  0.763820  0.221730  0.558600  1.0  -0.0997
  C  C893  1  0.793300  0.195500  0.577100  1.0  -0.1331
  C  C894  1  0.824200  0.212500  0.602300  1.0  -0.1069
  C  C895  1  0.826100  0.255700  0.609600  1.0  -0.094
  C  C896  1  0.796750  0.282000  0.590700  1.0  -0.1491
  C  C897  1  0.766040  0.264600  0.566010  1.0  0.1473
  C  C898  1  0.679590  0.305690  0.510090  1.0  0.4164
  C  C899  1  0.651500  0.358250  0.478390  1.0  -0.0106
  C  C900  1  0.623630  0.325620  0.475160  1.0  -0.1292
  C  C901  1  0.736180  0.221730  0.441400  1.0  -0.0974
  C  C902  1  0.706700  0.195500  0.422900  1.0  -0.1328
  C  C903  1  0.675800  0.212500  0.397700  1.0  -0.1048
  C  C904  1  0.673900  0.255700  0.390400  1.0  -0.0957
  C  C905  1  0.703250  0.282000  0.409300  1.0  -0.1493
  C  C906  1  0.733960  0.264600  0.433990  1.0  0.1454
  C  C907  1  0.820410  0.305690  0.489910  1.0  0.4115
  C  C908  1  0.848500  0.358250  0.521610  1.0  -0.0103
  C  C909  1  0.876370  0.325620  0.524840  1.0  -0.1273
  C  C910  1  0.236180  0.721730  0.941400  1.0  -0.0974
  C  C911  1  0.206700  0.695500  0.922900  1.0  -0.1328
  C  C912  1  0.175800  0.712500  0.897700  1.0  -0.1048
  C  C913  1  0.173900  0.755700  0.890400  1.0  -0.0957
  C  C914  1  0.203250  0.782000  0.909300  1.0  -0.1493
  C  C915  1  0.233960  0.764600  0.933990  1.0  0.1454
  C  C916  1  0.320410  0.805690  0.989910  1.0  0.4115
  C  C917  1  0.348500  0.858250  0.021610  1.0  -0.0103
  C  C918  1  0.376370  0.825620  0.024840  1.0  -0.1273
  C  C919  1  0.236180  0.278270  0.558600  1.0  -0.0999
  C  C920  1  0.206700  0.304500  0.577100  1.0  -0.1309
  C  C921  1  0.175800  0.287500  0.602300  1.0  -0.1067
  C  C922  1  0.173900  0.244300  0.609600  1.0  -0.0964
  C  C923  1  0.203250  0.218000  0.590700  1.0  -0.147
  C  C924  1  0.233960  0.235400  0.566010  1.0  0.1477
  C  C925  1  0.320410  0.194310  0.510090  1.0  0.4142
  C  C926  1  0.348500  0.141750  0.478390  1.0  -0.0115
  C  C927  1  0.376370  0.174380  0.475160  1.0  -0.1283
  C  C928  1  0.736180  0.778270  0.058600  1.0  -0.0999
  C  C929  1  0.706700  0.804500  0.077100  1.0  -0.1309
  C  C930  1  0.675800  0.787500  0.102300  1.0  -0.1067
  C  C931  1  0.673900  0.744300  0.109600  1.0  -0.0964
  C  C932  1  0.703250  0.718000  0.090700  1.0  -0.147
  C  C933  1  0.733960  0.735400  0.066010  1.0  0.1477
  C  C934  1  0.820410  0.694310  0.010090  1.0  0.4142
  C  C935  1  0.848500  0.641750  0.978390  1.0  -0.0115
  C  C936  1  0.876370  0.674380  0.975160  1.0  -0.1283
  C  C937  1  0.941400  0.763820  0.778270  1.0  -0.0965
  C  C938  1  0.922900  0.793300  0.804500  1.0  -0.1303
  C  C939  1  0.897700  0.824200  0.787500  1.0  -0.1051
  C  C940  1  0.890400  0.826100  0.744300  1.0  -0.1018
  C  C941  1  0.909300  0.796750  0.718000  1.0  -0.1458
  C  C942  1  0.933990  0.766040  0.735400  1.0  0.147
  C  C943  1  0.989910  0.679590  0.694310  1.0  0.4134
  C  C944  1  0.021610  0.651500  0.641750  1.0  -0.0102
  C  C945  1  0.024840  0.623630  0.674380  1.0  -0.1302
  C  C946  1  0.441400  0.263820  0.278270  1.0  -0.0965
  C  C947  1  0.422900  0.293300  0.304500  1.0  -0.1303
  C  C948  1  0.397700  0.324200  0.287500  1.0  -0.1051
  C  C949  1  0.390400  0.326100  0.244300  1.0  -0.1018
  C  C950  1  0.409300  0.296750  0.218000  1.0  -0.1458
  C  C951  1  0.433990  0.266040  0.235400  1.0  0.147
  C  C952  1  0.489910  0.179590  0.194310  1.0  0.4134
  C  C953  1  0.521610  0.151500  0.141750  1.0  -0.0102
  C  C954  1  0.524840  0.123630  0.174380  1.0  -0.1302
  C  C955  1  0.058600  0.263820  0.721730  1.0  -0.095
  C  C956  1  0.077100  0.293300  0.695500  1.0  -0.1306
  C  C957  1  0.102300  0.324200  0.712500  1.0  -0.105
  C  C958  1  0.109600  0.326100  0.755700  1.0  -0.1009
  C  C959  1  0.090700  0.296750  0.782000  1.0  -0.1472
  C  C960  1  0.066010  0.266040  0.764600  1.0  0.1465
  C  C961  1  0.010090  0.179590  0.805690  1.0  0.414
  C  C962  1  0.978390  0.151500  0.858250  1.0  -0.0109
  C  C963  1  0.975160  0.123630  0.825620  1.0  -0.1295
  C  C964  1  0.558600  0.763820  0.221730  1.0  -0.095
  C  C965  1  0.577100  0.793300  0.195500  1.0  -0.1306
  C  C966  1  0.602300  0.824200  0.212500  1.0  -0.105
  C  C967  1  0.609600  0.826100  0.255700  1.0  -0.1009
  C  C968  1  0.590700  0.796750  0.282000  1.0  -0.1472
  C  C969  1  0.566010  0.766040  0.264600  1.0  0.1465
  C  C970  1  0.510090  0.679590  0.305690  1.0  0.414
  C  C971  1  0.478390  0.651500  0.358250  1.0  -0.0109
  C  C972  1  0.475160  0.623630  0.325620  1.0  -0.1295
  C  C973  1  0.441400  0.736180  0.221730  1.0  -0.0977
  C  C974  1  0.422900  0.706700  0.195500  1.0  -0.1313
  C  C975  1  0.397700  0.675800  0.212500  1.0  -0.105
  C  C976  1  0.390400  0.673900  0.255700  1.0  -0.1023
  C  C977  1  0.409300  0.703250  0.282000  1.0  -0.1463
  C  C978  1  0.433990  0.733960  0.264600  1.0  0.1478
  C  C979  1  0.489910  0.820410  0.305690  1.0  0.4139
  C  C980  1  0.521610  0.848500  0.358250  1.0  -0.0104
  C  C981  1  0.524840  0.876370  0.325620  1.0  -0.1278
  C  C982  1  0.941400  0.236180  0.721730  1.0  -0.0977
  C  C983  1  0.922900  0.206700  0.695500  1.0  -0.1313
  C  C984  1  0.897700  0.175800  0.712500  1.0  -0.105
  C  C985  1  0.890400  0.173900  0.755700  1.0  -0.1023
  C  C986  1  0.909300  0.203250  0.782000  1.0  -0.1463
  C  C987  1  0.933990  0.233960  0.764600  1.0  0.1478
  C  C988  1  0.989910  0.320410  0.805690  1.0  0.4139
  C  C989  1  0.021610  0.348500  0.858250  1.0  -0.0104
  C  C990  1  0.024840  0.376370  0.825620  1.0  -0.1278
  C  C991  1  0.558600  0.236180  0.278270  1.0  -0.0963
  C  C992  1  0.577100  0.206700  0.304500  1.0  -0.1299
  C  C993  1  0.602300  0.175800  0.287500  1.0  -0.1046
  C  C994  1  0.609600  0.173900  0.244300  1.0  -0.1015
  C  C995  1  0.590700  0.203250  0.218000  1.0  -0.1467
  C  C996  1  0.566010  0.233960  0.235400  1.0  0.1457
  C  C997  1  0.510090  0.320410  0.194310  1.0  0.4113
  C  C998  1  0.478390  0.348500  0.141750  1.0  -0.0098
  C  C999  1  0.475160  0.376370  0.174380  1.0  -0.1282
  C  C1000  1  0.058600  0.736180  0.778270  1.0  -0.0963
  C  C1001  1  0.077100  0.706700  0.804500  1.0  -0.1299
  C  C1002  1  0.102300  0.675800  0.787500  1.0  -0.1046
  C  C1003  1  0.109600  0.673900  0.744300  1.0  -0.1015
  C  C1004  1  0.090700  0.703250  0.718000  1.0  -0.1467
  C  C1005  1  0.066010  0.733960  0.735400  1.0  0.1457
  C  C1006  1  0.010090  0.820410  0.694310  1.0  0.4113
  C  C1007  1  0.978390  0.848500  0.641750  1.0  -0.0098
  C  C1008  1  0.975160  0.876370  0.674380  1.0  -0.1282
  C  C1009  1  0.691400  0.028270  0.486180  1.0  -0.098
  C  C1010  1  0.672900  0.054500  0.456700  1.0  -0.1319
  C  C1011  1  0.647700  0.037500  0.425800  1.0  -0.104
  C  C1012  1  0.640400  0.994300  0.423900  1.0  -0.1006
  C  C1013  1  0.659300  0.968000  0.453250  1.0  -0.1476
  C  C1014  1  0.683990  0.985400  0.483960  1.0  0.1487
  C  C1015  1  0.739910  0.944310  0.570410  1.0  0.4099
  C  C1016  1  0.771610  0.891750  0.598500  1.0  -0.0135
  C  C1017  1  0.774840  0.924380  0.626370  1.0  -0.1276
  C  C1018  1  0.191400  0.528270  0.986180  1.0  -0.098
  C  C1019  1  0.172900  0.554500  0.956700  1.0  -0.1319
  C  C1020  1  0.147700  0.537500  0.925800  1.0  -0.104
  C  C1021  1  0.140400  0.494300  0.923900  1.0  -0.1006
  C  C1022  1  0.159300  0.468000  0.953250  1.0  -0.1476
  C  C1023  1  0.183990  0.485400  0.983960  1.0  0.1487
  C  C1024  1  0.239910  0.444310  0.070410  1.0  0.4099
  C  C1025  1  0.271610  0.391750  0.098500  1.0  -0.0135
  C  C1026  1  0.274840  0.424380  0.126370  1.0  -0.1276
  C  C1027  1  0.808600  0.971730  0.986180  1.0  -0.0953
  C  C1028  1  0.827100  0.945500  0.956700  1.0  -0.1328
  C  C1029  1  0.852300  0.962500  0.925800  1.0  -0.1042
  C  C1030  1  0.859600  0.005700  0.923900  1.0  -0.1001
  C  C1031  1  0.840700  0.032000  0.953250  1.0  -0.149
  C  C1032  1  0.816010  0.014600  0.983960  1.0  0.1464
  C  C1033  1  0.760090  0.055690  0.070410  1.0  0.409
  C  C1034  1  0.728390  0.108250  0.098500  1.0  -0.0145
  C  C1035  1  0.725160  0.075620  0.126370  1.0  -0.1293
  C  C1036  1  0.308600  0.471730  0.486180  1.0  -0.0953
  C  C1037  1  0.327100  0.445500  0.456700  1.0  -0.1328
  C  C1038  1  0.352300  0.462500  0.425800  1.0  -0.1042
  C  C1039  1  0.359600  0.505700  0.423900  1.0  -0.1001
  C  C1040  1  0.340700  0.532000  0.453250  1.0  -0.149
  C  C1041  1  0.316010  0.514600  0.483960  1.0  0.1464
  C  C1042  1  0.260090  0.555690  0.570410  1.0  0.409
  C  C1043  1  0.228390  0.608250  0.598500  1.0  -0.0145
  C  C1044  1  0.225160  0.575620  0.626370  1.0  -0.1293
  C  C1045  1  0.191400  0.471730  0.513820  1.0  -0.0975
  C  C1046  1  0.172900  0.445500  0.543300  1.0  -0.1335
  C  C1047  1  0.147700  0.462500  0.574200  1.0  -0.1032
  C  C1048  1  0.140400  0.505700  0.576100  1.0  -0.1016
  C  C1049  1  0.159300  0.532000  0.546750  1.0  -0.1486
  C  C1050  1  0.183990  0.514600  0.516040  1.0  0.1494
  C  C1051  1  0.239910  0.555690  0.429590  1.0  0.4124
  C  C1052  1  0.271610  0.608250  0.401500  1.0  -0.0132
  C  C1053  1  0.274840  0.575620  0.373630  1.0  -0.1273
  C  C1054  1  0.691400  0.971730  0.013820  1.0  -0.0975
  C  C1055  1  0.672900  0.945500  0.043300  1.0  -0.1335
  C  C1056  1  0.647700  0.962500  0.074200  1.0  -0.1032
  C  C1057  1  0.640400  0.005700  0.076100  1.0  -0.1016
  C  C1058  1  0.659300  0.032000  0.046750  1.0  -0.1486
  C  C1059  1  0.683990  0.014600  0.016040  1.0  0.1494
  C  C1060  1  0.739910  0.055690  0.929590  1.0  0.4124
  C  C1061  1  0.771610  0.108250  0.901500  1.0  -0.0132
  C  C1062  1  0.774840  0.075620  0.873630  1.0  -0.1273
  C  C1063  1  0.308600  0.528270  0.013820  1.0  -0.0971
  C  C1064  1  0.327100  0.554500  0.043300  1.0  -0.131
  C  C1065  1  0.352300  0.537500  0.074200  1.0  -0.1035
  C  C1066  1  0.359600  0.494300  0.076100  1.0  -0.0996
  C  C1067  1  0.340700  0.468000  0.046750  1.0  -0.1483
  C  C1068  1  0.316010  0.485400  0.016040  1.0  0.1476
  C  C1069  1  0.260090  0.444310  0.929590  1.0  0.411
  C  C1070  1  0.228390  0.391750  0.901500  1.0  -0.014
  C  C1071  1  0.225160  0.424380  0.873630  1.0  -0.1272
  C  C1072  1  0.808600  0.028270  0.513820  1.0  -0.0971
  C  C1073  1  0.827100  0.054500  0.543300  1.0  -0.131
  C  C1074  1  0.852300  0.037500  0.574200  1.0  -0.1035
  C  C1075  1  0.859600  0.994300  0.576100  1.0  -0.0996
  C  C1076  1  0.840700  0.968000  0.546750  1.0  -0.1483
  C  C1077  1  0.816010  0.985400  0.516040  1.0  0.1476
  C  C1078  1  0.760090  0.944310  0.429590  1.0  0.411
  C  C1079  1  0.728390  0.891750  0.401500  1.0  -0.014
  C  C1080  1  0.725160  0.924380  0.373630  1.0  -0.1272
  C  C1081  1  0.528270  0.013820  0.308600  1.0  -0.0963
  C  C1082  1  0.554500  0.043300  0.327100  1.0  -0.1331
  C  C1083  1  0.537500  0.074200  0.352300  1.0  -0.1067
  C  C1084  1  0.494300  0.076100  0.359600  1.0  -0.0963
  C  C1085  1  0.468000  0.046750  0.340700  1.0  -0.1462
  C  C1086  1  0.485400  0.016040  0.316010  1.0  0.1516
  C  C1087  1  0.444310  0.929590  0.260090  1.0  0.4166
  C  C1088  1  0.391750  0.901500  0.228390  1.0  -0.012
  C  C1089  1  0.424380  0.873630  0.225160  1.0  -0.1299
  C  C1090  1  0.028270  0.513820  0.808600  1.0  -0.0963
  C  C1091  1  0.054500  0.543300  0.827100  1.0  -0.1331
  C  C1092  1  0.037500  0.574200  0.852300  1.0  -0.1067
  C  C1093  1  0.994300  0.576100  0.859600  1.0  -0.0963
  C  C1094  1  0.968000  0.546750  0.840700  1.0  -0.1462
  C  C1095  1  0.985400  0.516040  0.816010  1.0  0.1516
  C  C1096  1  0.944310  0.429590  0.760090  1.0  0.4166
  C  C1097  1  0.891750  0.401500  0.728390  1.0  -0.012
  C  C1098  1  0.924380  0.373630  0.725160  1.0  -0.1299
  C  C1099  1  0.471730  0.513820  0.191400  1.0  -0.0967
  C  C1100  1  0.445500  0.543300  0.172900  1.0  -0.134
  C  C1101  1  0.462500  0.574200  0.147700  1.0  -0.1057
  C  C1102  1  0.505700  0.576100  0.140400  1.0  -0.0972
  C  C1103  1  0.532000  0.546750  0.159300  1.0  -0.1456
  C  C1104  1  0.514600  0.516040  0.183990  1.0  0.1482
  C  C1105  1  0.555690  0.429590  0.239910  1.0  0.412
  C  C1106  1  0.608250  0.401500  0.271610  1.0  -0.0106
  C  C1107  1  0.575620  0.373630  0.274840  1.0  -0.1279
  C  C1108  1  0.971730  0.013820  0.691400  1.0  -0.0967
  C  C1109  1  0.945500  0.043300  0.672900  1.0  -0.134
  C  C1110  1  0.962500  0.074200  0.647700  1.0  -0.1057
  C  C1111  1  0.005700  0.076100  0.640400  1.0  -0.0972
  C  C1112  1  0.032000  0.046750  0.659300  1.0  -0.1456
  C  C1113  1  0.014600  0.016040  0.683990  1.0  0.1482
  C  C1114  1  0.055690  0.929590  0.739910  1.0  0.412
  C  C1115  1  0.108250  0.901500  0.771610  1.0  -0.0106
  C  C1116  1  0.075620  0.873630  0.774840  1.0  -0.1279
  C  C1117  1  0.971730  0.986180  0.808600  1.0  -0.0991
  C  C1118  1  0.945500  0.956700  0.827100  1.0  -0.134
  C  C1119  1  0.962500  0.925800  0.852300  1.0  -0.1073
  C  C1120  1  0.005700  0.923900  0.859600  1.0  -0.096
  C  C1121  1  0.032000  0.953250  0.840700  1.0  -0.1438
  C  C1122  1  0.014600  0.983960  0.816010  1.0  0.1499
  C  C1123  1  0.055690  0.070410  0.760090  1.0  0.4147
  C  C1124  1  0.108250  0.098500  0.728390  1.0  -0.011
  C  C1125  1  0.075620  0.126370  0.725160  1.0  -0.128
  C  C1126  1  0.471730  0.486180  0.308600  1.0  -0.0991
  C  C1127  1  0.445500  0.456700  0.327100  1.0  -0.134
  C  C1128  1  0.462500  0.425800  0.352300  1.0  -0.1073
  C  C1129  1  0.505700  0.423900  0.359600  1.0  -0.096
  C  C1130  1  0.532000  0.453250  0.340700  1.0  -0.1438
  C  C1131  1  0.514600  0.483960  0.316010  1.0  0.1499
  C  C1132  1  0.555690  0.570410  0.260090  1.0  0.4147
  C  C1133  1  0.608250  0.598500  0.228390  1.0  -0.011
  C  C1134  1  0.575620  0.626370  0.225160  1.0  -0.128
  C  C1135  1  0.028270  0.486180  0.691400  1.0  -0.0968
  C  C1136  1  0.054500  0.456700  0.672900  1.0  -0.1338
  C  C1137  1  0.037500  0.425800  0.647700  1.0  -0.1053
  C  C1138  1  0.994300  0.423900  0.640400  1.0  -0.0946
  C  C1139  1  0.968000  0.453250  0.659300  1.0  -0.1471
  C  C1140  1  0.985400  0.483960  0.683990  1.0  0.1483
  C  C1141  1  0.944310  0.570410  0.739910  1.0  0.4131
  C  C1142  1  0.891750  0.598500  0.771610  1.0  -0.0115
  C  C1143  1  0.924380  0.626370  0.774840  1.0  -0.1282
  C  C1144  1  0.528270  0.986180  0.191400  1.0  -0.0968
  C  C1145  1  0.554500  0.956700  0.172900  1.0  -0.1338
  C  C1146  1  0.537500  0.925800  0.147700  1.0  -0.1053
  C  C1147  1  0.494300  0.923900  0.140400  1.0  -0.0946
  C  C1148  1  0.468000  0.953250  0.159300  1.0  -0.1471
  C  C1149  1  0.485400  0.983960  0.183990  1.0  0.1483
  C  C1150  1  0.444310  0.070410  0.239910  1.0  0.4131
  C  C1151  1  0.391750  0.098500  0.271610  1.0  -0.0115
  C  C1152  1  0.424380  0.126370  0.274840  1.0  -0.1282
  C  C1153  1  0.513820  0.191400  0.471730  1.0  -0.099
  C  C1154  1  0.543300  0.172900  0.445500  1.0  -0.1305
  C  C1155  1  0.574200  0.147700  0.462500  1.0  -0.106
  C  C1156  1  0.576100  0.140400  0.505700  1.0  -0.1034
  C  C1157  1  0.546750  0.159300  0.532000  1.0  -0.1503
  C  C1158  1  0.516040  0.183990  0.514600  1.0  0.1464
  C  C1159  1  0.429590  0.239910  0.555690  1.0  0.4153
  C  C1160  1  0.401500  0.271610  0.608250  1.0  -0.0073
  C  C1161  1  0.373630  0.274840  0.575620  1.0  -0.1292
  C  C1162  1  0.013820  0.691400  0.971730  1.0  -0.099
  C  C1163  1  0.043300  0.672900  0.945500  1.0  -0.1305
  C  C1164  1  0.074200  0.647700  0.962500  1.0  -0.106
  C  C1165  1  0.076100  0.640400  0.005700  1.0  -0.1034
  C  C1166  1  0.046750  0.659300  0.032000  1.0  -0.1503
  C  C1167  1  0.016040  0.683990  0.014600  1.0  0.1464
  C  C1168  1  0.929590  0.739910  0.055690  1.0  0.4153
  C  C1169  1  0.901500  0.771610  0.108250  1.0  -0.0073
  C  C1170  1  0.873630  0.774840  0.075620  1.0  -0.1292
  C  C1171  1  0.013820  0.308600  0.528270  1.0  -0.0991
  C  C1172  1  0.043300  0.327100  0.554500  1.0  -0.1301
  C  C1173  1  0.074200  0.352300  0.537500  1.0  -0.1041
  C  C1174  1  0.076100  0.359600  0.494300  1.0  -0.1
  C  C1175  1  0.046750  0.340700  0.468000  1.0  -0.1471
  C  C1176  1  0.016040  0.316010  0.485400  1.0  0.146
  C  C1177  1  0.929590  0.260090  0.444310  1.0  0.416
  C  C1178  1  0.901500  0.228390  0.391750  1.0  -0.0079
  C  C1179  1  0.873630  0.225160  0.424380  1.0  -0.1291
  C  C1180  1  0.513820  0.808600  0.028270  1.0  -0.0991
  C  C1181  1  0.543300  0.827100  0.054500  1.0  -0.1301
  C  C1182  1  0.574200  0.852300  0.037500  1.0  -0.1041
  C  C1183  1  0.576100  0.859600  0.994300  1.0  -0.1
  C  C1184  1  0.546750  0.840700  0.968000  1.0  -0.1471
  C  C1185  1  0.516040  0.816010  0.985400  1.0  0.146
  C  C1186  1  0.429590  0.760090  0.944310  1.0  0.416
  C  C1187  1  0.401500  0.728390  0.891750  1.0  -0.0079
  C  C1188  1  0.373630  0.725160  0.924380  1.0  -0.1291
  C  C1189  1  0.486180  0.691400  0.028270  1.0  -0.0971
  C  C1190  1  0.456700  0.672900  0.054500  1.0  -0.1293
  C  C1191  1  0.425800  0.647700  0.037500  1.0  -0.104
  C  C1192  1  0.423900  0.640400  0.994300  1.0  -0.1014
  C  C1193  1  0.453250  0.659300  0.968000  1.0  -0.148
  C  C1194  1  0.483960  0.683990  0.985400  1.0  0.1458
  C  C1195  1  0.570410  0.739910  0.944310  1.0  0.4116
  C  C1196  1  0.598500  0.771610  0.891750  1.0  -0.0077
  C  C1197  1  0.626370  0.774840  0.924380  1.0  -0.1276
  C  C1198  1  0.986180  0.191400  0.528270  1.0  -0.0971
  C  C1199  1  0.956700  0.172900  0.554500  1.0  -0.1293
  C  C1200  1  0.925800  0.147700  0.537500  1.0  -0.104
  C  C1201  1  0.923900  0.140400  0.494300  1.0  -0.1014
  C  C1202  1  0.953250  0.159300  0.468000  1.0  -0.148
  C  C1203  1  0.983960  0.183990  0.485400  1.0  0.1458
  C  C1204  1  0.070410  0.239910  0.444310  1.0  0.4116
  C  C1205  1  0.098500  0.271610  0.391750  1.0  -0.0077
  C  C1206  1  0.126370  0.274840  0.424380  1.0  -0.1276
  C  C1207  1  0.986180  0.808600  0.971730  1.0  -0.0979
  C  C1208  1  0.956700  0.827100  0.945500  1.0  -0.1308
  C  C1209  1  0.925800  0.852300  0.962500  1.0  -0.1036
  C  C1210  1  0.923900  0.859600  0.005700  1.0  -0.1012
  C  C1211  1  0.953250  0.840700  0.032000  1.0  -0.1479
  C  C1212  1  0.983960  0.816010  0.014600  1.0  0.1455
  C  C1213  1  0.070410  0.760090  0.055690  1.0  0.4154
  C  C1214  1  0.098500  0.728390  0.108250  1.0  -0.0075
  C  C1215  1  0.126370  0.725160  0.075620  1.0  -0.1268
  C  C1216  1  0.486180  0.308600  0.471730  1.0  -0.0979
  C  C1217  1  0.456700  0.327100  0.445500  1.0  -0.1308
  C  C1218  1  0.425800  0.352300  0.462500  1.0  -0.1036
  C  C1219  1  0.423900  0.359600  0.505700  1.0  -0.1012
  C  C1220  1  0.453250  0.340700  0.532000  1.0  -0.1479
  C  C1221  1  0.483960  0.316010  0.514600  1.0  0.1455
  C  C1222  1  0.570410  0.260090  0.555690  1.0  0.4154
  C  C1223  1  0.598500  0.228390  0.608250  1.0  -0.0075
  C  C1224  1  0.626370  0.225160  0.575620  1.0  -0.1268
  C  C1225  1  0.221730  0.058600  0.236180  1.0  -0.0979
  C  C1226  1  0.195500  0.077100  0.206700  1.0  -0.1341
  C  C1227  1  0.212500  0.102300  0.175800  1.0  -0.1033
  C  C1228  1  0.255700  0.109600  0.173900  1.0  -0.1
  C  C1229  1  0.282000  0.090700  0.203250  1.0  -0.1437
  C  C1230  1  0.264600  0.066010  0.233960  1.0  0.149
  C  C1231  1  0.305690  0.010090  0.320410  1.0  0.4115
  C  C1232  1  0.358250  0.978390  0.348500  1.0  -0.011
  C  C1233  1  0.325620  0.975160  0.376370  1.0  -0.1271
  C  C1234  1  0.721730  0.558600  0.736180  1.0  -0.0979
  C  C1235  1  0.695500  0.577100  0.706700  1.0  -0.1341
  C  C1236  1  0.712500  0.602300  0.675800  1.0  -0.1033
  C  C1237  1  0.755700  0.609600  0.673900  1.0  -0.1
  C  C1238  1  0.782000  0.590700  0.703250  1.0  -0.1437
  C  C1239  1  0.764600  0.566010  0.733960  1.0  0.149
  C  C1240  1  0.805690  0.510090  0.820410  1.0  0.4115
  C  C1241  1  0.858250  0.478390  0.848500  1.0  -0.011
  C  C1242  1  0.825620  0.475160  0.876370  1.0  -0.1271
  C  C1243  1  0.278270  0.941400  0.736180  1.0  -0.0954
  C  C1244  1  0.304500  0.922900  0.706700  1.0  -0.1334
  C  C1245  1  0.287500  0.897700  0.675800  1.0  -0.1052
  C  C1246  1  0.244300  0.890400  0.673900  1.0  -0.1001
  C  C1247  1  0.218000  0.909300  0.703250  1.0  -0.1468
  C  C1248  1  0.235400  0.933990  0.733960  1.0  0.1492
  C  C1249  1  0.194310  0.989910  0.820410  1.0  0.4106
  C  C1250  1  0.141750  0.021610  0.848500  1.0  -0.0122
  C  C1251  1  0.174380  0.024840  0.876370  1.0  -0.1277
  C  C1252  1  0.778270  0.441400  0.236180  1.0  -0.0954
  C  C1253  1  0.804500  0.422900  0.206700  1.0  -0.1334
  C  C1254  1  0.787500  0.397700  0.175800  1.0  -0.1052
  C  C1255  1  0.744300  0.390400  0.173900  1.0  -0.1001
  C  C1256  1  0.718000  0.409300  0.203250  1.0  -0.1468
  C  C1257  1  0.735400  0.433990  0.233960  1.0  0.1492
  C  C1258  1  0.694310  0.489910  0.320410  1.0  0.4106
  C  C1259  1  0.641750  0.521610  0.348500  1.0  -0.0122
  C  C1260  1  0.674380  0.524840  0.376370  1.0  -0.1277
  C  C1261  1  0.778270  0.558600  0.263820  1.0  -0.0962
  C  C1262  1  0.804500  0.577100  0.293300  1.0  -0.134
  C  C1263  1  0.787500  0.602300  0.324200  1.0  -0.103
  C  C1264  1  0.744300  0.609600  0.326100  1.0  -0.1006
  C  C1265  1  0.718000  0.590700  0.296750  1.0  -0.1455
  C  C1266  1  0.735400  0.566010  0.266040  1.0  0.1492
  C  C1267  1  0.694310  0.510090  0.179590  1.0  0.4147
  C  C1268  1  0.641750  0.478390  0.151500  1.0  -0.0124
  C  C1269  1  0.674380  0.475160  0.123630  1.0  -0.127
  C  C1270  1  0.278270  0.058600  0.763820  1.0  -0.0962
  C  C1271  1  0.304500  0.077100  0.793300  1.0  -0.134
  C  C1272  1  0.287500  0.102300  0.824200  1.0  -0.103
  C  C1273  1  0.244300  0.109600  0.826100  1.0  -0.1006
  C  C1274  1  0.218000  0.090700  0.796750  1.0  -0.1455
  C  C1275  1  0.235400  0.066010  0.766040  1.0  0.1492
  C  C1276  1  0.194310  0.010090  0.679590  1.0  0.4147
  C  C1277  1  0.141750  0.978390  0.651500  1.0  -0.0124
  C  C1278  1  0.174380  0.975160  0.623630  1.0  -0.127
  C  C1279  1  0.721730  0.441400  0.763820  1.0  -0.0977
  C  C1280  1  0.695500  0.422900  0.793300  1.0  -0.1338
  C  C1281  1  0.712500  0.397700  0.824200  1.0  -0.1031
  C  C1282  1  0.755700  0.390400  0.826100  1.0  -0.1035
  C  C1283  1  0.782000  0.409300  0.796750  1.0  -0.1449
  C  C1284  1  0.764600  0.433990  0.766040  1.0  0.1506
  C  C1285  1  0.805690  0.489910  0.679590  1.0  0.4112
  C  C1286  1  0.858250  0.521610  0.651500  1.0  -0.0113
  C  C1287  1  0.825620  0.524840  0.623630  1.0  -0.1261
  C  C1288  1  0.221730  0.941400  0.263820  1.0  -0.0977
  C  C1289  1  0.195500  0.922900  0.293300  1.0  -0.1338
  C  C1290  1  0.212500  0.897700  0.324200  1.0  -0.1031
  C  C1291  1  0.255700  0.890400  0.326100  1.0  -0.1035
  C  C1292  1  0.282000  0.909300  0.296750  1.0  -0.1449
  C  C1293  1  0.264600  0.933990  0.266040  1.0  0.1506
  C  C1294  1  0.305690  0.989910  0.179590  1.0  0.4112
  C  C1295  1  0.358250  0.021610  0.151500  1.0  -0.0113
  C  C1296  1  0.325620  0.024840  0.123630  1.0  -0.1261
  C  C1297  1  0.236180  0.221730  0.058600  1.0  -0.0987
  C  C1298  1  0.206700  0.195500  0.077100  1.0  -0.1321
  C  C1299  1  0.175800  0.212500  0.102300  1.0  -0.107
  C  C1300  1  0.173900  0.255700  0.109600  1.0  -0.0963
  C  C1301  1  0.203250  0.282000  0.090700  1.0  -0.1478
  C  C1302  1  0.233960  0.264600  0.066010  1.0  0.148
  C  C1303  1  0.320410  0.305690  0.010090  1.0  0.4148
  C  C1304  1  0.348500  0.358250  0.978390  1.0  -0.011
  C  C1305  1  0.376370  0.325620  0.975160  1.0  -0.1277
  C  C1306  1  0.736180  0.721730  0.558600  1.0  -0.0987
  C  C1307  1  0.706700  0.695500  0.577100  1.0  -0.1321
  C  C1308  1  0.675800  0.712500  0.602300  1.0  -0.107
  C  C1309  1  0.673900  0.755700  0.609600  1.0  -0.0963
  C  C1310  1  0.703250  0.782000  0.590700  1.0  -0.1478
  C  C1311  1  0.733960  0.764600  0.566010  1.0  0.148
  C  C1312  1  0.820410  0.805690  0.510090  1.0  0.4148
  C  C1313  1  0.848500  0.858250  0.478390  1.0  -0.011
  C  C1314  1  0.876370  0.825620  0.475160  1.0  -0.1277
  C  C1315  1  0.736180  0.278270  0.941400  1.0  -0.098
  C  C1316  1  0.706700  0.304500  0.922900  1.0  -0.1305
  C  C1317  1  0.675800  0.287500  0.897700  1.0  -0.1045
  C  C1318  1  0.673900  0.244300  0.890400  1.0  -0.0949
  C  C1319  1  0.703250  0.218000  0.909300  1.0  -0.1492
  C  C1320  1  0.733960  0.235400  0.933990  1.0  0.1442
  C  C1321  1  0.820410  0.194310  0.989910  1.0  0.4108
  C  C1322  1  0.848500  0.141750  0.021610  1.0  -0.0107
  C  C1323  1  0.876370  0.174380  0.024840  1.0  -0.1268
  C  C1324  1  0.236180  0.778270  0.441400  1.0  -0.098
  C  C1325  1  0.206700  0.804500  0.422900  1.0  -0.1305
  C  C1326  1  0.175800  0.787500  0.397700  1.0  -0.1045
  C  C1327  1  0.173900  0.744300  0.390400  1.0  -0.0949
  C  C1328  1  0.203250  0.718000  0.409300  1.0  -0.1492
  C  C1329  1  0.233960  0.735400  0.433990  1.0  0.1442
  C  C1330  1  0.320410  0.694310  0.489910  1.0  0.4108
  C  C1331  1  0.348500  0.641750  0.521610  1.0  -0.0107
  C  C1332  1  0.376370  0.674380  0.524840  1.0  -0.1268
  C  C1333  1  0.263820  0.778270  0.558600  1.0  -0.1009
  C  C1334  1  0.293300  0.804500  0.577100  1.0  -0.1318
  C  C1335  1  0.324200  0.787500  0.602300  1.0  -0.1062
  C  C1336  1  0.326100  0.744300  0.609600  1.0  -0.0946
  C  C1337  1  0.296750  0.718000  0.590700  1.0  -0.1484
  C  C1338  1  0.266040  0.735400  0.566010  1.0  0.1467
  C  C1339  1  0.179590  0.694310  0.510090  1.0  0.4161
  C  C1340  1  0.151500  0.641750  0.478390  1.0  -0.011
  C  C1341  1  0.123630  0.674380  0.475160  1.0  -0.1294
  C  C1342  1  0.763820  0.278270  0.058600  1.0  -0.1009
  C  C1343  1  0.793300  0.304500  0.077100  1.0  -0.1318
  C  C1344  1  0.824200  0.287500  0.102300  1.0  -0.1062
  C  C1345  1  0.826100  0.244300  0.109600  1.0  -0.0946
  C  C1346  1  0.796750  0.218000  0.090700  1.0  -0.1484
  C  C1347  1  0.766040  0.235400  0.066010  1.0  0.1467
  C  C1348  1  0.679590  0.194310  0.010090  1.0  0.4161
  C  C1349  1  0.651500  0.141750  0.978390  1.0  -0.011
  C  C1350  1  0.623630  0.174380  0.975160  1.0  -0.1294
  C  C1351  1  0.763820  0.721730  0.441400  1.0  -0.0985
  C  C1352  1  0.793300  0.695500  0.422900  1.0  -0.1334
  C  C1353  1  0.824200  0.712500  0.397700  1.0  -0.1053
  C  C1354  1  0.826100  0.755700  0.390400  1.0  -0.0961
  C  C1355  1  0.796750  0.782000  0.409300  1.0  -0.1497
  C  C1356  1  0.766040  0.764600  0.433990  1.0  0.1465
  C  C1357  1  0.679590  0.805690  0.489910  1.0  0.4131
  C  C1358  1  0.651500  0.858250  0.521610  1.0  -0.0098
  C  C1359  1  0.623630  0.825620  0.524840  1.0  -0.1294
  C  C1360  1  0.263820  0.221730  0.941400  1.0  -0.0985
  C  C1361  1  0.293300  0.195500  0.922900  1.0  -0.1334
  C  C1362  1  0.324200  0.212500  0.897700  1.0  -0.1053
  C  C1363  1  0.326100  0.255700  0.890400  1.0  -0.0961
  C  C1364  1  0.296750  0.282000  0.909300  1.0  -0.1497
  C  C1365  1  0.266040  0.264600  0.933990  1.0  0.1465
  C  C1366  1  0.179590  0.305690  0.989910  1.0  0.4131
  C  C1367  1  0.151500  0.358250  0.021610  1.0  -0.0098
  C  C1368  1  0.123630  0.325620  0.024840  1.0  -0.1294
  C  C1369  1  0.058600  0.236180  0.221730  1.0  -0.0971
  C  C1370  1  0.077100  0.206700  0.195500  1.0  -0.1314
  C  C1371  1  0.102300  0.175800  0.212500  1.0  -0.1048
  C  C1372  1  0.109600  0.173900  0.255700  1.0  -0.1013
  C  C1373  1  0.090700  0.203250  0.282000  1.0  -0.148
  C  C1374  1  0.066010  0.233960  0.264600  1.0  0.1459
  C  C1375  1  0.010090  0.320410  0.305690  1.0  0.4131
  C  C1376  1  0.978390  0.348500  0.358250  1.0  -0.0109
  C  C1377  1  0.975160  0.376370  0.325620  1.0  -0.13
  C  C1378  1  0.558600  0.736180  0.721730  1.0  -0.0971
  C  C1379  1  0.577100  0.706700  0.695500  1.0  -0.1314
  C  C1380  1  0.602300  0.675800  0.712500  1.0  -0.1048
  C  C1381  1  0.609600  0.673900  0.755700  1.0  -0.1013
  C  C1382  1  0.590700  0.703250  0.782000  1.0  -0.148
  C  C1383  1  0.566010  0.733960  0.764600  1.0  0.1459
  C  C1384  1  0.510090  0.820410  0.805690  1.0  0.4131
  C  C1385  1  0.478390  0.848500  0.858250  1.0  -0.0109
  C  C1386  1  0.475160  0.876370  0.825620  1.0  -0.13
  C  C1387  1  0.941400  0.736180  0.278270  1.0  -0.0978
  C  C1388  1  0.922900  0.706700  0.304500  1.0  -0.1302
  C  C1389  1  0.897700  0.675800  0.287500  1.0  -0.1047
  C  C1390  1  0.890400  0.673900  0.244300  1.0  -0.1021
  C  C1391  1  0.909300  0.703250  0.218000  1.0  -0.1459
  C  C1392  1  0.933990  0.733960  0.235400  1.0  0.1474
  C  C1393  1  0.989910  0.820410  0.194310  1.0  0.4126
  C  C1394  1  0.021610  0.848500  0.141750  1.0  -0.0103
  C  C1395  1  0.024840  0.876370  0.174380  1.0  -0.1281
  C  C1396  1  0.441400  0.236180  0.778270  1.0  -0.0978
  C  C1397  1  0.422900  0.206700  0.804500  1.0  -0.1302
  C  C1398  1  0.397700  0.175800  0.787500  1.0  -0.1047
  C  C1399  1  0.390400  0.173900  0.744300  1.0  -0.1021
  C  C1400  1  0.409300  0.203250  0.718000  1.0  -0.1459
  C  C1401  1  0.433990  0.233960  0.735400  1.0  0.1474
  C  C1402  1  0.489910  0.320410  0.694310  1.0  0.4126
  C  C1403  1  0.521610  0.348500  0.641750  1.0  -0.0103
  C  C1404  1  0.524840  0.376370  0.674380  1.0  -0.1281
  C  C1405  1  0.558600  0.263820  0.778270  1.0  -0.0947
  C  C1406  1  0.577100  0.293300  0.804500  1.0  -0.1299
  C  C1407  1  0.602300  0.324200  0.787500  1.0  -0.1045
  C  C1408  1  0.609600  0.326100  0.744300  1.0  -0.1014
  C  C1409  1  0.590700  0.296750  0.718000  1.0  -0.1462
  C  C1410  1  0.566010  0.266040  0.735400  1.0  0.1464
  C  C1411  1  0.510090  0.179590  0.694310  1.0  0.4121
  C  C1412  1  0.478390  0.151500  0.641750  1.0  -0.0099
  C  C1413  1  0.475160  0.123630  0.674380  1.0  -0.1296
  C  C1414  1  0.058600  0.763820  0.278270  1.0  -0.0947
  C  C1415  1  0.077100  0.793300  0.304500  1.0  -0.1299
  C  C1416  1  0.102300  0.824200  0.287500  1.0  -0.1045
  C  C1417  1  0.109600  0.826100  0.244300  1.0  -0.1014
  C  C1418  1  0.090700  0.796750  0.218000  1.0  -0.1462
  C  C1419  1  0.066010  0.766040  0.235400  1.0  0.1464
  C  C1420  1  0.010090  0.679590  0.194310  1.0  0.4121
  C  C1421  1  0.978390  0.651500  0.141750  1.0  -0.0099
  C  C1422  1  0.975160  0.623630  0.174380  1.0  -0.1296
  C  C1423  1  0.441400  0.763820  0.721730  1.0  -0.0966
  C  C1424  1  0.422900  0.793300  0.695500  1.0  -0.1309
  C  C1425  1  0.397700  0.824200  0.712500  1.0  -0.1058
  C  C1426  1  0.390400  0.826100  0.755700  1.0  -0.1017
  C  C1427  1  0.409300  0.796750  0.782000  1.0  -0.146
  C  C1428  1  0.433990  0.766040  0.764600  1.0  0.1474
  C  C1429  1  0.489910  0.679590  0.805690  1.0  0.4147
  C  C1430  1  0.521610  0.651500  0.858250  1.0  -0.0103
  C  C1431  1  0.524840  0.623630  0.825620  1.0  -0.1286
  C  C1432  1  0.941400  0.263820  0.221730  1.0  -0.0966
  C  C1433  1  0.922900  0.293300  0.195500  1.0  -0.1309
  C  C1434  1  0.897700  0.324200  0.212500  1.0  -0.1058
  C  C1435  1  0.890400  0.326100  0.255700  1.0  -0.1017
  C  C1436  1  0.909300  0.296750  0.282000  1.0  -0.146
  C  C1437  1  0.933990  0.266040  0.264600  1.0  0.1474
  C  C1438  1  0.989910  0.179590  0.305690  1.0  0.4147
  C  C1439  1  0.021610  0.151500  0.358250  1.0  -0.0103
  C  C1440  1  0.024840  0.123630  0.325620  1.0  -0.1286
  C  C1441  1  0.308600  0.971730  0.513820  1.0  -0.0956
  C  C1442  1  0.327100  0.945500  0.543300  1.0  -0.1328
  C  C1443  1  0.352300  0.962500  0.574200  1.0  -0.103
  C  C1444  1  0.359600  0.005700  0.576100  1.0  -0.1001
  C  C1445  1  0.340700  0.032000  0.546750  1.0  -0.1487
  C  C1446  1  0.316010  0.014600  0.516040  1.0  0.1482
  C  C1447  1  0.260090  0.055690  0.429590  1.0  0.411
  C  C1448  1  0.228390  0.108250  0.401500  1.0  -0.0134
  C  C1449  1  0.225160  0.075620  0.373630  1.0  -0.1278
  C  C1450  1  0.808600  0.471730  0.013820  1.0  -0.0956
  C  C1451  1  0.827100  0.445500  0.043300  1.0  -0.1328
  C  C1452  1  0.852300  0.462500  0.074200  1.0  -0.103
  C  C1453  1  0.859600  0.505700  0.076100  1.0  -0.1001
  C  C1454  1  0.840700  0.532000  0.046750  1.0  -0.1487
  C  C1455  1  0.816010  0.514600  0.016040  1.0  0.1482
  C  C1456  1  0.760090  0.555690  0.929590  1.0  0.411
  C  C1457  1  0.728390  0.608250  0.901500  1.0  -0.0134
  C  C1458  1  0.725160  0.575620  0.873630  1.0  -0.1278
  C  C1459  1  0.191400  0.028270  0.013820  1.0  -0.0983
  C  C1460  1  0.172900  0.054500  0.043300  1.0  -0.1316
  C  C1461  1  0.147700  0.037500  0.074200  1.0  -0.1035
  C  C1462  1  0.140400  0.994300  0.076100  1.0  -0.1013
  C  C1463  1  0.159300  0.968000  0.046750  1.0  -0.1477
  C  C1464  1  0.183990  0.985400  0.016040  1.0  0.1483
  C  C1465  1  0.239910  0.944310  0.929590  1.0  0.4122
  C  C1466  1  0.271610  0.891750  0.901500  1.0  -0.0149
  C  C1467  1  0.274840  0.924380  0.873630  1.0  -0.1273
  C  C1468  1  0.691400  0.528270  0.513820  1.0  -0.0983
  C  C1469  1  0.672900  0.554500  0.543300  1.0  -0.1316
  C  C1470  1  0.647700  0.537500  0.574200  1.0  -0.1035
  C  C1471  1  0.640400  0.494300  0.576100  1.0  -0.1013
  C  C1472  1  0.659300  0.468000  0.546750  1.0  -0.1477
  C  C1473  1  0.683990  0.485400  0.516040  1.0  0.1483
  C  C1474  1  0.739910  0.444310  0.429590  1.0  0.4122
  C  C1475  1  0.771610  0.391750  0.401500  1.0  -0.0149
  C  C1476  1  0.774840  0.424380  0.373630  1.0  -0.1273
  C  C1477  1  0.808600  0.528270  0.486180  1.0  -0.0965
  C  C1478  1  0.827100  0.554500  0.456700  1.0  -0.1313
  C  C1479  1  0.852300  0.537500  0.425800  1.0  -0.104
  C  C1480  1  0.859600  0.494300  0.423900  1.0  -0.1
  C  C1481  1  0.840700  0.468000  0.453250  1.0  -0.1487
  C  C1482  1  0.816010  0.485400  0.483960  1.0  0.1465
  C  C1483  1  0.760090  0.444310  0.570410  1.0  0.4089
  C  C1484  1  0.728390  0.391750  0.598500  1.0  -0.0134
  C  C1485  1  0.725160  0.424380  0.626370  1.0  -0.1282
  C  C1486  1  0.308600  0.028270  0.986180  1.0  -0.0965
  C  C1487  1  0.327100  0.054500  0.956700  1.0  -0.1313
  C  C1488  1  0.352300  0.037500  0.925800  1.0  -0.104
  C  C1489  1  0.359600  0.994300  0.923900  1.0  -0.1
  C  C1490  1  0.340700  0.968000  0.953250  1.0  -0.1487
  C  C1491  1  0.316010  0.985400  0.983960  1.0  0.1465
  C  C1492  1  0.260090  0.944310  0.070410  1.0  0.4089
  C  C1493  1  0.228390  0.891750  0.098500  1.0  -0.0134
  C  C1494  1  0.225160  0.924380  0.126370  1.0  -0.1282
  C  C1495  1  0.691400  0.471730  0.986180  1.0  -0.097
  C  C1496  1  0.672900  0.445500  0.956700  1.0  -0.1334
  C  C1497  1  0.647700  0.462500  0.925800  1.0  -0.1045
  C  C1498  1  0.640400  0.505700  0.923900  1.0  -0.1005
  C  C1499  1  0.659300  0.532000  0.953250  1.0  -0.1487
  C  C1500  1  0.683990  0.514600  0.983960  1.0  0.1487
  C  C1501  1  0.739910  0.555690  0.070410  1.0  0.4103
  C  C1502  1  0.771610  0.608250  0.098500  1.0  -0.0135
  C  C1503  1  0.774840  0.575620  0.126370  1.0  -0.1273
  C  C1504  1  0.191400  0.971730  0.486180  1.0  -0.097
  C  C1505  1  0.172900  0.945500  0.456700  1.0  -0.1334
  C  C1506  1  0.147700  0.962500  0.425800  1.0  -0.1045
  C  C1507  1  0.140400  0.005700  0.423900  1.0  -0.1005
  C  C1508  1  0.159300  0.032000  0.453250  1.0  -0.1487
  C  C1509  1  0.183990  0.014600  0.483960  1.0  0.1487
  C  C1510  1  0.239910  0.055690  0.570410  1.0  0.4103
  C  C1511  1  0.271610  0.108250  0.598500  1.0  -0.0135
  C  C1512  1  0.274840  0.075620  0.626370  1.0  -0.1273
  C  C1513  1  0.471730  0.986180  0.691400  1.0  -0.0983
  C  C1514  1  0.445500  0.956700  0.672900  1.0  -0.1339
  C  C1515  1  0.462500  0.925800  0.647700  1.0  -0.1046
  C  C1516  1  0.505700  0.923900  0.640400  1.0  -0.0961
  C  C1517  1  0.532000  0.953250  0.659300  1.0  -0.1456
  C  C1518  1  0.514600  0.983960  0.683990  1.0  0.1494
  C  C1519  1  0.555690  0.070410  0.739910  1.0  0.4113
  C  C1520  1  0.608250  0.098500  0.771610  1.0  -0.0109
  C  C1521  1  0.575620  0.126370  0.774840  1.0  -0.1279
  C  C1522  1  0.971730  0.486180  0.191400  1.0  -0.0983
  C  C1523  1  0.945500  0.456700  0.172900  1.0  -0.1339
  C  C1524  1  0.962500  0.425800  0.147700  1.0  -0.1046
  C  C1525  1  0.005700  0.423900  0.140400  1.0  -0.0961
  C  C1526  1  0.032000  0.453250  0.159300  1.0  -0.1456
  C  C1527  1  0.014600  0.483960  0.183990  1.0  0.1494
  C  C1528  1  0.055690  0.570410  0.239910  1.0  0.4113
  C  C1529  1  0.108250  0.598500  0.271610  1.0  -0.0109
  C  C1530  1  0.075620  0.626370  0.274840  1.0  -0.1279
  C  C1531  1  0.528270  0.486180  0.808600  1.0  -0.0978
  C  C1532  1  0.554500  0.456700  0.827100  1.0  -0.1339
  C  C1533  1  0.537500  0.425800  0.852300  1.0  -0.1068
  C  C1534  1  0.494300  0.423900  0.859600  1.0  -0.0965
  C  C1535  1  0.468000  0.453250  0.840700  1.0  -0.1468
  C  C1536  1  0.485400  0.483960  0.816010  1.0  0.1491
  C  C1537  1  0.444310  0.570410  0.760090  1.0  0.416
  C  C1538  1  0.391750  0.598500  0.728390  1.0  -0.012
  C  C1539  1  0.424380  0.626370  0.725160  1.0  -0.1283
  C  C1540  1  0.028270  0.986180  0.308600  1.0  -0.0978
  C  C1541  1  0.054500  0.956700  0.327100  1.0  -0.1339
  C  C1542  1  0.037500  0.925800  0.352300  1.0  -0.1068
  C  C1543  1  0.994300  0.923900  0.359600  1.0  -0.0965
  C  C1544  1  0.968000  0.953250  0.340700  1.0  -0.1468
  C  C1545  1  0.985400  0.983960  0.316010  1.0  0.1491
  C  C1546  1  0.944310  0.070410  0.260090  1.0  0.416
  C  C1547  1  0.891750  0.098500  0.228390  1.0  -0.012
  C  C1548  1  0.924380  0.126370  0.225160  1.0  -0.1283
  C  C1549  1  0.028270  0.013820  0.191400  1.0  -0.0948
  C  C1550  1  0.054500  0.043300  0.172900  1.0  -0.1331
  C  C1551  1  0.037500  0.074200  0.147700  1.0  -0.1056
  C  C1552  1  0.994300  0.076100  0.140400  1.0  -0.0959
  C  C1553  1  0.968000  0.046750  0.159300  1.0  -0.1467
  C  C1554  1  0.985400  0.016040  0.183990  1.0  0.1472
  C  C1555  1  0.944310  0.929590  0.239910  1.0  0.4136
  C  C1556  1  0.891750  0.901500  0.271610  1.0  -0.0111
  C  C1557  1  0.924380  0.873630  0.274840  1.0  -0.1285
  C  C1558  1  0.528270  0.513820  0.691400  1.0  -0.0948
  C  C1559  1  0.554500  0.543300  0.672900  1.0  -0.1331
  C  C1560  1  0.537500  0.574200  0.647700  1.0  -0.1056
  C  C1561  1  0.494300  0.576100  0.640400  1.0  -0.0959
  C  C1562  1  0.468000  0.546750  0.659300  1.0  -0.1467
  C  C1563  1  0.485400  0.516040  0.683990  1.0  0.1472
  C  C1564  1  0.444310  0.429590  0.739910  1.0  0.4136
  C  C1565  1  0.391750  0.401500  0.771610  1.0  -0.0111
  C  C1566  1  0.424380  0.373630  0.774840  1.0  -0.1285
  C  C1567  1  0.971730  0.513820  0.308600  1.0  -0.0983
  C  C1568  1  0.945500  0.543300  0.327100  1.0  -0.1338
  C  C1569  1  0.962500  0.574200  0.352300  1.0  -0.1079
  C  C1570  1  0.005700  0.576100  0.359600  1.0  -0.0953
  C  C1571  1  0.032000  0.546750  0.340700  1.0  -0.1434
  C  C1572  1  0.014600  0.516040  0.316010  1.0  0.1525
  C  C1573  1  0.055690  0.429590  0.260090  1.0  0.4152
  C  C1574  1  0.108250  0.401500  0.228390  1.0  -0.011
  C  C1575  1  0.075620  0.373630  0.225160  1.0  -0.1296
  C  C1576  1  0.471730  0.013820  0.808600  1.0  -0.0983
  C  C1577  1  0.445500  0.043300  0.827100  1.0  -0.1338
  C  C1578  1  0.462500  0.074200  0.852300  1.0  -0.1079
  C  C1579  1  0.505700  0.076100  0.859600  1.0  -0.0953
  C  C1580  1  0.532000  0.046750  0.840700  1.0  -0.1434
  C  C1581  1  0.514600  0.016040  0.816010  1.0  0.1525
  C  C1582  1  0.555690  0.929590  0.760090  1.0  0.4152
  C  C1583  1  0.608250  0.901500  0.728390  1.0  -0.011
  C  C1584  1  0.575620  0.873630  0.725160  1.0  -0.1296
  C  C1585  1  0.486180  0.808600  0.528270  1.0  -0.0975
  C  C1586  1  0.456700  0.827100  0.554500  1.0  -0.1291
  C  C1587  1  0.425800  0.852300  0.537500  1.0  -0.1042
  C  C1588  1  0.423900  0.859600  0.494300  1.0  -0.1012
  C  C1589  1  0.453250  0.840700  0.468000  1.0  -0.1466
  C  C1590  1  0.483960  0.816010  0.485400  1.0  0.1455
  C  C1591  1  0.570410  0.760090  0.444310  1.0  0.4139
  C  C1592  1  0.598500  0.728390  0.391750  1.0  -0.0076
  C  C1593  1  0.626370  0.725160  0.424380  1.0  -0.1284
  C  C1594  1  0.986180  0.308600  0.028270  1.0  -0.0975
  C  C1595  1  0.956700  0.327100  0.054500  1.0  -0.1291
  C  C1596  1  0.925800  0.352300  0.037500  1.0  -0.1042
  C  C1597  1  0.923900  0.359600  0.994300  1.0  -0.1012
  C  C1598  1  0.953250  0.340700  0.968000  1.0  -0.1466
  C  C1599  1  0.983960  0.316010  0.985400  1.0  0.1455
  C  C1600  1  0.070410  0.260090  0.944310  1.0  0.4139
  C  C1601  1  0.098500  0.228390  0.891750  1.0  -0.0076
  C  C1602  1  0.126370  0.225160  0.924380  1.0  -0.1284
  C  C1603  1  0.986180  0.691400  0.471730  1.0  -0.0982
  C  C1604  1  0.956700  0.672900  0.445500  1.0  -0.1303
  C  C1605  1  0.925800  0.647700  0.462500  1.0  -0.1046
  C  C1606  1  0.923900  0.640400  0.505700  1.0  -0.1022
  C  C1607  1  0.953250  0.659300  0.532000  1.0  -0.15
  C  C1608  1  0.983960  0.683990  0.514600  1.0  0.1459
  C  C1609  1  0.070410  0.739910  0.555690  1.0  0.4134
  C  C1610  1  0.098500  0.771610  0.608250  1.0  -0.0081
  C  C1611  1  0.126370  0.774840  0.575620  1.0  -0.1269
  C  C1612  1  0.486180  0.191400  0.971730  1.0  -0.0982
  C  C1613  1  0.456700  0.172900  0.945500  1.0  -0.1303
  C  C1614  1  0.425800  0.147700  0.962500  1.0  -0.1046
  C  C1615  1  0.423900  0.140400  0.005700  1.0  -0.1022
  C  C1616  1  0.453250  0.159300  0.032000  1.0  -0.15
  C  C1617  1  0.483960  0.183990  0.014600  1.0  0.1459
  C  C1618  1  0.570410  0.239910  0.055690  1.0  0.4134
  C  C1619  1  0.598500  0.271610  0.108250  1.0  -0.0081
  C  C1620  1  0.626370  0.274840  0.075620  1.0  -0.1269
  C  C1621  1  0.513820  0.308600  0.971730  1.0  -0.0989
  C  C1622  1  0.543300  0.327100  0.945500  1.0  -0.1307
  C  C1623  1  0.574200  0.352300  0.962500  1.0  -0.1036
  C  C1624  1  0.576100  0.359600  0.005700  1.0  -0.1002
  C  C1625  1  0.546750  0.340700  0.032000  1.0  -0.1487
  C  C1626  1  0.516040  0.316010  0.014600  1.0  0.1459
  C  C1627  1  0.429590  0.260090  0.055690  1.0  0.4172
  C  C1628  1  0.401500  0.228390  0.108250  1.0  -0.0068
  C  C1629  1  0.373630  0.225160  0.075620  1.0  -0.1285
  C  C1630  1  0.013820  0.808600  0.471730  1.0  -0.0989
  C  C1631  1  0.043300  0.827100  0.445500  1.0  -0.1307
  C  C1632  1  0.074200  0.852300  0.462500  1.0  -0.1036
  C  C1633  1  0.076100  0.859600  0.505700  1.0  -0.1002
  C  C1634  1  0.046750  0.840700  0.532000  1.0  -0.1487
  C  C1635  1  0.016040  0.816010  0.514600  1.0  0.1459
  C  C1636  1  0.929590  0.760090  0.555690  1.0  0.4172
  C  C1637  1  0.901500  0.728390  0.608250  1.0  -0.0068
  C  C1638  1  0.873630  0.725160  0.575620  1.0  -0.1285
  C  C1639  1  0.013820  0.191400  0.028270  1.0  -0.0987
  C  C1640  1  0.043300  0.172900  0.054500  1.0  -0.1304
  C  C1641  1  0.074200  0.147700  0.037500  1.0  -0.1048
  C  C1642  1  0.076100  0.140400  0.994300  1.0  -0.1022
  C  C1643  1  0.046750  0.159300  0.968000  1.0  -0.1484
  C  C1644  1  0.016040  0.183990  0.985400  1.0  0.146
  C  C1645  1  0.929590  0.239910  0.944310  1.0  0.4136
  C  C1646  1  0.901500  0.271610  0.891750  1.0  -0.0081
  C  C1647  1  0.873630  0.274840  0.924380  1.0  -0.1286
  C  C1648  1  0.513820  0.691400  0.528270  1.0  -0.0987
  C  C1649  1  0.543300  0.672900  0.554500  1.0  -0.1304
  C  C1650  1  0.574200  0.647700  0.537500  1.0  -0.1048
  C  C1651  1  0.576100  0.640400  0.494300  1.0  -0.1022
  C  C1652  1  0.546750  0.659300  0.468000  1.0  -0.1484
  C  C1653  1  0.516040  0.683990  0.485400  1.0  0.146
  C  C1654  1  0.429590  0.739910  0.444310  1.0  0.4136
  C  C1655  1  0.401500  0.771610  0.391750  1.0  -0.0081
  C  C1656  1  0.373630  0.774840  0.424380  1.0  -0.1286
  C  C1657  1  0.749190  0.999190  0.625000  1.0  0.0037
  C  C1658  1  0.249190  0.499190  0.125000  1.0  0.0037
  C  C1659  1  0.750810  0.000810  0.125000  1.0  0.0021
  C  C1660  1  0.250810  0.500810  0.625000  1.0  0.0021
  C  C1661  1  0.250810  0.499190  0.875000  1.0  0.0037
  C  C1662  1  0.750810  0.999190  0.375000  1.0  0.0037
  C  C1663  1  0.249190  0.500810  0.375000  1.0  0.0021
  C  C1664  1  0.749190  0.000810  0.875000  1.0  0.0021
  C  C1665  1  0.625000  0.749190  0.999190  1.0  0.003
  C  C1666  1  0.125000  0.249190  0.499190  1.0  0.003
  C  C1667  1  0.125000  0.750810  0.000810  1.0  0.0021
  C  C1668  1  0.625000  0.250810  0.500810  1.0  0.0021
  C  C1669  1  0.875000  0.250810  0.499190  1.0  0.0014
  C  C1670  1  0.375000  0.750810  0.999190  1.0  0.0014
  C  C1671  1  0.375000  0.249190  0.500810  1.0  0.0037
  C  C1672  1  0.875000  0.749190  0.000810  1.0  0.0037
  C  C1673  1  0.999190  0.625000  0.749190  1.0  0.002
  C  C1674  1  0.499190  0.125000  0.249190  1.0  0.002
  C  C1675  1  0.000810  0.125000  0.750810  1.0  0.0026
  C  C1676  1  0.500810  0.625000  0.250810  1.0  0.0026
  C  C1677  1  0.499190  0.875000  0.250810  1.0  0.0026
  C  C1678  1  0.999190  0.375000  0.750810  1.0  0.0026
  C  C1679  1  0.500810  0.375000  0.249190  1.0  0.0018
  C  C1680  1  0.000810  0.875000  0.749190  1.0  0.0018
  C  C1681  1  0.250810  0.000810  0.375000  1.0  0.0021
  C  C1682  1  0.750810  0.500810  0.875000  1.0  0.0021
  C  C1683  1  0.249190  0.999190  0.875000  1.0  0.0037
  C  C1684  1  0.749190  0.499190  0.375000  1.0  0.0037
  C  C1685  1  0.749190  0.500810  0.125000  1.0  0.0021
  C  C1686  1  0.249190  0.000810  0.625000  1.0  0.0021
  C  C1687  1  0.750810  0.499190  0.625000  1.0  0.0037
  C  C1688  1  0.250810  0.999190  0.125000  1.0  0.0037
  C  C1689  1  0.375000  0.250810  0.000810  1.0  0.0021
  C  C1690  1  0.875000  0.750810  0.500810  1.0  0.0021
  C  C1691  1  0.875000  0.249190  0.999190  1.0  0.003
  C  C1692  1  0.375000  0.749190  0.499190  1.0  0.003
  C  C1693  1  0.125000  0.749190  0.500810  1.0  0.0037
  C  C1694  1  0.625000  0.249190  0.000810  1.0  0.0037
  C  C1695  1  0.625000  0.750810  0.499190  1.0  0.0014
  C  C1696  1  0.125000  0.250810  0.999190  1.0  0.0014
  C  C1697  1  0.000810  0.375000  0.250810  1.0  0.0026
  C  C1698  1  0.500810  0.875000  0.750810  1.0  0.0026
  C  C1699  1  0.999190  0.875000  0.249190  1.0  0.002
  C  C1700  1  0.499190  0.375000  0.749190  1.0  0.002
  C  C1701  1  0.500810  0.125000  0.749190  1.0  0.0018
  C  C1702  1  0.000810  0.625000  0.249190  1.0  0.0018
  C  C1703  1  0.499190  0.625000  0.750810  1.0  0.0026
  C  C1704  1  0.999190  0.125000  0.250810  1.0  0.0026
  N  N1705  1  0.705920  0.953750  0.737780  1.0  -0.2774
  N  N1706  1  0.654380  0.000160  0.686340  1.0  -0.4129
  N  N1707  1  0.707590  0.004630  0.642080  1.0  0.0521
  N  N1708  1  0.722750  0.968690  0.705000  1.0  -0.2253
  N  N1709  1  0.205920  0.453750  0.237780  1.0  -0.2774
  N  N1710  1  0.154380  0.500160  0.186340  1.0  -0.4129
  N  N1711  1  0.207590  0.504630  0.142080  1.0  0.0521
  N  N1712  1  0.222750  0.468690  0.205000  1.0  -0.2253
  N  N1713  1  0.794080  0.046250  0.237780  1.0  -0.2746
  N  N1714  1  0.845620  0.999840  0.186340  1.0  -0.4121
  N  N1715  1  0.792410  0.995370  0.142080  1.0  0.0525
  N  N1716  1  0.777250  0.031310  0.205000  1.0  -0.2253
  N  N1717  1  0.294080  0.546250  0.737780  1.0  -0.2746
  N  N1718  1  0.345620  0.499840  0.686340  1.0  -0.4121
  N  N1719  1  0.292410  0.495370  0.642080  1.0  0.0525
  N  N1720  1  0.277250  0.531310  0.705000  1.0  -0.2253
  N  N1721  1  0.294080  0.453750  0.762220  1.0  -0.2733
  N  N1722  1  0.345620  0.500160  0.813660  1.0  -0.4119
  N  N1723  1  0.292410  0.504630  0.857920  1.0  0.0529
  N  N1724  1  0.277250  0.468690  0.795000  1.0  -0.2248
  N  N1725  1  0.794080  0.953750  0.262220  1.0  -0.2733
  N  N1726  1  0.845620  0.000160  0.313660  1.0  -0.4119
  N  N1727  1  0.792410  0.004630  0.357920  1.0  0.0529
  N  N1728  1  0.777250  0.968690  0.295000  1.0  -0.2248
  N  N1729  1  0.205920  0.546250  0.262220  1.0  -0.2775
  N  N1730  1  0.154380  0.499840  0.313660  1.0  -0.4119
  N  N1731  1  0.207590  0.495370  0.357920  1.0  0.0528
  N  N1732  1  0.222750  0.531310  0.295000  1.0  -0.2263
  N  N1733  1  0.705920  0.046250  0.762220  1.0  -0.2775
  N  N1734  1  0.654380  0.999840  0.813660  1.0  -0.4119
  N  N1735  1  0.707590  0.995370  0.857920  1.0  0.0528
  N  N1736  1  0.722750  0.031310  0.795000  1.0  -0.2263
  N  N1737  1  0.737780  0.705920  0.953750  1.0  -0.2757
  N  N1738  1  0.686340  0.654380  0.000160  1.0  -0.4111
  N  N1739  1  0.642080  0.707590  0.004630  1.0  0.0521
  N  N1740  1  0.705000  0.722750  0.968690  1.0  -0.2256
  N  N1741  1  0.237780  0.205920  0.453750  1.0  -0.2757
  N  N1742  1  0.186340  0.154380  0.500160  1.0  -0.4111
  N  N1743  1  0.142080  0.207590  0.504630  1.0  0.0521
  N  N1744  1  0.205000  0.222750  0.468690  1.0  -0.2256
  N  N1745  1  0.237780  0.794080  0.046250  1.0  -0.2789
  N  N1746  1  0.186340  0.845620  0.999840  1.0  -0.4114
  N  N1747  1  0.142080  0.792410  0.995370  1.0  0.0521
  N  N1748  1  0.205000  0.777250  0.031310  1.0  -0.2238
  N  N1749  1  0.737780  0.294080  0.546250  1.0  -0.2789
  N  N1750  1  0.686340  0.345620  0.499840  1.0  -0.4114
  N  N1751  1  0.642080  0.292410  0.495370  1.0  0.0521
  N  N1752  1  0.705000  0.277250  0.531310  1.0  -0.2238
  N  N1753  1  0.762220  0.294080  0.453750  1.0  -0.2757
  N  N1754  1  0.813660  0.345620  0.500160  1.0  -0.412
  N  N1755  1  0.857920  0.292410  0.504630  1.0  0.0522
  N  N1756  1  0.795000  0.277250  0.468690  1.0  -0.2263
  N  N1757  1  0.262220  0.794080  0.953750  1.0  -0.2757
  N  N1758  1  0.313660  0.845620  0.000160  1.0  -0.412
  N  N1759  1  0.357920  0.792410  0.004630  1.0  0.0522
  N  N1760  1  0.295000  0.777250  0.968690  1.0  -0.2263
  N  N1761  1  0.262220  0.205920  0.546250  1.0  -0.2761
  N  N1762  1  0.313660  0.154380  0.499840  1.0  -0.4119
  N  N1763  1  0.357920  0.207590  0.495370  1.0  0.0525
  N  N1764  1  0.295000  0.222750  0.531310  1.0  -0.2254
  N  N1765  1  0.762220  0.705920  0.046250  1.0  -0.2761
  N  N1766  1  0.813660  0.654380  0.999840  1.0  -0.4119
  N  N1767  1  0.857920  0.707590  0.995370  1.0  0.0525
  N  N1768  1  0.795000  0.722750  0.031310  1.0  -0.2254
  N  N1769  1  0.953750  0.737780  0.705920  1.0  -0.2766
  N  N1770  1  0.000160  0.686340  0.654380  1.0  -0.408
  N  N1771  1  0.004630  0.642080  0.707590  1.0  0.053
  N  N1772  1  0.968690  0.705000  0.722750  1.0  -0.2228
  N  N1773  1  0.453750  0.237780  0.205920  1.0  -0.2766
  N  N1774  1  0.500160  0.186340  0.154380  1.0  -0.408
  N  N1775  1  0.504630  0.142080  0.207590  1.0  0.053
  N  N1776  1  0.468690  0.205000  0.222750  1.0  -0.2228
  N  N1777  1  0.046250  0.237780  0.794080  1.0  -0.2733
  N  N1778  1  0.999840  0.186340  0.845620  1.0  -0.4075
  N  N1779  1  0.995370  0.142080  0.792410  1.0  0.0535
  N  N1780  1  0.031310  0.205000  0.777250  1.0  -0.2226
  N  N1781  1  0.546250  0.737780  0.294080  1.0  -0.2733
  N  N1782  1  0.499840  0.686340  0.345620  1.0  -0.4075
  N  N1783  1  0.495370  0.642080  0.292410  1.0  0.0535
  N  N1784  1  0.531310  0.705000  0.277250  1.0  -0.2226
  N  N1785  1  0.453750  0.762220  0.294080  1.0  -0.2765
  N  N1786  1  0.500160  0.813660  0.345620  1.0  -0.4081
  N  N1787  1  0.504630  0.857920  0.292410  1.0  0.0533
  N  N1788  1  0.468690  0.795000  0.277250  1.0  -0.2218
  N  N1789  1  0.953750  0.262220  0.794080  1.0  -0.2765
  N  N1790  1  0.000160  0.313660  0.845620  1.0  -0.4081
  N  N1791  1  0.004630  0.357920  0.792410  1.0  0.0533
  N  N1792  1  0.968690  0.295000  0.777250  1.0  -0.2218
  N  N1793  1  0.546250  0.262220  0.205920  1.0  -0.2733
  N  N1794  1  0.499840  0.313660  0.154380  1.0  -0.4085
  N  N1795  1  0.495370  0.357920  0.207590  1.0  0.0535
  N  N1796  1  0.531310  0.295000  0.222750  1.0  -0.2238
  N  N1797  1  0.046250  0.762220  0.705920  1.0  -0.2733
  N  N1798  1  0.999840  0.813660  0.654380  1.0  -0.4085
  N  N1799  1  0.995370  0.857920  0.707590  1.0  0.0535
  N  N1800  1  0.031310  0.795000  0.722750  1.0  -0.2238
  N  N1801  1  0.703750  0.955920  0.512220  1.0  -0.274
  N  N1802  1  0.750160  0.904380  0.563660  1.0  -0.4116
  N  N1803  1  0.754630  0.957590  0.607920  1.0  0.0532
  N  N1804  1  0.718690  0.972750  0.545000  1.0  -0.2228
  N  N1805  1  0.203750  0.455920  0.012220  1.0  -0.274
  N  N1806  1  0.250160  0.404380  0.063660  1.0  -0.4116
  N  N1807  1  0.254630  0.457590  0.107920  1.0  0.0532
  N  N1808  1  0.218690  0.472750  0.045000  1.0  -0.2228
  N  N1809  1  0.796250  0.044080  0.012220  1.0  -0.2744
  N  N1810  1  0.749840  0.095620  0.063660  1.0  -0.4119
  N  N1811  1  0.745370  0.042410  0.107920  1.0  0.0534
  N  N1812  1  0.781310  0.027250  0.045000  1.0  -0.2238
  N  N1813  1  0.296250  0.544080  0.512220  1.0  -0.2744
  N  N1814  1  0.249840  0.595620  0.563660  1.0  -0.4119
  N  N1815  1  0.245370  0.542410  0.607920  1.0  0.0534
  N  N1816  1  0.281310  0.527250  0.545000  1.0  -0.2238
  N  N1817  1  0.203750  0.544080  0.487780  1.0  -0.2759
  N  N1818  1  0.250160  0.595620  0.436340  1.0  -0.4123
  N  N1819  1  0.254630  0.542410  0.392080  1.0  0.0525
  N  N1820  1  0.218690  0.527250  0.455000  1.0  -0.2227
  N  N1821  1  0.703750  0.044080  0.987780  1.0  -0.2759
  N  N1822  1  0.750160  0.095620  0.936340  1.0  -0.4123
  N  N1823  1  0.754630  0.042410  0.892080  1.0  0.0525
  N  N1824  1  0.718690  0.027250  0.955000  1.0  -0.2227
  N  N1825  1  0.296250  0.455920  0.987780  1.0  -0.2728
  N  N1826  1  0.249840  0.404380  0.936340  1.0  -0.4129
  N  N1827  1  0.245370  0.457590  0.892080  1.0  0.0528
  N  N1828  1  0.281310  0.472750  0.955000  1.0  -0.224
  N  N1829  1  0.796250  0.955920  0.487780  1.0  -0.2728
  N  N1830  1  0.749840  0.904380  0.436340  1.0  -0.4129
  N  N1831  1  0.745370  0.957590  0.392080  1.0  0.0528
  N  N1832  1  0.781310  0.972750  0.455000  1.0  -0.224
  N  N1833  1  0.455920  0.987780  0.296250  1.0  -0.277
  N  N1834  1  0.404380  0.936340  0.249840  1.0  -0.411
  N  N1835  1  0.457590  0.892080  0.245370  1.0  0.0532
  N  N1836  1  0.472750  0.955000  0.281310  1.0  -0.2235
  N  N1837  1  0.955920  0.487780  0.796250  1.0  -0.277
  N  N1838  1  0.904380  0.436340  0.749840  1.0  -0.411
  N  N1839  1  0.957590  0.392080  0.745370  1.0  0.0532
  N  N1840  1  0.972750  0.455000  0.781310  1.0  -0.2235
  N  N1841  1  0.544080  0.487780  0.203750  1.0  -0.273
  N  N1842  1  0.595620  0.436340  0.250160  1.0  -0.411
  N  N1843  1  0.542410  0.392080  0.254630  1.0  0.0528
  N  N1844  1  0.527250  0.455000  0.218690  1.0  -0.2244
  N  N1845  1  0.044080  0.987780  0.703750  1.0  -0.273
  N  N1846  1  0.095620  0.936340  0.750160  1.0  -0.411
  N  N1847  1  0.042410  0.892080  0.754630  1.0  0.0528
  N  N1848  1  0.027250  0.955000  0.718690  1.0  -0.2244
  N  N1849  1  0.044080  0.012220  0.796250  1.0  -0.2741
  N  N1850  1  0.095620  0.063660  0.749840  1.0  -0.4109
  N  N1851  1  0.042410  0.107920  0.745370  1.0  0.0529
  N  N1852  1  0.027250  0.045000  0.781310  1.0  -0.2235
  N  N1853  1  0.544080  0.512220  0.296250  1.0  -0.2741
  N  N1854  1  0.595620  0.563660  0.249840  1.0  -0.4109
  N  N1855  1  0.542410  0.607920  0.245370  1.0  0.0529
  N  N1856  1  0.527250  0.545000  0.281310  1.0  -0.2235
  N  N1857  1  0.955920  0.512220  0.703750  1.0  -0.2761
  N  N1858  1  0.904380  0.563660  0.750160  1.0  -0.4119
  N  N1859  1  0.957590  0.607920  0.754630  1.0  0.053
  N  N1860  1  0.972750  0.545000  0.718690  1.0  -0.225
  N  N1861  1  0.455920  0.012220  0.203750  1.0  -0.2761
  N  N1862  1  0.404380  0.063660  0.250160  1.0  -0.4119
  N  N1863  1  0.457590  0.107920  0.254630  1.0  0.053
  N  N1864  1  0.472750  0.045000  0.218690  1.0  -0.225
  N  N1865  1  0.487780  0.203750  0.544080  1.0  -0.2785
  N  N1866  1  0.436340  0.250160  0.595620  1.0  -0.4088
  N  N1867  1  0.392080  0.254630  0.542410  1.0  0.0529
  N  N1868  1  0.455000  0.218690  0.527250  1.0  -0.2256
  N  N1869  1  0.987780  0.703750  0.044080  1.0  -0.2785
  N  N1870  1  0.936340  0.750160  0.095620  1.0  -0.4088
  N  N1871  1  0.892080  0.754630  0.042410  1.0  0.0529
  N  N1872  1  0.955000  0.718690  0.027250  1.0  -0.2256
  N  N1873  1  0.987780  0.296250  0.455920  1.0  -0.2798
  N  N1874  1  0.936340  0.249840  0.404380  1.0  -0.4086
  N  N1875  1  0.892080  0.245370  0.457590  1.0  0.053
  N  N1876  1  0.955000  0.281310  0.472750  1.0  -0.2261
  N  N1877  1  0.487780  0.796250  0.955920  1.0  -0.2798
  N  N1878  1  0.436340  0.749840  0.904380  1.0  -0.4086
  N  N1879  1  0.392080  0.745370  0.957590  1.0  0.053
  N  N1880  1  0.455000  0.781310  0.972750  1.0  -0.2261
  N  N1881  1  0.512220  0.703750  0.955920  1.0  -0.2782
  N  N1882  1  0.563660  0.750160  0.904380  1.0  -0.4094
  N  N1883  1  0.607920  0.754630  0.957590  1.0  0.053
  N  N1884  1  0.545000  0.718690  0.972750  1.0  -0.2266
  N  N1885  1  0.012220  0.203750  0.455920  1.0  -0.2782
  N  N1886  1  0.063660  0.250160  0.404380  1.0  -0.4094
  N  N1887  1  0.107920  0.254630  0.457590  1.0  0.053
  N  N1888  1  0.045000  0.218690  0.472750  1.0  -0.2266
  N  N1889  1  0.012220  0.796250  0.044080  1.0  -0.2772
  N  N1890  1  0.063660  0.749840  0.095620  1.0  -0.4097
  N  N1891  1  0.107920  0.745370  0.042410  1.0  0.0527
  N  N1892  1  0.045000  0.781310  0.027250  1.0  -0.2268
  N  N1893  1  0.512220  0.296250  0.544080  1.0  -0.2772
  N  N1894  1  0.563660  0.249840  0.595620  1.0  -0.4097
  N  N1895  1  0.607920  0.245370  0.542410  1.0  0.0527
  N  N1896  1  0.545000  0.281310  0.527250  1.0  -0.2268
  N  N1897  1  0.294080  0.046250  0.262220  1.0  -0.2747
  N  N1898  1  0.345620  0.999840  0.313660  1.0  -0.4118
  N  N1899  1  0.292410  0.995370  0.357920  1.0  0.053
  N  N1900  1  0.277250  0.031310  0.295000  1.0  -0.2256
  N  N1901  1  0.794080  0.546250  0.762220  1.0  -0.2747
  N  N1902  1  0.845620  0.499840  0.813660  1.0  -0.4118
  N  N1903  1  0.792410  0.495370  0.857920  1.0  0.053
  N  N1904  1  0.777250  0.531310  0.795000  1.0  -0.2256
  N  N1905  1  0.205920  0.953750  0.762220  1.0  -0.2762
  N  N1906  1  0.154380  0.000160  0.813660  1.0  -0.4121
  N  N1907  1  0.207590  0.004630  0.857920  1.0  0.0527
  N  N1908  1  0.222750  0.968690  0.795000  1.0  -0.225
  N  N1909  1  0.705920  0.453750  0.262220  1.0  -0.2762
  N  N1910  1  0.654380  0.500160  0.313660  1.0  -0.4121
  N  N1911  1  0.707590  0.504630  0.357920  1.0  0.0527
  N  N1912  1  0.722750  0.468690  0.295000  1.0  -0.225
  N  N1913  1  0.705920  0.546250  0.237780  1.0  -0.277
  N  N1914  1  0.654380  0.499840  0.186340  1.0  -0.4125
  N  N1915  1  0.707590  0.495370  0.142080  1.0  0.0523
  N  N1916  1  0.722750  0.531310  0.205000  1.0  -0.2264
  N  N1917  1  0.205920  0.046250  0.737780  1.0  -0.277
  N  N1918  1  0.154380  0.999840  0.686340  1.0  -0.4125
  N  N1919  1  0.207590  0.995370  0.642080  1.0  0.0523
  N  N1920  1  0.222750  0.031310  0.705000  1.0  -0.2264
  N  N1921  1  0.794080  0.453750  0.737780  1.0  -0.2743
  N  N1922  1  0.845620  0.500160  0.686340  1.0  -0.4125
  N  N1923  1  0.792410  0.504630  0.642080  1.0  0.0524
  N  N1924  1  0.777250  0.468690  0.705000  1.0  -0.2246
  N  N1925  1  0.294080  0.953750  0.237780  1.0  -0.2743
  N  N1926  1  0.345620  0.000160  0.186340  1.0  -0.4125
  N  N1927  1  0.292410  0.004630  0.142080  1.0  0.0524
  N  N1928  1  0.277250  0.968690  0.205000  1.0  -0.2246
  N  N1929  1  0.262220  0.294080  0.046250  1.0  -0.2767
  N  N1930  1  0.313660  0.345620  0.999840  1.0  -0.4125
  N  N1931  1  0.357920  0.292410  0.995370  1.0  0.0523
  N  N1932  1  0.295000  0.277250  0.031310  1.0  -0.2246
  N  N1933  1  0.762220  0.794080  0.546250  1.0  -0.2767
  N  N1934  1  0.813660  0.845620  0.499840  1.0  -0.4125
  N  N1935  1  0.857920  0.792410  0.495370  1.0  0.0523
  N  N1936  1  0.795000  0.777250  0.531310  1.0  -0.2246
  N  N1937  1  0.762220  0.205920  0.953750  1.0  -0.2751
  N  N1938  1  0.813660  0.154380  0.000160  1.0  -0.4123
  N  N1939  1  0.857920  0.207590  0.004630  1.0  0.0524
  N  N1940  1  0.795000  0.222750  0.968690  1.0  -0.2265
  N  N1941  1  0.262220  0.705920  0.453750  1.0  -0.2751
  N  N1942  1  0.313660  0.654380  0.500160  1.0  -0.4123
  N  N1943  1  0.357920  0.707590  0.504630  1.0  0.0524
  N  N1944  1  0.295000  0.722750  0.468690  1.0  -0.2265
  N  N1945  1  0.237780  0.705920  0.546250  1.0  -0.2776
  N  N1946  1  0.186340  0.654380  0.499840  1.0  -0.4106
  N  N1947  1  0.142080  0.707590  0.495370  1.0  0.0523
  N  N1948  1  0.205000  0.722750  0.531310  1.0  -0.225
  N  N1949  1  0.737780  0.205920  0.046250  1.0  -0.2776
  N  N1950  1  0.686340  0.154380  0.999840  1.0  -0.4106
  N  N1951  1  0.642080  0.207590  0.995370  1.0  0.0523
  N  N1952  1  0.705000  0.222750  0.031310  1.0  -0.225
  N  N1953  1  0.737780  0.794080  0.453750  1.0  -0.2769
  N  N1954  1  0.686340  0.845620  0.500160  1.0  -0.4111
  N  N1955  1  0.642080  0.792410  0.504630  1.0  0.052
  N  N1956  1  0.705000  0.777250  0.468690  1.0  -0.2251
  N  N1957  1  0.237780  0.294080  0.953750  1.0  -0.2769
  N  N1958  1  0.186340  0.345620  0.000160  1.0  -0.4111
  N  N1959  1  0.142080  0.292410  0.004630  1.0  0.052
  N  N1960  1  0.205000  0.277250  0.968690  1.0  -0.2251
  N  N1961  1  0.046250  0.262220  0.294080  1.0  -0.2739
  N  N1962  1  0.999840  0.313660  0.345620  1.0  -0.408
  N  N1963  1  0.995370  0.357920  0.292410  1.0  0.0535
  N  N1964  1  0.031310  0.295000  0.277250  1.0  -0.2229
  N  N1965  1  0.546250  0.762220  0.794080  1.0  -0.2739
  N  N1966  1  0.499840  0.813660  0.845620  1.0  -0.408
  N  N1967  1  0.495370  0.857920  0.792410  1.0  0.0535
  N  N1968  1  0.531310  0.795000  0.777250  1.0  -0.2229
  N  N1969  1  0.953750  0.762220  0.205920  1.0  -0.2768
  N  N1970  1  0.000160  0.813660  0.154380  1.0  -0.4082
  N  N1971  1  0.004630  0.857920  0.207590  1.0  0.0534
  N  N1972  1  0.968690  0.795000  0.222750  1.0  -0.2228
  N  N1973  1  0.453750  0.262220  0.705920  1.0  -0.2768
  N  N1974  1  0.500160  0.313660  0.654380  1.0  -0.4082
  N  N1975  1  0.504630  0.357920  0.707590  1.0  0.0534
  N  N1976  1  0.468690  0.295000  0.722750  1.0  -0.2228
  N  N1977  1  0.546250  0.237780  0.705920  1.0  -0.2739
  N  N1978  1  0.499840  0.186340  0.654380  1.0  -0.4081
  N  N1979  1  0.495370  0.142080  0.707590  1.0  0.0533
  N  N1980  1  0.531310  0.205000  0.722750  1.0  -0.2234
  N  N1981  1  0.046250  0.737780  0.205920  1.0  -0.2739
  N  N1982  1  0.999840  0.686340  0.154380  1.0  -0.4081
  N  N1983  1  0.995370  0.642080  0.207590  1.0  0.0533
  N  N1984  1  0.031310  0.705000  0.222750  1.0  -0.2234
  N  N1985  1  0.453750  0.737780  0.794080  1.0  -0.2755
  N  N1986  1  0.500160  0.686340  0.845620  1.0  -0.4078
  N  N1987  1  0.504630  0.642080  0.792410  1.0  0.0532
  N  N1988  1  0.468690  0.705000  0.777250  1.0  -0.2218
  N  N1989  1  0.953750  0.237780  0.294080  1.0  -0.2755
  N  N1990  1  0.000160  0.186340  0.345620  1.0  -0.4078
  N  N1991  1  0.004630  0.142080  0.292410  1.0  0.0532
  N  N1992  1  0.968690  0.205000  0.277250  1.0  -0.2218
  N  N1993  1  0.296250  0.044080  0.487780  1.0  -0.2739
  N  N1994  1  0.249840  0.095620  0.436340  1.0  -0.4123
  N  N1995  1  0.245370  0.042410  0.392080  1.0  0.0528
  N  N1996  1  0.281310  0.027250  0.455000  1.0  -0.2232
  N  N1997  1  0.796250  0.544080  0.987780  1.0  -0.2739
  N  N1998  1  0.749840  0.595620  0.936340  1.0  -0.4123
  N  N1999  1  0.745370  0.542410  0.892080  1.0  0.0528
  N  N2000  1  0.781310  0.527250  0.955000  1.0  -0.2232
  N  N2001  1  0.203750  0.955920  0.987780  1.0  -0.2753
  N  N2002  1  0.250160  0.904380  0.936340  1.0  -0.413
  N  N2003  1  0.254630  0.957590  0.892080  1.0  0.0524
  N  N2004  1  0.218690  0.972750  0.955000  1.0  -0.2227
  N  N2005  1  0.703750  0.455920  0.487780  1.0  -0.2753
  N  N2006  1  0.750160  0.404380  0.436340  1.0  -0.413
  N  N2007  1  0.754630  0.457590  0.392080  1.0  0.0524
  N  N2008  1  0.718690  0.472750  0.455000  1.0  -0.2227
  N  N2009  1  0.796250  0.455920  0.512220  1.0  -0.2724
  N  N2010  1  0.749840  0.404380  0.563660  1.0  -0.4116
  N  N2011  1  0.745370  0.457590  0.607920  1.0  0.0535
  N  N2012  1  0.781310  0.472750  0.545000  1.0  -0.2248
  N  N2013  1  0.296250  0.955920  0.012220  1.0  -0.2724
  N  N2014  1  0.249840  0.904380  0.063660  1.0  -0.4116
  N  N2015  1  0.245370  0.957590  0.107920  1.0  0.0535
  N  N2016  1  0.281310  0.972750  0.045000  1.0  -0.2248
  N  N2017  1  0.703750  0.544080  0.012220  1.0  -0.2756
  N  N2018  1  0.750160  0.595620  0.063660  1.0  -0.4117
  N  N2019  1  0.754630  0.542410  0.107920  1.0  0.0531
  N  N2020  1  0.718690  0.527250  0.045000  1.0  -0.2229
  N  N2021  1  0.203750  0.044080  0.512220  1.0  -0.2756
  N  N2022  1  0.250160  0.095620  0.563660  1.0  -0.4117
  N  N2023  1  0.254630  0.042410  0.607920  1.0  0.0531
  N  N2024  1  0.218690  0.027250  0.545000  1.0  -0.2229
  N  N2025  1  0.544080  0.012220  0.703750  1.0  -0.2735
  N  N2026  1  0.595620  0.063660  0.750160  1.0  -0.4108
  N  N2027  1  0.542410  0.107920  0.754630  1.0  0.0528
  N  N2028  1  0.527250  0.045000  0.718690  1.0  -0.2238
  N  N2029  1  0.044080  0.512220  0.203750  1.0  -0.2735
  N  N2030  1  0.095620  0.563660  0.250160  1.0  -0.4108
  N  N2031  1  0.042410  0.607920  0.254630  1.0  0.0528
  N  N2032  1  0.027250  0.545000  0.218690  1.0  -0.2238
  N  N2033  1  0.455920  0.512220  0.796250  1.0  -0.2775
  N  N2034  1  0.404380  0.563660  0.749840  1.0  -0.4117
  N  N2035  1  0.457590  0.607920  0.745370  1.0  0.0532
  N  N2036  1  0.472750  0.545000  0.781310  1.0  -0.2246
  N  N2037  1  0.955920  0.012220  0.296250  1.0  -0.2775
  N  N2038  1  0.904380  0.063660  0.249840  1.0  -0.4117
  N  N2039  1  0.957590  0.107920  0.245370  1.0  0.0532
  N  N2040  1  0.972750  0.045000  0.281310  1.0  -0.2246
  N  N2041  1  0.955920  0.987780  0.203750  1.0  -0.2756
  N  N2042  1  0.904380  0.936340  0.250160  1.0  -0.4114
  N  N2043  1  0.957590  0.892080  0.254630  1.0  0.053
  N  N2044  1  0.972750  0.955000  0.218690  1.0  -0.2254
  N  N2045  1  0.455920  0.487780  0.703750  1.0  -0.2756
  N  N2046  1  0.404380  0.436340  0.750160  1.0  -0.4114
  N  N2047  1  0.457590  0.392080  0.754630  1.0  0.053
  N  N2048  1  0.472750  0.455000  0.718690  1.0  -0.2254
  N  N2049  1  0.044080  0.487780  0.296250  1.0  -0.2735
  N  N2050  1  0.095620  0.436340  0.249840  1.0  -0.4105
  N  N2051  1  0.042410  0.392080  0.245370  1.0  0.0529
  N  N2052  1  0.027250  0.455000  0.281310  1.0  -0.2226
  N  N2053  1  0.544080  0.987780  0.796250  1.0  -0.2735
  N  N2054  1  0.595620  0.936340  0.749840  1.0  -0.4105
  N  N2055  1  0.542410  0.892080  0.745370  1.0  0.0529
  N  N2056  1  0.527250  0.955000  0.781310  1.0  -0.2226
  N  N2057  1  0.512220  0.796250  0.455920  1.0  -0.2773
  N  N2058  1  0.563660  0.749840  0.404380  1.0  -0.4094
  N  N2059  1  0.607920  0.745370  0.457590  1.0  0.0531
  N  N2060  1  0.545000  0.781310  0.472750  1.0  -0.2273
  N  N2061  1  0.012220  0.296250  0.955920  1.0  -0.2773
  N  N2062  1  0.063660  0.249840  0.904380  1.0  -0.4094
  N  N2063  1  0.107920  0.245370  0.957590  1.0  0.0531
  N  N2064  1  0.045000  0.281310  0.972750  1.0  -0.2273
  N  N2065  1  0.012220  0.703750  0.544080  1.0  -0.278
  N  N2066  1  0.063660  0.750160  0.595620  1.0  -0.409
  N  N2067  1  0.107920  0.754630  0.542410  1.0  0.0526
  N  N2068  1  0.045000  0.718690  0.527250  1.0  -0.2265
  N  N2069  1  0.512220  0.203750  0.044080  1.0  -0.278
  N  N2070  1  0.563660  0.250160  0.095620  1.0  -0.409
  N  N2071  1  0.607920  0.254630  0.042410  1.0  0.0526
  N  N2072  1  0.545000  0.218690  0.027250  1.0  -0.2265
  N  N2073  1  0.487780  0.296250  0.044080  1.0  -0.2792
  N  N2074  1  0.436340  0.249840  0.095620  1.0  -0.4089
  N  N2075  1  0.392080  0.245370  0.042410  1.0  0.053
  N  N2076  1  0.455000  0.281310  0.027250  1.0  -0.2255
  N  N2077  1  0.987780  0.796250  0.544080  1.0  -0.2792
  N  N2078  1  0.936340  0.749840  0.595620  1.0  -0.4089
  N  N2079  1  0.892080  0.745370  0.542410  1.0  0.053
  N  N2080  1  0.955000  0.781310  0.527250  1.0  -0.2255
  N  N2081  1  0.987780  0.203750  0.955920  1.0  -0.2793
  N  N2082  1  0.936340  0.250160  0.904380  1.0  -0.409
  N  N2083  1  0.892080  0.254630  0.957590  1.0  0.0527
  N  N2084  1  0.955000  0.218690  0.972750  1.0  -0.2258
  N  N2085  1  0.487780  0.703750  0.455920  1.0  -0.2793
  N  N2086  1  0.436340  0.750160  0.404380  1.0  -0.409
  N  N2087  1  0.392080  0.754630  0.457590  1.0  0.0527
  N  N2088  1  0.455000  0.718690  0.472750  1.0  -0.2258
