# generated using pymatgen
data_InH2C10(NO2)4
_symmetry_space_group_name_H-M   'P 1'
_cell_length_a   29.57200000
_cell_length_b   29.57200000
_cell_length_c   33.26380000
_cell_angle_alpha   63.60820000
_cell_angle_beta   63.60820000
_cell_angle_gamma   90.00000000
_symmetry_Int_Tables_number   1
_chemical_formula_structural   InH2C10(NO2)4
_chemical_formula_sum   'In40 H80 C400 N160 O320'
_cell_volume   22622.93101018
_cell_formula_units_Z   40
loop_
 _symmetry_equiv_pos_site_id
 _symmetry_equiv_pos_as_xyz
  1  'x, y, z'
loop_
 _atom_site_type_symbol
 _atom_site_label
 _atom_site_symmetry_multiplicity
 _atom_site_fract_x
 _atom_site_fract_y
 _atom_site_fract_z
 _atom_site_occupancy
 _atom_site_charge
  In  In1  1  0.659660  0.191530  0.396100  1.0  1.4715
  In  In2  1  0.791030  0.903430  0.699120  1.0  1.4701
  In  In3  1  0.444240  0.412370  0.396100  1.0  1.4773
  In  In4  1  0.009850  0.397450  0.699120  1.0  1.4749
  In  In5  1  0.691530  0.944240  0.896100  1.0  1.4714
  In  In6  1  0.403430  0.509850  0.199120  1.0  1.471
  In  In7  1  0.912370  0.159660  0.896100  1.0  1.4728
  In  In8  1  0.897450  0.291030  0.199120  1.0  1.4744
  In  In9  1  0.555760  0.808470  0.603900  1.0  1.4746
  In  In10  1  0.990150  0.096570  0.300880  1.0  1.4754
  In  In11  1  0.340340  0.587630  0.603900  1.0  1.4707
  In  In12  1  0.208970  0.602550  0.300880  1.0  1.4708
  In  In13  1  0.087630  0.055760  0.103900  1.0  1.4759
  In  In14  1  0.102550  0.490150  0.800880  1.0  1.4762
  In  In15  1  0.308470  0.840340  0.103900  1.0  1.4702
  In  In16  1  0.596570  0.708970  0.800880  1.0  1.4749
  In  In17  1  0.340340  0.808470  0.603900  1.0  1.4707
  In  In18  1  0.208970  0.096570  0.300880  1.0  1.4706
  In  In19  1  0.555760  0.587630  0.603900  1.0  1.4759
  In  In20  1  0.990150  0.602550  0.300880  1.0  1.4767
  In  In21  1  0.308470  0.055760  0.103900  1.0  1.471
  In  In22  1  0.596570  0.490150  0.800880  1.0  1.4727
  In  In23  1  0.087630  0.840340  0.103900  1.0  1.4739
  In  In24  1  0.102550  0.708970  0.800880  1.0  1.475
  In  In25  1  0.444240  0.191530  0.396100  1.0  1.4755
  In  In26  1  0.009850  0.903430  0.699120  1.0  1.4746
  In  In27  1  0.659660  0.412370  0.396100  1.0  1.4727
  In  In28  1  0.791030  0.397450  0.699120  1.0  1.4702
  In  In29  1  0.912370  0.944240  0.896100  1.0  1.4771
  In  In30  1  0.897450  0.509850  0.199120  1.0  1.4738
  In  In31  1  0.691530  0.159660  0.896100  1.0  1.4705
  In  In32  1  0.403430  0.291030  0.199120  1.0  1.4735
  In  In33  1  0.754760  0.000000  0.500000  1.0  1.4835
  In  In34  1  0.245240  0.500000  0.500000  1.0  1.4834
  In  In35  1  0.500000  0.745240  0.000000  1.0  1.4834
  In  In36  1  0.000000  0.254760  0.000000  1.0  1.4836
  In  In37  1  0.245240  0.000000  0.500000  1.0  1.4834
  In  In38  1  0.754760  0.500000  0.500000  1.0  1.4836
  In  In39  1  0.500000  0.254760  0.000000  1.0  1.4836
  In  In40  1  0.000000  0.745240  0.000000  1.0  1.4834
  H  H41  1  0.763500  0.243500  0.267000  1.0  0.1335
  H  H42  1  0.765800  0.994600  0.602400  1.0  0.133
  H  H43  1  0.693800  0.104900  0.487400  1.0  0.141
  H  H44  1  0.469500  0.489500  0.267000  1.0  0.1321
  H  H45  1  0.131800  0.403000  0.602400  1.0  0.133
  H  H46  1  0.318800  0.407700  0.487400  1.0  0.144
  H  H47  1  0.743500  0.969500  0.767000  1.0  0.1346
  H  H48  1  0.494600  0.631800  0.102400  1.0  0.1303
  H  H49  1  0.604900  0.818800  0.987400  1.0  0.1427
  H  H50  1  0.989500  0.263500  0.767000  1.0  0.1314
  H  H51  1  0.903000  0.265800  0.102400  1.0  0.1313
  H  H52  1  0.907700  0.193800  0.987400  1.0  0.1421
  H  H53  1  0.530500  0.756500  0.733000  1.0  0.1332
  H  H54  1  0.868200  0.005400  0.397600  1.0  0.1317
  H  H55  1  0.681200  0.895100  0.512600  1.0  0.1431
  H  H56  1  0.236500  0.510500  0.733000  1.0  0.1328
  H  H57  1  0.234200  0.597000  0.397600  1.0  0.1331
  H  H58  1  0.306200  0.592300  0.512600  1.0  0.1429
  H  H59  1  0.010500  0.030500  0.233000  1.0  0.1339
  H  H60  1  0.097000  0.368200  0.897600  1.0  0.1312
  H  H61  1  0.092300  0.181200  0.012600  1.0  0.1414
  H  H62  1  0.256500  0.736500  0.233000  1.0  0.1331
  H  H63  1  0.505400  0.734200  0.897600  1.0  0.1311
  H  H64  1  0.395100  0.806200  0.012600  1.0  0.1423
  H  H65  1  0.236500  0.756500  0.733000  1.0  0.1333
  H  H66  1  0.234200  0.005400  0.397600  1.0  0.1321
  H  H67  1  0.306200  0.895100  0.512600  1.0  0.1422
  H  H68  1  0.530500  0.510500  0.733000  1.0  0.1327
  H  H69  1  0.868200  0.597000  0.397600  1.0  0.1333
  H  H70  1  0.681200  0.592300  0.512600  1.0  0.1427
  H  H71  1  0.256500  0.030500  0.233000  1.0  0.1347
  H  H72  1  0.505400  0.368200  0.897600  1.0  0.1311
  H  H73  1  0.395100  0.181200  0.012600  1.0  0.143
  H  H74  1  0.010500  0.736500  0.233000  1.0  0.132
  H  H75  1  0.097000  0.734200  0.897600  1.0  0.1307
  H  H76  1  0.092300  0.806200  0.012600  1.0  0.1414
  H  H77  1  0.469500  0.243500  0.267000  1.0  0.1326
  H  H78  1  0.131800  0.994600  0.602400  1.0  0.1321
  H  H79  1  0.318800  0.104900  0.487400  1.0  0.1424
  H  H80  1  0.763500  0.489500  0.267000  1.0  0.1326
  H  H81  1  0.765800  0.403000  0.602400  1.0  0.1322
  H  H82  1  0.693800  0.407700  0.487400  1.0  0.1437
  H  H83  1  0.989500  0.969500  0.767000  1.0  0.1335
  H  H84  1  0.903000  0.631800  0.102400  1.0  0.1316
  H  H85  1  0.907700  0.818800  0.987400  1.0  0.1419
  H  H86  1  0.743500  0.263500  0.767000  1.0  0.1338
  H  H87  1  0.494600  0.265800  0.102400  1.0  0.1307
  H  H88  1  0.604900  0.193800  0.987400  1.0  0.1408
  H  H89  1  0.572400  0.179500  0.355200  1.0  0.1523
  H  H90  1  0.572400  0.465300  0.355200  1.0  0.1541
  H  H91  1  0.679500  0.072400  0.855200  1.0  0.1511
  H  H92  1  0.965300  0.072400  0.855200  1.0  0.1527
  H  H93  1  0.427600  0.820500  0.644800  1.0  0.1533
  H  H94  1  0.427600  0.534700  0.644800  1.0  0.1535
  H  H95  1  0.034700  0.927600  0.144800  1.0  0.1521
  H  H96  1  0.320500  0.927600  0.144800  1.0  0.1522
  H  H97  1  0.641300  0.277100  0.445800  1.0  0.1404
  H  H98  1  0.412900  0.277100  0.445800  1.0  0.1384
  H  H99  1  0.777100  0.912900  0.945800  1.0  0.1406
  H  H100  1  0.777100  0.141300  0.945800  1.0  0.1404
  H  H101  1  0.587100  0.722900  0.554200  1.0  0.1383
  H  H102  1  0.358700  0.722900  0.554200  1.0  0.1405
  H  H103  1  0.222900  0.087100  0.054200  1.0  0.1408
  H  H104  1  0.222900  0.858700  0.054200  1.0  0.1406
  H  H105  1  0.723700  0.776300  0.750000  1.0  0.1425
  H  H106  1  0.026300  0.473700  0.750000  1.0  0.1427
  H  H107  1  0.276300  0.526300  0.250000  1.0  0.1428
  H  H108  1  0.973700  0.223700  0.250000  1.0  0.1429
  H  H109  1  0.276300  0.223700  0.250000  1.0  0.1427
  H  H110  1  0.973700  0.526300  0.250000  1.0  0.1425
  H  H111  1  0.723700  0.473700  0.750000  1.0  0.1429
  H  H112  1  0.026300  0.776300  0.750000  1.0  0.1428
  H  H113  1  0.900300  0.856200  0.699400  1.0  0.1444
  H  H114  1  0.900300  0.444400  0.699400  1.0  0.1465
  H  H115  1  0.356200  0.400300  0.199400  1.0  0.143
  H  H116  1  0.944400  0.400300  0.199400  1.0  0.1449
  H  H117  1  0.099700  0.143800  0.300600  1.0  0.1448
  H  H118  1  0.099700  0.555600  0.300600  1.0  0.1458
  H  H119  1  0.055600  0.599700  0.800600  1.0  0.1444
  H  H120  1  0.643800  0.599700  0.800600  1.0  0.1434
  C  C121  1  0.754600  0.226500  0.409400  1.0  0.7051
  C  C122  1  0.776900  0.239100  0.355400  1.0  0.0201
  C  C123  1  0.775100  0.245700  0.288600  1.0  0.337
  C  C124  1  0.825800  0.261300  0.313800  1.0  0.0766
  C  C125  1  0.874900  0.275500  0.310400  1.0  0.7018
  C  C126  1  0.821700  0.852700  0.628000  1.0  0.7725
  C  C127  1  0.804000  0.897700  0.604600  1.0  0.0991
  C  C128  1  0.777200  0.967300  0.596000  1.0  0.3054
  C  C129  1  0.794800  0.915600  0.565400  1.0  0.0833
  C  C130  1  0.800500  0.897800  0.528200  1.0  0.7109
  C  C131  1  0.557100  0.155300  0.501000  1.0  0.7241
  C  C132  1  0.540500  0.158500  0.464800  1.0  0.074
  C  C133  1  0.665200  0.293500  0.299600  1.0  0.7212
  C  C134  1  0.655700  0.307000  0.339600  1.0  0.0835
  C  C135  1  0.675900  0.924000  0.724400  1.0  0.6971
  C  C136  1  0.672600  0.868600  0.738800  1.0  0.009
  C  C137  1  0.863900  0.010200  0.656000  1.0  0.734
  C  C138  1  0.894200  0.970900  0.665000  1.0  0.0444
  C  C139  1  0.742000  0.016400  0.405000  1.0  0.6288
  C  C140  1  0.722000  0.057400  0.417400  1.0  0.0908
  C  C141  1  0.699300  0.095700  0.462000  1.0  0.3098
  C  C142  1  0.698900  0.094600  0.398400  1.0  0.0896
  C  C143  1  0.689000  0.110400  0.355800  1.0  0.7267
  C  C144  1  0.336000  0.364100  0.409400  1.0  0.6938
  C  C145  1  0.367700  0.405500  0.355400  1.0  0.0142
  C  C146  1  0.436300  0.465700  0.288600  1.0  0.3358
  C  C147  1  0.360400  0.424900  0.313800  1.0  0.0774
  C  C148  1  0.314700  0.414100  0.310400  1.0  0.6992
  C  C149  1  0.050300  0.519300  0.628000  1.0  0.7434
  C  C150  1  0.091400  0.497700  0.604600  1.0  0.0988
  C  C151  1  0.126800  0.436700  0.596000  1.0  0.3055
  C  C152  1  0.139800  0.519000  0.565400  1.0  0.0831
  C  C153  1  0.171300  0.574000  0.528200  1.0  0.7061
  C  C154  1  0.441900  0.343700  0.501000  1.0  0.7189
  C  C155  1  0.494700  0.376700  0.464800  1.0  0.0717
  C  C156  1  0.535200  0.406900  0.299600  1.0  0.7109
  C  C157  1  0.504700  0.353400  0.339600  1.0  0.0842
  C  C158  1  0.099700  0.351600  0.724400  1.0  0.6926
  C  C159  1  0.088600  0.392600  0.738800  1.0  0.0094
  C  C160  1  0.980100  0.333800  0.656000  1.0  0.7374
  C  C161  1  0.940800  0.364100  0.665000  1.0  0.0452
  C  C162  1  0.353000  0.578600  0.405000  1.0  0.6281
  C  C163  1  0.360600  0.525200  0.417400  1.0  0.0894
  C  C164  1  0.338700  0.442300  0.462000  1.0  0.3082
  C  C165  1  0.402700  0.507000  0.398400  1.0  0.0898
  C  C166  1  0.455200  0.533800  0.355800  1.0  0.7146
  C  C167  1  0.726500  0.836000  0.909400  1.0  0.6978
  C  C168  1  0.739100  0.867700  0.855400  1.0  0.0189
  C  C169  1  0.745700  0.936300  0.788600  1.0  0.3348
  C  C170  1  0.761300  0.860400  0.813800  1.0  0.0774
  C  C171  1  0.775500  0.814700  0.810400  1.0  0.6961
  C  C172  1  0.352700  0.550300  0.128000  1.0  0.7489
  C  C173  1  0.397700  0.591400  0.104600  1.0  0.0996
  C  C174  1  0.467300  0.626800  0.096000  1.0  0.3071
  C  C175  1  0.415600  0.639800  0.065400  1.0  0.0848
  C  C176  1  0.397800  0.671300  0.028200  1.0  0.7159
  C  C177  1  0.655300  0.941900  0.001000  1.0  0.7187
  C  C178  1  0.658500  0.994700  0.964800  1.0  0.0743
  C  C179  1  0.793500  0.035200  0.799600  1.0  0.7087
  C  C180  1  0.807000  0.004700  0.839600  1.0  0.0856
  C  C181  1  0.424000  0.599700  0.224400  1.0  0.6928
  C  C182  1  0.368600  0.588600  0.238800  1.0  0.0108
  C  C183  1  0.510200  0.480100  0.156000  1.0  0.7408
  C  C184  1  0.470900  0.440800  0.165000  1.0  0.0435
  C  C185  1  0.516400  0.853000  0.905000  1.0  0.6318
  C  C186  1  0.557400  0.860600  0.917400  1.0  0.09
  C  C187  1  0.595700  0.838700  0.962000  1.0  0.3103
  C  C188  1  0.594600  0.902700  0.898400  1.0  0.0902
  C  C189  1  0.610400  0.955200  0.855800  1.0  0.7174
  C  C190  1  0.864100  0.254600  0.909400  1.0  0.6945
  C  C191  1  0.905500  0.276900  0.855400  1.0  0.0147
  C  C192  1  0.965700  0.275100  0.788600  1.0  0.335
  C  C193  1  0.924900  0.325800  0.813800  1.0  0.0775
  C  C194  1  0.914100  0.374900  0.810400  1.0  0.7004
  C  C195  1  0.019300  0.321700  0.128000  1.0  0.7671
  C  C196  1  0.997700  0.304000  0.104600  1.0  0.096
  C  C197  1  0.936700  0.277200  0.096000  1.0  0.3064
  C  C198  1  0.019000  0.294800  0.065400  1.0  0.0804
  C  C199  1  0.074000  0.300500  0.028200  1.0  0.7091
  C  C200  1  0.843700  0.057100  0.001000  1.0  0.7252
  C  C201  1  0.876700  0.040500  0.964800  1.0  0.0754
  C  C202  1  0.906900  0.165200  0.799600  1.0  0.7126
  C  C203  1  0.853400  0.155700  0.839600  1.0  0.0786
  C  C204  1  0.851600  0.175900  0.224400  1.0  0.6944
  C  C205  1  0.892600  0.172600  0.238800  1.0  0.0097
  C  C206  1  0.833800  0.363900  0.156000  1.0  0.7408
  C  C207  1  0.864100  0.394200  0.165000  1.0  0.0443
  C  C208  1  0.078600  0.242000  0.905000  1.0  0.6328
  C  C209  1  0.025200  0.222000  0.917400  1.0  0.0891
  C  C210  1  0.942300  0.199300  0.962000  1.0  0.3092
  C  C211  1  0.007000  0.198900  0.898400  1.0  0.0917
  C  C212  1  0.033800  0.189000  0.855800  1.0  0.7182
  C  C213  1  0.664000  0.773500  0.590600  1.0  0.6955
  C  C214  1  0.632300  0.760900  0.644600  1.0  0.0202
  C  C215  1  0.563700  0.754300  0.711400  1.0  0.3373
  C  C216  1  0.639600  0.738700  0.686200  1.0  0.078
  C  C217  1  0.685300  0.724500  0.689600  1.0  0.6959
  C  C218  1  0.949700  0.147300  0.372000  1.0  0.7484
  C  C219  1  0.908600  0.102300  0.395400  1.0  0.1008
  C  C220  1  0.873200  0.032700  0.404000  1.0  0.3047
  C  C221  1  0.860200  0.084400  0.434600  1.0  0.0842
  C  C222  1  0.828700  0.102200  0.471800  1.0  0.7067
  C  C223  1  0.558100  0.844700  0.499000  1.0  0.7188
  C  C224  1  0.505300  0.841500  0.535200  1.0  0.0723
  C  C225  1  0.464800  0.706500  0.700400  1.0  0.712
  C  C226  1  0.495300  0.693000  0.660400  1.0  0.0847
  C  C227  1  0.900300  0.076000  0.275600  1.0  0.6883
  C  C228  1  0.911400  0.131400  0.261200  1.0  0.0085
  C  C229  1  0.019900  0.989800  0.344000  1.0  0.7363
  C  C230  1  0.059200  0.029100  0.335000  1.0  0.043
  C  C231  1  0.647000  0.983600  0.595000  1.0  0.6325
  C  C232  1  0.639400  0.942600  0.582600  1.0  0.0894
  C  C233  1  0.661300  0.904300  0.538000  1.0  0.3098
  C  C234  1  0.597300  0.905400  0.601600  1.0  0.0902
  C  C235  1  0.544800  0.889600  0.644200  1.0  0.7163
  C  C236  1  0.245400  0.635900  0.590600  1.0  0.6927
  C  C237  1  0.223100  0.594500  0.644600  1.0  0.0159
  C  C238  1  0.224900  0.534300  0.711400  1.0  0.3373
  C  C239  1  0.174200  0.575100  0.686200  1.0  0.0774
  C  C240  1  0.125100  0.585900  0.689600  1.0  0.698
  C  C241  1  0.178300  0.480700  0.372000  1.0  0.7701
  C  C242  1  0.196000  0.502300  0.395400  1.0  0.0981
  C  C243  1  0.222800  0.563300  0.404000  1.0  0.3055
  C  C244  1  0.205200  0.481000  0.434600  1.0  0.0835
  C  C245  1  0.199500  0.426000  0.471800  1.0  0.7068
  C  C246  1  0.442900  0.656300  0.499000  1.0  0.7257
  C  C247  1  0.459500  0.623300  0.535200  1.0  0.0746
  C  C248  1  0.334800  0.593100  0.700400  1.0  0.7121
  C  C249  1  0.344300  0.646600  0.660400  1.0  0.081
  C  C250  1  0.324100  0.648400  0.275600  1.0  0.6872
  C  C251  1  0.327400  0.607400  0.261200  1.0  0.011
  C  C252  1  0.136100  0.666200  0.344000  1.0  0.7387
  C  C253  1  0.105800  0.635900  0.335000  1.0  0.0423
  C  C254  1  0.258000  0.421400  0.595000  1.0  0.632
  C  C255  1  0.278000  0.474800  0.582600  1.0  0.0893
  C  C256  1  0.300700  0.557700  0.538000  1.0  0.3072
  C  C257  1  0.301100  0.493000  0.601600  1.0  0.0895
  C  C258  1  0.311000  0.466200  0.644200  1.0  0.7199
  C  C259  1  0.135900  0.164000  0.090600  1.0  0.6941
  C  C260  1  0.094500  0.132300  0.144600  1.0  0.0158
  C  C261  1  0.034300  0.063700  0.211400  1.0  0.3361
  C  C262  1  0.075100  0.139600  0.186200  1.0  0.0779
  C  C263  1  0.085900  0.185300  0.189600  1.0  0.7006
  C  C264  1  0.980700  0.449700  0.872000  1.0  0.7469
  C  C265  1  0.002300  0.408600  0.895400  1.0  0.0995
  C  C266  1  0.063300  0.373200  0.904000  1.0  0.3079
  C  C267  1  0.981000  0.360200  0.934600  1.0  0.0842
  C  C268  1  0.926000  0.328700  0.971800  1.0  0.7078
  C  C269  1  0.156300  0.058100  0.999000  1.0  0.718
  C  C270  1  0.123300  0.005300  0.035200  1.0  0.0701
  C  C271  1  0.093100  0.964800  0.200400  1.0  0.7068
  C  C272  1  0.146600  0.995300  0.160400  1.0  0.0848
  C  C273  1  0.148400  0.400300  0.775600  1.0  0.6885
  C  C274  1  0.107400  0.411400  0.761200  1.0  0.0097
  C  C275  1  0.166200  0.519900  0.844000  1.0  0.7388
  C  C276  1  0.135900  0.559200  0.835000  1.0  0.0445
  C  C277  1  0.921400  0.147000  0.095000  1.0  0.6282
  C  C278  1  0.974800  0.139400  0.082600  1.0  0.088
  C  C279  1  0.057700  0.161300  0.038000  1.0  0.3079
  C  C280  1  0.993000  0.097300  0.101600  1.0  0.0889
  C  C281  1  0.966200  0.044800  0.144200  1.0  0.7177
  C  C282  1  0.273500  0.745400  0.090600  1.0  0.7046
  C  C283  1  0.260900  0.723100  0.144600  1.0  0.0205
  C  C284  1  0.254300  0.724900  0.211400  1.0  0.3375
  C  C285  1  0.238700  0.674200  0.186200  1.0  0.0771
  C  C286  1  0.224500  0.625100  0.189600  1.0  0.6993
  C  C287  1  0.647300  0.678300  0.872000  1.0  0.7694
  C  C288  1  0.602300  0.696000  0.895400  1.0  0.0983
  C  C289  1  0.532700  0.722800  0.904000  1.0  0.3064
  C  C290  1  0.584400  0.705200  0.934600  1.0  0.0807
  C  C291  1  0.602200  0.699500  0.971800  1.0  0.7127
  C  C292  1  0.344700  0.942900  0.999000  1.0  0.7272
  C  C293  1  0.341500  0.959500  0.035200  1.0  0.0743
  C  C294  1  0.206500  0.834800  0.200400  1.0  0.7201
  C  C295  1  0.193000  0.844300  0.160400  1.0  0.0832
  C  C296  1  0.576000  0.824100  0.775600  1.0  0.6878
  C  C297  1  0.631400  0.827400  0.761200  1.0  0.0085
  C  C298  1  0.489800  0.636100  0.844000  1.0  0.7406
  C  C299  1  0.529100  0.605800  0.835000  1.0  0.0451
  C  C300  1  0.483600  0.758000  0.095000  1.0  0.6292
  C  C301  1  0.442600  0.778000  0.082600  1.0  0.091
  C  C302  1  0.404300  0.800700  0.038000  1.0  0.3093
  C  C303  1  0.405400  0.801100  0.101600  1.0  0.0895
  C  C304  1  0.389600  0.811000  0.144200  1.0  0.7289
  C  C305  1  0.245400  0.773500  0.590600  1.0  0.7055
  C  C306  1  0.223100  0.760900  0.644600  1.0  0.0202
  C  C307  1  0.224900  0.754300  0.711400  1.0  0.3379
  C  C308  1  0.174200  0.738700  0.686200  1.0  0.076
  C  C309  1  0.125100  0.724500  0.689600  1.0  0.7006
  C  C310  1  0.178300  0.147300  0.372000  1.0  0.7695
  C  C311  1  0.196000  0.102300  0.395400  1.0  0.0998
  C  C312  1  0.222800  0.032700  0.404000  1.0  0.3031
  C  C313  1  0.205200  0.084400  0.434600  1.0  0.0853
  C  C314  1  0.199500  0.102200  0.471800  1.0  0.7114
  C  C315  1  0.442900  0.844700  0.499000  1.0  0.7276
  C  C316  1  0.459500  0.841500  0.535200  1.0  0.0736
  C  C317  1  0.334800  0.706500  0.700400  1.0  0.7218
  C  C318  1  0.344300  0.693000  0.660400  1.0  0.0848
  C  C319  1  0.324100  0.076000  0.275600  1.0  0.6933
  C  C320  1  0.327400  0.131400  0.261200  1.0  0.0096
  C  C321  1  0.136100  0.989800  0.344000  1.0  0.7395
  C  C322  1  0.105800  0.029100  0.335000  1.0  0.0423
  C  C323  1  0.258000  0.983600  0.595000  1.0  0.6267
  C  C324  1  0.278000  0.942600  0.582600  1.0  0.091
  C  C325  1  0.300700  0.904300  0.538000  1.0  0.3085
  C  C326  1  0.301100  0.905400  0.601600  1.0  0.0889
  C  C327  1  0.311000  0.889600  0.644200  1.0  0.7293
  C  C328  1  0.664000  0.635900  0.590600  1.0  0.6935
  C  C329  1  0.632300  0.594500  0.644600  1.0  0.0162
  C  C330  1  0.563700  0.534300  0.711400  1.0  0.3363
  C  C331  1  0.639600  0.575100  0.686200  1.0  0.0774
  C  C332  1  0.685300  0.585900  0.689600  1.0  0.6976
  C  C333  1  0.949700  0.480700  0.372000  1.0  0.7452
  C  C334  1  0.908600  0.502300  0.395400  1.0  0.0993
  C  C335  1  0.873200  0.563300  0.404000  1.0  0.3065
  C  C336  1  0.860200  0.481000  0.434600  1.0  0.0847
  C  C337  1  0.828700  0.426000  0.471800  1.0  0.7086
  C  C338  1  0.558100  0.656300  0.499000  1.0  0.7215
  C  C339  1  0.505300  0.623300  0.535200  1.0  0.0716
  C  C340  1  0.464800  0.593100  0.700400  1.0  0.7103
  C  C341  1  0.495300  0.646600  0.660400  1.0  0.0846
  C  C342  1  0.900300  0.648400  0.275600  1.0  0.6957
  C  C343  1  0.911400  0.607400  0.261200  1.0  0.0082
  C  C344  1  0.019900  0.666200  0.344000  1.0  0.733
  C  C345  1  0.059200  0.635900  0.335000  1.0  0.0436
  C  C346  1  0.647000  0.421400  0.595000  1.0  0.6294
  C  C347  1  0.639400  0.474800  0.582600  1.0  0.0882
  C  C348  1  0.661300  0.557700  0.538000  1.0  0.3066
  C  C349  1  0.597300  0.493000  0.601600  1.0  0.0894
  C  C350  1  0.544800  0.466200  0.644200  1.0  0.7167
  C  C351  1  0.273500  0.164000  0.090600  1.0  0.6969
  C  C352  1  0.260900  0.132300  0.144600  1.0  0.02
  C  C353  1  0.254300  0.063700  0.211400  1.0  0.335
  C  C354  1  0.238700  0.139600  0.186200  1.0  0.0776
  C  C355  1  0.224500  0.185300  0.189600  1.0  0.6975
  C  C356  1  0.647300  0.449700  0.872000  1.0  0.7486
  C  C357  1  0.602300  0.408600  0.895400  1.0  0.1008
  C  C358  1  0.532700  0.373200  0.904000  1.0  0.3079
  C  C359  1  0.584400  0.360200  0.934600  1.0  0.0842
  C  C360  1  0.602200  0.328700  0.971800  1.0  0.7145
  C  C361  1  0.344700  0.058100  0.999000  1.0  0.7202
  C  C362  1  0.341500  0.005300  0.035200  1.0  0.0723
  C  C363  1  0.206500  0.964800  0.200400  1.0  0.7093
  C  C364  1  0.193000  0.995300  0.160400  1.0  0.0852
  C  C365  1  0.576000  0.400300  0.775600  1.0  0.6916
  C  C366  1  0.631400  0.411400  0.761200  1.0  0.0076
  C  C367  1  0.489800  0.519900  0.844000  1.0  0.7396
  C  C368  1  0.529100  0.559200  0.835000  1.0  0.0447
  C  C369  1  0.483600  0.147000  0.095000  1.0  0.6315
  C  C370  1  0.442600  0.139400  0.082600  1.0  0.0893
  C  C371  1  0.404300  0.161300  0.038000  1.0  0.3095
  C  C372  1  0.405400  0.097300  0.101600  1.0  0.0896
  C  C373  1  0.389600  0.044800  0.144200  1.0  0.7177
  C  C374  1  0.135900  0.745400  0.090600  1.0  0.6936
  C  C375  1  0.094500  0.723100  0.144600  1.0  0.0166
  C  C376  1  0.034300  0.724900  0.211400  1.0  0.3367
  C  C377  1  0.075100  0.674200  0.186200  1.0  0.0772
  C  C378  1  0.085900  0.625100  0.189600  1.0  0.6986
  C  C379  1  0.980700  0.678300  0.872000  1.0  0.7707
  C  C380  1  0.002300  0.696000  0.895400  1.0  0.0982
  C  C381  1  0.063300  0.722800  0.904000  1.0  0.3066
  C  C382  1  0.981000  0.705200  0.934600  1.0  0.0786
  C  C383  1  0.926000  0.699500  0.971800  1.0  0.704
  C  C384  1  0.156300  0.942900  0.999000  1.0  0.7267
  C  C385  1  0.123300  0.959500  0.035200  1.0  0.0749
  C  C386  1  0.093100  0.834800  0.200400  1.0  0.7125
  C  C387  1  0.146600  0.844300  0.160400  1.0  0.0794
  C  C388  1  0.148400  0.824100  0.775600  1.0  0.6929
  C  C389  1  0.107400  0.827400  0.761200  1.0  0.0113
  C  C390  1  0.166200  0.636100  0.844000  1.0  0.7399
  C  C391  1  0.135900  0.605800  0.835000  1.0  0.0435
  C  C392  1  0.921400  0.758000  0.095000  1.0  0.6306
  C  C393  1  0.974800  0.778000  0.082600  1.0  0.0902
  C  C394  1  0.057700  0.800700  0.038000  1.0  0.3088
  C  C395  1  0.993000  0.801100  0.101600  1.0  0.09
  C  C396  1  0.966200  0.811000  0.144200  1.0  0.7195
  C  C397  1  0.336000  0.226500  0.409400  1.0  0.6972
  C  C398  1  0.367700  0.239100  0.355400  1.0  0.0176
  C  C399  1  0.436300  0.245700  0.288600  1.0  0.3362
  C  C400  1  0.360400  0.261300  0.313800  1.0  0.0775
  C  C401  1  0.314700  0.275500  0.310400  1.0  0.6977
  C  C402  1  0.050300  0.852700  0.628000  1.0  0.7487
  C  C403  1  0.091400  0.897700  0.604600  1.0  0.0996
  C  C404  1  0.126800  0.967300  0.596000  1.0  0.3048
  C  C405  1  0.139800  0.915600  0.565400  1.0  0.0847
  C  C406  1  0.171300  0.897800  0.528200  1.0  0.7077
  C  C407  1  0.441900  0.155300  0.501000  1.0  0.7195
  C  C408  1  0.494700  0.158500  0.464800  1.0  0.0732
  C  C409  1  0.535200  0.293500  0.299600  1.0  0.7121
  C  C410  1  0.504700  0.307000  0.339600  1.0  0.0843
  C  C411  1  0.099700  0.924000  0.724400  1.0  0.69
  C  C412  1  0.088600  0.868600  0.738800  1.0  0.0107
  C  C413  1  0.980100  0.010200  0.656000  1.0  0.7365
  C  C414  1  0.940800  0.970900  0.665000  1.0  0.0433
  C  C415  1  0.353000  0.016400  0.405000  1.0  0.6334
  C  C416  1  0.360600  0.057400  0.417400  1.0  0.0902
  C  C417  1  0.338700  0.095700  0.462000  1.0  0.3101
  C  C418  1  0.402700  0.094600  0.398400  1.0  0.0913
  C  C419  1  0.455200  0.110400  0.355800  1.0  0.7191
  C  C420  1  0.754600  0.364100  0.409400  1.0  0.6944
  C  C421  1  0.776900  0.405500  0.355400  1.0  0.0161
  C  C422  1  0.775100  0.465700  0.288600  1.0  0.3364
  C  C423  1  0.825800  0.424900  0.313800  1.0  0.0778
  C  C424  1  0.874900  0.414100  0.310400  1.0  0.6976
  C  C425  1  0.821700  0.519300  0.628000  1.0  0.7679
  C  C426  1  0.804000  0.497700  0.604600  1.0  0.0966
  C  C427  1  0.777200  0.436700  0.596000  1.0  0.3055
  C  C428  1  0.794800  0.519000  0.565400  1.0  0.0836
  C  C429  1  0.800500  0.574000  0.528200  1.0  0.7081
  C  C430  1  0.557100  0.343700  0.501000  1.0  0.7275
  C  C431  1  0.540500  0.376700  0.464800  1.0  0.0754
  C  C432  1  0.665200  0.406900  0.299600  1.0  0.7122
  C  C433  1  0.655700  0.353400  0.339600  1.0  0.0801
  C  C434  1  0.675900  0.351600  0.724400  1.0  0.6872
  C  C435  1  0.672600  0.392600  0.738800  1.0  0.0096
  C  C436  1  0.863900  0.333800  0.656000  1.0  0.7421
  C  C437  1  0.894200  0.364100  0.665000  1.0  0.0433
  C  C438  1  0.742000  0.578600  0.405000  1.0  0.632
  C  C439  1  0.722000  0.525200  0.417400  1.0  0.0894
  C  C440  1  0.699300  0.442300  0.462000  1.0  0.3077
  C  C441  1  0.698900  0.507000  0.398400  1.0  0.0902
  C  C442  1  0.689000  0.533800  0.355800  1.0  0.7161
  C  C443  1  0.864100  0.836000  0.909400  1.0  0.6944
  C  C444  1  0.905500  0.867700  0.855400  1.0  0.0143
  C  C445  1  0.965700  0.936300  0.788600  1.0  0.3348
  C  C446  1  0.924900  0.860400  0.813800  1.0  0.0774
  C  C447  1  0.914100  0.814700  0.810400  1.0  0.6986
  C  C448  1  0.019300  0.550300  0.128000  1.0  0.7486
  C  C449  1  0.997700  0.591400  0.104600  1.0  0.0985
  C  C450  1  0.936700  0.626800  0.096000  1.0  0.3075
  C  C451  1  0.019000  0.639800  0.065400  1.0  0.0834
  C  C452  1  0.074000  0.671300  0.028200  1.0  0.7129
  C  C453  1  0.843700  0.941900  0.001000  1.0  0.721
  C  C454  1  0.876700  0.994700  0.964800  1.0  0.0728
  C  C455  1  0.906900  0.035200  0.799600  1.0  0.7095
  C  C456  1  0.853400  0.004700  0.839600  1.0  0.0847
  C  C457  1  0.851600  0.599700  0.224400  1.0  0.6898
  C  C458  1  0.892600  0.588600  0.238800  1.0  0.0079
  C  C459  1  0.833800  0.480100  0.156000  1.0  0.7376
  C  C460  1  0.864100  0.440800  0.165000  1.0  0.0445
  C  C461  1  0.078600  0.853000  0.905000  1.0  0.6303
  C  C462  1  0.025200  0.860600  0.917400  1.0  0.0875
  C  C463  1  0.942300  0.838700  0.962000  1.0  0.3105
  C  C464  1  0.007000  0.902700  0.898400  1.0  0.0893
  C  C465  1  0.033800  0.955200  0.855800  1.0  0.715
  C  C466  1  0.726500  0.254600  0.909400  1.0  0.7059
  C  C467  1  0.739100  0.276900  0.855400  1.0  0.0199
  C  C468  1  0.745700  0.275100  0.788600  1.0  0.3368
  C  C469  1  0.761300  0.325800  0.813800  1.0  0.0778
  C  C470  1  0.775500  0.374900  0.810400  1.0  0.7007
  C  C471  1  0.352700  0.321700  0.128000  1.0  0.7677
  C  C472  1  0.397700  0.304000  0.104600  1.0  0.097
  C  C473  1  0.467300  0.277200  0.096000  1.0  0.3058
  C  C474  1  0.415600  0.294800  0.065400  1.0  0.0825
  C  C475  1  0.397800  0.300500  0.028200  1.0  0.7124
  C  C476  1  0.655300  0.057100  0.001000  1.0  0.7284
  C  C477  1  0.658500  0.040500  0.964800  1.0  0.0757
  C  C478  1  0.793500  0.165200  0.799600  1.0  0.7205
  C  C479  1  0.807000  0.155700  0.839600  1.0  0.0823
  C  C480  1  0.424000  0.175900  0.224400  1.0  0.688
  C  C481  1  0.368600  0.172600  0.238800  1.0  0.0103
  C  C482  1  0.510200  0.363900  0.156000  1.0  0.7419
  C  C483  1  0.470900  0.394200  0.165000  1.0  0.0445
  C  C484  1  0.516400  0.242000  0.905000  1.0  0.6295
  C  C485  1  0.557400  0.222000  0.917400  1.0  0.0909
  C  C486  1  0.595700  0.199300  0.962000  1.0  0.3105
  C  C487  1  0.594600  0.198900  0.898400  1.0  0.0898
  C  C488  1  0.610400  0.189000  0.855800  1.0  0.7258
  C  C489  1  0.554900  0.171700  0.390200  1.0  0.2643
  C  C490  1  0.554900  0.438100  0.390200  1.0  0.2616
  C  C491  1  0.671700  0.054900  0.890200  1.0  0.2668
  C  C492  1  0.938100  0.054900  0.890200  1.0  0.2652
  C  C493  1  0.445100  0.828300  0.609800  1.0  0.264
  C  C494  1  0.445100  0.561900  0.609800  1.0  0.2623
  C  C495  1  0.061900  0.945100  0.109800  1.0  0.264
  C  C496  1  0.328300  0.945100  0.109800  1.0  0.2654
  C  C497  1  0.644300  0.293700  0.412600  1.0  0.3319
  C  C498  1  0.443100  0.293700  0.412600  1.0  0.343
  C  C499  1  0.793700  0.943100  0.912600  1.0  0.3422
  C  C500  1  0.793700  0.144300  0.912600  1.0  0.3345
  C  C501  1  0.556900  0.706300  0.587400  1.0  0.3416
  C  C502  1  0.355700  0.706300  0.587400  1.0  0.3307
  C  C503  1  0.206300  0.056900  0.087400  1.0  0.3416
  C  C504  1  0.206300  0.855700  0.087400  1.0  0.3335
  C  C505  1  0.700900  0.799100  0.750000  1.0  0.3104
  C  C506  1  0.049100  0.450900  0.750000  1.0  0.3106
  C  C507  1  0.299100  0.549100  0.250000  1.0  0.3113
  C  C508  1  0.950900  0.200900  0.250000  1.0  0.3114
  C  C509  1  0.299100  0.200900  0.250000  1.0  0.3106
  C  C510  1  0.950900  0.549100  0.250000  1.0  0.3104
  C  C511  1  0.700900  0.450900  0.750000  1.0  0.3114
  C  C512  1  0.049100  0.799100  0.750000  1.0  0.3113
  C  C513  1  0.905900  0.892400  0.688200  1.0  0.3041
  C  C514  1  0.905900  0.419400  0.688200  1.0  0.3036
  C  C515  1  0.392400  0.405900  0.188200  1.0  0.3074
  C  C516  1  0.919400  0.405900  0.188200  1.0  0.3085
  C  C517  1  0.094100  0.107600  0.311800  1.0  0.3052
  C  C518  1  0.094100  0.580600  0.311800  1.0  0.3047
  C  C519  1  0.080600  0.594100  0.811800  1.0  0.3083
  C  C520  1  0.607600  0.594100  0.811800  1.0  0.3087
  N  N521  1  0.743400  0.230200  0.338400  1.0  -0.4497
  N  N522  1  0.824010  0.264310  0.272180  1.0  -0.3552
  N  N523  1  0.794400  0.931300  0.624000  1.0  -0.4501
  N  N524  1  0.777470  0.961070  0.558860  1.0  -0.4427
  N  N525  1  0.578570  0.165370  0.418460  1.0  -0.4136
  N  N526  1  0.646740  0.268640  0.386920  1.0  -0.4411
  N  N527  1  0.717110  0.849510  0.732980  1.0  -0.451
  N  N528  1  0.872140  0.920540  0.679520  1.0  -0.4226
  N  N529  1  0.722310  0.058310  0.457780  1.0  -0.3783
  N  N530  1  0.685100  0.119100  0.426400  1.0  -0.3984
  N  N531  1  0.418200  0.431400  0.338400  1.0  -0.4449
  N  N532  1  0.403810  0.463510  0.272180  1.0  -0.3538
  N  N533  1  0.081600  0.444700  0.624000  1.0  -0.4515
  N  N534  1  0.163670  0.480070  0.558860  1.0  -0.4433
  N  N535  1  0.502970  0.416170  0.418460  1.0  -0.4207
  N  N536  1  0.466340  0.344440  0.386920  1.0  -0.4295
  N  N537  1  0.049910  0.417510  0.732980  1.0  -0.451
  N  N538  1  0.948340  0.399940  0.679520  1.0  -0.4236
  N  N539  1  0.319910  0.483910  0.457780  1.0  -0.3793
  N  N540  1  0.388500  0.454500  0.426400  1.0  -0.396
  N  N541  1  0.730200  0.918200  0.838400  1.0  -0.4478
  N  N542  1  0.764310  0.903810  0.772180  1.0  -0.3528
  N  N543  1  0.431300  0.581600  0.124000  1.0  -0.4514
  N  N544  1  0.461070  0.663670  0.058860  1.0  -0.4423
  N  N545  1  0.665370  0.002970  0.918460  1.0  -0.4163
  N  N546  1  0.768640  0.966340  0.886920  1.0  -0.4329
  N  N547  1  0.349510  0.549910  0.232980  1.0  -0.4505
  N  N548  1  0.420540  0.448340  0.179520  1.0  -0.4212
  N  N549  1  0.558310  0.819910  0.957780  1.0  -0.378
  N  N550  1  0.619100  0.888500  0.926400  1.0  -0.3959
  N  N551  1  0.931400  0.243400  0.838400  1.0  -0.4488
  N  N552  1  0.963510  0.324010  0.772180  1.0  -0.355
  N  N553  1  0.944700  0.294400  0.124000  1.0  -0.4512
  N  N554  1  0.980070  0.277470  0.058860  1.0  -0.4419
  N  N555  1  0.916170  0.078570  0.918460  1.0  -0.4115
  N  N556  1  0.844440  0.146740  0.886920  1.0  -0.4329
  N  N557  1  0.917510  0.217110  0.232980  1.0  -0.4502
  N  N558  1  0.899940  0.372140  0.179520  1.0  -0.4219
  N  N559  1  0.983910  0.222310  0.957780  1.0  -0.3758
  N  N560  1  0.954500  0.185100  0.926400  1.0  -0.3967
  N  N561  1  0.581800  0.769800  0.661600  1.0  -0.4473
  N  N562  1  0.596190  0.735690  0.727820  1.0  -0.3529
  N  N563  1  0.918400  0.068700  0.376000  1.0  -0.4533
  N  N564  1  0.836330  0.038930  0.441140  1.0  -0.4411
  N  N565  1  0.497030  0.834630  0.581540  1.0  -0.4207
  N  N566  1  0.533660  0.731360  0.613080  1.0  -0.433
  N  N567  1  0.950090  0.150490  0.267020  1.0  -0.4521
  N  N568  1  0.051660  0.079460  0.320480  1.0  -0.4204
  N  N569  1  0.680090  0.941690  0.542220  1.0  -0.378
  N  N570  1  0.611500  0.880900  0.573600  1.0  -0.396
  N  N571  1  0.256600  0.568600  0.661600  1.0  -0.4497
  N  N572  1  0.175990  0.536490  0.727820  1.0  -0.3563
  N  N573  1  0.205600  0.555300  0.376000  1.0  -0.4511
  N  N574  1  0.222530  0.519930  0.441140  1.0  -0.4416
  N  N575  1  0.421430  0.583830  0.581540  1.0  -0.4123
  N  N576  1  0.353260  0.655560  0.613080  1.0  -0.4333
  N  N577  1  0.282890  0.582490  0.267020  1.0  -0.4514
  N  N578  1  0.127860  0.600060  0.320480  1.0  -0.4202
  N  N579  1  0.277690  0.516090  0.542220  1.0  -0.3755
  N  N580  1  0.314900  0.545500  0.573600  1.0  -0.3948
  N  N581  1  0.068600  0.081800  0.161600  1.0  -0.4463
  N  N582  1  0.036490  0.096190  0.227820  1.0  -0.3538
  N  N583  1  0.055300  0.418400  0.876000  1.0  -0.4504
  N  N584  1  0.019930  0.336330  0.941140  1.0  -0.4414
  N  N585  1  0.083830  0.997030  0.081540  1.0  -0.4171
  N  N586  1  0.155560  0.033660  0.113080  1.0  -0.4312
  N  N587  1  0.082490  0.450090  0.767020  1.0  -0.4503
  N  N588  1  0.100060  0.551660  0.820480  1.0  -0.4213
  N  N589  1  0.016090  0.180090  0.042220  1.0  -0.3784
  N  N590  1  0.045500  0.111500  0.073600  1.0  -0.3958
  N  N591  1  0.269800  0.756600  0.161600  1.0  -0.4491
  N  N592  1  0.235690  0.675990  0.227820  1.0  -0.3542
  N  N593  1  0.568700  0.705600  0.876000  1.0  -0.451
  N  N594  1  0.538930  0.722530  0.941140  1.0  -0.4428
  N  N595  1  0.334630  0.921430  0.081540  1.0  -0.4113
  N  N596  1  0.231360  0.853260  0.113080  1.0  -0.4403
  N  N597  1  0.650490  0.782890  0.767020  1.0  -0.4507
  N  N598  1  0.579460  0.627860  0.820480  1.0  -0.42
  N  N599  1  0.441690  0.777690  0.042220  1.0  -0.3768
  N  N600  1  0.380900  0.814900  0.073600  1.0  -0.3983
  N  N601  1  0.256600  0.769800  0.661600  1.0  -0.4491
  N  N602  1  0.175990  0.735690  0.727820  1.0  -0.3567
  N  N603  1  0.205600  0.068700  0.376000  1.0  -0.4504
  N  N604  1  0.222530  0.038930  0.441140  1.0  -0.4414
  N  N605  1  0.421430  0.834630  0.581540  1.0  -0.4162
  N  N606  1  0.353260  0.731360  0.613080  1.0  -0.4423
  N  N607  1  0.282890  0.150490  0.267020  1.0  -0.451
  N  N608  1  0.127860  0.079460  0.320480  1.0  -0.4216
  N  N609  1  0.277690  0.941690  0.542220  1.0  -0.3771
  N  N610  1  0.314900  0.880900  0.573600  1.0  -0.3963
  N  N611  1  0.581800  0.568600  0.661600  1.0  -0.4469
  N  N612  1  0.596190  0.536490  0.727820  1.0  -0.3528
  N  N613  1  0.918400  0.555300  0.376000  1.0  -0.451
  N  N614  1  0.836330  0.519930  0.441140  1.0  -0.4426
  N  N615  1  0.497030  0.583830  0.581540  1.0  -0.4186
  N  N616  1  0.533660  0.655560  0.613080  1.0  -0.4304
  N  N617  1  0.950090  0.582490  0.267020  1.0  -0.4495
  N  N618  1  0.051660  0.600060  0.320480  1.0  -0.4235
  N  N619  1  0.680090  0.516090  0.542220  1.0  -0.3787
  N  N620  1  0.611500  0.545500  0.573600  1.0  -0.3982
  N  N621  1  0.269800  0.081800  0.161600  1.0  -0.4469
  N  N622  1  0.235690  0.096190  0.227820  1.0  -0.3525
  N  N623  1  0.568700  0.418400  0.876000  1.0  -0.4525
  N  N624  1  0.538930  0.336330  0.941140  1.0  -0.4422
  N  N625  1  0.334630  0.997030  0.081540  1.0  -0.4172
  N  N626  1  0.231360  0.033660  0.113080  1.0  -0.4318
  N  N627  1  0.650490  0.450090  0.767020  1.0  -0.4499
  N  N628  1  0.579460  0.551660  0.820480  1.0  -0.4189
  N  N629  1  0.441690  0.180090  0.042220  1.0  -0.3785
  N  N630  1  0.380900  0.111500  0.073600  1.0  -0.3974
  N  N631  1  0.068600  0.756600  0.161600  1.0  -0.4489
  N  N632  1  0.036490  0.675990  0.227820  1.0  -0.3542
  N  N633  1  0.055300  0.705600  0.876000  1.0  -0.452
  N  N634  1  0.019930  0.722530  0.941140  1.0  -0.442
  N  N635  1  0.083830  0.921430  0.081540  1.0  -0.4106
  N  N636  1  0.155560  0.853260  0.113080  1.0  -0.4337
  N  N637  1  0.082490  0.782890  0.767020  1.0  -0.4497
  N  N638  1  0.100060  0.627860  0.820480  1.0  -0.4201
  N  N639  1  0.016090  0.777690  0.042220  1.0  -0.3749
  N  N640  1  0.045500  0.814900  0.073600  1.0  -0.3969
  N  N641  1  0.418200  0.230200  0.338400  1.0  -0.4466
  N  N642  1  0.403810  0.264310  0.272180  1.0  -0.3536
  N  N643  1  0.081600  0.931300  0.624000  1.0  -0.4516
  N  N644  1  0.163670  0.961070  0.558860  1.0  -0.4428
  N  N645  1  0.502970  0.165370  0.418460  1.0  -0.4208
  N  N646  1  0.466340  0.268640  0.386920  1.0  -0.433
  N  N647  1  0.049910  0.849510  0.732980  1.0  -0.4507
  N  N648  1  0.948340  0.920540  0.679520  1.0  -0.4234
  N  N649  1  0.319910  0.058310  0.457780  1.0  -0.3783
  N  N650  1  0.388500  0.119100  0.426400  1.0  -0.3952
  N  N651  1  0.743400  0.431400  0.338400  1.0  -0.4494
  N  N652  1  0.824010  0.463510  0.272180  1.0  -0.3546
  N  N653  1  0.794400  0.444700  0.624000  1.0  -0.4499
  N  N654  1  0.777470  0.480070  0.558860  1.0  -0.4422
  N  N655  1  0.578570  0.416170  0.418460  1.0  -0.4138
  N  N656  1  0.646740  0.344440  0.386920  1.0  -0.4333
  N  N657  1  0.717110  0.417510  0.732980  1.0  -0.4528
  N  N658  1  0.872140  0.399940  0.679520  1.0  -0.4211
  N  N659  1  0.722310  0.483910  0.457780  1.0  -0.3761
  N  N660  1  0.685100  0.454500  0.426400  1.0  -0.394
  N  N661  1  0.931400  0.918200  0.838400  1.0  -0.446
  N  N662  1  0.963510  0.903810  0.772180  1.0  -0.3541
  N  N663  1  0.944700  0.581600  0.124000  1.0  -0.4488
  N  N664  1  0.980070  0.663670  0.058860  1.0  -0.4415
  N  N665  1  0.916170  0.002970  0.918460  1.0  -0.415
  N  N666  1  0.844440  0.966340  0.886920  1.0  -0.4311
  N  N667  1  0.917510  0.549910  0.232980  1.0  -0.4519
  N  N668  1  0.899940  0.448340  0.179520  1.0  -0.4239
  N  N669  1  0.983910  0.819910  0.957780  1.0  -0.3774
  N  N670  1  0.954500  0.888500  0.926400  1.0  -0.3968
  N  N671  1  0.730200  0.243400  0.838400  1.0  -0.4484
  N  N672  1  0.764310  0.324010  0.772180  1.0  -0.3546
  N  N673  1  0.431300  0.294400  0.124000  1.0  -0.4518
  N  N674  1  0.461070  0.277470  0.058860  1.0  -0.4429
  N  N675  1  0.665370  0.078570  0.918460  1.0  -0.413
  N  N676  1  0.768640  0.146740  0.886920  1.0  -0.4406
  N  N677  1  0.349510  0.217110  0.232980  1.0  -0.4502
  N  N678  1  0.420540  0.372140  0.179520  1.0  -0.4227
  N  N679  1  0.558310  0.222310  0.957780  1.0  -0.3772
  N  N680  1  0.619100  0.185100  0.926400  1.0  -0.3964
  O  O681  1  0.705320  0.208820  0.439560  1.0  -0.5458
  O  O682  1  0.785500  0.234500  0.424800  1.0  -0.3859
  O  O683  1  0.915030  0.294930  0.266140  1.0  -0.5575
  O  O684  1  0.874730  0.270630  0.350740  1.0  -0.437
  O  O685  1  0.824400  0.843600  0.667200  1.0  -0.5931
  O  O686  1  0.831800  0.822600  0.608400  1.0  -0.3818
  O  O687  1  0.787640  0.923640  0.495320  1.0  -0.548
  O  O688  1  0.817200  0.856400  0.534000  1.0  -0.3904
  O  O689  1  0.604350  0.163350  0.487100  1.0  -0.5695
  O  O690  1  0.521000  0.146800  0.546000  1.0  -0.3884
  O  O691  1  0.662510  0.248410  0.309780  1.0  -0.5157
  O  O692  1  0.675030  0.330930  0.255140  1.0  -0.3871
  O  O693  1  0.719670  0.951570  0.705860  1.0  -0.5462
  O  O694  1  0.633500  0.938100  0.732200  1.0  -0.4609
  O  O695  1  0.821140  0.997740  0.661720  1.0  -0.5273
  O  O696  1  0.887420  0.056220  0.640560  1.0  -0.3737
  O  O697  1  0.760050  0.986850  0.429900  1.0  -0.546
  O  O698  1  0.739900  0.016500  0.366400  1.0  -0.3742
  O  O699  1  0.671120  0.149820  0.343360  1.0  -0.5927
  O  O700  1  0.701200  0.086900  0.329800  1.0  -0.368
  O  O701  1  0.355120  0.351620  0.439560  1.0  -0.5689
  O  O702  1  0.289700  0.340700  0.424800  1.0  -0.3893
  O  O703  1  0.318830  0.438930  0.266140  1.0  -0.5649
  O  O704  1  0.274530  0.378630  0.350740  1.0  -0.4125
  O  O705  1  0.008400  0.489200  0.667200  1.0  -0.5932
  O  O706  1  0.059800  0.569000  0.608400  1.0  -0.3792
  O  O707  1  0.217040  0.581040  0.495320  1.0  -0.5492
  O  O708  1  0.148800  0.609600  0.534000  1.0  -0.3956
  O  O709  1  0.408550  0.349550  0.487100  1.0  -0.5667
  O  O710  1  0.433000  0.307200  0.546000  1.0  -0.3789
  O  O711  1  0.527710  0.441810  0.309780  1.0  -0.5362
  O  O712  1  0.569830  0.413930  0.255140  1.0  -0.3719
  O  O713  1  0.074470  0.342570  0.705860  1.0  -0.5468
  O  O714  1  0.134300  0.329700  0.732200  1.0  -0.4601
  O  O715  1  0.017140  0.340540  0.661720  1.0  -0.527
  O  O716  1  0.972020  0.303220  0.640560  1.0  -0.3921
  O  O717  1  0.310050  0.583250  0.429900  1.0  -0.5455
  O  O718  1  0.393700  0.617100  0.366400  1.0  -0.3771
  O  O719  1  0.485520  0.506820  0.343360  1.0  -0.5942
  O  O720  1  0.469000  0.583300  0.329800  1.0  -0.3707
  O  O721  1  0.708820  0.855120  0.939560  1.0  -0.5472
  O  O722  1  0.734500  0.789700  0.924800  1.0  -0.3896
  O  O723  1  0.794930  0.818830  0.766140  1.0  -0.5539
  O  O724  1  0.770630  0.774530  0.850740  1.0  -0.4355
  O  O725  1  0.343600  0.508400  0.167200  1.0  -0.5916
  O  O726  1  0.322600  0.559800  0.108400  1.0  -0.3783
  O  O727  1  0.423640  0.717040  0.995320  1.0  -0.5492
  O  O728  1  0.356400  0.648800  0.034000  1.0  -0.394
  O  O729  1  0.663350  0.908550  0.987100  1.0  -0.5657
  O  O730  1  0.646800  0.933000  0.046000  1.0  -0.3827
  O  O731  1  0.748410  0.027710  0.809780  1.0  -0.5339
  O  O732  1  0.830930  0.069830  0.755140  1.0  -0.3676
  O  O733  1  0.451570  0.574470  0.205860  1.0  -0.5442
  O  O734  1  0.438100  0.634300  0.232200  1.0  -0.4612
  O  O735  1  0.497740  0.517140  0.161720  1.0  -0.5228
  O  O736  1  0.556220  0.472020  0.140560  1.0  -0.3836
  O  O737  1  0.486850  0.810050  0.929900  1.0  -0.5508
  O  O738  1  0.516500  0.893700  0.866400  1.0  -0.3784
  O  O739  1  0.649820  0.985520  0.843360  1.0  -0.5957
  O  O740  1  0.586900  0.969000  0.829800  1.0  -0.3753
  O  O741  1  0.851620  0.205320  0.939560  1.0  -0.5673
  O  O742  1  0.840700  0.285500  0.924800  1.0  -0.3918
  O  O743  1  0.938930  0.415030  0.766140  1.0  -0.5699
  O  O744  1  0.878630  0.374730  0.850740  1.0  -0.417
  O  O745  1  0.989200  0.324400  0.167200  1.0  -0.5935
  O  O746  1  0.069000  0.331800  0.108400  1.0  -0.3827
  O  O747  1  0.081040  0.287640  0.995320  1.0  -0.5475
  O  O748  1  0.109600  0.317200  0.034000  1.0  -0.395
  O  O749  1  0.849550  0.104350  0.987100  1.0  -0.5686
  O  O750  1  0.807200  0.021000  0.046000  1.0  -0.378
  O  O751  1  0.941810  0.162510  0.809780  1.0  -0.5167
  O  O752  1  0.913930  0.175030  0.755140  1.0  -0.3705
  O  O753  1  0.842570  0.219670  0.205860  1.0  -0.5476
  O  O754  1  0.829700  0.133500  0.232200  1.0  -0.46
  O  O755  1  0.840540  0.321140  0.161720  1.0  -0.5283
  O  O756  1  0.803220  0.387420  0.140560  1.0  -0.391
  O  O757  1  0.083250  0.260050  0.929900  1.0  -0.5465
  O  O758  1  0.117100  0.239900  0.866400  1.0  -0.3739
  O  O759  1  0.006820  0.171120  0.843360  1.0  -0.592
  O  O760  1  0.083300  0.201200  0.829800  1.0  -0.3693
  O  O761  1  0.644880  0.791180  0.560440  1.0  -0.5507
  O  O762  1  0.710300  0.765500  0.575200  1.0  -0.3829
  O  O763  1  0.681170  0.705070  0.733860  1.0  -0.5529
  O  O764  1  0.725470  0.729370  0.649260  1.0  -0.4348
  O  O765  1  0.991600  0.156400  0.332800  1.0  -0.5941
  O  O766  1  0.940200  0.177400  0.391600  1.0  -0.3802
  O  O767  1  0.782960  0.076360  0.504680  1.0  -0.5428
  O  O768  1  0.851200  0.143600  0.466000  1.0  -0.3898
  O  O769  1  0.591450  0.836650  0.512900  1.0  -0.5693
  O  O770  1  0.567000  0.853200  0.454000  1.0  -0.379
  O  O771  1  0.472290  0.751590  0.690220  1.0  -0.5374
  O  O772  1  0.430170  0.669070  0.744860  1.0  -0.3677
  O  O773  1  0.925530  0.048430  0.294140  1.0  -0.5441
  O  O774  1  0.865700  0.061900  0.267800  1.0  -0.4623
  O  O775  1  0.982860  0.002260  0.338280  1.0  -0.5254
  O  O776  1  0.027980  0.943780  0.359440  1.0  -0.3818
  O  O777  1  0.689950  0.013150  0.570100  1.0  -0.5493
  O  O778  1  0.606300  0.983500  0.633600  1.0  -0.3758
  O  O779  1  0.514480  0.850180  0.656640  1.0  -0.5916
  O  O780  1  0.531000  0.913100  0.670200  1.0  -0.3712
  O  O781  1  0.294680  0.648380  0.560440  1.0  -0.5671
  O  O782  1  0.214500  0.659300  0.575200  1.0  -0.3939
  O  O783  1  0.084970  0.561070  0.733860  1.0  -0.5646
  O  O784  1  0.125270  0.621370  0.649260  1.0  -0.4182
  O  O785  1  0.175600  0.510800  0.332800  1.0  -0.5901
  O  O786  1  0.168200  0.431000  0.391600  1.0  -0.3823
  O  O787  1  0.212360  0.418960  0.504680  1.0  -0.5477
  O  O788  1  0.182800  0.390400  0.466000  1.0  -0.3956
  O  O789  1  0.395650  0.650450  0.512900  1.0  -0.5697
  O  O790  1  0.479000  0.692800  0.454000  1.0  -0.3768
  O  O791  1  0.337490  0.558190  0.690220  1.0  -0.5152
  O  O792  1  0.324970  0.586070  0.744860  1.0  -0.3736
  O  O793  1  0.280330  0.657430  0.294140  1.0  -0.5417
  O  O794  1  0.366500  0.670300  0.267800  1.0  -0.4565
  O  O795  1  0.178860  0.659460  0.338280  1.0  -0.5292
  O  O796  1  0.112580  0.696780  0.359440  1.0  -0.3934
  O  O797  1  0.239950  0.416750  0.570100  1.0  -0.5464
  O  O798  1  0.260100  0.382900  0.633600  1.0  -0.3771
  O  O799  1  0.328880  0.493180  0.656640  1.0  -0.5925
  O  O800  1  0.298800  0.416700  0.670200  1.0  -0.3702
  O  O801  1  0.148380  0.144880  0.060440  1.0  -0.5663
  O  O802  1  0.159300  0.210300  0.075200  1.0  -0.391
  O  O803  1  0.061070  0.181170  0.233860  1.0  -0.5685
  O  O804  1  0.121370  0.225470  0.149260  1.0  -0.414
  O  O805  1  0.010800  0.491600  0.832800  1.0  -0.5932
  O  O806  1  0.931000  0.440200  0.891600  1.0  -0.3772
  O  O807  1  0.918960  0.282960  0.004680  1.0  -0.5508
  O  O808  1  0.890400  0.351200  0.966000  1.0  -0.3906
  O  O809  1  0.150450  0.091450  0.012900  1.0  -0.5665
  O  O810  1  0.192800  0.067000  0.954000  1.0  -0.3799
  O  O811  1  0.058190  0.972290  0.190220  1.0  -0.5343
  O  O812  1  0.086070  0.930170  0.244860  1.0  -0.3724
  O  O813  1  0.157430  0.425530  0.794140  1.0  -0.5445
  O  O814  1  0.170300  0.365700  0.767800  1.0  -0.4557
  O  O815  1  0.159460  0.482860  0.838280  1.0  -0.5261
  O  O816  1  0.196780  0.527980  0.859440  1.0  -0.3972
  O  O817  1  0.916750  0.189950  0.070100  1.0  -0.5499
  O  O818  1  0.882900  0.106300  0.133600  1.0  -0.3727
  O  O819  1  0.993180  0.014480  0.156640  1.0  -0.594
  O  O820  1  0.916700  0.031000  0.170200  1.0  -0.3706
  O  O821  1  0.291180  0.794680  0.060440  1.0  -0.547
  O  O822  1  0.265500  0.714500  0.075200  1.0  -0.3964
  O  O823  1  0.205070  0.584970  0.233860  1.0  -0.5542
  O  O824  1  0.229370  0.625270  0.149260  1.0  -0.4353
  O  O825  1  0.656400  0.675600  0.832800  1.0  -0.5943
  O  O826  1  0.677400  0.668200  0.891600  1.0  -0.3844
  O  O827  1  0.576360  0.712360  0.004680  1.0  -0.553
  O  O828  1  0.643600  0.682800  0.966000  1.0  -0.3935
  O  O829  1  0.336650  0.895650  0.012900  1.0  -0.5678
  O  O830  1  0.353200  0.979000  0.954000  1.0  -0.3876
  O  O831  1  0.251590  0.837490  0.190220  1.0  -0.5164
  O  O832  1  0.169070  0.824970  0.244860  1.0  -0.3904
  O  O833  1  0.548430  0.780330  0.794140  1.0  -0.546
  O  O834  1  0.561900  0.866500  0.767800  1.0  -0.456
  O  O835  1  0.502260  0.678860  0.838280  1.0  -0.5239
  O  O836  1  0.443780  0.612580  0.859440  1.0  -0.3683
  O  O837  1  0.513150  0.739950  0.070100  1.0  -0.5489
  O  O838  1  0.483500  0.760100  0.133600  1.0  -0.3756
  O  O839  1  0.350180  0.828880  0.156640  1.0  -0.5939
  O  O840  1  0.413100  0.798800  0.170200  1.0  -0.3682
  O  O841  1  0.294680  0.791180  0.560440  1.0  -0.5477
  O  O842  1  0.214500  0.765500  0.575200  1.0  -0.388
  O  O843  1  0.084970  0.705070  0.733860  1.0  -0.5561
  O  O844  1  0.125270  0.729370  0.649260  1.0  -0.4383
  O  O845  1  0.175600  0.156400  0.332800  1.0  -0.5934
  O  O846  1  0.168200  0.177400  0.391600  1.0  -0.3787
  O  O847  1  0.212360  0.076360  0.504680  1.0  -0.5537
  O  O848  1  0.182800  0.143600  0.466000  1.0  -0.3897
  O  O849  1  0.395650  0.836650  0.512900  1.0  -0.5676
  O  O850  1  0.479000  0.853200  0.454000  1.0  -0.3867
  O  O851  1  0.337490  0.751590  0.690220  1.0  -0.5168
  O  O852  1  0.324970  0.669070  0.744860  1.0  -0.3887
  O  O853  1  0.280330  0.048430  0.294140  1.0  -0.5452
  O  O854  1  0.366500  0.061900  0.267800  1.0  -0.4615
  O  O855  1  0.178860  0.002260  0.338280  1.0  -0.5274
  O  O856  1  0.112580  0.943780  0.359440  1.0  -0.3711
  O  O857  1  0.239950  0.013150  0.570100  1.0  -0.5427
  O  O858  1  0.260100  0.983500  0.633600  1.0  -0.3754
  O  O859  1  0.328880  0.850180  0.656640  1.0  -0.5958
  O  O860  1  0.298800  0.913100  0.670200  1.0  -0.3698
  O  O861  1  0.644880  0.648380  0.560440  1.0  -0.5685
  O  O862  1  0.710300  0.659300  0.575200  1.0  -0.3895
  O  O863  1  0.681170  0.561070  0.733860  1.0  -0.5687
  O  O864  1  0.725470  0.621370  0.649260  1.0  -0.4097
  O  O865  1  0.991600  0.510800  0.332800  1.0  -0.5932
  O  O866  1  0.940200  0.431000  0.391600  1.0  -0.3802
  O  O867  1  0.782960  0.418960  0.504680  1.0  -0.5466
  O  O868  1  0.851200  0.390400  0.466000  1.0  -0.3928
  O  O869  1  0.591450  0.650450  0.512900  1.0  -0.5693
  O  O870  1  0.567000  0.692800  0.454000  1.0  -0.3799
  O  O871  1  0.472290  0.558190  0.690220  1.0  -0.5361
  O  O872  1  0.430170  0.586070  0.744860  1.0  -0.3729
  O  O873  1  0.925530  0.657430  0.294140  1.0  -0.5477
  O  O874  1  0.865700  0.670300  0.267800  1.0  -0.4595
  O  O875  1  0.982860  0.659460  0.338280  1.0  -0.5254
  O  O876  1  0.027980  0.696780  0.359440  1.0  -0.3957
  O  O877  1  0.689950  0.416750  0.570100  1.0  -0.5464
  O  O878  1  0.606300  0.382900  0.633600  1.0  -0.3778
  O  O879  1  0.514480  0.493180  0.656640  1.0  -0.5945
  O  O880  1  0.531000  0.416700  0.670200  1.0  -0.3703
  O  O881  1  0.291180  0.144880  0.060440  1.0  -0.5461
  O  O882  1  0.265500  0.210300  0.075200  1.0  -0.3919
  O  O883  1  0.205070  0.181170  0.233860  1.0  -0.5542
  O  O884  1  0.229370  0.225470  0.149260  1.0  -0.4359
  O  O885  1  0.656400  0.491600  0.832800  1.0  -0.5916
  O  O886  1  0.677400  0.440200  0.891600  1.0  -0.3812
  O  O887  1  0.576360  0.282960  0.004680  1.0  -0.5508
  O  O888  1  0.643600  0.351200  0.966000  1.0  -0.3912
  O  O889  1  0.336650  0.091450  0.012900  1.0  -0.5667
  O  O890  1  0.353200  0.067000  0.954000  1.0  -0.3808
  O  O891  1  0.251590  0.972290  0.190220  1.0  -0.5346
  O  O892  1  0.169070  0.930170  0.244860  1.0  -0.3679
  O  O893  1  0.548430  0.425530  0.794140  1.0  -0.5427
  O  O894  1  0.561900  0.365700  0.767800  1.0  -0.4611
  O  O895  1  0.502260  0.482860  0.838280  1.0  -0.5264
  O  O896  1  0.443780  0.527980  0.859440  1.0  -0.3811
  O  O897  1  0.513150  0.189950  0.070100  1.0  -0.5538
  O  O898  1  0.483500  0.106300  0.133600  1.0  -0.3746
  O  O899  1  0.350180  0.014480  0.156640  1.0  -0.5929
  O  O900  1  0.413100  0.031000  0.170200  1.0  -0.3752
  O  O901  1  0.148380  0.794680  0.060440  1.0  -0.5684
  O  O902  1  0.159300  0.714500  0.075200  1.0  -0.3943
  O  O903  1  0.061070  0.584970  0.233860  1.0  -0.5687
  O  O904  1  0.121370  0.625270  0.149260  1.0  -0.4173
  O  O905  1  0.010800  0.675600  0.832800  1.0  -0.5904
  O  O906  1  0.931000  0.668200  0.891600  1.0  -0.3799
  O  O907  1  0.918960  0.712360  0.004680  1.0  -0.549
  O  O908  1  0.890400  0.682800  0.966000  1.0  -0.3957
  O  O909  1  0.150450  0.895650  0.012900  1.0  -0.5678
  O  O910  1  0.192800  0.979000  0.954000  1.0  -0.3767
  O  O911  1  0.058190  0.837490  0.190220  1.0  -0.5152
  O  O912  1  0.086070  0.824970  0.244860  1.0  -0.3745
  O  O913  1  0.157430  0.780330  0.794140  1.0  -0.5478
  O  O914  1  0.170300  0.866500  0.767800  1.0  -0.4593
  O  O915  1  0.159460  0.678860  0.838280  1.0  -0.5267
  O  O916  1  0.196780  0.612580  0.859440  1.0  -0.3934
  O  O917  1  0.916750  0.739950  0.070100  1.0  -0.5476
  O  O918  1  0.882900  0.760100  0.133600  1.0  -0.3741
  O  O919  1  0.993180  0.828880  0.156640  1.0  -0.5911
  O  O920  1  0.916700  0.798800  0.170200  1.0  -0.3672
  O  O921  1  0.355120  0.208820  0.439560  1.0  -0.5476
  O  O922  1  0.289700  0.234500  0.424800  1.0  -0.3816
  O  O923  1  0.318830  0.294930  0.266140  1.0  -0.5507
  O  O924  1  0.274530  0.270630  0.350740  1.0  -0.4346
  O  O925  1  0.008400  0.843600  0.667200  1.0  -0.5915
  O  O926  1  0.059800  0.822600  0.608400  1.0  -0.3812
  O  O927  1  0.217040  0.923640  0.495320  1.0  -0.541
  O  O928  1  0.148800  0.856400  0.534000  1.0  -0.3923
  O  O929  1  0.408550  0.163350  0.487100  1.0  -0.5652
  O  O930  1  0.433000  0.146800  0.546000  1.0  -0.3815
  O  O931  1  0.527710  0.248410  0.309780  1.0  -0.5363
  O  O932  1  0.569830  0.330930  0.255140  1.0  -0.3676
  O  O933  1  0.074470  0.951570  0.705860  1.0  -0.5443
  O  O934  1  0.134300  0.938100  0.732200  1.0  -0.4607
  O  O935  1  0.017140  0.997740  0.661720  1.0  -0.5269
  O  O936  1  0.972020  0.056220  0.640560  1.0  -0.3851
  O  O937  1  0.310050  0.986850  0.429900  1.0  -0.5471
  O  O938  1  0.393700  0.016500  0.366400  1.0  -0.3754
  O  O939  1  0.485520  0.149820  0.343360  1.0  -0.5908
  O  O940  1  0.469000  0.086900  0.329800  1.0  -0.3723
  O  O941  1  0.705320  0.351620  0.439560  1.0  -0.5659
  O  O942  1  0.785500  0.340700  0.424800  1.0  -0.3901
  O  O943  1  0.915030  0.438930  0.266140  1.0  -0.5669
  O  O944  1  0.874730  0.378630  0.350740  1.0  -0.4182
  O  O945  1  0.824400  0.489200  0.667200  1.0  -0.5928
  O  O946  1  0.831800  0.569000  0.608400  1.0  -0.3815
  O  O947  1  0.787640  0.581040  0.495320  1.0  -0.5476
  O  O948  1  0.817200  0.609600  0.534000  1.0  -0.3962
  O  O949  1  0.604350  0.349550  0.487100  1.0  -0.5717
  O  O950  1  0.521000  0.307200  0.546000  1.0  -0.3781
  O  O951  1  0.662510  0.441810  0.309780  1.0  -0.5159
  O  O952  1  0.675030  0.413930  0.255140  1.0  -0.3716
  O  O953  1  0.719670  0.342570  0.705860  1.0  -0.5424
  O  O954  1  0.633500  0.329700  0.732200  1.0  -0.46
  O  O955  1  0.821140  0.340540  0.661720  1.0  -0.5258
  O  O956  1  0.887420  0.303220  0.640560  1.0  -0.3901
  O  O957  1  0.760050  0.583250  0.429900  1.0  -0.5444
  O  O958  1  0.739900  0.617100  0.366400  1.0  -0.3822
  O  O959  1  0.671120  0.506820  0.343360  1.0  -0.5929
  O  O960  1  0.701200  0.583300  0.329800  1.0  -0.3706
  O  O961  1  0.851620  0.855120  0.939560  1.0  -0.5666
  O  O962  1  0.840700  0.789700  0.924800  1.0  -0.3896
  O  O963  1  0.938930  0.818830  0.766140  1.0  -0.5681
  O  O964  1  0.878630  0.774530  0.850740  1.0  -0.4163
  O  O965  1  0.989200  0.508400  0.167200  1.0  -0.5941
  O  O966  1  0.069000  0.559800  0.108400  1.0  -0.3799
  O  O967  1  0.081040  0.717040  0.995320  1.0  -0.5506
  O  O968  1  0.109600  0.648800  0.034000  1.0  -0.3921
  O  O969  1  0.849550  0.908550  0.987100  1.0  -0.5658
  O  O970  1  0.807200  0.933000  0.046000  1.0  -0.3806
  O  O971  1  0.941810  0.027710  0.809780  1.0  -0.535
  O  O972  1  0.913930  0.069830  0.755140  1.0  -0.3718
  O  O973  1  0.842570  0.574470  0.205860  1.0  -0.5434
  O  O974  1  0.829700  0.634300  0.232200  1.0  -0.4555
  O  O975  1  0.840540  0.517140  0.161720  1.0  -0.5251
  O  O976  1  0.803220  0.472020  0.140560  1.0  -0.3936
  O  O977  1  0.083250  0.810050  0.929900  1.0  -0.5502
  O  O978  1  0.117100  0.893700  0.866400  1.0  -0.3713
  O  O979  1  0.006820  0.985520  0.843360  1.0  -0.5934
  O  O980  1  0.083300  0.969000  0.829800  1.0  -0.3737
  O  O981  1  0.708820  0.205320  0.939560  1.0  -0.5471
  O  O982  1  0.734500  0.285500  0.924800  1.0  -0.3964
  O  O983  1  0.794930  0.415030  0.766140  1.0  -0.553
  O  O984  1  0.770630  0.374730  0.850740  1.0  -0.435
  O  O985  1  0.343600  0.324400  0.167200  1.0  -0.5924
  O  O986  1  0.322600  0.331800  0.108400  1.0  -0.3834
  O  O987  1  0.423640  0.287640  0.995320  1.0  -0.5502
  O  O988  1  0.356400  0.317200  0.034000  1.0  -0.3929
  O  O989  1  0.663350  0.104350  0.987100  1.0  -0.5678
  O  O990  1  0.646800  0.021000  0.046000  1.0  -0.3888
  O  O991  1  0.748410  0.162510  0.809780  1.0  -0.5162
  O  O992  1  0.830930  0.175030  0.755140  1.0  -0.3877
  O  O993  1  0.451570  0.219670  0.205860  1.0  -0.5462
  O  O994  1  0.438100  0.133500  0.232200  1.0  -0.4559
  O  O995  1  0.497740  0.321140  0.161720  1.0  -0.5232
  O  O996  1  0.556220  0.387420  0.140560  1.0  -0.3712
  O  O997  1  0.486850  0.260050  0.929900  1.0  -0.5472
  O  O998  1  0.516500  0.239900  0.866400  1.0  -0.3747
  O  O999  1  0.649820  0.171120  0.843360  1.0  -0.5954
  O  O1000  1  0.586900  0.201200  0.829800  1.0  -0.368
