# generated using pymatgen
data_Cu13H138C144S9(NO4)12
_symmetry_space_group_name_H-M   'P 1'
_cell_length_a   25.21390000
_cell_length_b   26.24860000
_cell_length_c   26.24860000
_cell_angle_alpha   120.00000000
_cell_angle_beta   90.00000000
_cell_angle_gamma   90.00000000
_symmetry_Int_Tables_number   1
_chemical_formula_structural   Cu13H138C144S9(NO4)12
_chemical_formula_sum   'Cu26 H276 C288 S18 N24 O96'
_cell_volume   15044.67974086
_cell_formula_units_Z   2
loop_
 _symmetry_equiv_pos_site_id
 _symmetry_equiv_pos_as_xyz
  1  'x, y, z'
loop_
 _atom_site_type_symbol
 _atom_site_label
 _atom_site_symmetry_multiplicity
 _atom_site_fract_x
 _atom_site_fract_y
 _atom_site_fract_z
 _atom_site_occupancy
 _atom_site_charge
  Cu  Cu1  1  0.603400  0.922260  0.942640  1.0  0.9186
  Cu  Cu2  1  0.685090  0.419450  0.710490  1.0  0.9361
  Cu  Cu3  1  0.603400  0.020380  0.077740  1.0  0.9194
  Cu  Cu4  1  0.685090  0.291040  0.580550  1.0  0.9368
  Cu  Cu5  1  0.603400  0.057360  0.979620  1.0  0.9201
  Cu  Cu6  1  0.685090  0.289510  0.708960  1.0  0.9372
  Cu  Cu7  1  0.103400  0.077740  0.057360  1.0  0.9183
  Cu  Cu8  1  0.185090  0.580550  0.289510  1.0  0.9345
  Cu  Cu9  1  0.103400  0.979620  0.922260  1.0  0.9202
  Cu  Cu10  1  0.185090  0.708960  0.419450  1.0  0.9386
  Cu  Cu11  1  0.103400  0.942640  0.020380  1.0  0.9191
  Cu  Cu12  1  0.185090  0.710490  0.291040  1.0  0.9372
  Cu  Cu13  1  0.396600  0.979620  0.057360  1.0  0.9184
  Cu  Cu14  1  0.314910  0.708960  0.289510  1.0  0.9364
  Cu  Cu15  1  0.396600  0.942640  0.922260  1.0  0.9199
  Cu  Cu16  1  0.314910  0.710490  0.419450  1.0  0.9369
  Cu  Cu17  1  0.396600  0.077740  0.020380  1.0  0.9172
  Cu  Cu18  1  0.314910  0.580550  0.291040  1.0  0.9328
  Cu  Cu19  1  0.896600  0.020380  0.942640  1.0  0.9198
  Cu  Cu20  1  0.814910  0.291040  0.710490  1.0  0.9362
  Cu  Cu21  1  0.896600  0.057360  0.077740  1.0  0.9179
  Cu  Cu22  1  0.814910  0.289510  0.580550  1.0  0.9348
  Cu  Cu23  1  0.896600  0.922260  0.979620  1.0  0.918
  Cu  Cu24  1  0.814910  0.419450  0.708960  1.0  0.9355
  Cu  Cu25  1  0.500000  0.000000  0.000000  1.0  0.5513
  Cu  Cu26  1  0.000000  0.000000  0.000000  1.0  0.5513
  H  H27  1  0.545400  0.810400  0.755200  1.0  0.1246
  H  H28  1  0.447000  0.927500  0.716700  1.0  0.115
  H  H29  1  0.467100  0.991600  0.759100  1.0  0.1036
  H  H30  1  0.418400  0.966700  0.777000  1.0  0.1201
  H  H31  1  0.505300  0.799500  0.672600  1.0  0.1268
  H  H32  1  0.506500  0.856000  0.666667  1.0  0.1169
  H  H33  1  0.453400  0.836300  0.682800  1.0  0.121
  H  H34  1  0.586400  0.782100  0.803900  1.0  0.1193
  H  H35  1  0.713900  0.705800  0.925700  1.0  0.1347
  H  H36  1  0.626200  0.702600  0.796300  1.0  0.1148
  H  H37  1  0.690000  0.869400  0.093100  1.0  0.1177
  H  H38  1  0.648900  0.819700  0.055600  1.0  0.1219
  H  H39  1  0.651500  0.876400  0.050100  1.0  0.1152
  H  H40  1  0.767900  0.886200  0.043900  1.0  0.1446
  H  H41  1  0.730700  0.892000  0.999200  1.0  0.114
  H  H42  1  0.776700  0.845500  0.976000  1.0  0.1168
  H  H43  1  0.762700  0.800500  0.058300  1.0  0.1159
  H  H44  1  0.773600  0.759400  0.990900  1.0  0.1207
  H  H45  1  0.724100  0.748300  0.020200  1.0  0.1051
  H  H46  1  0.671600  0.620800  0.739800  1.0  0.1286
  H  H47  1  0.673100  0.518800  0.686000  1.0  0.1184
  H  H48  1  0.679400  0.513200  0.836100  1.0  0.1184
  H  H49  1  0.677900  0.615200  0.889900  1.0  0.1276
  H  H50  1  0.545400  0.944800  0.189600  1.0  0.1238
  H  H51  1  0.447000  0.789200  0.072500  1.0  0.1156
  H  H52  1  0.467100  0.767500  0.008400  1.0  0.1059
  H  H53  1  0.418400  0.810300  0.033300  1.0  0.1166
  H  H54  1  0.505300  0.873100  0.200500  1.0  0.1252
  H  H55  1  0.506500  0.810600  0.144000  1.0  0.1166
  H  H56  1  0.453400  0.846500  0.163700  1.0  0.123
  H  H57  1  0.586400  0.021800  0.217900  1.0  0.1194
  H  H58  1  0.713900  0.219900  0.294200  1.0  0.1339
  H  H59  1  0.626200  0.093700  0.297400  1.0  0.1161
  H  H60  1  0.690000  0.223700  0.130600  1.0  0.1159
  H  H61  1  0.648900  0.235900  0.180300  1.0  0.1216
  H  H62  1  0.651500  0.173700  0.123600  1.0  0.1148
  H  H63  1  0.767900  0.157700  0.113800  1.0  0.147
  H  H64  1  0.730700  0.107200  0.108000  1.0  0.1142
  H  H65  1  0.776700  0.130500  0.154500  1.0  0.1158
  H  H66  1  0.762700  0.257800  0.199500  1.0  0.1151
  H  H67  1  0.773600  0.231500  0.240600  1.0  0.1213
  H  H68  1  0.724100  0.271900  0.251700  1.0  0.1037
  H  H69  1  0.671600  0.119000  0.379200  1.0  0.1284
  H  H70  1  0.673100  0.167200  0.481200  1.0  0.1191
  H  H71  1  0.679400  0.322900  0.486800  1.0  0.1169
  H  H72  1  0.677900  0.274700  0.384800  1.0  0.128
  H  H73  1  0.545400  0.244800  0.055200  1.0  0.125
  H  H74  1  0.447000  0.283300  0.210800  1.0  0.1139
  H  H75  1  0.467100  0.240900  0.232500  1.0  0.1049
  H  H76  1  0.418400  0.223000  0.189700  1.0  0.1196
  H  H77  1  0.505300  0.327400  0.126900  1.0  0.1263
  H  H78  1  0.506500  0.333400  0.189400  1.0  0.1167
  H  H79  1  0.453400  0.317200  0.153500  1.0  0.1204
  H  H80  1  0.586400  0.196100  0.978200  1.0  0.1205
  H  H81  1  0.713900  0.074300  0.780100  1.0  0.1352
  H  H82  1  0.626200  0.203700  0.906300  1.0  0.117
  H  H83  1  0.690000  0.906900  0.776300  1.0  0.1153
  H  H84  1  0.648900  0.944400  0.764100  1.0  0.1189
  H  H85  1  0.651500  0.949900  0.826300  1.0  0.1149
  H  H86  1  0.767900  0.956100  0.842300  1.0  0.1467
  H  H87  1  0.730700  0.000800  0.892800  1.0  0.1151
  H  H88  1  0.776700  0.024000  0.869500  1.0  0.1173
  H  H89  1  0.762700  0.941700  0.742200  1.0  0.1187
  H  H90  1  0.773600  0.009100  0.768500  1.0  0.1224
  H  H91  1  0.724100  0.979800  0.728100  1.0  0.1049
  H  H92  1  0.671600  0.260200  0.881000  1.0  0.1298
  H  H93  1  0.673100  0.314000  0.832800  1.0  0.1175
  H  H94  1  0.679400  0.163900  0.677100  1.0  0.1184
  H  H95  1  0.677900  0.110100  0.725300  1.0  0.1274
  H  H96  1  0.045400  0.189600  0.244800  1.0  0.124
  H  H97  1  0.947000  0.072500  0.283300  1.0  0.1152
  H  H98  1  0.967100  0.008400  0.240900  1.0  0.1056
  H  H99  1  0.918400  0.033300  0.223000  1.0  0.1194
  H  H100  1  0.005300  0.200500  0.327400  1.0  0.1271
  H  H101  1  0.006500  0.144000  0.333400  1.0  0.1153
  H  H102  1  0.953400  0.163700  0.317200  1.0  0.1216
  H  H103  1  0.086400  0.217900  0.196100  1.0  0.1202
  H  H104  1  0.213900  0.294200  0.074300  1.0  0.1345
  H  H105  1  0.126200  0.297400  0.203700  1.0  0.1166
  H  H106  1  0.190000  0.130600  0.906900  1.0  0.1159
  H  H107  1  0.148900  0.180300  0.944400  1.0  0.1199
  H  H108  1  0.151500  0.123600  0.949900  1.0  0.1155
  H  H109  1  0.267900  0.113800  0.956100  1.0  0.1448
  H  H110  1  0.230700  0.108000  0.000800  1.0  0.1144
  H  H111  1  0.276700  0.154500  0.024000  1.0  0.1158
  H  H112  1  0.262700  0.199500  0.941700  1.0  0.1172
  H  H113  1  0.273600  0.240600  0.009100  1.0  0.1231
  H  H114  1  0.224100  0.251700  0.979800  1.0  0.1049
  H  H115  1  0.171600  0.379200  0.260200  1.0  0.1289
  H  H116  1  0.173100  0.481200  0.314000  1.0  0.1182
  H  H117  1  0.179400  0.486800  0.163900  1.0  0.1176
  H  H118  1  0.177900  0.384800  0.110100  1.0  0.1277
  H  H119  1  0.045400  0.055200  0.810400  1.0  0.1245
  H  H120  1  0.947000  0.210800  0.927500  1.0  0.1152
  H  H121  1  0.967100  0.232500  0.991600  1.0  0.1057
  H  H122  1  0.918400  0.189700  0.966700  1.0  0.1179
  H  H123  1  0.005300  0.126900  0.799500  1.0  0.1251
  H  H124  1  0.006500  0.189400  0.856000  1.0  0.1185
  H  H125  1  0.953400  0.153500  0.836300  1.0  0.1211
  H  H126  1  0.086400  0.978200  0.782100  1.0  0.1186
  H  H127  1  0.213900  0.780100  0.705800  1.0  0.1338
  H  H128  1  0.126200  0.906300  0.702600  1.0  0.1147
  H  H129  1  0.190000  0.776300  0.869400  1.0  0.1163
  H  H130  1  0.148900  0.764100  0.819700  1.0  0.1223
  H  H131  1  0.151500  0.826300  0.876400  1.0  0.1145
  H  H132  1  0.267900  0.842300  0.886200  1.0  0.144
  H  H133  1  0.230700  0.892800  0.892000  1.0  0.1139
  H  H134  1  0.276700  0.869500  0.845500  1.0  0.1155
  H  H135  1  0.262700  0.742200  0.800500  1.0  0.1156
  H  H136  1  0.273600  0.768500  0.759400  1.0  0.1217
  H  H137  1  0.224100  0.728100  0.748300  1.0  0.1033
  H  H138  1  0.171600  0.881000  0.620800  1.0  0.1289
  H  H139  1  0.173100  0.832800  0.518800  1.0  0.1182
  H  H140  1  0.179400  0.677100  0.513200  1.0  0.1159
  H  H141  1  0.177900  0.725300  0.615200  1.0  0.1294
  H  H142  1  0.045400  0.755200  0.944800  1.0  0.1247
  H  H143  1  0.947000  0.716700  0.789200  1.0  0.1157
  H  H144  1  0.967100  0.759100  0.767500  1.0  0.1037
  H  H145  1  0.918400  0.777000  0.810300  1.0  0.1188
  H  H146  1  0.005300  0.672600  0.873100  1.0  0.1246
  H  H147  1  0.006500  0.666667  0.810600  1.0  0.1177
  H  H148  1  0.953400  0.682800  0.846500  1.0  0.1196
  H  H149  1  0.086400  0.803900  0.021800  1.0  0.1209
  H  H150  1  0.213900  0.925700  0.219900  1.0  0.1347
  H  H151  1  0.126200  0.796300  0.093700  1.0  0.1176
  H  H152  1  0.190000  0.093100  0.223700  1.0  0.1171
  H  H153  1  0.148900  0.055600  0.235900  1.0  0.1207
  H  H154  1  0.151500  0.050100  0.173700  1.0  0.1145
  H  H155  1  0.267900  0.043900  0.157700  1.0  0.1464
  H  H156  1  0.230700  0.999200  0.107200  1.0  0.1147
  H  H157  1  0.276700  0.976000  0.130500  1.0  0.118
  H  H158  1  0.262700  0.058300  0.257800  1.0  0.1184
  H  H159  1  0.273600  0.990900  0.231500  1.0  0.1217
  H  H160  1  0.224100  0.020200  0.271900  1.0  0.1049
  H  H161  1  0.171600  0.739800  0.119000  1.0  0.1296
  H  H162  1  0.173100  0.686000  0.167200  1.0  0.1185
  H  H163  1  0.179400  0.836100  0.322900  1.0  0.1184
  H  H164  1  0.177900  0.889900  0.274700  1.0  0.128
  H  H165  1  0.454600  0.055200  0.244800  1.0  0.1244
  H  H166  1  0.553000  0.210800  0.283300  1.0  0.1152
  H  H167  1  0.532900  0.232500  0.240900  1.0  0.1071
  H  H168  1  0.581600  0.189700  0.223000  1.0  0.1194
  H  H169  1  0.494700  0.126900  0.327400  1.0  0.1264
  H  H170  1  0.493500  0.189400  0.333400  1.0  0.1195
  H  H171  1  0.546600  0.153500  0.317200  1.0  0.1224
  H  H172  1  0.413600  0.978200  0.196100  1.0  0.1189
  H  H173  1  0.286100  0.780100  0.074300  1.0  0.1341
  H  H174  1  0.373800  0.906300  0.203700  1.0  0.1146
  H  H175  1  0.310000  0.776300  0.906900  1.0  0.1146
  H  H176  1  0.351100  0.764100  0.944400  1.0  0.1219
  H  H177  1  0.348500  0.826300  0.949900  1.0  0.114
  H  H178  1  0.232100  0.842300  0.956100  1.0  0.1461
  H  H179  1  0.269300  0.892800  0.000800  1.0  0.1132
  H  H180  1  0.223300  0.869500  0.024000  1.0  0.1153
  H  H181  1  0.237300  0.742200  0.941700  1.0  0.1151
  H  H182  1  0.226400  0.768500  0.009100  1.0  0.1209
  H  H183  1  0.275900  0.728100  0.979800  1.0  0.1039
  H  H184  1  0.328400  0.881000  0.260200  1.0  0.1291
  H  H185  1  0.326900  0.832800  0.314000  1.0  0.1177
  H  H186  1  0.320600  0.677100  0.163900  1.0  0.1168
  H  H187  1  0.322100  0.725300  0.110100  1.0  0.1282
  H  H188  1  0.454600  0.755200  0.810400  1.0  0.125
  H  H189  1  0.553000  0.716700  0.927500  1.0  0.1164
  H  H190  1  0.532900  0.759100  0.991600  1.0  0.1067
  H  H191  1  0.581600  0.777000  0.966700  1.0  0.1206
  H  H192  1  0.494700  0.672600  0.799500  1.0  0.1243
  H  H193  1  0.493500  0.666667  0.856000  1.0  0.1172
  H  H194  1  0.546600  0.682800  0.836300  1.0  0.1206
  H  H195  1  0.413600  0.803900  0.782100  1.0  0.1205
  H  H196  1  0.286100  0.925700  0.705800  1.0  0.1357
  H  H197  1  0.373800  0.796300  0.702600  1.0  0.1165
  H  H198  1  0.310000  0.093100  0.869400  1.0  0.1159
  H  H199  1  0.351100  0.055600  0.819700  1.0  0.1206
  H  H200  1  0.348500  0.050100  0.876400  1.0  0.1144
  H  H201  1  0.232100  0.043900  0.886200  1.0  0.146
  H  H202  1  0.269300  0.999200  0.892000  1.0  0.1153
  H  H203  1  0.223300  0.976000  0.845500  1.0  0.1176
  H  H204  1  0.237300  0.058300  0.800500  1.0  0.119
  H  H205  1  0.226400  0.990900  0.759400  1.0  0.12
  H  H206  1  0.275900  0.020200  0.748300  1.0  0.1044
  H  H207  1  0.328400  0.739800  0.620800  1.0  0.131
  H  H208  1  0.326900  0.686000  0.518800  1.0  0.1177
  H  H209  1  0.320600  0.836100  0.513200  1.0  0.1184
  H  H210  1  0.322100  0.889900  0.615200  1.0  0.1279
  H  H211  1  0.454600  0.189600  0.944800  1.0  0.1248
  H  H212  1  0.553000  0.072500  0.789200  1.0  0.116
  H  H213  1  0.532900  0.008400  0.767500  1.0  0.1034
  H  H214  1  0.581600  0.033300  0.810300  1.0  0.1218
  H  H215  1  0.494700  0.200500  0.873100  1.0  0.1284
  H  H216  1  0.493500  0.144000  0.810600  1.0  0.1161
  H  H217  1  0.546600  0.163700  0.846500  1.0  0.1215
  H  H218  1  0.413600  0.217900  0.021800  1.0  0.1183
  H  H219  1  0.286100  0.294200  0.219900  1.0  0.1338
  H  H220  1  0.373800  0.297400  0.093700  1.0  0.115
  H  H221  1  0.310000  0.130600  0.223700  1.0  0.1167
  H  H222  1  0.351100  0.180300  0.235900  1.0  0.1203
  H  H223  1  0.348500  0.123600  0.173700  1.0  0.1153
  H  H224  1  0.232100  0.113800  0.157700  1.0  0.1443
  H  H225  1  0.269300  0.108000  0.107200  1.0  0.1122
  H  H226  1  0.223300  0.154500  0.130500  1.0  0.1168
  H  H227  1  0.237300  0.199500  0.257800  1.0  0.1182
  H  H228  1  0.226400  0.240600  0.231500  1.0  0.1195
  H  H229  1  0.275900  0.251700  0.271900  1.0  0.104
  H  H230  1  0.328400  0.379200  0.119000  1.0  0.1293
  H  H231  1  0.326900  0.481200  0.167200  1.0  0.1182
  H  H232  1  0.320600  0.486800  0.322900  1.0  0.1173
  H  H233  1  0.322100  0.384800  0.274700  1.0  0.1276
  H  H234  1  0.954600  0.944800  0.755200  1.0  0.124
  H  H235  1  0.053000  0.789200  0.716700  1.0  0.1157
  H  H236  1  0.032900  0.767500  0.759100  1.0  0.1067
  H  H237  1  0.081600  0.810300  0.777000  1.0  0.1188
  H  H238  1  0.994700  0.873100  0.672600  1.0  0.1247
  H  H239  1  0.993500  0.810600  0.666667  1.0  0.1152
  H  H240  1  0.046600  0.846500  0.682800  1.0  0.1217
  H  H241  1  0.913600  0.021800  0.803900  1.0  0.1178
  H  H242  1  0.786100  0.219900  0.925700  1.0  0.1345
  H  H243  1  0.873800  0.093700  0.796300  1.0  0.1133
  H  H244  1  0.810000  0.223700  0.093100  1.0  0.1161
  H  H245  1  0.851100  0.235900  0.055600  1.0  0.1224
  H  H246  1  0.848500  0.173700  0.050100  1.0  0.1143
  H  H247  1  0.732100  0.157700  0.043900  1.0  0.144
  H  H248  1  0.769300  0.107200  0.999200  1.0  0.1144
  H  H249  1  0.723300  0.130500  0.976000  1.0  0.116
  H  H250  1  0.737300  0.257800  0.058300  1.0  0.1154
  H  H251  1  0.726400  0.231500  0.990900  1.0  0.1205
  H  H252  1  0.775900  0.271900  0.020200  1.0  0.1035
  H  H253  1  0.828400  0.119000  0.739800  1.0  0.1299
  H  H254  1  0.826900  0.167200  0.686000  1.0  0.1181
  H  H255  1  0.820600  0.322900  0.836100  1.0  0.1169
  H  H256  1  0.822100  0.274700  0.889900  1.0  0.1285
  H  H257  1  0.954600  0.244800  0.189600  1.0  0.1251
  H  H258  1  0.053000  0.283300  0.072500  1.0  0.1145
  H  H259  1  0.032900  0.240900  0.008400  1.0  0.1052
  H  H260  1  0.081600  0.223000  0.033300  1.0  0.1221
  H  H261  1  0.994700  0.327400  0.200500  1.0  0.127
  H  H262  1  0.993500  0.333400  0.144000  1.0  0.1187
  H  H263  1  0.046600  0.317200  0.163700  1.0  0.1204
  H  H264  1  0.913600  0.196100  0.217900  1.0  0.1202
  H  H265  1  0.786100  0.074300  0.294200  1.0  0.1349
  H  H266  1  0.873800  0.203700  0.297400  1.0  0.1162
  H  H267  1  0.810000  0.906900  0.130600  1.0  0.1166
  H  H268  1  0.851100  0.944400  0.180300  1.0  0.1207
  H  H269  1  0.848500  0.949900  0.123600  1.0  0.1149
  H  H270  1  0.732100  0.956100  0.113800  1.0  0.1469
  H  H271  1  0.769300  0.000800  0.108000  1.0  0.1141
  H  H272  1  0.723300  0.024000  0.154500  1.0  0.1177
  H  H273  1  0.737300  0.941700  0.199500  1.0  0.1184
  H  H274  1  0.726400  0.009100  0.240600  1.0  0.1205
  H  H275  1  0.775900  0.979800  0.251700  1.0  0.1052
  H  H276  1  0.828400  0.260200  0.379200  1.0  0.1308
  H  H277  1  0.826900  0.314000  0.481200  1.0  0.1174
  H  H278  1  0.820600  0.163900  0.486800  1.0  0.1181
  H  H279  1  0.822100  0.110100  0.384800  1.0  0.1275
  H  H280  1  0.954600  0.810400  0.055200  1.0  0.1249
  H  H281  1  0.053000  0.927500  0.210800  1.0  0.1155
  H  H282  1  0.032900  0.991600  0.232500  1.0  0.1048
  H  H283  1  0.081600  0.966700  0.189700  1.0  0.1202
  H  H284  1  0.994700  0.799500  0.126900  1.0  0.1256
  H  H285  1  0.993500  0.856000  0.189400  1.0  0.1176
  H  H286  1  0.046600  0.836300  0.153500  1.0  0.1217
  H  H287  1  0.913600  0.782100  0.978200  1.0  0.1211
  H  H288  1  0.786100  0.705800  0.780100  1.0  0.1343
  H  H289  1  0.873800  0.702600  0.906300  1.0  0.1138
  H  H290  1  0.810000  0.869400  0.776300  1.0  0.1154
  H  H291  1  0.851100  0.819700  0.764100  1.0  0.1194
  H  H292  1  0.848500  0.876400  0.826300  1.0  0.1151
  H  H293  1  0.732100  0.886200  0.842300  1.0  0.1448
  H  H294  1  0.769300  0.892000  0.892800  1.0  0.1129
  H  H295  1  0.723300  0.845500  0.869500  1.0  0.1157
  H  H296  1  0.737300  0.800500  0.742200  1.0  0.1159
  H  H297  1  0.726400  0.759400  0.768500  1.0  0.1198
  H  H298  1  0.775900  0.748300  0.728100  1.0  0.1031
  H  H299  1  0.828400  0.620800  0.881000  1.0  0.1296
  H  H300  1  0.826900  0.518800  0.832800  1.0  0.1177
  H  H301  1  0.820600  0.513200  0.677100  1.0  0.118
  H  H302  1  0.822100  0.615200  0.725300  1.0  0.1276
  C  C303  1  0.534680  0.940660  0.870080  1.0  0.2354
  C  C304  1  0.550110  0.882180  0.836450  1.0  0.1795
  C  C305  1  0.535070  0.849570  0.777740  1.0  -0.0914
  C  C306  1  0.504590  0.875450  0.752660  1.0  0.0706
  C  C307  1  0.489160  0.933930  0.786300  1.0  0.0844
  C  C308  1  0.504200  0.966540  0.845010  1.0  -0.0127
  C  C309  1  0.452000  0.957100  0.757100  1.0  -0.3591
  C  C310  1  0.491200  0.838400  0.687700  1.0  -0.3572
  C  C311  1  0.598500  0.807800  0.841700  1.0  0.0626
  C  C312  1  0.632480  0.783620  0.868050  1.0  0.0154
  C  C313  1  0.654540  0.814680  0.923980  1.0  0.2807
  C  C314  1  0.685050  0.785500  0.945540  1.0  0.0118
  C  C315  1  0.693490  0.725280  0.911200  1.0  -0.0998
  C  C316  1  0.671430  0.694220  0.855270  1.0  0.0244
  C  C317  1  0.640920  0.723400  0.833700  1.0  -0.1565
  C  C318  1  0.712700  0.819100  0.006500  1.0  0.1283
  C  C319  1  0.672000  0.848900  0.055900  1.0  -0.3688
  C  C320  1  0.750600  0.865000  0.006400  1.0  -0.3679
  C  C321  1  0.746500  0.777900  0.020300  1.0  -0.371
  C  C322  1  0.674600  0.628130  0.820230  1.0  0.0558
  C  C323  1  0.673200  0.599240  0.759130  1.0  -0.1103
  C  C324  1  0.674100  0.538140  0.726840  1.0  0.1642
  C  C325  1  0.677800  0.534790  0.816800  1.0  0.1844
  C  C326  1  0.676900  0.595900  0.849070  1.0  -0.0957
  C  C327  1  0.534680  0.929420  0.059340  1.0  0.2377
  C  C328  1  0.550110  0.954270  0.117820  1.0  0.1818
  C  C329  1  0.535070  0.928170  0.150430  1.0  -0.088
  C  C330  1  0.504590  0.877210  0.124550  1.0  0.0698
  C  C331  1  0.489160  0.852370  0.066070  1.0  0.0822
  C  C332  1  0.504200  0.878470  0.033460  1.0  -0.0112
  C  C333  1  0.452000  0.800000  0.042900  1.0  -0.3569
  C  C334  1  0.491200  0.849300  0.161600  1.0  -0.3559
  C  C335  1  0.598500  0.033900  0.192200  1.0  0.0641
  C  C336  1  0.632480  0.084430  0.216380  1.0  0.0156
  C  C337  1  0.654540  0.109300  0.185320  1.0  0.2803
  C  C338  1  0.685050  0.160040  0.214500  1.0  0.01
  C  C339  1  0.693490  0.185920  0.274720  1.0  -0.0979
  C  C340  1  0.671430  0.161050  0.305780  1.0  0.0232
  C  C341  1  0.640920  0.110300  0.276600  1.0  -0.153
  C  C342  1  0.712700  0.187400  0.180900  1.0  0.1259
  C  C343  1  0.672000  0.207000  0.151100  1.0  -0.3702
  C  C344  1  0.750600  0.141400  0.135000  1.0  -0.3657
  C  C345  1  0.746500  0.242400  0.222100  1.0  -0.3718
  C  C346  1  0.674600  0.192100  0.371870  1.0  0.0551
  C  C347  1  0.673200  0.159890  0.400760  1.0  -0.1174
  C  C348  1  0.674100  0.188700  0.461860  1.0  0.1622
  C  C349  1  0.677800  0.282010  0.465210  1.0  0.1806
  C  C350  1  0.676900  0.253170  0.404100  1.0  -0.0971
  C  C351  1  0.534680  0.129920  0.070580  1.0  0.2351
  C  C352  1  0.550110  0.163550  0.045730  1.0  0.1795
  C  C353  1  0.535070  0.222260  0.071830  1.0  -0.087
  C  C354  1  0.504590  0.247340  0.122790  1.0  0.0672
  C  C355  1  0.489160  0.213700  0.147630  1.0  0.0833
  C  C356  1  0.504200  0.154990  0.121530  1.0  -0.0129
  C  C357  1  0.452000  0.242900  0.200000  1.0  -0.359
  C  C358  1  0.491200  0.312300  0.150700  1.0  -0.3549
  C  C359  1  0.598500  0.158300  0.966100  1.0  0.0621
  C  C360  1  0.632480  0.131950  0.915570  1.0  0.0154
  C  C361  1  0.654540  0.076020  0.890700  1.0  0.2783
  C  C362  1  0.685050  0.054460  0.839960  1.0  0.0109
  C  C363  1  0.693490  0.088800  0.814080  1.0  -0.1006
  C  C364  1  0.671430  0.144730  0.838950  1.0  0.0238
  C  C365  1  0.640920  0.166300  0.889700  1.0  -0.1552
  C  C366  1  0.712700  0.993500  0.812600  1.0  0.128
  C  C367  1  0.672000  0.944100  0.793000  1.0  -0.3693
  C  C368  1  0.750600  0.993600  0.858600  1.0  -0.366
  C  C369  1  0.746500  0.979700  0.757600  1.0  -0.3696
  C  C370  1  0.674600  0.179770  0.807900  1.0  0.0548
  C  C371  1  0.673200  0.240870  0.840110  1.0  -0.1151
  C  C372  1  0.674100  0.273160  0.811300  1.0  0.1613
  C  C373  1  0.677800  0.183200  0.717990  1.0  0.1823
  C  C374  1  0.676900  0.150930  0.746830  1.0  -0.0964
  C  C375  1  0.034680  0.059340  0.129920  1.0  0.2352
  C  C376  1  0.050110  0.117820  0.163550  1.0  0.1799
  C  C377  1  0.035070  0.150430  0.222260  1.0  -0.0923
  C  C378  1  0.004590  0.124550  0.247340  1.0  0.0702
  C  C379  1  0.989160  0.066070  0.213700  1.0  0.0849
  C  C380  1  0.004200  0.033460  0.154990  1.0  -0.0135
  C  C381  1  0.952000  0.042900  0.242900  1.0  -0.3607
  C  C382  1  0.991200  0.161600  0.312300  1.0  -0.3565
  C  C383  1  0.098500  0.192200  0.158300  1.0  0.0648
  C  C384  1  0.132480  0.216380  0.131950  1.0  0.0164
  C  C385  1  0.154540  0.185320  0.076020  1.0  0.2788
  C  C386  1  0.185050  0.214500  0.054460  1.0  0.0105
  C  C387  1  0.193490  0.274720  0.088800  1.0  -0.0987
  C  C388  1  0.171430  0.305780  0.144730  1.0  0.0242
  C  C389  1  0.140920  0.276600  0.166300  1.0  -0.1547
  C  C390  1  0.212700  0.180900  0.993500  1.0  0.1292
  C  C391  1  0.172000  0.151100  0.944100  1.0  -0.3683
  C  C392  1  0.250600  0.135000  0.993600  1.0  -0.3677
  C  C393  1  0.246500  0.222100  0.979700  1.0  -0.371
  C  C394  1  0.174600  0.371870  0.179770  1.0  0.0556
  C  C395  1  0.173200  0.400760  0.240870  1.0  -0.1126
  C  C396  1  0.174100  0.461860  0.273160  1.0  0.164
  C  C397  1  0.177800  0.465210  0.183200  1.0  0.1857
  C  C398  1  0.176900  0.404100  0.150930  1.0  -0.0918
  C  C399  1  0.034680  0.070580  0.940660  1.0  0.2379
  C  C400  1  0.050110  0.045730  0.882180  1.0  0.1808
  C  C401  1  0.035070  0.071830  0.849570  1.0  -0.0913
  C  C402  1  0.004590  0.122790  0.875450  1.0  0.0686
  C  C403  1  0.989160  0.147630  0.933930  1.0  0.0821
  C  C404  1  0.004200  0.121530  0.966540  1.0  -0.0128
  C  C405  1  0.952000  0.200000  0.957100  1.0  -0.3568
  C  C406  1  0.991200  0.150700  0.838400  1.0  -0.3575
  C  C407  1  0.098500  0.966100  0.807800  1.0  0.0635
  C  C408  1  0.132480  0.915570  0.783620  1.0  0.0169
  C  C409  1  0.154540  0.890700  0.814680  1.0  0.2805
  C  C410  1  0.185050  0.839960  0.785500  1.0  0.0109
  C  C411  1  0.193490  0.814080  0.725280  1.0  -0.0998
  C  C412  1  0.171430  0.838950  0.694220  1.0  0.0227
  C  C413  1  0.140920  0.889700  0.723400  1.0  -0.1546
  C  C414  1  0.212700  0.812600  0.819100  1.0  0.125
  C  C415  1  0.172000  0.793000  0.848900  1.0  -0.3695
  C  C416  1  0.250600  0.858600  0.865000  1.0  -0.3652
  C  C417  1  0.246500  0.757600  0.777900  1.0  -0.3728
  C  C418  1  0.174600  0.807900  0.628130  1.0  0.0544
  C  C419  1  0.173200  0.840110  0.599240  1.0  -0.1151
  C  C420  1  0.174100  0.811300  0.538140  1.0  0.1625
  C  C421  1  0.177800  0.717990  0.534790  1.0  0.1807
  C  C422  1  0.176900  0.746830  0.595900  1.0  -0.0972
  C  C423  1  0.034680  0.870080  0.929420  1.0  0.2347
  C  C424  1  0.050110  0.836450  0.954270  1.0  0.1793
  C  C425  1  0.035070  0.777740  0.928170  1.0  -0.0869
  C  C426  1  0.004590  0.752660  0.877210  1.0  0.069
  C  C427  1  0.989160  0.786300  0.852370  1.0  0.0823
  C  C428  1  0.004200  0.845010  0.878470  1.0  -0.0111
  C  C429  1  0.952000  0.757100  0.800000  1.0  -0.3587
  C  C430  1  0.991200  0.687700  0.849300  1.0  -0.3575
  C  C431  1  0.098500  0.841700  0.033900  1.0  0.0622
  C  C432  1  0.132480  0.868050  0.084430  1.0  0.0135
  C  C433  1  0.154540  0.923980  0.109300  1.0  0.2788
  C  C434  1  0.185050  0.945540  0.160040  1.0  0.0115
  C  C435  1  0.193490  0.911200  0.185920  1.0  -0.0993
  C  C436  1  0.171430  0.855270  0.161050  1.0  0.0235
  C  C437  1  0.140920  0.833700  0.110300  1.0  -0.1525
  C  C438  1  0.212700  0.006500  0.187400  1.0  0.1288
  C  C439  1  0.172000  0.055900  0.207000  1.0  -0.3713
  C  C440  1  0.250600  0.006400  0.141400  1.0  -0.3673
  C  C441  1  0.246500  0.020300  0.242400  1.0  -0.3711
  C  C442  1  0.174600  0.820230  0.192100  1.0  0.0561
  C  C443  1  0.173200  0.759130  0.159890  1.0  -0.1155
  C  C444  1  0.174100  0.726840  0.188700  1.0  0.1616
  C  C445  1  0.177800  0.816800  0.282010  1.0  0.1818
  C  C446  1  0.176900  0.849070  0.253170  1.0  -0.0988
  C  C447  1  0.465320  0.070580  0.129920  1.0  0.2375
  C  C448  1  0.449890  0.045730  0.163550  1.0  0.1809
  C  C449  1  0.464930  0.071830  0.222260  1.0  -0.0918
  C  C450  1  0.495410  0.122790  0.247340  1.0  0.0695
  C  C451  1  0.510840  0.147630  0.213700  1.0  0.0832
  C  C452  1  0.495800  0.121530  0.154990  1.0  -0.0125
  C  C453  1  0.548000  0.200000  0.242900  1.0  -0.3567
  C  C454  1  0.508800  0.150700  0.312300  1.0  -0.3554
  C  C455  1  0.401500  0.966100  0.158300  1.0  0.0653
  C  C456  1  0.367520  0.915570  0.131950  1.0  0.0177
  C  C457  1  0.345460  0.890700  0.076020  1.0  0.2807
  C  C458  1  0.314950  0.839960  0.054460  1.0  0.0096
  C  C459  1  0.306510  0.814080  0.088800  1.0  -0.0999
  C  C460  1  0.328570  0.838950  0.144730  1.0  0.0249
  C  C461  1  0.359080  0.889700  0.166300  1.0  -0.1532
  C  C462  1  0.287300  0.812600  0.993500  1.0  0.127
  C  C463  1  0.328000  0.793000  0.944100  1.0  -0.3704
  C  C464  1  0.249400  0.858600  0.993600  1.0  -0.3648
  C  C465  1  0.253500  0.757600  0.979700  1.0  -0.3717
  C  C466  1  0.325400  0.807900  0.179770  1.0  0.0551
  C  C467  1  0.326800  0.840110  0.240870  1.0  -0.1176
  C  C468  1  0.325900  0.811300  0.273160  1.0  0.1614
  C  C469  1  0.322200  0.717990  0.183200  1.0  0.179
  C  C470  1  0.323100  0.746830  0.150930  1.0  -0.0987
  C  C471  1  0.465320  0.870080  0.940660  1.0  0.2349
  C  C472  1  0.449890  0.836450  0.882180  1.0  0.1783
  C  C473  1  0.464930  0.777740  0.849570  1.0  -0.0883
  C  C474  1  0.495410  0.752660  0.875450  1.0  0.0681
  C  C475  1  0.510840  0.786300  0.933930  1.0  0.0821
  C  C476  1  0.495800  0.845010  0.966540  1.0  -0.0113
  C  C477  1  0.548000  0.757100  0.957100  1.0  -0.3587
  C  C478  1  0.508800  0.687700  0.838400  1.0  -0.3569
  C  C479  1  0.401500  0.841700  0.807800  1.0  0.0634
  C  C480  1  0.367520  0.868050  0.783620  1.0  0.0147
  C  C481  1  0.345460  0.923980  0.814680  1.0  0.2779
  C  C482  1  0.314950  0.945540  0.785500  1.0  0.0109
  C  C483  1  0.306510  0.911200  0.725280  1.0  -0.1007
  C  C484  1  0.328570  0.855270  0.694220  1.0  0.0246
  C  C485  1  0.359080  0.833700  0.723400  1.0  -0.153
  C  C486  1  0.287300  0.006500  0.819100  1.0  0.128
  C  C487  1  0.328000  0.055900  0.848900  1.0  -0.369
  C  C488  1  0.249400  0.006400  0.865000  1.0  -0.366
  C  C489  1  0.253500  0.020300  0.777900  1.0  -0.3694
  C  C490  1  0.325400  0.820230  0.628130  1.0  0.0554
  C  C491  1  0.326800  0.759130  0.599240  1.0  -0.1152
  C  C492  1  0.325900  0.726840  0.538140  1.0  0.1625
  C  C493  1  0.322200  0.816800  0.534790  1.0  0.1802
  C  C494  1  0.323100  0.849070  0.595900  1.0  -0.0981
  C  C495  1  0.465320  0.059340  0.929420  1.0  0.2351
  C  C496  1  0.449890  0.117820  0.954270  1.0  0.1789
  C  C497  1  0.464930  0.150430  0.928170  1.0  -0.0942
  C  C498  1  0.495410  0.124550  0.877210  1.0  0.0699
  C  C499  1  0.510840  0.066070  0.852370  1.0  0.0849
  C  C500  1  0.495800  0.033460  0.878470  1.0  -0.0135
  C  C501  1  0.548000  0.042900  0.800000  1.0  -0.3591
  C  C502  1  0.508800  0.161600  0.849300  1.0  -0.355
  C  C503  1  0.401500  0.192200  0.033900  1.0  0.0641
  C  C504  1  0.367520  0.216380  0.084430  1.0  0.0159
  C  C505  1  0.345460  0.185320  0.109300  1.0  0.2797
  C  C506  1  0.314950  0.214500  0.160040  1.0  0.012
  C  C507  1  0.306510  0.274720  0.185920  1.0  -0.1007
  C  C508  1  0.328570  0.305780  0.161050  1.0  0.0258
  C  C509  1  0.359080  0.276600  0.110300  1.0  -0.1571
  C  C510  1  0.287300  0.180900  0.187400  1.0  0.1287
  C  C511  1  0.328000  0.151100  0.207000  1.0  -0.3691
  C  C512  1  0.249400  0.135000  0.141400  1.0  -0.3667
  C  C513  1  0.253500  0.222100  0.242400  1.0  -0.373
  C  C514  1  0.325400  0.371870  0.192100  1.0  0.0553
  C  C515  1  0.326800  0.400760  0.159890  1.0  -0.1122
  C  C516  1  0.325900  0.461860  0.188700  1.0  0.1636
  C  C517  1  0.322200  0.465210  0.282010  1.0  0.1841
  C  C518  1  0.323100  0.404100  0.253170  1.0  -0.0955
  C  C519  1  0.965320  0.929420  0.870080  1.0  0.2379
  C  C520  1  0.949890  0.954270  0.836450  1.0  0.18
  C  C521  1  0.964930  0.928170  0.777740  1.0  -0.0907
  C  C522  1  0.995410  0.877210  0.752660  1.0  0.0677
  C  C523  1  0.010840  0.852370  0.786300  1.0  0.0812
  C  C524  1  0.995800  0.878470  0.845010  1.0  -0.0118
  C  C525  1  0.048000  0.800000  0.757100  1.0  -0.3577
  C  C526  1  0.008800  0.849300  0.687700  1.0  -0.3567
  C  C527  1  0.901500  0.033900  0.841700  1.0  0.0659
  C  C528  1  0.867520  0.084430  0.868050  1.0  0.0156
  C  C529  1  0.845460  0.109300  0.923980  1.0  0.2802
  C  C530  1  0.814950  0.160040  0.945540  1.0  0.011
  C  C531  1  0.806510  0.185920  0.911200  1.0  -0.1002
  C  C532  1  0.828570  0.161050  0.855270  1.0  0.0238
  C  C533  1  0.859080  0.110300  0.833700  1.0  -0.1551
  C  C534  1  0.787300  0.187400  0.006500  1.0  0.1242
  C  C535  1  0.828000  0.207000  0.055900  1.0  -0.3696
  C  C536  1  0.749400  0.141400  0.006400  1.0  -0.3653
  C  C537  1  0.753500  0.242400  0.020300  1.0  -0.3723
  C  C538  1  0.825400  0.192100  0.820230  1.0  0.0535
  C  C539  1  0.826800  0.159890  0.759130  1.0  -0.118
  C  C540  1  0.825900  0.188700  0.726840  1.0  0.1611
  C  C541  1  0.822200  0.282010  0.816800  1.0  0.1783
  C  C542  1  0.823100  0.253170  0.849070  1.0  -0.098
  C  C543  1  0.965320  0.129920  0.059340  1.0  0.2343
  C  C544  1  0.949890  0.163550  0.117820  1.0  0.1787
  C  C545  1  0.964930  0.222260  0.150430  1.0  -0.0887
  C  C546  1  0.995410  0.247340  0.124550  1.0  0.0668
  C  C547  1  0.010840  0.213700  0.066070  1.0  0.0832
  C  C548  1  0.995800  0.154990  0.033460  1.0  -0.0127
  C  C549  1  0.048000  0.242900  0.042900  1.0  -0.3575
  C  C550  1  0.008800  0.312300  0.161600  1.0  -0.3533
  C  C551  1  0.901500  0.158300  0.192200  1.0  0.0635
  C  C552  1  0.867520  0.131950  0.216380  1.0  0.0159
  C  C553  1  0.845460  0.076020  0.185320  1.0  0.2787
  C  C554  1  0.814950  0.054460  0.214500  1.0  0.0116
  C  C555  1  0.806510  0.088800  0.274720  1.0  -0.1004
  C  C556  1  0.828570  0.144730  0.305780  1.0  0.0242
  C  C557  1  0.859080  0.166300  0.276600  1.0  -0.1541
  C  C558  1  0.787300  0.993500  0.180900  1.0  0.1295
  C  C559  1  0.828000  0.944100  0.151100  1.0  -0.3705
  C  C560  1  0.749400  0.993600  0.135000  1.0  -0.3663
  C  C561  1  0.753500  0.979700  0.222100  1.0  -0.3694
  C  C562  1  0.825400  0.179770  0.371870  1.0  0.0552
  C  C563  1  0.826800  0.240870  0.400760  1.0  -0.1162
  C  C564  1  0.825900  0.273160  0.461860  1.0  0.1602
  C  C565  1  0.822200  0.183200  0.465210  1.0  0.1823
  C  C566  1  0.823100  0.150930  0.404100  1.0  -0.0967
  C  C567  1  0.965320  0.940660  0.070580  1.0  0.2356
  C  C568  1  0.949890  0.882180  0.045730  1.0  0.1786
  C  C569  1  0.964930  0.849570  0.071830  1.0  -0.0906
  C  C570  1  0.995410  0.875450  0.122790  1.0  0.0708
  C  C571  1  0.010840  0.933930  0.147630  1.0  0.0847
  C  C572  1  0.995800  0.966540  0.121530  1.0  -0.0122
  C  C573  1  0.048000  0.957100  0.200000  1.0  -0.3597
  C  C574  1  0.008800  0.838400  0.150700  1.0  -0.3538
  C  C575  1  0.901500  0.807800  0.966100  1.0  0.0657
  C  C576  1  0.867520  0.783620  0.915570  1.0  0.0165
  C  C577  1  0.845460  0.814680  0.890700  1.0  0.2794
  C  C578  1  0.814950  0.785500  0.839960  1.0  0.0109
  C  C579  1  0.806510  0.725280  0.814080  1.0  -0.1006
  C  C580  1  0.828570  0.694220  0.838950  1.0  0.0257
  C  C581  1  0.859080  0.723400  0.889700  1.0  -0.1524
  C  C582  1  0.787300  0.819100  0.812600  1.0  0.1288
  C  C583  1  0.828000  0.848900  0.793000  1.0  -0.369
  C  C584  1  0.749400  0.865000  0.858600  1.0  -0.3677
  C  C585  1  0.753500  0.777900  0.757600  1.0  -0.371
  C  C586  1  0.825400  0.628130  0.807900  1.0  0.0559
  C  C587  1  0.826800  0.599240  0.840110  1.0  -0.1128
  C  C588  1  0.825900  0.538140  0.811300  1.0  0.1639
  C  C589  1  0.822200  0.534790  0.717990  1.0  0.1829
  C  C590  1  0.823100  0.595900  0.746830  1.0  -0.0937
  S  S591  1  0.588600  0.365400  0.732700  1.0  1.5386
  S  S592  1  0.588600  0.367300  0.634600  1.0  1.5371
  S  S593  1  0.588600  0.267300  0.632700  1.0  1.5362
  S  S594  1  0.088600  0.634600  0.267300  1.0  1.5359
  S  S595  1  0.088600  0.632700  0.365400  1.0  1.5384
  S  S596  1  0.088600  0.732700  0.367300  1.0  1.5376
  S  S597  1  0.411400  0.632700  0.267300  1.0  1.5364
  S  S598  1  0.411400  0.732700  0.365400  1.0  1.5357
  S  S599  1  0.411400  0.634600  0.367300  1.0  1.538
  S  S600  1  0.911400  0.367300  0.732700  1.0  1.5384
  S  S601  1  0.911400  0.267300  0.634600  1.0  1.5362
  S  S602  1  0.911400  0.365400  0.632700  1.0  1.5367
  S  S603  1  0.750000  0.404360  0.808720  1.0  1.6277
  S  S604  1  0.750000  0.404360  0.595640  1.0  1.628
  S  S605  1  0.750000  0.191280  0.595640  1.0  1.6269
  S  S606  1  0.250000  0.595640  0.191280  1.0  1.6278
  S  S607  1  0.250000  0.595640  0.404360  1.0  1.6278
  S  S608  1  0.250000  0.808720  0.404360  1.0  1.6269
  N  N609  1  0.676400  0.505910  0.755710  1.0  -0.3128
  N  N610  1  0.583160  0.861500  0.865200  1.0  -0.3326
  N  N611  1  0.676400  0.249800  0.494090  1.0  -0.3137
  N  N612  1  0.583160  0.003700  0.138500  1.0  -0.3338
  N  N613  1  0.676400  0.244290  0.750200  1.0  -0.3157
  N  N614  1  0.583160  0.134800  0.996300  1.0  -0.3329
  N  N615  1  0.176400  0.494090  0.244290  1.0  -0.3122
  N  N616  1  0.083160  0.138500  0.134800  1.0  -0.333
  N  N617  1  0.176400  0.750200  0.505910  1.0  -0.316
  N  N618  1  0.083160  0.996300  0.861500  1.0  -0.3333
  N  N619  1  0.176400  0.755710  0.249800  1.0  -0.3138
  N  N620  1  0.083160  0.865200  0.003700  1.0  -0.3321
  N  N621  1  0.323600  0.750200  0.244290  1.0  -0.3146
  N  N622  1  0.416840  0.996300  0.134800  1.0  -0.3331
  N  N623  1  0.323600  0.755710  0.505910  1.0  -0.3169
  N  N624  1  0.416840  0.865200  0.861500  1.0  -0.3304
  N  N625  1  0.323600  0.494090  0.249800  1.0  -0.3134
  N  N626  1  0.416840  0.138500  0.003700  1.0  -0.3328
  N  N627  1  0.823600  0.249800  0.755710  1.0  -0.317
  N  N628  1  0.916840  0.003700  0.865200  1.0  -0.3319
  N  N629  1  0.823600  0.244290  0.494090  1.0  -0.3145
  N  N630  1  0.916840  0.134800  0.138500  1.0  -0.3334
  N  N631  1  0.823600  0.505910  0.750200  1.0  -0.3137
  N  N632  1  0.916840  0.861500  0.996300  1.0  -0.3311
  O  O633  1  0.551280  0.970870  0.927580  1.0  -0.7675
  O  O634  1  0.646110  0.872850  0.958680  1.0  -0.5777
  O  O635  1  0.751700  0.430300  0.769500  1.0  -0.7649
  O  O636  1  0.701600  0.422500  0.844300  1.0  -0.6109
  O  O637  1  0.625900  0.415300  0.755700  1.0  -0.7458
  O  O638  1  0.536500  0.382700  0.764400  1.0  -0.5812
  O  O639  1  0.618900  0.323900  0.745600  1.0  -0.7783
  O  O640  1  0.551280  0.956710  0.029130  1.0  -0.7652
  O  O641  1  0.646110  0.085830  0.127150  1.0  -0.5777
  O  O642  1  0.751700  0.339200  0.569700  1.0  -0.7635
  O  O643  1  0.701600  0.421800  0.577500  1.0  -0.6161
  O  O644  1  0.625900  0.340400  0.584700  1.0  -0.7401
  O  O645  1  0.536500  0.381700  0.617300  1.0  -0.5831
  O  O646  1  0.618900  0.421700  0.676100  1.0  -0.7763
  O  O647  1  0.551280  0.072420  0.043290  1.0  -0.7658
  O  O648  1  0.646110  0.041320  0.914170  1.0  -0.5772
  O  O649  1  0.751700  0.230500  0.660800  1.0  -0.7639
  O  O650  1  0.701600  0.155700  0.578200  1.0  -0.6141
  O  O651  1  0.625900  0.244300  0.659600  1.0  -0.7443
  O  O652  1  0.536500  0.235600  0.618300  1.0  -0.5809
  O  O653  1  0.618900  0.254400  0.578300  1.0  -0.7772
  O  O654  1  0.051280  0.029130  0.072420  1.0  -0.7665
  O  O655  1  0.146110  0.127150  0.041320  1.0  -0.5782
  O  O656  1  0.251700  0.569700  0.230500  1.0  -0.7648
  O  O657  1  0.201600  0.577500  0.155700  1.0  -0.6133
  O  O658  1  0.125900  0.584700  0.244300  1.0  -0.7464
  O  O659  1  0.036500  0.617300  0.235600  1.0  -0.5896
  O  O660  1  0.118900  0.676100  0.254400  1.0  -0.7793
  O  O661  1  0.051280  0.043290  0.970870  1.0  -0.7661
  O  O662  1  0.146110  0.914170  0.872850  1.0  -0.5783
  O  O663  1  0.251700  0.660800  0.430300  1.0  -0.7634
  O  O664  1  0.201600  0.578200  0.422500  1.0  -0.6119
  O  O665  1  0.125900  0.659600  0.415300  1.0  -0.7411
  O  O666  1  0.036500  0.618300  0.382700  1.0  -0.5888
  O  O667  1  0.118900  0.578300  0.323900  1.0  -0.7748
  O  O668  1  0.051280  0.927580  0.956710  1.0  -0.7654
  O  O669  1  0.146110  0.958680  0.085830  1.0  -0.5756
  O  O670  1  0.251700  0.769500  0.339200  1.0  -0.7644
  O  O671  1  0.201600  0.844300  0.421800  1.0  -0.6138
  O  O672  1  0.125900  0.755700  0.340400  1.0  -0.7436
  O  O673  1  0.036500  0.764400  0.381700  1.0  -0.5872
  O  O674  1  0.118900  0.745600  0.421700  1.0  -0.7782
  O  O675  1  0.448720  0.043290  0.072420  1.0  -0.7653
  O  O676  1  0.353890  0.914170  0.041320  1.0  -0.5769
  O  O677  1  0.248300  0.660800  0.230500  1.0  -0.7623
  O  O678  1  0.298400  0.578200  0.155700  1.0  -0.6123
  O  O679  1  0.374100  0.659600  0.244300  1.0  -0.7394
  O  O680  1  0.463500  0.618300  0.235600  1.0  -0.5837
  O  O681  1  0.381100  0.578300  0.254400  1.0  -0.7818
  O  O682  1  0.448720  0.927580  0.970870  1.0  -0.7653
  O  O683  1  0.353890  0.958680  0.872850  1.0  -0.5768
  O  O684  1  0.248300  0.769500  0.430300  1.0  -0.7653
  O  O685  1  0.298400  0.844300  0.422500  1.0  -0.6158
  O  O686  1  0.374100  0.755700  0.415300  1.0  -0.7446
  O  O687  1  0.463500  0.764400  0.382700  1.0  -0.5813
  O  O688  1  0.381100  0.745600  0.323900  1.0  -0.7838
  O  O689  1  0.448720  0.029130  0.956710  1.0  -0.7671
  O  O690  1  0.353890  0.127150  0.085830  1.0  -0.5784
  O  O691  1  0.248300  0.569700  0.339200  1.0  -0.7651
  O  O692  1  0.298400  0.577500  0.421800  1.0  -0.6127
  O  O693  1  0.374100  0.584700  0.340400  1.0  -0.7469
  O  O694  1  0.463500  0.617300  0.381700  1.0  -0.584
  O  O695  1  0.381100  0.676100  0.421700  1.0  -0.7836
  O  O696  1  0.948720  0.956710  0.927580  1.0  -0.7661
  O  O697  1  0.853890  0.085830  0.958680  1.0  -0.5777
  O  O698  1  0.748300  0.339200  0.769500  1.0  -0.7643
  O  O699  1  0.798400  0.421800  0.844300  1.0  -0.6124
  O  O700  1  0.874100  0.340400  0.755700  1.0  -0.7442
  O  O701  1  0.963500  0.381700  0.764400  1.0  -0.5909
  O  O702  1  0.881100  0.421700  0.745600  1.0  -0.7806
  O  O703  1  0.948720  0.072420  0.029130  1.0  -0.7661
  O  O704  1  0.853890  0.041320  0.127150  1.0  -0.5764
  O  O705  1  0.748300  0.230500  0.569700  1.0  -0.7633
  O  O706  1  0.798400  0.155700  0.577500  1.0  -0.6146
  O  O707  1  0.874100  0.244300  0.584700  1.0  -0.7429
  O  O708  1  0.963500  0.235600  0.617300  1.0  -0.5889
  O  O709  1  0.881100  0.254400  0.676100  1.0  -0.7815
  O  O710  1  0.948720  0.970870  0.043290  1.0  -0.7662
  O  O711  1  0.853890  0.872850  0.914170  1.0  -0.5773
  O  O712  1  0.748300  0.430300  0.660800  1.0  -0.7651
  O  O713  1  0.798400  0.422500  0.578200  1.0  -0.6157
  O  O714  1  0.874100  0.415300  0.659600  1.0  -0.7459
  O  O715  1  0.963500  0.382700  0.618300  1.0  -0.5914
  O  O716  1  0.881100  0.323900  0.578300  1.0  -0.7857
  O  O717  1  0.635900  0.000000  0.000000  1.0  -0.7178
  O  O718  1  0.135900  0.000000  0.000000  1.0  -0.7178
  O  O719  1  0.364100  0.000000  0.000000  1.0  -0.7201
  O  O720  1  0.864100  0.000000  0.000000  1.0  -0.7201
  O  O721  1  0.698800  0.333333  0.666667  1.0  -0.7606
  O  O722  1  0.578000  0.333333  0.666667  1.0  -0.5675
  O  O723  1  0.198800  0.666667  0.333333  1.0  -0.7606
  O  O724  1  0.078000  0.666667  0.333333  1.0  -0.5675
  O  O725  1  0.301200  0.666667  0.333333  1.0  -0.7603
  O  O726  1  0.422000  0.666667  0.333333  1.0  -0.5624
  O  O727  1  0.801200  0.333333  0.666667  1.0  -0.7603
  O  O728  1  0.922000  0.333333  0.666667  1.0  -0.5625
