# generated using pymatgen
data_Cu2H33C51N7O16
_symmetry_space_group_name_H-M   'P 1'
_cell_length_a   38.72040000
_cell_length_b   38.72040000
_cell_length_c   38.72040000
_cell_angle_alpha   90.00000000
_cell_angle_beta   90.00000000
_cell_angle_gamma   90.00000000
_symmetry_Int_Tables_number   1
_chemical_formula_structural   Cu2H33C51N7O16
_chemical_formula_sum   'Cu48 H792 C1224 N168 O384'
_cell_volume   58052.30995267
_cell_formula_units_Z   24
loop_
 _symmetry_equiv_pos_site_id
 _symmetry_equiv_pos_as_xyz
  1  'x, y, z'
loop_
 _atom_site_type_symbol
 _atom_site_label
 _atom_site_symmetry_multiplicity
 _atom_site_fract_x
 _atom_site_fract_y
 _atom_site_fract_z
 _atom_site_occupancy
 _atom_site_charge
  Cu  Cu1  1  0.854780  0.854780  0.000000  1.0  0.9106
  Cu  Cu2  1  0.806600  0.806600  0.000000  1.0  0.8688
  Cu  Cu3  1  0.354780  0.354780  0.500000  1.0  0.9106
  Cu  Cu4  1  0.306600  0.306600  0.500000  1.0  0.8688
  Cu  Cu5  1  0.145220  0.145220  0.000000  1.0  0.9106
  Cu  Cu6  1  0.193400  0.193400  0.000000  1.0  0.868
  Cu  Cu7  1  0.645220  0.645220  0.500000  1.0  0.9106
  Cu  Cu8  1  0.693400  0.693400  0.500000  1.0  0.868
  Cu  Cu9  1  0.145220  0.854780  0.000000  1.0  0.911
  Cu  Cu10  1  0.193400  0.806600  0.000000  1.0  0.8679
  Cu  Cu11  1  0.645220  0.354780  0.500000  1.0  0.911
  Cu  Cu12  1  0.693400  0.306600  0.500000  1.0  0.8679
  Cu  Cu13  1  0.854780  0.145220  0.000000  1.0  0.9093
  Cu  Cu14  1  0.806600  0.193400  0.000000  1.0  0.8689
  Cu  Cu15  1  0.354780  0.645220  0.500000  1.0  0.9093
  Cu  Cu16  1  0.306600  0.693400  0.500000  1.0  0.8689
  Cu  Cu17  1  0.000000  0.854780  0.854780  1.0  0.9092
  Cu  Cu18  1  0.000000  0.806600  0.806600  1.0  0.8688
  Cu  Cu19  1  0.500000  0.354780  0.354780  1.0  0.9092
  Cu  Cu20  1  0.500000  0.306600  0.306600  1.0  0.8688
  Cu  Cu21  1  0.000000  0.145220  0.145220  1.0  0.9089
  Cu  Cu22  1  0.000000  0.193400  0.193400  1.0  0.8693
  Cu  Cu23  1  0.500000  0.645220  0.645220  1.0  0.9089
  Cu  Cu24  1  0.500000  0.693400  0.693400  1.0  0.8693
  Cu  Cu25  1  0.000000  0.145220  0.854780  1.0  0.9084
  Cu  Cu26  1  0.000000  0.193400  0.806600  1.0  0.8689
  Cu  Cu27  1  0.500000  0.645220  0.354780  1.0  0.9084
  Cu  Cu28  1  0.500000  0.693400  0.306600  1.0  0.8689
  Cu  Cu29  1  0.000000  0.854780  0.145220  1.0  0.9092
  Cu  Cu30  1  0.000000  0.806600  0.193400  1.0  0.8693
  Cu  Cu31  1  0.500000  0.354780  0.645220  1.0  0.9092
  Cu  Cu32  1  0.500000  0.306600  0.693400  1.0  0.8693
  Cu  Cu33  1  0.854780  0.000000  0.854780  1.0  0.9091
  Cu  Cu34  1  0.806600  0.000000  0.806600  1.0  0.8691
  Cu  Cu35  1  0.354780  0.500000  0.354780  1.0  0.9091
  Cu  Cu36  1  0.306600  0.500000  0.306600  1.0  0.8691
  Cu  Cu37  1  0.145220  0.000000  0.145220  1.0  0.91
  Cu  Cu38  1  0.193400  0.000000  0.193400  1.0  0.8686
  Cu  Cu39  1  0.645220  0.500000  0.645220  1.0  0.91
  Cu  Cu40  1  0.693400  0.500000  0.693400  1.0  0.8686
  Cu  Cu41  1  0.854780  0.000000  0.145220  1.0  0.9083
  Cu  Cu42  1  0.806600  0.000000  0.193400  1.0  0.8696
  Cu  Cu43  1  0.354780  0.500000  0.645220  1.0  0.9083
  Cu  Cu44  1  0.306600  0.500000  0.693400  1.0  0.8696
  Cu  Cu45  1  0.145220  0.000000  0.854780  1.0  0.9092
  Cu  Cu46  1  0.193400  0.000000  0.806600  1.0  0.8683
  Cu  Cu47  1  0.645220  0.500000  0.354780  1.0  0.9092
  Cu  Cu48  1  0.693400  0.500000  0.306600  1.0  0.8683
  H  H49  1  0.744200  0.844500  0.916500  1.0  0.1265
  H  H50  1  0.692800  0.832400  0.788500  1.0  0.1472
  H  H51  1  0.624200  0.888200  0.843700  1.0  0.1243
  H  H52  1  0.648400  0.805300  0.759400  1.0  0.1019
  H  H53  1  0.578800  0.859300  0.817100  1.0  0.1257
  H  H54  1  0.571700  0.818900  0.744200  1.0  0.2942
  H  H55  1  0.698300  0.845200  0.873100  1.0  0.2539
  H  H56  1  0.244200  0.344500  0.416500  1.0  0.1265
  H  H57  1  0.192800  0.332400  0.288500  1.0  0.1472
  H  H58  1  0.124200  0.388200  0.343700  1.0  0.1243
  H  H59  1  0.148400  0.305300  0.259400  1.0  0.1019
  H  H60  1  0.078800  0.359300  0.317100  1.0  0.1257
  H  H61  1  0.071700  0.318900  0.244200  1.0  0.2942
  H  H62  1  0.198300  0.345200  0.373100  1.0  0.2539
  H  H63  1  0.255800  0.155500  0.916500  1.0  0.1249
  H  H64  1  0.307200  0.167600  0.788500  1.0  0.1477
  H  H65  1  0.375800  0.111800  0.843700  1.0  0.1241
  H  H66  1  0.351600  0.194700  0.759400  1.0  0.103
  H  H67  1  0.421200  0.140700  0.817100  1.0  0.1255
  H  H68  1  0.428300  0.181100  0.744200  1.0  0.2919
  H  H69  1  0.301700  0.154800  0.873100  1.0  0.2539
  H  H70  1  0.755800  0.655500  0.416500  1.0  0.1249
  H  H71  1  0.807200  0.667600  0.288500  1.0  0.1477
  H  H72  1  0.875800  0.611800  0.343700  1.0  0.1241
  H  H73  1  0.851600  0.694700  0.259400  1.0  0.103
  H  H74  1  0.921200  0.640700  0.317100  1.0  0.1255
  H  H75  1  0.928300  0.681100  0.244200  1.0  0.2919
  H  H76  1  0.801700  0.654800  0.373100  1.0  0.2539
  H  H77  1  0.255800  0.844500  0.083500  1.0  0.1254
  H  H78  1  0.307200  0.832400  0.211500  1.0  0.1463
  H  H79  1  0.375800  0.888200  0.156300  1.0  0.1266
  H  H80  1  0.351600  0.805300  0.240600  1.0  0.1037
  H  H81  1  0.421200  0.859300  0.182900  1.0  0.1279
  H  H82  1  0.428300  0.818900  0.255800  1.0  0.2893
  H  H83  1  0.301700  0.845200  0.126900  1.0  0.257
  H  H84  1  0.755800  0.344500  0.583500  1.0  0.1254
  H  H85  1  0.807200  0.332400  0.711500  1.0  0.1463
  H  H86  1  0.875800  0.388200  0.656300  1.0  0.1266
  H  H87  1  0.851600  0.305300  0.740600  1.0  0.1037
  H  H88  1  0.921200  0.359300  0.682900  1.0  0.1279
  H  H89  1  0.928300  0.318900  0.755800  1.0  0.2893
  H  H90  1  0.801700  0.345200  0.626900  1.0  0.257
  H  H91  1  0.744200  0.155500  0.083500  1.0  0.1251
  H  H92  1  0.692800  0.167600  0.211500  1.0  0.1484
  H  H93  1  0.624200  0.111800  0.156300  1.0  0.1237
  H  H94  1  0.648400  0.194700  0.240600  1.0  0.1019
  H  H95  1  0.578800  0.140700  0.182900  1.0  0.1237
  H  H96  1  0.571700  0.181100  0.255800  1.0  0.2919
  H  H97  1  0.698300  0.154800  0.126900  1.0  0.2552
  H  H98  1  0.244200  0.655500  0.583500  1.0  0.1251
  H  H99  1  0.192800  0.667600  0.711500  1.0  0.1484
  H  H100  1  0.124200  0.611800  0.656300  1.0  0.1237
  H  H101  1  0.148400  0.694700  0.740600  1.0  0.1019
  H  H102  1  0.078800  0.640700  0.682900  1.0  0.1237
  H  H103  1  0.071700  0.681100  0.755800  1.0  0.2919
  H  H104  1  0.198300  0.654800  0.626900  1.0  0.2552
  H  H105  1  0.916500  0.744200  0.844500  1.0  0.1247
  H  H106  1  0.788500  0.692800  0.832400  1.0  0.1506
  H  H107  1  0.843700  0.624200  0.888200  1.0  0.1243
  H  H108  1  0.759400  0.648400  0.805300  1.0  0.1024
  H  H109  1  0.817100  0.578800  0.859300  1.0  0.1281
  H  H110  1  0.744200  0.571700  0.818900  1.0  0.2904
  H  H111  1  0.873100  0.698300  0.845200  1.0  0.2466
  H  H112  1  0.416500  0.244200  0.344500  1.0  0.1247
  H  H113  1  0.288500  0.192800  0.332400  1.0  0.1506
  H  H114  1  0.343700  0.124200  0.388200  1.0  0.1243
  H  H115  1  0.259400  0.148400  0.305300  1.0  0.1024
  H  H116  1  0.317100  0.078800  0.359300  1.0  0.1281
  H  H117  1  0.244200  0.071700  0.318900  1.0  0.2904
  H  H118  1  0.373100  0.198300  0.345200  1.0  0.2466
  H  H119  1  0.916500  0.255800  0.155500  1.0  0.1264
  H  H120  1  0.788500  0.307200  0.167600  1.0  0.1501
  H  H121  1  0.843700  0.375800  0.111800  1.0  0.128
  H  H122  1  0.759400  0.351600  0.194700  1.0  0.1023
  H  H123  1  0.817100  0.421200  0.140700  1.0  0.1292
  H  H124  1  0.744200  0.428300  0.181100  1.0  0.2862
  H  H125  1  0.873100  0.301700  0.154800  1.0  0.2504
  H  H126  1  0.416500  0.755800  0.655500  1.0  0.1264
  H  H127  1  0.288500  0.807200  0.667600  1.0  0.1501
  H  H128  1  0.343700  0.875800  0.611800  1.0  0.128
  H  H129  1  0.259400  0.851600  0.694700  1.0  0.1023
  H  H130  1  0.317100  0.921200  0.640700  1.0  0.1292
  H  H131  1  0.244200  0.928300  0.681100  1.0  0.2862
  H  H132  1  0.373100  0.801700  0.654800  1.0  0.2504
  H  H133  1  0.083500  0.255800  0.844500  1.0  0.1245
  H  H134  1  0.211500  0.307200  0.832400  1.0  0.1498
  H  H135  1  0.156300  0.375800  0.888200  1.0  0.1254
  H  H136  1  0.240600  0.351600  0.805300  1.0  0.1019
  H  H137  1  0.182900  0.421200  0.859300  1.0  0.1276
  H  H138  1  0.255800  0.428300  0.818900  1.0  0.2903
  H  H139  1  0.126900  0.301700  0.845200  1.0  0.2548
  H  H140  1  0.583500  0.755800  0.344500  1.0  0.1245
  H  H141  1  0.711500  0.807200  0.332400  1.0  0.1498
  H  H142  1  0.656300  0.875800  0.388200  1.0  0.1254
  H  H143  1  0.740600  0.851600  0.305300  1.0  0.1019
  H  H144  1  0.682900  0.921200  0.359300  1.0  0.1276
  H  H145  1  0.755800  0.928300  0.318900  1.0  0.2903
  H  H146  1  0.626900  0.801700  0.345200  1.0  0.2548
  H  H147  1  0.083500  0.744200  0.155500  1.0  0.1258
  H  H148  1  0.211500  0.692800  0.167600  1.0  0.1509
  H  H149  1  0.156300  0.624200  0.111800  1.0  0.1264
  H  H150  1  0.240600  0.648400  0.194700  1.0  0.1011
  H  H151  1  0.182900  0.578800  0.140700  1.0  0.1259
  H  H152  1  0.255800  0.571700  0.181100  1.0  0.2912
  H  H153  1  0.126900  0.698300  0.154800  1.0  0.2521
  H  H154  1  0.583500  0.244200  0.655500  1.0  0.1258
  H  H155  1  0.711500  0.192800  0.667600  1.0  0.1509
  H  H156  1  0.656300  0.124200  0.611800  1.0  0.1264
  H  H157  1  0.740600  0.148400  0.694700  1.0  0.1011
  H  H158  1  0.682900  0.078800  0.640700  1.0  0.1259
  H  H159  1  0.755800  0.071700  0.681100  1.0  0.2912
  H  H160  1  0.626900  0.198300  0.654800  1.0  0.2521
  H  H161  1  0.844500  0.916500  0.744200  1.0  0.1255
  H  H162  1  0.832400  0.788500  0.692800  1.0  0.1499
  H  H163  1  0.888200  0.843700  0.624200  1.0  0.125
  H  H164  1  0.805300  0.759400  0.648400  1.0  0.1024
  H  H165  1  0.859300  0.817100  0.578800  1.0  0.1255
  H  H166  1  0.818900  0.744200  0.571700  1.0  0.2901
  H  H167  1  0.845200  0.873100  0.698300  1.0  0.2509
  H  H168  1  0.344500  0.416500  0.244200  1.0  0.1255
  H  H169  1  0.332400  0.288500  0.192800  1.0  0.1499
  H  H170  1  0.388200  0.343700  0.124200  1.0  0.125
  H  H171  1  0.305300  0.259400  0.148400  1.0  0.1024
  H  H172  1  0.359300  0.317100  0.078800  1.0  0.1255
  H  H173  1  0.318900  0.244200  0.071700  1.0  0.2901
  H  H174  1  0.345200  0.373100  0.198300  1.0  0.2509
  H  H175  1  0.155500  0.916500  0.255800  1.0  0.1244
  H  H176  1  0.167600  0.788500  0.307200  1.0  0.1483
  H  H177  1  0.111800  0.843700  0.375800  1.0  0.1234
  H  H178  1  0.194700  0.759400  0.351600  1.0  0.1018
  H  H179  1  0.140700  0.817100  0.421200  1.0  0.1233
  H  H180  1  0.181100  0.744200  0.428300  1.0  0.2849
  H  H181  1  0.154800  0.873100  0.301700  1.0  0.2488
  H  H182  1  0.655500  0.416500  0.755800  1.0  0.1244
  H  H183  1  0.667600  0.288500  0.807200  1.0  0.1483
  H  H184  1  0.611800  0.343700  0.875800  1.0  0.1234
  H  H185  1  0.694700  0.259400  0.851600  1.0  0.1018
  H  H186  1  0.640700  0.317100  0.921200  1.0  0.1233
  H  H187  1  0.681100  0.244200  0.928300  1.0  0.2849
  H  H188  1  0.654800  0.373100  0.801700  1.0  0.2488
  H  H189  1  0.844500  0.083500  0.255800  1.0  0.1254
  H  H190  1  0.832400  0.211500  0.307200  1.0  0.1498
  H  H191  1  0.888200  0.156300  0.375800  1.0  0.1236
  H  H192  1  0.805300  0.240600  0.351600  1.0  0.1026
  H  H193  1  0.859300  0.182900  0.421200  1.0  0.123
  H  H194  1  0.818900  0.255800  0.428300  1.0  0.2898
  H  H195  1  0.845200  0.126900  0.301700  1.0  0.2502
  H  H196  1  0.344500  0.583500  0.755800  1.0  0.1254
  H  H197  1  0.332400  0.711500  0.807200  1.0  0.1498
  H  H198  1  0.388200  0.656300  0.875800  1.0  0.1236
  H  H199  1  0.305300  0.740600  0.851600  1.0  0.1026
  H  H200  1  0.359300  0.682900  0.921200  1.0  0.123
  H  H201  1  0.318900  0.755800  0.928300  1.0  0.2898
  H  H202  1  0.345200  0.626900  0.801700  1.0  0.2502
  H  H203  1  0.155500  0.083500  0.744200  1.0  0.1241
  H  H204  1  0.167600  0.211500  0.692800  1.0  0.1507
  H  H205  1  0.111800  0.156300  0.624200  1.0  0.1236
  H  H206  1  0.194700  0.240600  0.648400  1.0  0.1014
  H  H207  1  0.140700  0.182900  0.578800  1.0  0.1238
  H  H208  1  0.181100  0.255800  0.571700  1.0  0.2946
  H  H209  1  0.154800  0.126900  0.698300  1.0  0.2502
  H  H210  1  0.655500  0.583500  0.244200  1.0  0.1241
  H  H211  1  0.667600  0.711500  0.192800  1.0  0.1507
  H  H212  1  0.611800  0.656300  0.124200  1.0  0.1236
  H  H213  1  0.694700  0.740600  0.148400  1.0  0.1014
  H  H214  1  0.640700  0.682900  0.078800  1.0  0.1238
  H  H215  1  0.681100  0.755800  0.071700  1.0  0.2946
  H  H216  1  0.654800  0.626900  0.198300  1.0  0.2502
  H  H217  1  0.844500  0.744200  0.083500  1.0  0.1251
  H  H218  1  0.832400  0.692800  0.211500  1.0  0.1499
  H  H219  1  0.888200  0.624200  0.156300  1.0  0.1239
  H  H220  1  0.805300  0.648400  0.240600  1.0  0.1021
  H  H221  1  0.859300  0.578800  0.182900  1.0  0.1256
  H  H222  1  0.818900  0.571700  0.255800  1.0  0.2899
  H  H223  1  0.845200  0.698300  0.126900  1.0  0.2527
  H  H224  1  0.344500  0.244200  0.583500  1.0  0.1251
  H  H225  1  0.332400  0.192800  0.711500  1.0  0.1499
  H  H226  1  0.388200  0.124200  0.656300  1.0  0.1239
  H  H227  1  0.305300  0.148400  0.740600  1.0  0.1021
  H  H228  1  0.359300  0.078800  0.682900  1.0  0.1256
  H  H229  1  0.318900  0.071700  0.755800  1.0  0.2899
  H  H230  1  0.345200  0.198300  0.626900  1.0  0.2527
  H  H231  1  0.155500  0.255800  0.083500  1.0  0.1232
  H  H232  1  0.167600  0.307200  0.211500  1.0  0.1497
  H  H233  1  0.111800  0.375800  0.156300  1.0  0.1238
  H  H234  1  0.194700  0.351600  0.240600  1.0  0.1025
  H  H235  1  0.140700  0.421200  0.182900  1.0  0.127
  H  H236  1  0.181100  0.428300  0.255800  1.0  0.2908
  H  H237  1  0.154800  0.301700  0.126900  1.0  0.2544
  H  H238  1  0.655500  0.755800  0.583500  1.0  0.1232
  H  H239  1  0.667600  0.807200  0.711500  1.0  0.1497
  H  H240  1  0.611800  0.875800  0.656300  1.0  0.1238
  H  H241  1  0.694700  0.851600  0.740600  1.0  0.1025
  H  H242  1  0.640700  0.921200  0.682900  1.0  0.127
  H  H243  1  0.681100  0.928300  0.755800  1.0  0.2908
  H  H244  1  0.654800  0.801700  0.626900  1.0  0.2544
  H  H245  1  0.844500  0.255800  0.916500  1.0  0.1251
  H  H246  1  0.832400  0.307200  0.788500  1.0  0.1488
  H  H247  1  0.888200  0.375800  0.843700  1.0  0.1232
  H  H248  1  0.805300  0.351600  0.759400  1.0  0.1025
  H  H249  1  0.859300  0.421200  0.817100  1.0  0.1272
  H  H250  1  0.818900  0.428300  0.744200  1.0  0.2911
  H  H251  1  0.845200  0.301700  0.873100  1.0  0.2538
  H  H252  1  0.344500  0.755800  0.416500  1.0  0.1251
  H  H253  1  0.332400  0.807200  0.288500  1.0  0.1488
  H  H254  1  0.388200  0.875800  0.343700  1.0  0.1232
  H  H255  1  0.305300  0.851600  0.259400  1.0  0.1025
  H  H256  1  0.359300  0.921200  0.317100  1.0  0.1272
  H  H257  1  0.318900  0.928300  0.244200  1.0  0.2911
  H  H258  1  0.345200  0.801700  0.373100  1.0  0.2538
  H  H259  1  0.155500  0.744200  0.916500  1.0  0.1242
  H  H260  1  0.167600  0.692800  0.788500  1.0  0.1499
  H  H261  1  0.111800  0.624200  0.843700  1.0  0.1221
  H  H262  1  0.194700  0.648400  0.759400  1.0  0.102
  H  H263  1  0.140700  0.578800  0.817100  1.0  0.1253
  H  H264  1  0.181100  0.571700  0.744200  1.0  0.2927
  H  H265  1  0.154800  0.698300  0.873100  1.0  0.2484
  H  H266  1  0.655500  0.244200  0.416500  1.0  0.1242
  H  H267  1  0.667600  0.192800  0.288500  1.0  0.1499
  H  H268  1  0.611800  0.124200  0.343700  1.0  0.1221
  H  H269  1  0.694700  0.148400  0.259400  1.0  0.102
  H  H270  1  0.640700  0.078800  0.317100  1.0  0.1253
  H  H271  1  0.681100  0.071700  0.244200  1.0  0.2927
  H  H272  1  0.654800  0.198300  0.373100  1.0  0.2484
  H  H273  1  0.744200  0.916500  0.155500  1.0  0.1257
  H  H274  1  0.692800  0.788500  0.167600  1.0  0.1482
  H  H275  1  0.624200  0.843700  0.111800  1.0  0.1269
  H  H276  1  0.648400  0.759400  0.194700  1.0  0.1021
  H  H277  1  0.578800  0.817100  0.140700  1.0  0.1229
  H  H278  1  0.571700  0.744200  0.181100  1.0  0.2849
  H  H279  1  0.698300  0.873100  0.154800  1.0  0.2511
  H  H280  1  0.244200  0.416500  0.655500  1.0  0.1257
  H  H281  1  0.192800  0.288500  0.667600  1.0  0.1482
  H  H282  1  0.124200  0.343700  0.611800  1.0  0.1269
  H  H283  1  0.148400  0.259400  0.694700  1.0  0.1021
  H  H284  1  0.078800  0.317100  0.640700  1.0  0.1229
  H  H285  1  0.071700  0.244200  0.681100  1.0  0.2849
  H  H286  1  0.198300  0.373100  0.654800  1.0  0.2511
  H  H287  1  0.255800  0.916500  0.844500  1.0  0.1237
  H  H288  1  0.307200  0.788500  0.832400  1.0  0.1464
  H  H289  1  0.375800  0.843700  0.888200  1.0  0.1244
  H  H290  1  0.351600  0.759400  0.805300  1.0  0.1023
  H  H291  1  0.421200  0.817100  0.859300  1.0  0.1248
  H  H292  1  0.428300  0.744200  0.818900  1.0  0.2895
  H  H293  1  0.301700  0.873100  0.845200  1.0  0.2516
  H  H294  1  0.755800  0.416500  0.344500  1.0  0.1237
  H  H295  1  0.807200  0.288500  0.332400  1.0  0.1464
  H  H296  1  0.875800  0.343700  0.388200  1.0  0.1244
  H  H297  1  0.851600  0.259400  0.305300  1.0  0.1023
  H  H298  1  0.921200  0.317100  0.359300  1.0  0.1248
  H  H299  1  0.928300  0.244200  0.318900  1.0  0.2895
  H  H300  1  0.801700  0.373100  0.345200  1.0  0.2516
  H  H301  1  0.255800  0.083500  0.155500  1.0  0.1264
  H  H302  1  0.307200  0.211500  0.167600  1.0  0.1474
  H  H303  1  0.375800  0.156300  0.111800  1.0  0.1272
  H  H304  1  0.351600  0.240600  0.194700  1.0  0.1017
  H  H305  1  0.421200  0.182900  0.140700  1.0  0.1261
  H  H306  1  0.428300  0.255800  0.181100  1.0  0.2935
  H  H307  1  0.301700  0.126900  0.154800  1.0  0.2526
  H  H308  1  0.755800  0.583500  0.655500  1.0  0.1264
  H  H309  1  0.807200  0.711500  0.667600  1.0  0.1474
  H  H310  1  0.875800  0.656300  0.611800  1.0  0.1272
  H  H311  1  0.851600  0.740600  0.694700  1.0  0.1017
  H  H312  1  0.921200  0.682900  0.640700  1.0  0.1261
  H  H313  1  0.928300  0.755800  0.681100  1.0  0.2935
  H  H314  1  0.801700  0.626900  0.654800  1.0  0.2526
  H  H315  1  0.744200  0.083500  0.844500  1.0  0.1252
  H  H316  1  0.692800  0.211500  0.832400  1.0  0.1487
  H  H317  1  0.624200  0.156300  0.888200  1.0  0.1249
  H  H318  1  0.648400  0.240600  0.805300  1.0  0.1021
  H  H319  1  0.578800  0.182900  0.859300  1.0  0.1235
  H  H320  1  0.571700  0.255800  0.818900  1.0  0.2929
  H  H321  1  0.698300  0.126900  0.845200  1.0  0.2513
  H  H322  1  0.244200  0.583500  0.344500  1.0  0.1252
  H  H323  1  0.192800  0.711500  0.332400  1.0  0.1487
  H  H324  1  0.124200  0.656300  0.388200  1.0  0.1249
  H  H325  1  0.148400  0.740600  0.305300  1.0  0.1021
  H  H326  1  0.078800  0.682900  0.359300  1.0  0.1235
  H  H327  1  0.071700  0.755800  0.318900  1.0  0.2929
  H  H328  1  0.198300  0.626900  0.345200  1.0  0.2513
  H  H329  1  0.916500  0.844500  0.255800  1.0  0.1254
  H  H330  1  0.788500  0.832400  0.307200  1.0  0.1489
  H  H331  1  0.843700  0.888200  0.375800  1.0  0.1251
  H  H332  1  0.759400  0.805300  0.351600  1.0  0.1021
  H  H333  1  0.817100  0.859300  0.421200  1.0  0.1258
  H  H334  1  0.744200  0.818900  0.428300  1.0  0.2873
  H  H335  1  0.873100  0.845200  0.301700  1.0  0.2494
  H  H336  1  0.416500  0.344500  0.755800  1.0  0.1254
  H  H337  1  0.288500  0.332400  0.807200  1.0  0.1489
  H  H338  1  0.343700  0.388200  0.875800  1.0  0.1251
  H  H339  1  0.259400  0.305300  0.851600  1.0  0.1021
  H  H340  1  0.317100  0.359300  0.921200  1.0  0.1258
  H  H341  1  0.244200  0.318900  0.928300  1.0  0.2873
  H  H342  1  0.373100  0.345200  0.801700  1.0  0.2494
  H  H343  1  0.916500  0.155500  0.744200  1.0  0.1249
  H  H344  1  0.788500  0.167600  0.692800  1.0  0.1502
  H  H345  1  0.843700  0.111800  0.624200  1.0  0.1249
  H  H346  1  0.759400  0.194700  0.648400  1.0  0.1024
  H  H347  1  0.817100  0.140700  0.578800  1.0  0.1264
  H  H348  1  0.744200  0.181100  0.571700  1.0  0.2877
  H  H349  1  0.873100  0.154800  0.698300  1.0  0.2512
  H  H350  1  0.416500  0.655500  0.244200  1.0  0.1249
  H  H351  1  0.288500  0.667600  0.192800  1.0  0.1502
  H  H352  1  0.343700  0.611800  0.124200  1.0  0.1249
  H  H353  1  0.259400  0.694700  0.148400  1.0  0.1024
  H  H354  1  0.317100  0.640700  0.078800  1.0  0.1264
  H  H355  1  0.244200  0.681100  0.071700  1.0  0.2877
  H  H356  1  0.373100  0.654800  0.198300  1.0  0.2512
  H  H357  1  0.083500  0.844500  0.744200  1.0  0.1251
  H  H358  1  0.211500  0.832400  0.692800  1.0  0.15
  H  H359  1  0.156300  0.888200  0.624200  1.0  0.1264
  H  H360  1  0.240600  0.805300  0.648400  1.0  0.1026
  H  H361  1  0.182900  0.859300  0.578800  1.0  0.1281
  H  H362  1  0.255800  0.818900  0.571700  1.0  0.2922
  H  H363  1  0.126900  0.845200  0.698300  1.0  0.2555
  H  H364  1  0.583500  0.344500  0.244200  1.0  0.1251
  H  H365  1  0.711500  0.332400  0.192800  1.0  0.15
  H  H366  1  0.656300  0.388200  0.124200  1.0  0.1264
  H  H367  1  0.740600  0.305300  0.148400  1.0  0.1026
  H  H368  1  0.682900  0.359300  0.078800  1.0  0.1281
  H  H369  1  0.755800  0.318900  0.071700  1.0  0.2922
  H  H370  1  0.626900  0.345200  0.198300  1.0  0.2555
  H  H371  1  0.083500  0.155500  0.255800  1.0  0.1252
  H  H372  1  0.211500  0.167600  0.307200  1.0  0.1497
  H  H373  1  0.156300  0.111800  0.375800  1.0  0.1246
  H  H374  1  0.240600  0.194700  0.351600  1.0  0.1021
  H  H375  1  0.182900  0.140700  0.421200  1.0  0.1246
  H  H376  1  0.255800  0.181100  0.428300  1.0  0.2902
  H  H377  1  0.126900  0.154800  0.301700  1.0  0.2531
  H  H378  1  0.583500  0.655500  0.755800  1.0  0.1252
  H  H379  1  0.711500  0.667600  0.807200  1.0  0.1497
  H  H380  1  0.656300  0.611800  0.875800  1.0  0.1246
  H  H381  1  0.740600  0.694700  0.851600  1.0  0.1021
  H  H382  1  0.682900  0.640700  0.921200  1.0  0.1246
  H  H383  1  0.755800  0.681100  0.928300  1.0  0.2902
  H  H384  1  0.626900  0.654800  0.801700  1.0  0.2531
  H  H385  1  0.255800  0.155500  0.083500  1.0  0.1241
  H  H386  1  0.307200  0.167600  0.211500  1.0  0.1473
  H  H387  1  0.375800  0.111800  0.156300  1.0  0.1246
  H  H388  1  0.351600  0.194700  0.240600  1.0  0.1023
  H  H389  1  0.421200  0.140700  0.182900  1.0  0.1261
  H  H390  1  0.428300  0.181100  0.255800  1.0  0.2902
  H  H391  1  0.301700  0.154800  0.126900  1.0  0.2562
  H  H392  1  0.755800  0.655500  0.583500  1.0  0.1241
  H  H393  1  0.807200  0.667600  0.711500  1.0  0.1473
  H  H394  1  0.875800  0.611800  0.656300  1.0  0.1246
  H  H395  1  0.851600  0.694700  0.740600  1.0  0.1023
  H  H396  1  0.921200  0.640700  0.682900  1.0  0.1261
  H  H397  1  0.928300  0.681100  0.755800  1.0  0.2902
  H  H398  1  0.801700  0.654800  0.626900  1.0  0.2562
  H  H399  1  0.744200  0.844500  0.083500  1.0  0.1257
  H  H400  1  0.692800  0.832400  0.211500  1.0  0.1479
  H  H401  1  0.624200  0.888200  0.156300  1.0  0.1265
  H  H402  1  0.648400  0.805300  0.240600  1.0  0.1033
  H  H403  1  0.578800  0.859300  0.182900  1.0  0.1258
  H  H404  1  0.571700  0.818900  0.255800  1.0  0.2913
  H  H405  1  0.698300  0.845200  0.126900  1.0  0.2572
  H  H406  1  0.244200  0.344500  0.583500  1.0  0.1257
  H  H407  1  0.192800  0.332400  0.711500  1.0  0.1479
  H  H408  1  0.124200  0.388200  0.656300  1.0  0.1265
  H  H409  1  0.148400  0.305300  0.740600  1.0  0.1033
  H  H410  1  0.078800  0.359300  0.682900  1.0  0.1258
  H  H411  1  0.071700  0.318900  0.755800  1.0  0.2913
  H  H412  1  0.198300  0.345200  0.626900  1.0  0.2572
  H  H413  1  0.744200  0.155500  0.916500  1.0  0.1252
  H  H414  1  0.692800  0.167600  0.788500  1.0  0.1483
  H  H415  1  0.624200  0.111800  0.843700  1.0  0.124
  H  H416  1  0.648400  0.194700  0.759400  1.0  0.1022
  H  H417  1  0.578800  0.140700  0.817100  1.0  0.1236
  H  H418  1  0.571700  0.181100  0.744200  1.0  0.2908
  H  H419  1  0.698300  0.154800  0.873100  1.0  0.2536
  H  H420  1  0.244200  0.655500  0.416500  1.0  0.1252
  H  H421  1  0.192800  0.667600  0.288500  1.0  0.1483
  H  H422  1  0.124200  0.611800  0.343700  1.0  0.124
  H  H423  1  0.148400  0.694700  0.259400  1.0  0.1022
  H  H424  1  0.078800  0.640700  0.317100  1.0  0.1236
  H  H425  1  0.071700  0.681100  0.244200  1.0  0.2908
  H  H426  1  0.198300  0.654800  0.373100  1.0  0.2536
  H  H427  1  0.255800  0.844500  0.916500  1.0  0.1252
  H  H428  1  0.307200  0.832400  0.788500  1.0  0.1462
  H  H429  1  0.375800  0.888200  0.843700  1.0  0.1245
  H  H430  1  0.351600  0.805300  0.759400  1.0  0.1025
  H  H431  1  0.421200  0.859300  0.817100  1.0  0.1276
  H  H432  1  0.428300  0.818900  0.744200  1.0  0.2933
  H  H433  1  0.301700  0.845200  0.873100  1.0  0.2552
  H  H434  1  0.755800  0.344500  0.416500  1.0  0.1252
  H  H435  1  0.807200  0.332400  0.288500  1.0  0.1462
  H  H436  1  0.875800  0.388200  0.343700  1.0  0.1245
  H  H437  1  0.851600  0.305300  0.259400  1.0  0.1025
  H  H438  1  0.921200  0.359300  0.317100  1.0  0.1276
  H  H439  1  0.928300  0.318900  0.244200  1.0  0.2933
  H  H440  1  0.801700  0.345200  0.373100  1.0  0.2552
  H  H441  1  0.083500  0.255800  0.155500  1.0  0.1255
  H  H442  1  0.211500  0.307200  0.167600  1.0  0.1502
  H  H443  1  0.156300  0.375800  0.111800  1.0  0.1273
  H  H444  1  0.240600  0.351600  0.194700  1.0  0.1021
  H  H445  1  0.182900  0.421200  0.140700  1.0  0.1288
  H  H446  1  0.255800  0.428300  0.181100  1.0  0.2913
  H  H447  1  0.126900  0.301700  0.154800  1.0  0.2559
  H  H448  1  0.583500  0.755800  0.655500  1.0  0.1255
  H  H449  1  0.711500  0.807200  0.667600  1.0  0.1502
  H  H450  1  0.656300  0.875800  0.611800  1.0  0.1273
  H  H451  1  0.740600  0.851600  0.694700  1.0  0.1021
  H  H452  1  0.682900  0.921200  0.640700  1.0  0.1288
  H  H453  1  0.755800  0.928300  0.681100  1.0  0.2913
  H  H454  1  0.626900  0.801700  0.654800  1.0  0.2559
  H  H455  1  0.083500  0.744200  0.844500  1.0  0.1249
  H  H456  1  0.211500  0.692800  0.832400  1.0  0.1506
  H  H457  1  0.156300  0.624200  0.888200  1.0  0.1246
  H  H458  1  0.240600  0.648400  0.805300  1.0  0.1018
  H  H459  1  0.182900  0.578800  0.859300  1.0  0.1273
  H  H460  1  0.255800  0.571700  0.818900  1.0  0.2914
  H  H461  1  0.126900  0.698300  0.845200  1.0  0.2508
  H  H462  1  0.583500  0.244200  0.344500  1.0  0.1249
  H  H463  1  0.711500  0.192800  0.332400  1.0  0.1506
  H  H464  1  0.656300  0.124200  0.388200  1.0  0.1246
  H  H465  1  0.740600  0.148400  0.305300  1.0  0.1018
  H  H466  1  0.682900  0.078800  0.359300  1.0  0.1273
  H  H467  1  0.755800  0.071700  0.318900  1.0  0.2914
  H  H468  1  0.626900  0.198300  0.345200  1.0  0.2508
  H  H469  1  0.916500  0.744200  0.155500  1.0  0.1265
  H  H470  1  0.788500  0.692800  0.167600  1.0  0.1507
  H  H471  1  0.843700  0.624200  0.111800  1.0  0.1272
  H  H472  1  0.759400  0.648400  0.194700  1.0  0.1014
  H  H473  1  0.817100  0.578800  0.140700  1.0  0.127
  H  H474  1  0.744200  0.571700  0.181100  1.0  0.2862
  H  H475  1  0.873100  0.698300  0.154800  1.0  0.2467
  H  H476  1  0.416500  0.244200  0.655500  1.0  0.1265
  H  H477  1  0.288500  0.192800  0.667600  1.0  0.1507
  H  H478  1  0.343700  0.124200  0.611800  1.0  0.1272
  H  H479  1  0.259400  0.148400  0.694700  1.0  0.1014
  H  H480  1  0.317100  0.078800  0.640700  1.0  0.127
  H  H481  1  0.244200  0.071700  0.681100  1.0  0.2862
  H  H482  1  0.373100  0.198300  0.654800  1.0  0.2467
  H  H483  1  0.916500  0.255800  0.844500  1.0  0.1238
  H  H484  1  0.788500  0.307200  0.832400  1.0  0.1498
  H  H485  1  0.843700  0.375800  0.888200  1.0  0.125
  H  H486  1  0.759400  0.351600  0.805300  1.0  0.1022
  H  H487  1  0.817100  0.421200  0.859300  1.0  0.1281
  H  H488  1  0.744200  0.428300  0.818900  1.0  0.2894
  H  H489  1  0.873100  0.301700  0.845200  1.0  0.2492
  H  H490  1  0.416500  0.755800  0.344500  1.0  0.1238
  H  H491  1  0.288500  0.807200  0.332400  1.0  0.1498
  H  H492  1  0.343700  0.875800  0.388200  1.0  0.125
  H  H493  1  0.259400  0.851600  0.305300  1.0  0.1022
  H  H494  1  0.317100  0.921200  0.359300  1.0  0.1281
  H  H495  1  0.244200  0.928300  0.318900  1.0  0.2894
  H  H496  1  0.373100  0.801700  0.345200  1.0  0.2492
  H  H497  1  0.155500  0.083500  0.255800  1.0  0.1242
  H  H498  1  0.167600  0.211500  0.307200  1.0  0.1494
  H  H499  1  0.111800  0.156300  0.375800  1.0  0.1233
  H  H500  1  0.194700  0.240600  0.351600  1.0  0.1022
  H  H501  1  0.140700  0.182900  0.421200  1.0  0.1235
  H  H502  1  0.181100  0.255800  0.428300  1.0  0.2922
  H  H503  1  0.154800  0.126900  0.301700  1.0  0.2488
  H  H504  1  0.655500  0.583500  0.755800  1.0  0.1242
  H  H505  1  0.667600  0.711500  0.807200  1.0  0.1494
  H  H506  1  0.611800  0.656300  0.875800  1.0  0.1233
  H  H507  1  0.694700  0.740600  0.851600  1.0  0.1022
  H  H508  1  0.640700  0.682900  0.921200  1.0  0.1235
  H  H509  1  0.681100  0.755800  0.928300  1.0  0.2922
  H  H510  1  0.654800  0.626900  0.801700  1.0  0.2488
  H  H511  1  0.844500  0.083500  0.744200  1.0  0.1255
  H  H512  1  0.832400  0.211500  0.692800  1.0  0.1502
  H  H513  1  0.888200  0.156300  0.624200  1.0  0.1246
  H  H514  1  0.805300  0.240600  0.648400  1.0  0.102
  H  H515  1  0.859300  0.182900  0.578800  1.0  0.1246
  H  H516  1  0.818900  0.255800  0.571700  1.0  0.2932
  H  H517  1  0.845200  0.126900  0.698300  1.0  0.2513
  H  H518  1  0.344500  0.583500  0.244200  1.0  0.1255
  H  H519  1  0.332400  0.711500  0.192800  1.0  0.1502
  H  H520  1  0.388200  0.656300  0.124200  1.0  0.1246
  H  H521  1  0.305300  0.740600  0.148400  1.0  0.102
  H  H522  1  0.359300  0.682900  0.078800  1.0  0.1246
  H  H523  1  0.318900  0.755800  0.071700  1.0  0.2932
  H  H524  1  0.345200  0.626900  0.198300  1.0  0.2513
  H  H525  1  0.155500  0.916500  0.744200  1.0  0.124
  H  H526  1  0.167600  0.788500  0.692800  1.0  0.15
  H  H527  1  0.111800  0.843700  0.624200  1.0  0.1239
  H  H528  1  0.194700  0.759400  0.648400  1.0  0.1022
  H  H529  1  0.140700  0.817100  0.578800  1.0  0.1249
  H  H530  1  0.181100  0.744200  0.571700  1.0  0.287
  H  H531  1  0.154800  0.873100  0.698300  1.0  0.2497
  H  H532  1  0.655500  0.416500  0.244200  1.0  0.124
  H  H533  1  0.667600  0.288500  0.192800  1.0  0.15
  H  H534  1  0.611800  0.343700  0.124200  1.0  0.1239
  H  H535  1  0.694700  0.259400  0.148400  1.0  0.1022
  H  H536  1  0.640700  0.317100  0.078800  1.0  0.1249
  H  H537  1  0.681100  0.244200  0.071700  1.0  0.287
  H  H538  1  0.654800  0.373100  0.198300  1.0  0.2497
  H  H539  1  0.844500  0.916500  0.255800  1.0  0.1255
  H  H540  1  0.832400  0.788500  0.307200  1.0  0.1489
  H  H541  1  0.888200  0.843700  0.375800  1.0  0.1237
  H  H542  1  0.805300  0.759400  0.351600  1.0  0.1018
  H  H543  1  0.859300  0.817100  0.421200  1.0  0.1228
  H  H544  1  0.818900  0.744200  0.428300  1.0  0.2863
  H  H545  1  0.845200  0.873100  0.301700  1.0  0.2503
  H  H546  1  0.344500  0.416500  0.755800  1.0  0.1255
  H  H547  1  0.332400  0.288500  0.807200  1.0  0.1489
  H  H548  1  0.388200  0.343700  0.875800  1.0  0.1237
  H  H549  1  0.305300  0.259400  0.851600  1.0  0.1018
  H  H550  1  0.359300  0.317100  0.921200  1.0  0.1228
  H  H551  1  0.318900  0.244200  0.928300  1.0  0.2863
  H  H552  1  0.345200  0.373100  0.801700  1.0  0.2503
  H  H553  1  0.155500  0.255800  0.916500  1.0  0.1244
  H  H554  1  0.167600  0.307200  0.788500  1.0  0.1493
  H  H555  1  0.111800  0.375800  0.843700  1.0  0.1226
  H  H556  1  0.194700  0.351600  0.759400  1.0  0.102
  H  H557  1  0.140700  0.421200  0.817100  1.0  0.1271
  H  H558  1  0.181100  0.428300  0.744200  1.0  0.2909
  H  H559  1  0.154800  0.301700  0.873100  1.0  0.252
  H  H560  1  0.655500  0.755800  0.416500  1.0  0.1244
  H  H561  1  0.667600  0.807200  0.288500  1.0  0.1493
  H  H562  1  0.611800  0.875800  0.343700  1.0  0.1226
  H  H563  1  0.694700  0.851600  0.259400  1.0  0.102
  H  H564  1  0.640700  0.921200  0.317100  1.0  0.1271
  H  H565  1  0.681100  0.928300  0.244200  1.0  0.2909
  H  H566  1  0.654800  0.801700  0.373100  1.0  0.252
  H  H567  1  0.844500  0.744200  0.916500  1.0  0.1253
  H  H568  1  0.832400  0.692800  0.788500  1.0  0.1498
  H  H569  1  0.888200  0.624200  0.843700  1.0  0.1228
  H  H570  1  0.805300  0.648400  0.759400  1.0  0.1026
  H  H571  1  0.859300  0.578800  0.817100  1.0  0.1257
  H  H572  1  0.818900  0.571700  0.744200  1.0  0.2934
  H  H573  1  0.845200  0.698300  0.873100  1.0  0.2499
  H  H574  1  0.344500  0.244200  0.416500  1.0  0.1253
  H  H575  1  0.332400  0.192800  0.288500  1.0  0.1498
  H  H576  1  0.388200  0.124200  0.343700  1.0  0.1228
  H  H577  1  0.305300  0.148400  0.259400  1.0  0.1026
  H  H578  1  0.359300  0.078800  0.317100  1.0  0.1257
  H  H579  1  0.318900  0.071700  0.244200  1.0  0.2934
  H  H580  1  0.345200  0.198300  0.373100  1.0  0.2499
  H  H581  1  0.155500  0.744200  0.083500  1.0  0.1236
  H  H582  1  0.167600  0.692800  0.211500  1.0  0.1501
  H  H583  1  0.111800  0.624200  0.156300  1.0  0.1233
  H  H584  1  0.194700  0.648400  0.240600  1.0  0.102
  H  H585  1  0.140700  0.578800  0.182900  1.0  0.1249
  H  H586  1  0.181100  0.571700  0.255800  1.0  0.2918
  H  H587  1  0.154800  0.698300  0.126900  1.0  0.2518
  H  H588  1  0.655500  0.244200  0.583500  1.0  0.1236
  H  H589  1  0.667600  0.192800  0.711500  1.0  0.1501
  H  H590  1  0.611800  0.124200  0.656300  1.0  0.1233
  H  H591  1  0.694700  0.148400  0.740600  1.0  0.102
  H  H592  1  0.640700  0.078800  0.682900  1.0  0.1249
  H  H593  1  0.681100  0.071700  0.755800  1.0  0.2918
  H  H594  1  0.654800  0.198300  0.626900  1.0  0.2518
  H  H595  1  0.844500  0.255800  0.083500  1.0  0.1249
  H  H596  1  0.832400  0.307200  0.211500  1.0  0.1492
  H  H597  1  0.888200  0.375800  0.156300  1.0  0.1244
  H  H598  1  0.805300  0.351600  0.240600  1.0  0.1026
  H  H599  1  0.859300  0.421200  0.182900  1.0  0.1272
  H  H600  1  0.818900  0.428300  0.255800  1.0  0.2887
  H  H601  1  0.845200  0.301700  0.126900  1.0  0.2548
  H  H602  1  0.344500  0.755800  0.583500  1.0  0.1249
  H  H603  1  0.332400  0.807200  0.711500  1.0  0.1492
  H  H604  1  0.388200  0.875800  0.656300  1.0  0.1244
  H  H605  1  0.305300  0.851600  0.740600  1.0  0.1026
  H  H606  1  0.359300  0.921200  0.682900  1.0  0.1272
  H  H607  1  0.318900  0.928300  0.755800  1.0  0.2887
  H  H608  1  0.345200  0.801700  0.626900  1.0  0.2548
  H  H609  1  0.255800  0.083500  0.844500  1.0  0.1248
  H  H610  1  0.307200  0.211500  0.832400  1.0  0.1479
  H  H611  1  0.375800  0.156300  0.888200  1.0  0.1244
  H  H612  1  0.351600  0.240600  0.805300  1.0  0.103
  H  H613  1  0.421200  0.182900  0.859300  1.0  0.1247
  H  H614  1  0.428300  0.255800  0.818900  1.0  0.2915
  H  H615  1  0.301700  0.126900  0.845200  1.0  0.252
  H  H616  1  0.755800  0.583500  0.344500  1.0  0.1248
  H  H617  1  0.807200  0.711500  0.332400  1.0  0.1479
  H  H618  1  0.875800  0.656300  0.388200  1.0  0.1244
  H  H619  1  0.851600  0.740600  0.305300  1.0  0.103
  H  H620  1  0.921200  0.682900  0.359300  1.0  0.1247
  H  H621  1  0.928300  0.755800  0.318900  1.0  0.2915
  H  H622  1  0.801700  0.626900  0.345200  1.0  0.252
  H  H623  1  0.744200  0.083500  0.155500  1.0  0.1267
  H  H624  1  0.692800  0.211500  0.167600  1.0  0.1489
  H  H625  1  0.624200  0.156300  0.111800  1.0  0.1258
  H  H626  1  0.648400  0.240600  0.194700  1.0  0.1013
  H  H627  1  0.578800  0.182900  0.140700  1.0  0.1224
  H  H628  1  0.571700  0.255800  0.181100  1.0  0.2943
  H  H629  1  0.698300  0.126900  0.154800  1.0  0.2524
  H  H630  1  0.244200  0.583500  0.655500  1.0  0.1267
  H  H631  1  0.192800  0.711500  0.667600  1.0  0.1489
  H  H632  1  0.124200  0.656300  0.611800  1.0  0.1258
  H  H633  1  0.148400  0.740600  0.694700  1.0  0.1013
  H  H634  1  0.078800  0.682900  0.640700  1.0  0.1224
  H  H635  1  0.071700  0.755800  0.681100  1.0  0.2943
  H  H636  1  0.198300  0.626900  0.654800  1.0  0.2524
  H  H637  1  0.744200  0.916500  0.844500  1.0  0.125
  H  H638  1  0.692800  0.788500  0.832400  1.0  0.1475
  H  H639  1  0.624200  0.843700  0.888200  1.0  0.1248
  H  H640  1  0.648400  0.759400  0.805300  1.0  0.1016
  H  H641  1  0.578800  0.817100  0.859300  1.0  0.1234
  H  H642  1  0.571700  0.744200  0.818900  1.0  0.2882
  H  H643  1  0.698300  0.873100  0.845200  1.0  0.2512
  H  H644  1  0.244200  0.416500  0.344500  1.0  0.125
  H  H645  1  0.192800  0.288500  0.332400  1.0  0.1475
  H  H646  1  0.124200  0.343700  0.388200  1.0  0.1248
  H  H647  1  0.148400  0.259400  0.305300  1.0  0.1016
  H  H648  1  0.078800  0.317100  0.359300  1.0  0.1234
  H  H649  1  0.071700  0.244200  0.318900  1.0  0.2882
  H  H650  1  0.198300  0.373100  0.345200  1.0  0.2512
  H  H651  1  0.255800  0.916500  0.155500  1.0  0.1255
  H  H652  1  0.307200  0.788500  0.167600  1.0  0.1462
  H  H653  1  0.375800  0.843700  0.111800  1.0  0.1276
  H  H654  1  0.351600  0.759400  0.194700  1.0  0.1026
  H  H655  1  0.421200  0.817100  0.140700  1.0  0.1268
  H  H656  1  0.428300  0.744200  0.181100  1.0  0.2867
  H  H657  1  0.301700  0.873100  0.154800  1.0  0.2517
  H  H658  1  0.755800  0.416500  0.655500  1.0  0.1255
  H  H659  1  0.807200  0.288500  0.667600  1.0  0.1462
  H  H660  1  0.875800  0.343700  0.611800  1.0  0.1276
  H  H661  1  0.851600  0.259400  0.694700  1.0  0.1026
  H  H662  1  0.921200  0.317100  0.640700  1.0  0.1268
  H  H663  1  0.928300  0.244200  0.681100  1.0  0.2867
  H  H664  1  0.801700  0.373100  0.654800  1.0  0.2517
  H  H665  1  0.083500  0.155500  0.744200  1.0  0.1251
  H  H666  1  0.211500  0.167600  0.692800  1.0  0.1506
  H  H667  1  0.156300  0.111800  0.624200  1.0  0.1242
  H  H668  1  0.240600  0.194700  0.648400  1.0  0.1016
  H  H669  1  0.182900  0.140700  0.578800  1.0  0.1256
  H  H670  1  0.255800  0.181100  0.571700  1.0  0.2917
  H  H671  1  0.126900  0.154800  0.698300  1.0  0.2555
  H  H672  1  0.583500  0.655500  0.244200  1.0  0.1251
  H  H673  1  0.711500  0.667600  0.192800  1.0  0.1506
  H  H674  1  0.656300  0.611800  0.124200  1.0  0.1242
  H  H675  1  0.740600  0.694700  0.148400  1.0  0.1016
  H  H676  1  0.682900  0.640700  0.078800  1.0  0.1256
  H  H677  1  0.755800  0.681100  0.071700  1.0  0.2917
  H  H678  1  0.626900  0.654800  0.198300  1.0  0.2555
  H  H679  1  0.083500  0.844500  0.255800  1.0  0.1248
  H  H680  1  0.211500  0.832400  0.307200  1.0  0.1487
  H  H681  1  0.156300  0.888200  0.375800  1.0  0.1251
  H  H682  1  0.240600  0.805300  0.351600  1.0  0.1023
  H  H683  1  0.182900  0.859300  0.421200  1.0  0.1254
  H  H684  1  0.255800  0.818900  0.428300  1.0  0.2894
  H  H685  1  0.126900  0.845200  0.301700  1.0  0.2541
  H  H686  1  0.583500  0.344500  0.755800  1.0  0.1248
  H  H687  1  0.711500  0.332400  0.807200  1.0  0.1487
  H  H688  1  0.656300  0.388200  0.875800  1.0  0.1251
  H  H689  1  0.740600  0.305300  0.851600  1.0  0.1023
  H  H690  1  0.682900  0.359300  0.921200  1.0  0.1254
  H  H691  1  0.755800  0.318900  0.928300  1.0  0.2894
  H  H692  1  0.626900  0.345200  0.801700  1.0  0.2541
  H  H693  1  0.916500  0.155500  0.255800  1.0  0.1251
  H  H694  1  0.788500  0.167600  0.307200  1.0  0.1498
  H  H695  1  0.843700  0.111800  0.375800  1.0  0.1246
  H  H696  1  0.759400  0.194700  0.351600  1.0  0.1026
  H  H697  1  0.817100  0.140700  0.421200  1.0  0.1254
  H  H698  1  0.744200  0.181100  0.428300  1.0  0.2876
  H  H699  1  0.873100  0.154800  0.301700  1.0  0.2484
  H  H700  1  0.416500  0.655500  0.755800  1.0  0.1251
  H  H701  1  0.288500  0.667600  0.807200  1.0  0.1498
  H  H702  1  0.343700  0.611800  0.875800  1.0  0.1246
  H  H703  1  0.259400  0.694700  0.851600  1.0  0.1026
  H  H704  1  0.317100  0.640700  0.921200  1.0  0.1254
  H  H705  1  0.244200  0.681100  0.928300  1.0  0.2876
  H  H706  1  0.373100  0.654800  0.801700  1.0  0.2484
  H  H707  1  0.916500  0.844500  0.744200  1.0  0.1256
  H  H708  1  0.788500  0.832400  0.692800  1.0  0.15
  H  H709  1  0.843700  0.888200  0.624200  1.0  0.127
  H  H710  1  0.759400  0.805300  0.648400  1.0  0.1028
  H  H711  1  0.817100  0.859300  0.578800  1.0  0.1284
  H  H712  1  0.744200  0.818900  0.571700  1.0  0.2907
  H  H713  1  0.873100  0.845200  0.698300  1.0  0.2512
  H  H714  1  0.416500  0.344500  0.244200  1.0  0.1256
  H  H715  1  0.288500  0.332400  0.192800  1.0  0.15
  H  H716  1  0.343700  0.388200  0.124200  1.0  0.127
  H  H717  1  0.259400  0.305300  0.148400  1.0  0.1028
  H  H718  1  0.317100  0.359300  0.078800  1.0  0.1284
  H  H719  1  0.244200  0.318900  0.071700  1.0  0.2907
  H  H720  1  0.373100  0.345200  0.198300  1.0  0.2512
  H  H721  1  0.500000  0.799800  0.799800  1.0  0.1013
  H  H722  1  0.000000  0.299800  0.299800  1.0  0.1013
  H  H723  1  0.500000  0.200200  0.799800  1.0  0.1015
  H  H724  1  0.000000  0.700200  0.299800  1.0  0.1015
  H  H725  1  0.500000  0.799800  0.200200  1.0  0.1013
  H  H726  1  0.000000  0.299800  0.700200  1.0  0.1013
  H  H727  1  0.500000  0.200200  0.200200  1.0  0.1008
  H  H728  1  0.000000  0.700200  0.700200  1.0  0.1008
  H  H729  1  0.799800  0.500000  0.799800  1.0  0.1006
  H  H730  1  0.299800  0.000000  0.299800  1.0  0.1006
  H  H731  1  0.799800  0.500000  0.200200  1.0  0.1008
  H  H732  1  0.299800  0.000000  0.700200  1.0  0.1008
  H  H733  1  0.200200  0.500000  0.799800  1.0  0.1006
  H  H734  1  0.700200  0.000000  0.299800  1.0  0.1006
  H  H735  1  0.200200  0.500000  0.200200  1.0  0.1
  H  H736  1  0.700200  0.000000  0.700200  1.0  0.1
  H  H737  1  0.799800  0.799800  0.500000  1.0  0.1007
  H  H738  1  0.299800  0.299800  0.000000  1.0  0.1007
  H  H739  1  0.200200  0.799800  0.500000  1.0  0.1001
  H  H740  1  0.700200  0.299800  0.000000  1.0  0.1001
  H  H741  1  0.799800  0.200200  0.500000  1.0  0.1001
  H  H742  1  0.299800  0.700200  0.000000  1.0  0.1001
  H  H743  1  0.200200  0.200200  0.500000  1.0  0.0996
  H  H744  1  0.700200  0.700200  0.000000  1.0  0.0996
  H  H745  1  0.810700  0.925500  0.925500  1.0  0.1377
  H  H746  1  0.550800  0.735300  0.735300  1.0  0.1109
  H  H747  1  0.310700  0.425500  0.425500  1.0  0.1377
  H  H748  1  0.050800  0.235300  0.235300  1.0  0.1109
  H  H749  1  0.189300  0.074500  0.925500  1.0  0.1386
  H  H750  1  0.449200  0.264700  0.735300  1.0  0.1113
  H  H751  1  0.689300  0.574500  0.425500  1.0  0.1386
  H  H752  1  0.949200  0.764700  0.235300  1.0  0.1113
  H  H753  1  0.189300  0.925500  0.074500  1.0  0.1373
  H  H754  1  0.449200  0.735300  0.264700  1.0  0.112
  H  H755  1  0.689300  0.425500  0.574500  1.0  0.1373
  H  H756  1  0.949200  0.235300  0.764700  1.0  0.112
  H  H757  1  0.810700  0.074500  0.074500  1.0  0.1371
  H  H758  1  0.550800  0.264700  0.264700  1.0  0.1116
  H  H759  1  0.310700  0.574500  0.574500  1.0  0.1371
  H  H760  1  0.050800  0.764700  0.764700  1.0  0.1116
  H  H761  1  0.925500  0.810700  0.925500  1.0  0.1373
  H  H762  1  0.735300  0.550800  0.735300  1.0  0.1124
  H  H763  1  0.425500  0.310700  0.425500  1.0  0.1373
  H  H764  1  0.235300  0.050800  0.235300  1.0  0.1124
  H  H765  1  0.925500  0.189300  0.074500  1.0  0.1373
  H  H766  1  0.735300  0.449200  0.264700  1.0  0.1137
  H  H767  1  0.425500  0.689300  0.574500  1.0  0.1373
  H  H768  1  0.235300  0.949200  0.764700  1.0  0.1137
  H  H769  1  0.074500  0.189300  0.925500  1.0  0.1389
  H  H770  1  0.264700  0.449200  0.735300  1.0  0.1129
  H  H771  1  0.574500  0.689300  0.425500  1.0  0.1389
  H  H772  1  0.764700  0.949200  0.235300  1.0  0.1129
  H  H773  1  0.074500  0.810700  0.074500  1.0  0.1371
  H  H774  1  0.264700  0.550800  0.264700  1.0  0.1129
  H  H775  1  0.574500  0.310700  0.574500  1.0  0.1371
  H  H776  1  0.764700  0.050800  0.764700  1.0  0.1129
  H  H777  1  0.925500  0.925500  0.810700  1.0  0.1376
  H  H778  1  0.735300  0.735300  0.550800  1.0  0.1133
  H  H779  1  0.425500  0.425500  0.310700  1.0  0.1376
  H  H780  1  0.235300  0.235300  0.050800  1.0  0.1133
  H  H781  1  0.074500  0.925500  0.189300  1.0  0.1375
  H  H782  1  0.264700  0.735300  0.449200  1.0  0.1123
  H  H783  1  0.574500  0.425500  0.689300  1.0  0.1375
  H  H784  1  0.764700  0.235300  0.949200  1.0  0.1123
  H  H785  1  0.925500  0.074500  0.189300  1.0  0.1373
  H  H786  1  0.735300  0.264700  0.449200  1.0  0.1127
  H  H787  1  0.425500  0.574500  0.689300  1.0  0.1373
  H  H788  1  0.235300  0.764700  0.949200  1.0  0.1127
  H  H789  1  0.074500  0.074500  0.810700  1.0  0.1389
  H  H790  1  0.264700  0.264700  0.550800  1.0  0.1127
  H  H791  1  0.574500  0.574500  0.310700  1.0  0.1389
  H  H792  1  0.764700  0.764700  0.050800  1.0  0.1127
  H  H793  1  0.925500  0.810700  0.074500  1.0  0.1372
  H  H794  1  0.735300  0.550800  0.264700  1.0  0.1131
  H  H795  1  0.425500  0.310700  0.574500  1.0  0.1372
  H  H796  1  0.235300  0.050800  0.764700  1.0  0.1131
  H  H797  1  0.074500  0.189300  0.074500  1.0  0.1376
  H  H798  1  0.264700  0.449200  0.264700  1.0  0.1134
  H  H799  1  0.574500  0.689300  0.574500  1.0  0.1376
  H  H800  1  0.764700  0.949200  0.764700  1.0  0.1134
  H  H801  1  0.925500  0.189300  0.925500  1.0  0.1378
  H  H802  1  0.735300  0.449200  0.735300  1.0  0.1131
  H  H803  1  0.425500  0.689300  0.425500  1.0  0.1378
  H  H804  1  0.235300  0.949200  0.235300  1.0  0.1131
  H  H805  1  0.074500  0.810700  0.925500  1.0  0.1378
  H  H806  1  0.264700  0.550800  0.735300  1.0  0.1122
  H  H807  1  0.574500  0.310700  0.425500  1.0  0.1378
  H  H808  1  0.764700  0.050800  0.235300  1.0  0.1122
  H  H809  1  0.810700  0.925500  0.074500  1.0  0.1374
  H  H810  1  0.550800  0.735300  0.264700  1.0  0.1116
  H  H811  1  0.310700  0.425500  0.574500  1.0  0.1374
  H  H812  1  0.050800  0.235300  0.764700  1.0  0.1116
  H  H813  1  0.189300  0.925500  0.925500  1.0  0.138
  H  H814  1  0.449200  0.735300  0.735300  1.0  0.1112
  H  H815  1  0.689300  0.425500  0.425500  1.0  0.138
  H  H816  1  0.949200  0.235300  0.235300  1.0  0.1112
  H  H817  1  0.189300  0.074500  0.074500  1.0  0.1375
  H  H818  1  0.449200  0.264700  0.264700  1.0  0.1118
  H  H819  1  0.689300  0.574500  0.574500  1.0  0.1375
  H  H820  1  0.949200  0.764700  0.764700  1.0  0.1118
  H  H821  1  0.810700  0.074500  0.925500  1.0  0.1378
  H  H822  1  0.550800  0.264700  0.735300  1.0  0.1109
  H  H823  1  0.310700  0.574500  0.425500  1.0  0.1378
  H  H824  1  0.050800  0.764700  0.235300  1.0  0.1109
  H  H825  1  0.925500  0.925500  0.189300  1.0  0.1376
  H  H826  1  0.735300  0.735300  0.449200  1.0  0.1125
  H  H827  1  0.425500  0.425500  0.689300  1.0  0.1376
  H  H828  1  0.235300  0.235300  0.949200  1.0  0.1125
  H  H829  1  0.925500  0.074500  0.810700  1.0  0.1378
  H  H830  1  0.735300  0.264700  0.550800  1.0  0.1129
  H  H831  1  0.425500  0.574500  0.310700  1.0  0.1378
  H  H832  1  0.235300  0.764700  0.050800  1.0  0.1129
  H  H833  1  0.074500  0.925500  0.810700  1.0  0.1381
  H  H834  1  0.264700  0.735300  0.550800  1.0  0.1128
  H  H835  1  0.574500  0.425500  0.310700  1.0  0.1381
  H  H836  1  0.764700  0.235300  0.050800  1.0  0.1128
  H  H837  1  0.074500  0.074500  0.189300  1.0  0.1378
  H  H838  1  0.264700  0.264700  0.449200  1.0  0.1126
  H  H839  1  0.574500  0.574500  0.689300  1.0  0.1378
  H  H840  1  0.764700  0.764700  0.949200  1.0  0.1126
  C  C841  1  0.799500  0.861740  0.953950  1.0  0.719
  C  C842  1  0.781510  0.880440  0.924880  1.0  -0.1239
  C  C843  1  0.753030  0.865940  0.908630  1.0  -0.1323
  C  C844  1  0.692350  0.881720  0.836700  1.0  0.091
  C  C845  1  0.661970  0.863840  0.818270  1.0  0.0806
  C  C846  1  0.669500  0.838180  0.793540  1.0  -0.0993
  C  C847  1  0.628870  0.871160  0.826700  1.0  -0.122
  C  C848  1  0.643270  0.821680  0.776910  1.0  -0.1073
  C  C849  1  0.601940  0.854120  0.810970  1.0  -0.1605
  C  C850  1  0.609230  0.828590  0.785260  1.0  0.1282
  C  C851  1  0.299500  0.361740  0.453950  1.0  0.719
  C  C852  1  0.281510  0.380440  0.424880  1.0  -0.1239
  C  C853  1  0.253030  0.365940  0.408630  1.0  -0.1323
  C  C854  1  0.192350  0.381720  0.336700  1.0  0.091
  C  C855  1  0.161970  0.363840  0.318270  1.0  0.0806
  C  C856  1  0.169500  0.338180  0.293540  1.0  -0.0993
  C  C857  1  0.128870  0.371160  0.326700  1.0  -0.122
  C  C858  1  0.143270  0.321680  0.276910  1.0  -0.1073
  C  C859  1  0.101940  0.354120  0.310970  1.0  -0.1605
  C  C860  1  0.109230  0.328590  0.285260  1.0  0.1282
  C  C861  1  0.200500  0.138260  0.953950  1.0  0.7185
  C  C862  1  0.218490  0.119560  0.924880  1.0  -0.1246
  C  C863  1  0.246970  0.134060  0.908630  1.0  -0.1328
  C  C864  1  0.307650  0.118280  0.836700  1.0  0.0939
  C  C865  1  0.338030  0.136160  0.818270  1.0  0.0812
  C  C866  1  0.330500  0.161820  0.793540  1.0  -0.1003
  C  C867  1  0.371130  0.128840  0.826700  1.0  -0.1268
  C  C868  1  0.356730  0.178320  0.776910  1.0  -0.107
  C  C869  1  0.398060  0.145880  0.810970  1.0  -0.1654
  C  C870  1  0.390770  0.171410  0.785260  1.0  0.1285
  C  C871  1  0.700500  0.638260  0.453950  1.0  0.7185
  C  C872  1  0.718490  0.619560  0.424880  1.0  -0.1246
  C  C873  1  0.746970  0.634060  0.408630  1.0  -0.1328
  C  C874  1  0.807650  0.618280  0.336700  1.0  0.0939
  C  C875  1  0.838030  0.636160  0.318270  1.0  0.0812
  C  C876  1  0.830500  0.661820  0.293540  1.0  -0.1003
  C  C877  1  0.871130  0.628840  0.326700  1.0  -0.1268
  C  C878  1  0.856730  0.678320  0.276910  1.0  -0.107
  C  C879  1  0.898060  0.645880  0.310970  1.0  -0.1654
  C  C880  1  0.890770  0.671410  0.285260  1.0  0.1285
  C  C881  1  0.200500  0.861740  0.046050  1.0  0.7185
  C  C882  1  0.218490  0.880440  0.075120  1.0  -0.1237
  C  C883  1  0.246970  0.865940  0.091370  1.0  -0.131
  C  C884  1  0.307650  0.881720  0.163300  1.0  0.0879
  C  C885  1  0.338030  0.863840  0.181730  1.0  0.0776
  C  C886  1  0.330500  0.838180  0.206460  1.0  -0.1002
  C  C887  1  0.371130  0.871160  0.173300  1.0  -0.1212
  C  C888  1  0.356730  0.821680  0.223090  1.0  -0.108
  C  C889  1  0.398060  0.854120  0.189030  1.0  -0.1633
  C  C890  1  0.390770  0.828590  0.214740  1.0  0.1287
  C  C891  1  0.700500  0.361740  0.546050  1.0  0.7185
  C  C892  1  0.718490  0.380440  0.575120  1.0  -0.1237
  C  C893  1  0.746970  0.365940  0.591370  1.0  -0.131
  C  C894  1  0.807650  0.381720  0.663300  1.0  0.0879
  C  C895  1  0.838030  0.363840  0.681730  1.0  0.0776
  C  C896  1  0.830500  0.338180  0.706460  1.0  -0.1002
  C  C897  1  0.871130  0.371160  0.673300  1.0  -0.1212
  C  C898  1  0.856730  0.321680  0.723090  1.0  -0.108
  C  C899  1  0.898060  0.354120  0.689030  1.0  -0.1633
  C  C900  1  0.890770  0.328590  0.714740  1.0  0.1287
  C  C901  1  0.799500  0.138260  0.046050  1.0  0.718
  C  C902  1  0.781510  0.119560  0.075120  1.0  -0.1226
  C  C903  1  0.753030  0.134060  0.091370  1.0  -0.1344
  C  C904  1  0.692350  0.118280  0.163300  1.0  0.0916
  C  C905  1  0.661970  0.136160  0.181730  1.0  0.0796
  C  C906  1  0.669500  0.161820  0.206460  1.0  -0.1005
  C  C907  1  0.628870  0.128840  0.173300  1.0  -0.1285
  C  C908  1  0.643270  0.178320  0.223090  1.0  -0.108
  C  C909  1  0.601940  0.145880  0.189030  1.0  -0.1643
  C  C910  1  0.609230  0.171410  0.214740  1.0  0.1236
  C  C911  1  0.299500  0.638260  0.546050  1.0  0.718
  C  C912  1  0.281510  0.619560  0.575120  1.0  -0.1226
  C  C913  1  0.253030  0.634060  0.591370  1.0  -0.1344
  C  C914  1  0.192350  0.618280  0.663300  1.0  0.0916
  C  C915  1  0.161970  0.636160  0.681730  1.0  0.0796
  C  C916  1  0.169500  0.661820  0.706460  1.0  -0.1005
  C  C917  1  0.128870  0.628840  0.673300  1.0  -0.1285
  C  C918  1  0.143270  0.678320  0.723090  1.0  -0.108
  C  C919  1  0.101940  0.645880  0.689030  1.0  -0.1643
  C  C920  1  0.109230  0.671410  0.714740  1.0  0.1236
  C  C921  1  0.953950  0.799500  0.861740  1.0  0.7183
  C  C922  1  0.924880  0.781510  0.880440  1.0  -0.1232
  C  C923  1  0.908630  0.753030  0.865940  1.0  -0.1352
  C  C924  1  0.836700  0.692350  0.881720  1.0  0.0905
  C  C925  1  0.818270  0.661970  0.863840  1.0  0.0794
  C  C926  1  0.793540  0.669500  0.838180  1.0  -0.1004
  C  C927  1  0.826700  0.628870  0.871160  1.0  -0.1232
  C  C928  1  0.776910  0.643270  0.821680  1.0  -0.1131
  C  C929  1  0.810970  0.601940  0.854120  1.0  -0.1603
  C  C930  1  0.785260  0.609230  0.828590  1.0  0.124
  C  C931  1  0.453950  0.299500  0.361740  1.0  0.7183
  C  C932  1  0.424880  0.281510  0.380440  1.0  -0.1232
  C  C933  1  0.408630  0.253030  0.365940  1.0  -0.1352
  C  C934  1  0.336700  0.192350  0.381720  1.0  0.0905
  C  C935  1  0.318270  0.161970  0.363840  1.0  0.0794
  C  C936  1  0.293540  0.169500  0.338180  1.0  -0.1004
  C  C937  1  0.326700  0.128870  0.371160  1.0  -0.1232
  C  C938  1  0.276910  0.143270  0.321680  1.0  -0.1131
  C  C939  1  0.310970  0.101940  0.354120  1.0  -0.1603
  C  C940  1  0.285260  0.109230  0.328590  1.0  0.124
  C  C941  1  0.953950  0.200500  0.138260  1.0  0.7183
  C  C942  1  0.924880  0.218490  0.119560  1.0  -0.1227
  C  C943  1  0.908630  0.246970  0.134060  1.0  -0.1341
  C  C944  1  0.836700  0.307650  0.118280  1.0  0.0956
  C  C945  1  0.818270  0.338030  0.136160  1.0  0.0757
  C  C946  1  0.793540  0.330500  0.161820  1.0  -0.0989
  C  C947  1  0.826700  0.371130  0.128840  1.0  -0.1181
  C  C948  1  0.776910  0.356730  0.178320  1.0  -0.1118
  C  C949  1  0.810970  0.398060  0.145880  1.0  -0.1587
  C  C950  1  0.785260  0.390770  0.171410  1.0  0.1242
  C  C951  1  0.453950  0.700500  0.638260  1.0  0.7183
  C  C952  1  0.424880  0.718490  0.619560  1.0  -0.1227
  C  C953  1  0.408630  0.746970  0.634060  1.0  -0.1341
  C  C954  1  0.336700  0.807650  0.618280  1.0  0.0956
  C  C955  1  0.318270  0.838030  0.636160  1.0  0.0757
  C  C956  1  0.293540  0.830500  0.661820  1.0  -0.0989
  C  C957  1  0.326700  0.871130  0.628840  1.0  -0.1181
  C  C958  1  0.276910  0.856730  0.678320  1.0  -0.1118
  C  C959  1  0.310970  0.898060  0.645880  1.0  -0.1587
  C  C960  1  0.285260  0.890770  0.671410  1.0  0.1242
  C  C961  1  0.046050  0.200500  0.861740  1.0  0.7181
  C  C962  1  0.075120  0.218490  0.880440  1.0  -0.1238
  C  C963  1  0.091370  0.246970  0.865940  1.0  -0.133
  C  C964  1  0.163300  0.307650  0.881720  1.0  0.0917
  C  C965  1  0.181730  0.338030  0.863840  1.0  0.0786
  C  C966  1  0.206460  0.330500  0.838180  1.0  -0.1006
  C  C967  1  0.173300  0.371130  0.871160  1.0  -0.1233
  C  C968  1  0.223090  0.356730  0.821680  1.0  -0.1106
  C  C969  1  0.189030  0.398060  0.854120  1.0  -0.159
  C  C970  1  0.214740  0.390770  0.828590  1.0  0.1252
  C  C971  1  0.546050  0.700500  0.361740  1.0  0.7181
  C  C972  1  0.575120  0.718490  0.380440  1.0  -0.1238
  C  C973  1  0.591370  0.746970  0.365940  1.0  -0.133
  C  C974  1  0.663300  0.807650  0.381720  1.0  0.0917
  C  C975  1  0.681730  0.838030  0.363840  1.0  0.0786
  C  C976  1  0.706460  0.830500  0.338180  1.0  -0.1006
  C  C977  1  0.673300  0.871130  0.371160  1.0  -0.1233
  C  C978  1  0.723090  0.856730  0.321680  1.0  -0.1106
  C  C979  1  0.689030  0.898060  0.354120  1.0  -0.159
  C  C980  1  0.714740  0.890770  0.328590  1.0  0.1252
  C  C981  1  0.046050  0.799500  0.138260  1.0  0.7174
  C  C982  1  0.075120  0.781510  0.119560  1.0  -0.1228
  C  C983  1  0.091370  0.753030  0.134060  1.0  -0.1322
  C  C984  1  0.163300  0.692350  0.118280  1.0  0.096
  C  C985  1  0.181730  0.661970  0.136160  1.0  0.0761
  C  C986  1  0.206460  0.669500  0.161820  1.0  -0.1002
  C  C987  1  0.173300  0.628870  0.128840  1.0  -0.1238
  C  C988  1  0.223090  0.643270  0.178320  1.0  -0.1127
  C  C989  1  0.189030  0.601940  0.145880  1.0  -0.1603
  C  C990  1  0.214740  0.609230  0.171410  1.0  0.1248
  C  C991  1  0.546050  0.299500  0.638260  1.0  0.7174
  C  C992  1  0.575120  0.281510  0.619560  1.0  -0.1228
  C  C993  1  0.591370  0.253030  0.634060  1.0  -0.1322
  C  C994  1  0.663300  0.192350  0.618280  1.0  0.096
  C  C995  1  0.681730  0.161970  0.636160  1.0  0.0761
  C  C996  1  0.706460  0.169500  0.661820  1.0  -0.1002
  C  C997  1  0.673300  0.128870  0.628840  1.0  -0.1238
  C  C998  1  0.723090  0.143270  0.678320  1.0  -0.1127
  C  C999  1  0.689030  0.101940  0.645880  1.0  -0.1603
  C  C1000  1  0.714740  0.109230  0.671410  1.0  0.1248
  C  C1001  1  0.861740  0.953950  0.799500  1.0  0.722
  C  C1002  1  0.880440  0.924880  0.781510  1.0  -0.122
  C  C1003  1  0.865940  0.908630  0.753030  1.0  -0.1346
  C  C1004  1  0.881720  0.836700  0.692350  1.0  0.0924
  C  C1005  1  0.863840  0.818270  0.661970  1.0  0.072
  C  C1006  1  0.838180  0.793540  0.669500  1.0  -0.1007
  C  C1007  1  0.871160  0.826700  0.628870  1.0  -0.1284
  C  C1008  1  0.821680  0.776910  0.643270  1.0  -0.1107
  C  C1009  1  0.854120  0.810970  0.601940  1.0  -0.1619
  C  C1010  1  0.828590  0.785260  0.609230  1.0  0.1179
  C  C1011  1  0.361740  0.453950  0.299500  1.0  0.722
  C  C1012  1  0.380440  0.424880  0.281510  1.0  -0.122
  C  C1013  1  0.365940  0.408630  0.253030  1.0  -0.1346
  C  C1014  1  0.381720  0.336700  0.192350  1.0  0.0924
  C  C1015  1  0.363840  0.318270  0.161970  1.0  0.072
  C  C1016  1  0.338180  0.293540  0.169500  1.0  -0.1007
  C  C1017  1  0.371160  0.326700  0.128870  1.0  -0.1284
  C  C1018  1  0.321680  0.276910  0.143270  1.0  -0.1107
  C  C1019  1  0.354120  0.310970  0.101940  1.0  -0.1619
  C  C1020  1  0.328590  0.285260  0.109230  1.0  0.1179
  C  C1021  1  0.138260  0.953950  0.200500  1.0  0.7204
  C  C1022  1  0.119560  0.924880  0.218490  1.0  -0.1227
  C  C1023  1  0.134060  0.908630  0.246970  1.0  -0.1317
  C  C1024  1  0.118280  0.836700  0.307650  1.0  0.0897
  C  C1025  1  0.136160  0.818270  0.338030  1.0  0.0712
  C  C1026  1  0.161820  0.793540  0.330500  1.0  -0.0991
  C  C1027  1  0.128840  0.826700  0.371130  1.0  -0.1247
  C  C1028  1  0.178320  0.776910  0.356730  1.0  -0.1119
  C  C1029  1  0.145880  0.810970  0.398060  1.0  -0.1584
  C  C1030  1  0.171410  0.785260  0.390770  1.0  0.1197
  C  C1031  1  0.638260  0.453950  0.700500  1.0  0.7204
  C  C1032  1  0.619560  0.424880  0.718490  1.0  -0.1227
  C  C1033  1  0.634060  0.408630  0.746970  1.0  -0.1317
  C  C1034  1  0.618280  0.336700  0.807650  1.0  0.0897
  C  C1035  1  0.636160  0.318270  0.838030  1.0  0.0712
  C  C1036  1  0.661820  0.293540  0.830500  1.0  -0.0991
  C  C1037  1  0.628840  0.326700  0.871130  1.0  -0.1247
  C  C1038  1  0.678320  0.276910  0.856730  1.0  -0.1119
  C  C1039  1  0.645880  0.310970  0.898060  1.0  -0.1584
  C  C1040  1  0.671410  0.285260  0.890770  1.0  0.1197
  C  C1041  1  0.861740  0.046050  0.200500  1.0  0.7218
  C  C1042  1  0.880440  0.075120  0.218490  1.0  -0.1223
  C  C1043  1  0.865940  0.091370  0.246970  1.0  -0.1333
  C  C1044  1  0.881720  0.163300  0.307650  1.0  0.093
  C  C1045  1  0.863840  0.181730  0.338030  1.0  0.0705
  C  C1046  1  0.838180  0.206460  0.330500  1.0  -0.0982
  C  C1047  1  0.871160  0.173300  0.371130  1.0  -0.124
  C  C1048  1  0.821680  0.223090  0.356730  1.0  -0.1114
  C  C1049  1  0.854120  0.189030  0.398060  1.0  -0.1614
  C  C1050  1  0.828590  0.214740  0.390770  1.0  0.1191
  C  C1051  1  0.361740  0.546050  0.700500  1.0  0.7218
  C  C1052  1  0.380440  0.575120  0.718490  1.0  -0.1223
  C  C1053  1  0.365940  0.591370  0.746970  1.0  -0.1333
  C  C1054  1  0.381720  0.663300  0.807650  1.0  0.093
  C  C1055  1  0.363840  0.681730  0.838030  1.0  0.0705
  C  C1056  1  0.338180  0.706460  0.830500  1.0  -0.0982
  C  C1057  1  0.371160  0.673300  0.871130  1.0  -0.124
  C  C1058  1  0.321680  0.723090  0.856730  1.0  -0.1114
  C  C1059  1  0.354120  0.689030  0.898060  1.0  -0.1614
  C  C1060  1  0.328590  0.714740  0.890770  1.0  0.1191
  C  C1061  1  0.138260  0.046050  0.799500  1.0  0.7201
  C  C1062  1  0.119560  0.075120  0.781510  1.0  -0.1235
  C  C1063  1  0.134060  0.091370  0.753030  1.0  -0.133
  C  C1064  1  0.118280  0.163300  0.692350  1.0  0.0919
  C  C1065  1  0.136160  0.181730  0.661970  1.0  0.0713
  C  C1066  1  0.161820  0.206460  0.669500  1.0  -0.099
  C  C1067  1  0.128840  0.173300  0.628870  1.0  -0.1268
  C  C1068  1  0.178320  0.223090  0.643270  1.0  -0.1114
  C  C1069  1  0.145880  0.189030  0.601940  1.0  -0.1592
  C  C1070  1  0.171410  0.214740  0.609230  1.0  0.121
  C  C1071  1  0.638260  0.546050  0.299500  1.0  0.7201
  C  C1072  1  0.619560  0.575120  0.281510  1.0  -0.1235
  C  C1073  1  0.634060  0.591370  0.253030  1.0  -0.133
  C  C1074  1  0.618280  0.663300  0.192350  1.0  0.0919
  C  C1075  1  0.636160  0.681730  0.161970  1.0  0.0713
  C  C1076  1  0.661820  0.706460  0.169500  1.0  -0.099
  C  C1077  1  0.628840  0.673300  0.128870  1.0  -0.1268
  C  C1078  1  0.678320  0.723090  0.143270  1.0  -0.1114
  C  C1079  1  0.645880  0.689030  0.101940  1.0  -0.1592
  C  C1080  1  0.671410  0.714740  0.109230  1.0  0.121
  C  C1081  1  0.861740  0.799500  0.046050  1.0  0.7221
  C  C1082  1  0.880440  0.781510  0.075120  1.0  -0.1224
  C  C1083  1  0.865940  0.753030  0.091370  1.0  -0.1343
  C  C1084  1  0.881720  0.692350  0.163300  1.0  0.0918
  C  C1085  1  0.863840  0.661970  0.181730  1.0  0.0708
  C  C1086  1  0.838180  0.669500  0.206460  1.0  -0.0988
  C  C1087  1  0.871160  0.628870  0.173300  1.0  -0.1293
  C  C1088  1  0.821680  0.643270  0.223090  1.0  -0.1079
  C  C1089  1  0.854120  0.601940  0.189030  1.0  -0.1667
  C  C1090  1  0.828590  0.609230  0.214740  1.0  0.122
  C  C1091  1  0.361740  0.299500  0.546050  1.0  0.7221
  C  C1092  1  0.380440  0.281510  0.575120  1.0  -0.1224
  C  C1093  1  0.365940  0.253030  0.591370  1.0  -0.1343
  C  C1094  1  0.381720  0.192350  0.663300  1.0  0.0918
  C  C1095  1  0.363840  0.161970  0.681730  1.0  0.0708
  C  C1096  1  0.338180  0.169500  0.706460  1.0  -0.0988
  C  C1097  1  0.371160  0.128870  0.673300  1.0  -0.1293
  C  C1098  1  0.321680  0.143270  0.723090  1.0  -0.1079
  C  C1099  1  0.354120  0.101940  0.689030  1.0  -0.1667
  C  C1100  1  0.328590  0.109230  0.714740  1.0  0.122
  C  C1101  1  0.138260  0.200500  0.046050  1.0  0.7209
  C  C1102  1  0.119560  0.218490  0.075120  1.0  -0.1238
  C  C1103  1  0.134060  0.246970  0.091370  1.0  -0.1336
  C  C1104  1  0.118280  0.307650  0.163300  1.0  0.0897
  C  C1105  1  0.136160  0.338030  0.181730  1.0  0.0704
  C  C1106  1  0.161820  0.330500  0.206460  1.0  -0.0985
  C  C1107  1  0.128840  0.371130  0.173300  1.0  -0.1239
  C  C1108  1  0.178320  0.356730  0.223090  1.0  -0.1067
  C  C1109  1  0.145880  0.398060  0.189030  1.0  -0.1628
  C  C1110  1  0.171410  0.390770  0.214740  1.0  0.1228
  C  C1111  1  0.638260  0.700500  0.546050  1.0  0.7209
  C  C1112  1  0.619560  0.718490  0.575120  1.0  -0.1238
  C  C1113  1  0.634060  0.746970  0.591370  1.0  -0.1336
  C  C1114  1  0.618280  0.807650  0.663300  1.0  0.0897
  C  C1115  1  0.636160  0.838030  0.681730  1.0  0.0704
  C  C1116  1  0.661820  0.830500  0.706460  1.0  -0.0985
  C  C1117  1  0.628840  0.871130  0.673300  1.0  -0.1239
  C  C1118  1  0.678320  0.856730  0.723090  1.0  -0.1067
  C  C1119  1  0.645880  0.898060  0.689030  1.0  -0.1628
  C  C1120  1  0.671410  0.890770  0.714740  1.0  0.1228
  C  C1121  1  0.861740  0.200500  0.953950  1.0  0.723
  C  C1122  1  0.880440  0.218490  0.924880  1.0  -0.1234
  C  C1123  1  0.865940  0.246970  0.908630  1.0  -0.1343
  C  C1124  1  0.881720  0.307650  0.836700  1.0  0.0963
  C  C1125  1  0.863840  0.338030  0.818270  1.0  0.0726
  C  C1126  1  0.838180  0.330500  0.793540  1.0  -0.0979
  C  C1127  1  0.871160  0.371130  0.826700  1.0  -0.1236
  C  C1128  1  0.821680  0.356730  0.776910  1.0  -0.1058
  C  C1129  1  0.854120  0.398060  0.810970  1.0  -0.1619
  C  C1130  1  0.828590  0.390770  0.785260  1.0  0.1237
  C  C1131  1  0.361740  0.700500  0.453950  1.0  0.723
  C  C1132  1  0.380440  0.718490  0.424880  1.0  -0.1234
  C  C1133  1  0.365940  0.746970  0.408630  1.0  -0.1343
  C  C1134  1  0.381720  0.807650  0.336700  1.0  0.0963
  C  C1135  1  0.363840  0.838030  0.318270  1.0  0.0726
  C  C1136  1  0.338180  0.830500  0.293540  1.0  -0.0979
  C  C1137  1  0.371160  0.871130  0.326700  1.0  -0.1236
  C  C1138  1  0.321680  0.856730  0.276910  1.0  -0.1058
  C  C1139  1  0.354120  0.898060  0.310970  1.0  -0.1619
  C  C1140  1  0.328590  0.890770  0.285260  1.0  0.1237
  C  C1141  1  0.138260  0.799500  0.953950  1.0  0.7211
  C  C1142  1  0.119560  0.781510  0.924880  1.0  -0.1249
  C  C1143  1  0.134060  0.753030  0.908630  1.0  -0.1326
  C  C1144  1  0.118280  0.692350  0.836700  1.0  0.0911
  C  C1145  1  0.136160  0.661970  0.818270  1.0  0.0723
  C  C1146  1  0.161820  0.669500  0.793540  1.0  -0.0987
  C  C1147  1  0.128840  0.628870  0.826700  1.0  -0.128
  C  C1148  1  0.178320  0.643270  0.776910  1.0  -0.1071
  C  C1149  1  0.145880  0.601940  0.810970  1.0  -0.1646
  C  C1150  1  0.171410  0.609230  0.785260  1.0  0.1254
  C  C1151  1  0.638260  0.299500  0.453950  1.0  0.7211
  C  C1152  1  0.619560  0.281510  0.424880  1.0  -0.1249
  C  C1153  1  0.634060  0.253030  0.408630  1.0  -0.1326
  C  C1154  1  0.618280  0.192350  0.336700  1.0  0.0911
  C  C1155  1  0.636160  0.161970  0.318270  1.0  0.0723
  C  C1156  1  0.661820  0.169500  0.293540  1.0  -0.0987
  C  C1157  1  0.628840  0.128870  0.326700  1.0  -0.128
  C  C1158  1  0.678320  0.143270  0.276910  1.0  -0.1071
  C  C1159  1  0.645880  0.101940  0.310970  1.0  -0.1646
  C  C1160  1  0.671410  0.109230  0.285260  1.0  0.1254
  C  C1161  1  0.799500  0.953950  0.138260  1.0  0.7182
  C  C1162  1  0.781510  0.924880  0.119560  1.0  -0.1215
  C  C1163  1  0.753030  0.908630  0.134060  1.0  -0.1338
  C  C1164  1  0.692350  0.836700  0.118280  1.0  0.0929
  C  C1165  1  0.661970  0.818270  0.136160  1.0  0.0798
  C  C1166  1  0.669500  0.793540  0.161820  1.0  -0.099
  C  C1167  1  0.628870  0.826700  0.128840  1.0  -0.1213
  C  C1168  1  0.643270  0.776910  0.178320  1.0  -0.1119
  C  C1169  1  0.601940  0.810970  0.145880  1.0  -0.1608
  C  C1170  1  0.609230  0.785260  0.171410  1.0  0.1238
  C  C1171  1  0.299500  0.453950  0.638260  1.0  0.7182
  C  C1172  1  0.281510  0.424880  0.619560  1.0  -0.1215
  C  C1173  1  0.253030  0.408630  0.634060  1.0  -0.1338
  C  C1174  1  0.192350  0.336700  0.618280  1.0  0.0929
  C  C1175  1  0.161970  0.318270  0.636160  1.0  0.0798
  C  C1176  1  0.169500  0.293540  0.661820  1.0  -0.099
  C  C1177  1  0.128870  0.326700  0.628840  1.0  -0.1213
  C  C1178  1  0.143270  0.276910  0.678320  1.0  -0.1119
  C  C1179  1  0.101940  0.310970  0.645880  1.0  -0.1608
  C  C1180  1  0.109230  0.285260  0.671410  1.0  0.1238
  C  C1181  1  0.200500  0.953950  0.861740  1.0  0.7184
  C  C1182  1  0.218490  0.924880  0.880440  1.0  -0.1226
  C  C1183  1  0.246970  0.908630  0.865940  1.0  -0.1326
  C  C1184  1  0.307650  0.836700  0.881720  1.0  0.0882
  C  C1185  1  0.338030  0.818270  0.863840  1.0  0.0817
  C  C1186  1  0.330500  0.793540  0.838180  1.0  -0.0989
  C  C1187  1  0.371130  0.826700  0.871160  1.0  -0.1228
  C  C1188  1  0.356730  0.776910  0.821680  1.0  -0.111
  C  C1189  1  0.398060  0.810970  0.854120  1.0  -0.1618
  C  C1190  1  0.390770  0.785260  0.828590  1.0  0.1259
  C  C1191  1  0.700500  0.453950  0.361740  1.0  0.7184
  C  C1192  1  0.718490  0.424880  0.380440  1.0  -0.1226
  C  C1193  1  0.746970  0.408630  0.365940  1.0  -0.1326
  C  C1194  1  0.807650  0.336700  0.381720  1.0  0.0882
  C  C1195  1  0.838030  0.318270  0.363840  1.0  0.0817
  C  C1196  1  0.830500  0.293540  0.338180  1.0  -0.0989
  C  C1197  1  0.871130  0.326700  0.371160  1.0  -0.1228
  C  C1198  1  0.856730  0.276910  0.321680  1.0  -0.111
  C  C1199  1  0.898060  0.310970  0.354120  1.0  -0.1618
  C  C1200  1  0.890770  0.285260  0.328590  1.0  0.1259
  C  C1201  1  0.200500  0.046050  0.138260  1.0  0.7181
  C  C1202  1  0.218490  0.075120  0.119560  1.0  -0.1236
  C  C1203  1  0.246970  0.091370  0.134060  1.0  -0.1313
  C  C1204  1  0.307650  0.163300  0.118280  1.0  0.0936
  C  C1205  1  0.338030  0.181730  0.136160  1.0  0.0784
  C  C1206  1  0.330500  0.206460  0.161820  1.0  -0.0986
  C  C1207  1  0.371130  0.173300  0.128840  1.0  -0.1205
  C  C1208  1  0.356730  0.223090  0.178320  1.0  -0.1116
  C  C1209  1  0.398060  0.189030  0.145880  1.0  -0.1624
  C  C1210  1  0.390770  0.214740  0.171410  1.0  0.1297
  C  C1211  1  0.700500  0.546050  0.638260  1.0  0.7181
  C  C1212  1  0.718490  0.575120  0.619560  1.0  -0.1236
  C  C1213  1  0.746970  0.591370  0.634060  1.0  -0.1313
  C  C1214  1  0.807650  0.663300  0.618280  1.0  0.0936
  C  C1215  1  0.838030  0.681730  0.636160  1.0  0.0784
  C  C1216  1  0.830500  0.706460  0.661820  1.0  -0.0986
  C  C1217  1  0.871130  0.673300  0.628840  1.0  -0.1205
  C  C1218  1  0.856730  0.723090  0.678320  1.0  -0.1116
  C  C1219  1  0.898060  0.689030  0.645880  1.0  -0.1624
  C  C1220  1  0.890770  0.714740  0.671410  1.0  0.1297
  C  C1221  1  0.799500  0.046050  0.861740  1.0  0.7183
  C  C1222  1  0.781510  0.075120  0.880440  1.0  -0.1227
  C  C1223  1  0.753030  0.091370  0.865940  1.0  -0.1339
  C  C1224  1  0.692350  0.163300  0.881720  1.0  0.0887
  C  C1225  1  0.661970  0.181730  0.863840  1.0  0.0822
  C  C1226  1  0.669500  0.206460  0.838180  1.0  -0.0989
  C  C1227  1  0.628870  0.173300  0.871160  1.0  -0.1237
  C  C1228  1  0.643270  0.223090  0.821680  1.0  -0.1119
  C  C1229  1  0.601940  0.189030  0.854120  1.0  -0.1597
  C  C1230  1  0.609230  0.214740  0.828590  1.0  0.1257
  C  C1231  1  0.299500  0.546050  0.361740  1.0  0.7183
  C  C1232  1  0.281510  0.575120  0.380440  1.0  -0.1227
  C  C1233  1  0.253030  0.591370  0.365940  1.0  -0.1339
  C  C1234  1  0.192350  0.663300  0.381720  1.0  0.0887
  C  C1235  1  0.161970  0.681730  0.363840  1.0  0.0822
  C  C1236  1  0.169500  0.706460  0.338180  1.0  -0.0989
  C  C1237  1  0.128870  0.673300  0.371160  1.0  -0.1237
  C  C1238  1  0.143270  0.723090  0.321680  1.0  -0.1119
  C  C1239  1  0.101940  0.689030  0.354120  1.0  -0.1597
  C  C1240  1  0.109230  0.714740  0.328590  1.0  0.1257
  C  C1241  1  0.953950  0.861740  0.200500  1.0  0.7183
  C  C1242  1  0.924880  0.880440  0.218490  1.0  -0.1229
  C  C1243  1  0.908630  0.865940  0.246970  1.0  -0.1327
  C  C1244  1  0.836700  0.881720  0.307650  1.0  0.091
  C  C1245  1  0.818270  0.863840  0.338030  1.0  0.0778
  C  C1246  1  0.793540  0.838180  0.330500  1.0  -0.1009
  C  C1247  1  0.826700  0.871160  0.371130  1.0  -0.1167
  C  C1248  1  0.776910  0.821680  0.356730  1.0  -0.1128
  C  C1249  1  0.810970  0.854120  0.398060  1.0  -0.1588
  C  C1250  1  0.785260  0.828590  0.390770  1.0  0.1213
  C  C1251  1  0.453950  0.361740  0.700500  1.0  0.7183
  C  C1252  1  0.424880  0.380440  0.718490  1.0  -0.1229
  C  C1253  1  0.408630  0.365940  0.746970  1.0  -0.1327
  C  C1254  1  0.336700  0.381720  0.807650  1.0  0.091
  C  C1255  1  0.318270  0.363840  0.838030  1.0  0.0778
  C  C1256  1  0.293540  0.338180  0.830500  1.0  -0.1009
  C  C1257  1  0.326700  0.371160  0.871130  1.0  -0.1167
  C  C1258  1  0.276910  0.321680  0.856730  1.0  -0.1128
  C  C1259  1  0.310970  0.354120  0.898060  1.0  -0.1588
  C  C1260  1  0.285260  0.328590  0.890770  1.0  0.1213
  C  C1261  1  0.953950  0.138260  0.799500  1.0  0.7177
  C  C1262  1  0.924880  0.119560  0.781510  1.0  -0.1237
  C  C1263  1  0.908630  0.134060  0.753030  1.0  -0.1349
  C  C1264  1  0.836700  0.118280  0.692350  1.0  0.0937
  C  C1265  1  0.818270  0.136160  0.661970  1.0  0.0785
  C  C1266  1  0.793540  0.161820  0.669500  1.0  -0.1019
  C  C1267  1  0.826700  0.128840  0.628870  1.0  -0.1279
  C  C1268  1  0.776910  0.178320  0.643270  1.0  -0.1128
  C  C1269  1  0.810970  0.145880  0.601940  1.0  -0.1615
  C  C1270  1  0.785260  0.171410  0.609230  1.0  0.1193
  C  C1271  1  0.453950  0.638260  0.299500  1.0  0.7177
  C  C1272  1  0.424880  0.619560  0.281510  1.0  -0.1237
  C  C1273  1  0.408630  0.634060  0.253030  1.0  -0.1349
  C  C1274  1  0.336700  0.618280  0.192350  1.0  0.0937
  C  C1275  1  0.318270  0.636160  0.161970  1.0  0.0785
  C  C1276  1  0.293540  0.661820  0.169500  1.0  -0.1019
  C  C1277  1  0.326700  0.628840  0.128870  1.0  -0.1279
  C  C1278  1  0.276910  0.678320  0.143270  1.0  -0.1128
  C  C1279  1  0.310970  0.645880  0.101940  1.0  -0.1615
  C  C1280  1  0.285260  0.671410  0.109230  1.0  0.1193
  C  C1281  1  0.046050  0.861740  0.799500  1.0  0.7177
  C  C1282  1  0.075120  0.880440  0.781510  1.0  -0.1231
  C  C1283  1  0.091370  0.865940  0.753030  1.0  -0.1312
  C  C1284  1  0.163300  0.881720  0.692350  1.0  0.0932
  C  C1285  1  0.181730  0.863840  0.661970  1.0  0.076
  C  C1286  1  0.206460  0.838180  0.669500  1.0  -0.1011
  C  C1287  1  0.173300  0.871160  0.628870  1.0  -0.1231
  C  C1288  1  0.223090  0.821680  0.643270  1.0  -0.1119
  C  C1289  1  0.189030  0.854120  0.601940  1.0  -0.1577
  C  C1290  1  0.214740  0.828590  0.609230  1.0  0.1231
  C  C1291  1  0.546050  0.361740  0.299500  1.0  0.7177
  C  C1292  1  0.575120  0.380440  0.281510  1.0  -0.1231
  C  C1293  1  0.591370  0.365940  0.253030  1.0  -0.1312
  C  C1294  1  0.663300  0.381720  0.192350  1.0  0.0932
  C  C1295  1  0.681730  0.363840  0.161970  1.0  0.076
  C  C1296  1  0.706460  0.338180  0.169500  1.0  -0.1011
  C  C1297  1  0.673300  0.371160  0.128870  1.0  -0.1231
  C  C1298  1  0.723090  0.321680  0.143270  1.0  -0.1119
  C  C1299  1  0.689030  0.354120  0.101940  1.0  -0.1577
  C  C1300  1  0.714740  0.328590  0.109230  1.0  0.1231
  C  C1301  1  0.046050  0.138260  0.200500  1.0  0.7177
  C  C1302  1  0.075120  0.119560  0.218490  1.0  -0.1238
  C  C1303  1  0.091370  0.134060  0.246970  1.0  -0.1319
  C  C1304  1  0.163300  0.118280  0.307650  1.0  0.0942
  C  C1305  1  0.181730  0.136160  0.338030  1.0  0.0779
  C  C1306  1  0.206460  0.161820  0.330500  1.0  -0.1016
  C  C1307  1  0.173300  0.128840  0.371130  1.0  -0.1265
  C  C1308  1  0.223090  0.178320  0.356730  1.0  -0.1124
  C  C1309  1  0.189030  0.145880  0.398060  1.0  -0.1589
  C  C1310  1  0.214740  0.171410  0.390770  1.0  0.1209
  C  C1311  1  0.546050  0.638260  0.700500  1.0  0.7177
  C  C1312  1  0.575120  0.619560  0.718490  1.0  -0.1238
  C  C1313  1  0.591370  0.634060  0.746970  1.0  -0.1319
  C  C1314  1  0.663300  0.618280  0.807650  1.0  0.0942
  C  C1315  1  0.681730  0.636160  0.838030  1.0  0.0779
  C  C1316  1  0.706460  0.661820  0.830500  1.0  -0.1016
  C  C1317  1  0.673300  0.628840  0.871130  1.0  -0.1265
  C  C1318  1  0.723090  0.678320  0.856730  1.0  -0.1124
  C  C1319  1  0.689030  0.645880  0.898060  1.0  -0.1589
  C  C1320  1  0.714740  0.671410  0.890770  1.0  0.1209
  C  C1321  1  0.200500  0.138260  0.046050  1.0  0.7182
  C  C1322  1  0.218490  0.119560  0.075120  1.0  -0.1238
  C  C1323  1  0.246970  0.134060  0.091370  1.0  -0.1326
  C  C1324  1  0.307650  0.118280  0.163300  1.0  0.0916
  C  C1325  1  0.338030  0.136160  0.181730  1.0  0.0787
  C  C1326  1  0.330500  0.161820  0.206460  1.0  -0.1
  C  C1327  1  0.371130  0.128840  0.173300  1.0  -0.1266
  C  C1328  1  0.356730  0.178320  0.223090  1.0  -0.1079
  C  C1329  1  0.398060  0.145880  0.189030  1.0  -0.1658
  C  C1330  1  0.390770  0.171410  0.214740  1.0  0.1261
  C  C1331  1  0.700500  0.638260  0.546050  1.0  0.7182
  C  C1332  1  0.718490  0.619560  0.575120  1.0  -0.1238
  C  C1333  1  0.746970  0.634060  0.591370  1.0  -0.1326
  C  C1334  1  0.807650  0.618280  0.663300  1.0  0.0916
  C  C1335  1  0.838030  0.636160  0.681730  1.0  0.0787
  C  C1336  1  0.830500  0.661820  0.706460  1.0  -0.1
  C  C1337  1  0.871130  0.628840  0.673300  1.0  -0.1266
  C  C1338  1  0.856730  0.678320  0.723090  1.0  -0.1079
  C  C1339  1  0.898060  0.645880  0.689030  1.0  -0.1658
  C  C1340  1  0.890770  0.671410  0.714740  1.0  0.1261
  C  C1341  1  0.799500  0.861740  0.046050  1.0  0.7188
  C  C1342  1  0.781510  0.880440  0.075120  1.0  -0.1224
  C  C1343  1  0.753030  0.865940  0.091370  1.0  -0.1323
  C  C1344  1  0.692350  0.881720  0.163300  1.0  0.0895
  C  C1345  1  0.661970  0.863840  0.181730  1.0  0.0794
  C  C1346  1  0.669500  0.838180  0.206460  1.0  -0.1
  C  C1347  1  0.628870  0.871160  0.173300  1.0  -0.1226
  C  C1348  1  0.643270  0.821680  0.223090  1.0  -0.1079
  C  C1349  1  0.601940  0.854120  0.189030  1.0  -0.1615
  C  C1350  1  0.609230  0.828590  0.214740  1.0  0.1249
  C  C1351  1  0.299500  0.361740  0.546050  1.0  0.7188
  C  C1352  1  0.281510  0.380440  0.575120  1.0  -0.1224
  C  C1353  1  0.253030  0.365940  0.591370  1.0  -0.1323
  C  C1354  1  0.192350  0.381720  0.663300  1.0  0.0895
  C  C1355  1  0.161970  0.363840  0.681730  1.0  0.0794
  C  C1356  1  0.169500  0.338180  0.706460  1.0  -0.1
  C  C1357  1  0.128870  0.371160  0.673300  1.0  -0.1226
  C  C1358  1  0.143270  0.321680  0.723090  1.0  -0.1079
  C  C1359  1  0.101940  0.354120  0.689030  1.0  -0.1615
  C  C1360  1  0.109230  0.328590  0.714740  1.0  0.1249
  C  C1361  1  0.799500  0.138260  0.953950  1.0  0.7184
  C  C1362  1  0.781510  0.119560  0.924880  1.0  -0.1241
  C  C1363  1  0.753030  0.134060  0.908630  1.0  -0.1338
  C  C1364  1  0.692350  0.118280  0.836700  1.0  0.0944
  C  C1365  1  0.661970  0.136160  0.818270  1.0  0.0823
  C  C1366  1  0.669500  0.161820  0.793540  1.0  -0.1001
  C  C1367  1  0.628870  0.128840  0.826700  1.0  -0.1284
  C  C1368  1  0.643270  0.178320  0.776910  1.0  -0.1081
  C  C1369  1  0.601940  0.145880  0.810970  1.0  -0.1634
  C  C1370  1  0.609230  0.171410  0.785260  1.0  0.1247
  C  C1371  1  0.299500  0.638260  0.453950  1.0  0.7184
  C  C1372  1  0.281510  0.619560  0.424880  1.0  -0.1241
  C  C1373  1  0.253030  0.634060  0.408630  1.0  -0.1338
  C  C1374  1  0.192350  0.618280  0.336700  1.0  0.0944
  C  C1375  1  0.161970  0.636160  0.318270  1.0  0.0823
  C  C1376  1  0.169500  0.661820  0.293540  1.0  -0.1001
  C  C1377  1  0.128870  0.628840  0.326700  1.0  -0.1284
  C  C1378  1  0.143270  0.678320  0.276910  1.0  -0.1081
  C  C1379  1  0.101940  0.645880  0.310970  1.0  -0.1634
  C  C1380  1  0.109230  0.671410  0.285260  1.0  0.1247
  C  C1381  1  0.200500  0.861740  0.953950  1.0  0.7186
  C  C1382  1  0.218490  0.880440  0.924880  1.0  -0.1244
  C  C1383  1  0.246970  0.865940  0.908630  1.0  -0.1317
  C  C1384  1  0.307650  0.881720  0.836700  1.0  0.0917
  C  C1385  1  0.338030  0.863840  0.818270  1.0  0.0785
  C  C1386  1  0.330500  0.838180  0.793540  1.0  -0.1
  C  C1387  1  0.371130  0.871160  0.826700  1.0  -0.121
  C  C1388  1  0.356730  0.821680  0.776910  1.0  -0.1063
  C  C1389  1  0.398060  0.854120  0.810970  1.0  -0.1622
  C  C1390  1  0.390770  0.828590  0.785260  1.0  0.1322
  C  C1391  1  0.700500  0.361740  0.453950  1.0  0.7186
  C  C1392  1  0.718490  0.380440  0.424880  1.0  -0.1244
  C  C1393  1  0.746970  0.365940  0.408630  1.0  -0.1317
  C  C1394  1  0.807650  0.381720  0.336700  1.0  0.0917
  C  C1395  1  0.838030  0.363840  0.318270  1.0  0.0785
  C  C1396  1  0.830500  0.338180  0.293540  1.0  -0.1
  C  C1397  1  0.871130  0.371160  0.326700  1.0  -0.121
  C  C1398  1  0.856730  0.321680  0.276910  1.0  -0.1063
  C  C1399  1  0.898060  0.354120  0.310970  1.0  -0.1622
  C  C1400  1  0.890770  0.328590  0.285260  1.0  0.1322
  C  C1401  1  0.046050  0.200500  0.138260  1.0  0.718
  C  C1402  1  0.075120  0.218490  0.119560  1.0  -0.1234
  C  C1403  1  0.091370  0.246970  0.134060  1.0  -0.1319
  C  C1404  1  0.163300  0.307650  0.118280  1.0  0.0989
  C  C1405  1  0.181730  0.338030  0.136160  1.0  0.0753
  C  C1406  1  0.206460  0.330500  0.161820  1.0  -0.0999
  C  C1407  1  0.173300  0.371130  0.128840  1.0  -0.1217
  C  C1408  1  0.223090  0.356730  0.178320  1.0  -0.111
  C  C1409  1  0.189030  0.398060  0.145880  1.0  -0.1581
  C  C1410  1  0.214740  0.390770  0.171410  1.0  0.1245
  C  C1411  1  0.546050  0.700500  0.638260  1.0  0.718
  C  C1412  1  0.575120  0.718490  0.619560  1.0  -0.1234
  C  C1413  1  0.591370  0.746970  0.634060  1.0  -0.1319
  C  C1414  1  0.663300  0.807650  0.618280  1.0  0.0989
  C  C1415  1  0.681730  0.838030  0.636160  1.0  0.0753
  C  C1416  1  0.706460  0.830500  0.661820  1.0  -0.0999
  C  C1417  1  0.673300  0.871130  0.628840  1.0  -0.1217
  C  C1418  1  0.723090  0.856730  0.678320  1.0  -0.111
  C  C1419  1  0.689030  0.898060  0.645880  1.0  -0.1581
  C  C1420  1  0.714740  0.890770  0.671410  1.0  0.1245
  C  C1421  1  0.046050  0.799500  0.861740  1.0  0.7177
  C  C1422  1  0.075120  0.781510  0.880440  1.0  -0.123
  C  C1423  1  0.091370  0.753030  0.865940  1.0  -0.1336
  C  C1424  1  0.163300  0.692350  0.881720  1.0  0.0903
  C  C1425  1  0.181730  0.661970  0.863840  1.0  0.0782
  C  C1426  1  0.206460  0.669500  0.838180  1.0  -0.1002
  C  C1427  1  0.173300  0.628870  0.871160  1.0  -0.1238
  C  C1428  1  0.223090  0.643270  0.821680  1.0  -0.1121
  C  C1429  1  0.189030  0.601940  0.854120  1.0  -0.1597
  C  C1430  1  0.214740  0.609230  0.828590  1.0  0.124
  C  C1431  1  0.546050  0.299500  0.361740  1.0  0.7177
  C  C1432  1  0.575120  0.281510  0.380440  1.0  -0.123
  C  C1433  1  0.591370  0.253030  0.365940  1.0  -0.1336
  C  C1434  1  0.663300  0.192350  0.381720  1.0  0.0903
  C  C1435  1  0.681730  0.161970  0.363840  1.0  0.0782
  C  C1436  1  0.706460  0.169500  0.338180  1.0  -0.1002
  C  C1437  1  0.673300  0.128870  0.371160  1.0  -0.1238
  C  C1438  1  0.723090  0.143270  0.321680  1.0  -0.1121
  C  C1439  1  0.689030  0.101940  0.354120  1.0  -0.1597
  C  C1440  1  0.714740  0.109230  0.328590  1.0  0.124
  C  C1441  1  0.953950  0.799500  0.138260  1.0  0.7179
  C  C1442  1  0.924880  0.781510  0.119560  1.0  -0.1229
  C  C1443  1  0.908630  0.753030  0.134060  1.0  -0.1342
  C  C1444  1  0.836700  0.692350  0.118280  1.0  0.094
  C  C1445  1  0.818270  0.661970  0.136160  1.0  0.0767
  C  C1446  1  0.793540  0.669500  0.161820  1.0  -0.1018
  C  C1447  1  0.826700  0.628870  0.128840  1.0  -0.1223
  C  C1448  1  0.776910  0.643270  0.178320  1.0  -0.1127
  C  C1449  1  0.810970  0.601940  0.145880  1.0  -0.1618
  C  C1450  1  0.785260  0.609230  0.171410  1.0  0.125
  C  C1451  1  0.453950  0.299500  0.638260  1.0  0.7179
  C  C1452  1  0.424880  0.281510  0.619560  1.0  -0.1229
  C  C1453  1  0.408630  0.253030  0.634060  1.0  -0.1342
  C  C1454  1  0.336700  0.192350  0.618280  1.0  0.094
  C  C1455  1  0.318270  0.161970  0.636160  1.0  0.0767
  C  C1456  1  0.293540  0.169500  0.661820  1.0  -0.1018
  C  C1457  1  0.326700  0.128870  0.628840  1.0  -0.1223
  C  C1458  1  0.276910  0.143270  0.678320  1.0  -0.1127
  C  C1459  1  0.310970  0.101940  0.645880  1.0  -0.1618
  C  C1460  1  0.285260  0.109230  0.671410  1.0  0.125
  C  C1461  1  0.953950  0.200500  0.861740  1.0  0.7184
  C  C1462  1  0.924880  0.218490  0.880440  1.0  -0.1232
  C  C1463  1  0.908630  0.246970  0.865940  1.0  -0.1351
  C  C1464  1  0.836700  0.307650  0.881720  1.0  0.0911
  C  C1465  1  0.818270  0.338030  0.863840  1.0  0.0796
  C  C1466  1  0.793540  0.330500  0.838180  1.0  -0.0995
  C  C1467  1  0.826700  0.371130  0.871160  1.0  -0.1203
  C  C1468  1  0.776910  0.356730  0.821680  1.0  -0.112
  C  C1469  1  0.810970  0.398060  0.854120  1.0  -0.1584
  C  C1470  1  0.785260  0.390770  0.828590  1.0  0.1244
  C  C1471  1  0.453950  0.700500  0.361740  1.0  0.7184
  C  C1472  1  0.424880  0.718490  0.380440  1.0  -0.1232
  C  C1473  1  0.408630  0.746970  0.365940  1.0  -0.1351
  C  C1474  1  0.336700  0.807650  0.381720  1.0  0.0911
  C  C1475  1  0.318270  0.838030  0.363840  1.0  0.0796
  C  C1476  1  0.293540  0.830500  0.338180  1.0  -0.0995
  C  C1477  1  0.326700  0.871130  0.371160  1.0  -0.1203
  C  C1478  1  0.276910  0.856730  0.321680  1.0  -0.112
  C  C1479  1  0.310970  0.898060  0.354120  1.0  -0.1584
  C  C1480  1  0.285260  0.890770  0.328590  1.0  0.1244
  C  C1481  1  0.138260  0.046050  0.200500  1.0  0.7202
  C  C1482  1  0.119560  0.075120  0.218490  1.0  -0.1237
  C  C1483  1  0.134060  0.091370  0.246970  1.0  -0.1326
  C  C1484  1  0.118280  0.163300  0.307650  1.0  0.0889
  C  C1485  1  0.136160  0.181730  0.338030  1.0  0.071
  C  C1486  1  0.161820  0.206460  0.330500  1.0  -0.0985
  C  C1487  1  0.128840  0.173300  0.371130  1.0  -0.1273
  C  C1488  1  0.178320  0.223090  0.356730  1.0  -0.1114
  C  C1489  1  0.145880  0.189030  0.398060  1.0  -0.1584
  C  C1490  1  0.171410  0.214740  0.390770  1.0  0.12
  C  C1491  1  0.638260  0.546050  0.700500  1.0  0.7202
  C  C1492  1  0.619560  0.575120  0.718490  1.0  -0.1237
  C  C1493  1  0.634060  0.591370  0.746970  1.0  -0.1326
  C  C1494  1  0.618280  0.663300  0.807650  1.0  0.0889
  C  C1495  1  0.636160  0.681730  0.838030  1.0  0.071
  C  C1496  1  0.661820  0.706460  0.830500  1.0  -0.0985
  C  C1497  1  0.628840  0.673300  0.871130  1.0  -0.1273
  C  C1498  1  0.678320  0.723090  0.856730  1.0  -0.1114
  C  C1499  1  0.645880  0.689030  0.898060  1.0  -0.1584
  C  C1500  1  0.671410  0.714740  0.890770  1.0  0.12
  C  C1501  1  0.861740  0.046050  0.799500  1.0  0.7219
  C  C1502  1  0.880440  0.075120  0.781510  1.0  -0.1226
  C  C1503  1  0.865940  0.091370  0.753030  1.0  -0.1337
  C  C1504  1  0.881720  0.163300  0.692350  1.0  0.0924
  C  C1505  1  0.863840  0.181730  0.661970  1.0  0.0707
  C  C1506  1  0.838180  0.206460  0.669500  1.0  -0.0983
  C  C1507  1  0.871160  0.173300  0.628870  1.0  -0.1283
  C  C1508  1  0.821680  0.223090  0.643270  1.0  -0.1111
  C  C1509  1  0.854120  0.189030  0.601940  1.0  -0.1623
  C  C1510  1  0.828590  0.214740  0.609230  1.0  0.1198
  C  C1511  1  0.361740  0.546050  0.299500  1.0  0.7219
  C  C1512  1  0.380440  0.575120  0.281510  1.0  -0.1226
  C  C1513  1  0.365940  0.591370  0.253030  1.0  -0.1337
  C  C1514  1  0.381720  0.663300  0.192350  1.0  0.0924
  C  C1515  1  0.363840  0.681730  0.161970  1.0  0.0707
  C  C1516  1  0.338180  0.706460  0.169500  1.0  -0.0983
  C  C1517  1  0.371160  0.673300  0.128870  1.0  -0.1283
  C  C1518  1  0.321680  0.723090  0.143270  1.0  -0.1111
  C  C1519  1  0.354120  0.689030  0.101940  1.0  -0.1623
  C  C1520  1  0.328590  0.714740  0.109230  1.0  0.1198
  C  C1521  1  0.138260  0.953950  0.799500  1.0  0.7205
  C  C1522  1  0.119560  0.924880  0.781510  1.0  -0.1224
  C  C1523  1  0.134060  0.908630  0.753030  1.0  -0.1322
  C  C1524  1  0.118280  0.836700  0.692350  1.0  0.0911
  C  C1525  1  0.136160  0.818270  0.661970  1.0  0.0714
  C  C1526  1  0.161820  0.793540  0.669500  1.0  -0.0992
  C  C1527  1  0.128840  0.826700  0.628870  1.0  -0.1264
  C  C1528  1  0.178320  0.776910  0.643270  1.0  -0.1116
  C  C1529  1  0.145880  0.810970  0.601940  1.0  -0.1602
  C  C1530  1  0.171410  0.785260  0.609230  1.0  0.1174
  C  C1531  1  0.638260  0.453950  0.299500  1.0  0.7205
  C  C1532  1  0.619560  0.424880  0.281510  1.0  -0.1224
  C  C1533  1  0.634060  0.408630  0.253030  1.0  -0.1322
  C  C1534  1  0.618280  0.336700  0.192350  1.0  0.0911
  C  C1535  1  0.636160  0.318270  0.161970  1.0  0.0714
  C  C1536  1  0.661820  0.293540  0.169500  1.0  -0.0992
  C  C1537  1  0.628840  0.326700  0.128870  1.0  -0.1264
  C  C1538  1  0.678320  0.276910  0.143270  1.0  -0.1116
  C  C1539  1  0.645880  0.310970  0.101940  1.0  -0.1602
  C  C1540  1  0.671410  0.285260  0.109230  1.0  0.1174
  C  C1541  1  0.861740  0.953950  0.200500  1.0  0.7218
  C  C1542  1  0.880440  0.924880  0.218490  1.0  -0.1218
  C  C1543  1  0.865940  0.908630  0.246970  1.0  -0.1342
  C  C1544  1  0.881720  0.836700  0.307650  1.0  0.0932
  C  C1545  1  0.863840  0.818270  0.338030  1.0  0.0723
  C  C1546  1  0.838180  0.793540  0.330500  1.0  -0.0984
  C  C1547  1  0.871160  0.826700  0.371130  1.0  -0.1243
  C  C1548  1  0.821680  0.776910  0.356730  1.0  -0.111
  C  C1549  1  0.854120  0.810970  0.398060  1.0  -0.1607
  C  C1550  1  0.828590  0.785260  0.390770  1.0  0.1192
  C  C1551  1  0.361740  0.453950  0.700500  1.0  0.7218
  C  C1552  1  0.380440  0.424880  0.718490  1.0  -0.1218
  C  C1553  1  0.365940  0.408630  0.746970  1.0  -0.1342
  C  C1554  1  0.381720  0.336700  0.807650  1.0  0.0932
  C  C1555  1  0.363840  0.318270  0.838030  1.0  0.0723
  C  C1556  1  0.338180  0.293540  0.830500  1.0  -0.0984
  C  C1557  1  0.371160  0.326700  0.871130  1.0  -0.1243
  C  C1558  1  0.321680  0.276910  0.856730  1.0  -0.111
  C  C1559  1  0.354120  0.310970  0.898060  1.0  -0.1607
  C  C1560  1  0.328590  0.285260  0.890770  1.0  0.1192
  C  C1561  1  0.138260  0.200500  0.953950  1.0  0.7213
  C  C1562  1  0.119560  0.218490  0.924880  1.0  -0.1246
  C  C1563  1  0.134060  0.246970  0.908630  1.0  -0.1329
  C  C1564  1  0.118280  0.307650  0.836700  1.0  0.0935
  C  C1565  1  0.136160  0.338030  0.818270  1.0  0.0723
  C  C1566  1  0.161820  0.330500  0.793540  1.0  -0.098
  C  C1567  1  0.128840  0.371130  0.826700  1.0  -0.1228
  C  C1568  1  0.178320  0.356730  0.776910  1.0  -0.106
  C  C1569  1  0.145880  0.398060  0.810970  1.0  -0.1629
  C  C1570  1  0.171410  0.390770  0.785260  1.0  0.1246
  C  C1571  1  0.638260  0.700500  0.453950  1.0  0.7213
  C  C1572  1  0.619560  0.718490  0.424880  1.0  -0.1246
  C  C1573  1  0.634060  0.746970  0.408630  1.0  -0.1329
  C  C1574  1  0.618280  0.807650  0.336700  1.0  0.0935
  C  C1575  1  0.636160  0.838030  0.318270  1.0  0.0723
  C  C1576  1  0.661820  0.830500  0.293540  1.0  -0.098
  C  C1577  1  0.628840  0.871130  0.326700  1.0  -0.1228
  C  C1578  1  0.678320  0.856730  0.276910  1.0  -0.106
  C  C1579  1  0.645880  0.898060  0.310970  1.0  -0.1629
  C  C1580  1  0.671410  0.890770  0.285260  1.0  0.1246
  C  C1581  1  0.861740  0.799500  0.953950  1.0  0.7228
  C  C1582  1  0.880440  0.781510  0.924880  1.0  -0.1237
  C  C1583  1  0.865940  0.753030  0.908630  1.0  -0.1345
  C  C1584  1  0.881720  0.692350  0.836700  1.0  0.0925
  C  C1585  1  0.863840  0.661970  0.818270  1.0  0.0727
  C  C1586  1  0.838180  0.669500  0.793540  1.0  -0.0981
  C  C1587  1  0.871160  0.628870  0.826700  1.0  -0.1279
  C  C1588  1  0.821680  0.643270  0.776910  1.0  -0.1063
  C  C1589  1  0.854120  0.601940  0.810970  1.0  -0.1659
  C  C1590  1  0.828590  0.609230  0.785260  1.0  0.1241
  C  C1591  1  0.361740  0.299500  0.453950  1.0  0.7228
  C  C1592  1  0.380440  0.281510  0.424880  1.0  -0.1237
  C  C1593  1  0.365940  0.253030  0.408630  1.0  -0.1345
  C  C1594  1  0.381720  0.192350  0.336700  1.0  0.0925
  C  C1595  1  0.363840  0.161970  0.318270  1.0  0.0727
  C  C1596  1  0.338180  0.169500  0.293540  1.0  -0.0981
  C  C1597  1  0.371160  0.128870  0.326700  1.0  -0.1279
  C  C1598  1  0.321680  0.143270  0.276910  1.0  -0.1063
  C  C1599  1  0.354120  0.101940  0.310970  1.0  -0.1659
  C  C1600  1  0.328590  0.109230  0.285260  1.0  0.1241
  C  C1601  1  0.138260  0.799500  0.046050  1.0  0.7207
  C  C1602  1  0.119560  0.781510  0.075120  1.0  -0.1234
  C  C1603  1  0.134060  0.753030  0.091370  1.0  -0.1327
  C  C1604  1  0.118280  0.692350  0.163300  1.0  0.0885
  C  C1605  1  0.136160  0.661970  0.181730  1.0  0.0706
  C  C1606  1  0.161820  0.669500  0.206460  1.0  -0.0994
  C  C1607  1  0.128840  0.628870  0.173300  1.0  -0.1287
  C  C1608  1  0.178320  0.643270  0.223090  1.0  -0.108
  C  C1609  1  0.145880  0.601940  0.189030  1.0  -0.1652
  C  C1610  1  0.171410  0.609230  0.214740  1.0  0.1225
  C  C1611  1  0.638260  0.299500  0.546050  1.0  0.7207
  C  C1612  1  0.619560  0.281510  0.575120  1.0  -0.1234
  C  C1613  1  0.634060  0.253030  0.591370  1.0  -0.1327
  C  C1614  1  0.618280  0.192350  0.663300  1.0  0.0885
  C  C1615  1  0.636160  0.161970  0.681730  1.0  0.0706
  C  C1616  1  0.661820  0.169500  0.706460  1.0  -0.0994
  C  C1617  1  0.628840  0.128870  0.673300  1.0  -0.1287
  C  C1618  1  0.678320  0.143270  0.723090  1.0  -0.108
  C  C1619  1  0.645880  0.101940  0.689030  1.0  -0.1652
  C  C1620  1  0.671410  0.109230  0.714740  1.0  0.1225
  C  C1621  1  0.861740  0.200500  0.046050  1.0  0.7223
  C  C1622  1  0.880440  0.218490  0.075120  1.0  -0.1226
  C  C1623  1  0.865940  0.246970  0.091370  1.0  -0.1348
  C  C1624  1  0.881720  0.307650  0.163300  1.0  0.0949
  C  C1625  1  0.863840  0.338030  0.181730  1.0  0.0707
  C  C1626  1  0.838180  0.330500  0.206460  1.0  -0.0993
  C  C1627  1  0.871160  0.371130  0.173300  1.0  -0.1259
  C  C1628  1  0.821680  0.356730  0.223090  1.0  -0.1072
  C  C1629  1  0.854120  0.398060  0.189030  1.0  -0.163
  C  C1630  1  0.828590  0.390770  0.214740  1.0  0.123
  C  C1631  1  0.361740  0.700500  0.546050  1.0  0.7223
  C  C1632  1  0.380440  0.718490  0.575120  1.0  -0.1226
  C  C1633  1  0.365940  0.746970  0.591370  1.0  -0.1348
  C  C1634  1  0.381720  0.807650  0.663300  1.0  0.0949
  C  C1635  1  0.363840  0.838030  0.681730  1.0  0.0707
  C  C1636  1  0.338180  0.830500  0.706460  1.0  -0.0993
  C  C1637  1  0.371160  0.871130  0.673300  1.0  -0.1259
  C  C1638  1  0.321680  0.856730  0.723090  1.0  -0.1072
  C  C1639  1  0.354120  0.898060  0.689030  1.0  -0.163
  C  C1640  1  0.328590  0.890770  0.714740  1.0  0.123
  C  C1641  1  0.200500  0.046050  0.861740  1.0  0.7182
  C  C1642  1  0.218490  0.075120  0.880440  1.0  -0.1239
  C  C1643  1  0.246970  0.091370  0.865940  1.0  -0.1328
  C  C1644  1  0.307650  0.163300  0.881720  1.0  0.0866
  C  C1645  1  0.338030  0.181730  0.863840  1.0  0.0816
  C  C1646  1  0.330500  0.206460  0.838180  1.0  -0.0987
  C  C1647  1  0.371130  0.173300  0.871160  1.0  -0.121
  C  C1648  1  0.356730  0.223090  0.821680  1.0  -0.1115
  C  C1649  1  0.398060  0.189030  0.854120  1.0  -0.161
  C  C1650  1  0.390770  0.214740  0.828590  1.0  0.128
  C  C1651  1  0.700500  0.546050  0.361740  1.0  0.7182
  C  C1652  1  0.718490  0.575120  0.380440  1.0  -0.1239
  C  C1653  1  0.746970  0.591370  0.365940  1.0  -0.1328
  C  C1654  1  0.807650  0.663300  0.381720  1.0  0.0866
  C  C1655  1  0.838030  0.681730  0.363840  1.0  0.0816
  C  C1656  1  0.830500  0.706460  0.338180  1.0  -0.0987
  C  C1657  1  0.871130  0.673300  0.371160  1.0  -0.121
  C  C1658  1  0.856730  0.723090  0.321680  1.0  -0.1115
  C  C1659  1  0.898060  0.689030  0.354120  1.0  -0.161
  C  C1660  1  0.890770  0.714740  0.328590  1.0  0.128
  C  C1661  1  0.799500  0.046050  0.138260  1.0  0.7181
  C  C1662  1  0.781510  0.075120  0.119560  1.0  -0.1221
  C  C1663  1  0.753030  0.091370  0.134060  1.0  -0.1327
  C  C1664  1  0.692350  0.163300  0.118280  1.0  0.0922
  C  C1665  1  0.661970  0.181730  0.136160  1.0  0.0801
  C  C1666  1  0.669500  0.206460  0.161820  1.0  -0.0985
  C  C1667  1  0.628870  0.173300  0.128840  1.0  -0.1213
  C  C1668  1  0.643270  0.223090  0.178320  1.0  -0.1117
  C  C1669  1  0.601940  0.189030  0.145880  1.0  -0.1601
  C  C1670  1  0.609230  0.214740  0.171410  1.0  0.125
  C  C1671  1  0.299500  0.546050  0.638260  1.0  0.7181
  C  C1672  1  0.281510  0.575120  0.619560  1.0  -0.1221
  C  C1673  1  0.253030  0.591370  0.634060  1.0  -0.1327
  C  C1674  1  0.192350  0.663300  0.618280  1.0  0.0922
  C  C1675  1  0.161970  0.681730  0.636160  1.0  0.0801
  C  C1676  1  0.169500  0.706460  0.661820  1.0  -0.0985
  C  C1677  1  0.128870  0.673300  0.628840  1.0  -0.1213
  C  C1678  1  0.143270  0.723090  0.678320  1.0  -0.1117
  C  C1679  1  0.101940  0.689030  0.645880  1.0  -0.1601
  C  C1680  1  0.109230  0.714740  0.671410  1.0  0.125
  C  C1681  1  0.799500  0.953950  0.861740  1.0  0.7185
  C  C1682  1  0.781510  0.924880  0.880440  1.0  -0.122
  C  C1683  1  0.753030  0.908630  0.865940  1.0  -0.1343
  C  C1684  1  0.692350  0.836700  0.881720  1.0  0.0904
  C  C1685  1  0.661970  0.818270  0.863840  1.0  0.0824
  C  C1686  1  0.669500  0.793540  0.838180  1.0  -0.0997
  C  C1687  1  0.628870  0.826700  0.871160  1.0  -0.1238
  C  C1688  1  0.643270  0.776910  0.821680  1.0  -0.1121
  C  C1689  1  0.601940  0.810970  0.854120  1.0  -0.1594
  C  C1690  1  0.609230  0.785260  0.828590  1.0  0.1246
  C  C1691  1  0.299500  0.453950  0.361740  1.0  0.7185
  C  C1692  1  0.281510  0.424880  0.380440  1.0  -0.122
  C  C1693  1  0.253030  0.408630  0.365940  1.0  -0.1343
  C  C1694  1  0.192350  0.336700  0.381720  1.0  0.0904
  C  C1695  1  0.161970  0.318270  0.363840  1.0  0.0824
  C  C1696  1  0.169500  0.293540  0.338180  1.0  -0.0997
  C  C1697  1  0.128870  0.326700  0.371160  1.0  -0.1238
  C  C1698  1  0.143270  0.276910  0.321680  1.0  -0.1121
  C  C1699  1  0.101940  0.310970  0.354120  1.0  -0.1594
  C  C1700  1  0.109230  0.285260  0.328590  1.0  0.1246
  C  C1701  1  0.200500  0.953950  0.138260  1.0  0.7181
  C  C1702  1  0.218490  0.924880  0.119560  1.0  -0.1221
  C  C1703  1  0.246970  0.908630  0.134060  1.0  -0.1317
  C  C1704  1  0.307650  0.836700  0.118280  1.0  0.0935
  C  C1705  1  0.338030  0.818270  0.136160  1.0  0.0781
  C  C1706  1  0.330500  0.793540  0.161820  1.0  -0.0985
  C  C1707  1  0.371130  0.826700  0.128840  1.0  -0.1219
  C  C1708  1  0.356730  0.776910  0.178320  1.0  -0.1109
  C  C1709  1  0.398060  0.810970  0.145880  1.0  -0.1637
  C  C1710  1  0.390770  0.785260  0.171410  1.0  0.128
  C  C1711  1  0.700500  0.453950  0.638260  1.0  0.7181
  C  C1712  1  0.718490  0.424880  0.619560  1.0  -0.1221
  C  C1713  1  0.746970  0.408630  0.634060  1.0  -0.1317
  C  C1714  1  0.807650  0.336700  0.618280  1.0  0.0935
  C  C1715  1  0.838030  0.318270  0.636160  1.0  0.0781
  C  C1716  1  0.830500  0.293540  0.661820  1.0  -0.0985
  C  C1717  1  0.871130  0.326700  0.628840  1.0  -0.1219
  C  C1718  1  0.856730  0.276910  0.678320  1.0  -0.1109
  C  C1719  1  0.898060  0.310970  0.645880  1.0  -0.1637
  C  C1720  1  0.890770  0.285260  0.671410  1.0  0.128
  C  C1721  1  0.046050  0.138260  0.799500  1.0  0.7176
  C  C1722  1  0.075120  0.119560  0.781510  1.0  -0.1235
  C  C1723  1  0.091370  0.134060  0.753030  1.0  -0.1326
  C  C1724  1  0.163300  0.118280  0.692350  1.0  0.0952
  C  C1725  1  0.181730  0.136160  0.661970  1.0  0.0774
  C  C1726  1  0.206460  0.161820  0.669500  1.0  -0.1014
  C  C1727  1  0.173300  0.128840  0.628870  1.0  -0.1282
  C  C1728  1  0.223090  0.178320  0.643270  1.0  -0.1125
  C  C1729  1  0.189030  0.145880  0.601940  1.0  -0.1592
  C  C1730  1  0.214740  0.171410  0.609230  1.0  0.1193
  C  C1731  1  0.546050  0.638260  0.299500  1.0  0.7176
  C  C1732  1  0.575120  0.619560  0.281510  1.0  -0.1235
  C  C1733  1  0.591370  0.634060  0.253030  1.0  -0.1326
  C  C1734  1  0.663300  0.618280  0.192350  1.0  0.0952
  C  C1735  1  0.681730  0.636160  0.161970  1.0  0.0774
  C  C1736  1  0.706460  0.661820  0.169500  1.0  -0.1014
  C  C1737  1  0.673300  0.628840  0.128870  1.0  -0.1282
  C  C1738  1  0.723090  0.678320  0.143270  1.0  -0.1125
  C  C1739  1  0.689030  0.645880  0.101940  1.0  -0.1592
  C  C1740  1  0.714740  0.671410  0.109230  1.0  0.1193
  C  C1741  1  0.046050  0.861740  0.200500  1.0  0.7179
  C  C1742  1  0.075120  0.880440  0.218490  1.0  -0.1236
  C  C1743  1  0.091370  0.865940  0.246970  1.0  -0.1304
  C  C1744  1  0.163300  0.881720  0.307650  1.0  0.0934
  C  C1745  1  0.181730  0.863840  0.338030  1.0  0.0754
  C  C1746  1  0.206460  0.838180  0.330500  1.0  -0.1009
  C  C1747  1  0.173300  0.871160  0.371130  1.0  -0.1214
  C  C1748  1  0.223090  0.821680  0.356730  1.0  -0.1116
  C  C1749  1  0.189030  0.854120  0.398060  1.0  -0.1591
  C  C1750  1  0.214740  0.828590  0.390770  1.0  0.122
  C  C1751  1  0.546050  0.361740  0.700500  1.0  0.7179
  C  C1752  1  0.575120  0.380440  0.718490  1.0  -0.1236
  C  C1753  1  0.591370  0.365940  0.746970  1.0  -0.1304
  C  C1754  1  0.663300  0.381720  0.807650  1.0  0.0934
  C  C1755  1  0.681730  0.363840  0.838030  1.0  0.0754
  C  C1756  1  0.706460  0.338180  0.830500  1.0  -0.1009
  C  C1757  1  0.673300  0.371160  0.871130  1.0  -0.1214
  C  C1758  1  0.723090  0.321680  0.856730  1.0  -0.1116
  C  C1759  1  0.689030  0.354120  0.898060  1.0  -0.1591
  C  C1760  1  0.714740  0.328590  0.890770  1.0  0.122
  C  C1761  1  0.953950  0.138260  0.200500  1.0  0.7177
  C  C1762  1  0.924880  0.119560  0.218490  1.0  -0.123
  C  C1763  1  0.908630  0.134060  0.246970  1.0  -0.1342
  C  C1764  1  0.836700  0.118280  0.307650  1.0  0.0929
  C  C1765  1  0.818270  0.136160  0.338030  1.0  0.079
  C  C1766  1  0.793540  0.161820  0.330500  1.0  -0.1014
  C  C1767  1  0.826700  0.128840  0.371130  1.0  -0.1238
  C  C1768  1  0.776910  0.178320  0.356730  1.0  -0.1134
  C  C1769  1  0.810970  0.145880  0.398060  1.0  -0.1592
  C  C1770  1  0.785260  0.171410  0.390770  1.0  0.1203
  C  C1771  1  0.453950  0.638260  0.700500  1.0  0.7177
  C  C1772  1  0.424880  0.619560  0.718490  1.0  -0.123
  C  C1773  1  0.408630  0.634060  0.746970  1.0  -0.1342
  C  C1774  1  0.336700  0.618280  0.807650  1.0  0.0929
  C  C1775  1  0.318270  0.636160  0.838030  1.0  0.079
  C  C1776  1  0.293540  0.661820  0.830500  1.0  -0.1014
  C  C1777  1  0.326700  0.628840  0.871130  1.0  -0.1238
  C  C1778  1  0.276910  0.678320  0.856730  1.0  -0.1134
  C  C1779  1  0.310970  0.645880  0.898060  1.0  -0.1592
  C  C1780  1  0.285260  0.671410  0.890770  1.0  0.1203
  C  C1781  1  0.953950  0.861740  0.799500  1.0  0.7183
  C  C1782  1  0.924880  0.880440  0.781510  1.0  -0.1232
  C  C1783  1  0.908630  0.865940  0.753030  1.0  -0.1333
  C  C1784  1  0.836700  0.881720  0.692350  1.0  0.0926
  C  C1785  1  0.818270  0.863840  0.661970  1.0  0.0783
  C  C1786  1  0.793540  0.838180  0.669500  1.0  -0.102
  C  C1787  1  0.826700  0.871160  0.628870  1.0  -0.1207
  C  C1788  1  0.776910  0.821680  0.643270  1.0  -0.1124
  C  C1789  1  0.810970  0.854120  0.601940  1.0  -0.1597
  C  C1790  1  0.785260  0.828590  0.609230  1.0  0.1231
  C  C1791  1  0.453950  0.361740  0.299500  1.0  0.7183
  C  C1792  1  0.424880  0.380440  0.281510  1.0  -0.1232
  C  C1793  1  0.408630  0.365940  0.253030  1.0  -0.1333
  C  C1794  1  0.336700  0.381720  0.192350  1.0  0.0926
  C  C1795  1  0.318270  0.363840  0.161970  1.0  0.0783
  C  C1796  1  0.293540  0.338180  0.169500  1.0  -0.102
  C  C1797  1  0.326700  0.371160  0.128870  1.0  -0.1207
  C  C1798  1  0.276910  0.321680  0.143270  1.0  -0.1124
  C  C1799  1  0.310970  0.354120  0.101940  1.0  -0.1597
  C  C1800  1  0.285260  0.328590  0.109230  1.0  0.1231
  C  C1801  1  0.500000  0.782500  0.782500  1.0  -0.1274
  C  C1802  1  0.000000  0.282500  0.282500  1.0  -0.1274
  C  C1803  1  0.500000  0.217500  0.782500  1.0  -0.1256
  C  C1804  1  0.000000  0.717500  0.282500  1.0  -0.1256
  C  C1805  1  0.500000  0.782500  0.217500  1.0  -0.1271
  C  C1806  1  0.000000  0.282500  0.717500  1.0  -0.1271
  C  C1807  1  0.500000  0.217500  0.217500  1.0  -0.1262
  C  C1808  1  0.000000  0.717500  0.717500  1.0  -0.1262
  C  C1809  1  0.782500  0.500000  0.782500  1.0  -0.1262
  C  C1810  1  0.282500  0.000000  0.282500  1.0  -0.1262
  C  C1811  1  0.782500  0.500000  0.217500  1.0  -0.1265
  C  C1812  1  0.282500  0.000000  0.717500  1.0  -0.1265
  C  C1813  1  0.217500  0.500000  0.782500  1.0  -0.1252
  C  C1814  1  0.717500  0.000000  0.282500  1.0  -0.1252
  C  C1815  1  0.217500  0.500000  0.217500  1.0  -0.1257
  C  C1816  1  0.717500  0.000000  0.717500  1.0  -0.1257
  C  C1817  1  0.782500  0.782500  0.500000  1.0  -0.1254
  C  C1818  1  0.282500  0.282500  0.000000  1.0  -0.1254
  C  C1819  1  0.217500  0.782500  0.500000  1.0  -0.1248
  C  C1820  1  0.717500  0.282500  0.000000  1.0  -0.1248
  C  C1821  1  0.782500  0.217500  0.500000  1.0  -0.1255
  C  C1822  1  0.282500  0.717500  0.000000  1.0  -0.1255
  C  C1823  1  0.217500  0.217500  0.500000  1.0  -0.1248
  C  C1824  1  0.717500  0.717500  0.000000  1.0  -0.1248
  C  C1825  1  0.794260  0.912610  0.912610  1.0  -0.0251
  C  C1826  1  0.737960  0.881960  0.881960  1.0  0.1709
  C  C1827  1  0.564530  0.782450  0.782450  1.0  0.1829
  C  C1828  1  0.530070  0.769180  0.769180  1.0  0.0387
  C  C1829  1  0.529680  0.744110  0.744110  1.0  0.0943
  C  C1830  1  0.294260  0.412610  0.412610  1.0  -0.0251
  C  C1831  1  0.237960  0.381960  0.381960  1.0  0.1709
  C  C1832  1  0.064530  0.282450  0.282450  1.0  0.1829
  C  C1833  1  0.030070  0.269180  0.269180  1.0  0.0387
  C  C1834  1  0.029680  0.244110  0.244110  1.0  0.0951
  C  C1835  1  0.205740  0.087390  0.912610  1.0  -0.0256
  C  C1836  1  0.262040  0.118040  0.881960  1.0  0.172
  C  C1837  1  0.435470  0.217550  0.782450  1.0  0.1885
  C  C1838  1  0.469930  0.230820  0.769180  1.0  0.0401
  C  C1839  1  0.470320  0.255890  0.744110  1.0  0.0988
  C  C1840  1  0.705740  0.587390  0.412610  1.0  -0.0256
  C  C1841  1  0.762040  0.618040  0.381960  1.0  0.172
  C  C1842  1  0.935470  0.717550  0.282450  1.0  0.1885
  C  C1843  1  0.969930  0.730820  0.269180  1.0  0.0401
  C  C1844  1  0.970320  0.755890  0.244110  1.0  0.0988
  C  C1845  1  0.205740  0.912610  0.087390  1.0  -0.0248
  C  C1846  1  0.262040  0.881960  0.118040  1.0  0.172
  C  C1847  1  0.435470  0.782450  0.217550  1.0  0.1897
  C  C1848  1  0.469930  0.769180  0.230820  1.0  0.0404
  C  C1849  1  0.470320  0.744110  0.255890  1.0  0.1012
  C  C1850  1  0.705740  0.412610  0.587390  1.0  -0.0248
  C  C1851  1  0.762040  0.381960  0.618040  1.0  0.172
  C  C1852  1  0.935470  0.282450  0.717550  1.0  0.1897
  C  C1853  1  0.969930  0.269180  0.730820  1.0  0.0404
  C  C1854  1  0.970320  0.244110  0.755890  1.0  0.1012
  C  C1855  1  0.794260  0.087390  0.087390  1.0  -0.0257
  C  C1856  1  0.737960  0.118040  0.118040  1.0  0.1723
  C  C1857  1  0.564530  0.217550  0.217550  1.0  0.1844
  C  C1858  1  0.530070  0.230820  0.230820  1.0  0.0387
  C  C1859  1  0.529680  0.255890  0.255890  1.0  0.095
  C  C1860  1  0.294260  0.587390  0.587390  1.0  -0.0257
  C  C1861  1  0.237960  0.618040  0.618040  1.0  0.1723
  C  C1862  1  0.064530  0.717550  0.717550  1.0  0.1844
  C  C1863  1  0.030070  0.730820  0.730820  1.0  0.0387
  C  C1864  1  0.029680  0.755890  0.755890  1.0  0.0946
  C  C1865  1  0.912610  0.794260  0.912610  1.0  -0.0252
  C  C1866  1  0.881960  0.737960  0.881960  1.0  0.1734
  C  C1867  1  0.782450  0.564530  0.782450  1.0  0.1811
  C  C1868  1  0.769180  0.530070  0.769180  1.0  0.0407
  C  C1869  1  0.744110  0.529680  0.744110  1.0  0.0953
  C  C1870  1  0.412610  0.294260  0.412610  1.0  -0.0252
  C  C1871  1  0.381960  0.237960  0.381960  1.0  0.1734
  C  C1872  1  0.282450  0.064530  0.282450  1.0  0.1811
  C  C1873  1  0.269180  0.030070  0.269180  1.0  0.0407
  C  C1874  1  0.244110  0.029680  0.244110  1.0  0.0962
  C  C1875  1  0.912610  0.205740  0.087390  1.0  -0.0258
  C  C1876  1  0.881960  0.262040  0.118040  1.0  0.1744
  C  C1877  1  0.782450  0.435470  0.217550  1.0  0.1847
  C  C1878  1  0.769180  0.469930  0.230820  1.0  0.0412
  C  C1879  1  0.744110  0.470320  0.255890  1.0  0.1006
  C  C1880  1  0.412610  0.705740  0.587390  1.0  -0.0258
  C  C1881  1  0.381960  0.762040  0.618040  1.0  0.1744
  C  C1882  1  0.282450  0.935470  0.717550  1.0  0.1847
  C  C1883  1  0.269180  0.969930  0.730820  1.0  0.0412
  C  C1884  1  0.244110  0.970320  0.755890  1.0  0.1006
  C  C1885  1  0.087390  0.205740  0.912610  1.0  -0.0259
  C  C1886  1  0.118040  0.262040  0.881960  1.0  0.1713
  C  C1887  1  0.217550  0.435470  0.782450  1.0  0.1823
  C  C1888  1  0.230820  0.469930  0.769180  1.0  0.041
  C  C1889  1  0.255890  0.470320  0.744110  1.0  0.0991
  C  C1890  1  0.587390  0.705740  0.412610  1.0  -0.0259
  C  C1891  1  0.618040  0.762040  0.381960  1.0  0.1713
  C  C1892  1  0.717550  0.935470  0.282450  1.0  0.1823
  C  C1893  1  0.730820  0.969930  0.269180  1.0  0.041
  C  C1894  1  0.755890  0.970320  0.244110  1.0  0.0991
  C  C1895  1  0.087390  0.794260  0.087390  1.0  -0.0251
  C  C1896  1  0.118040  0.737960  0.118040  1.0  0.1712
  C  C1897  1  0.217550  0.564530  0.217550  1.0  0.1805
  C  C1898  1  0.230820  0.530070  0.230820  1.0  0.0409
  C  C1899  1  0.255890  0.529680  0.255890  1.0  0.0956
  C  C1900  1  0.587390  0.294260  0.587390  1.0  -0.0251
  C  C1901  1  0.618040  0.237960  0.618040  1.0  0.1712
  C  C1902  1  0.717550  0.064530  0.717550  1.0  0.1805
  C  C1903  1  0.730820  0.030070  0.730820  1.0  0.0409
  C  C1904  1  0.755890  0.029680  0.755890  1.0  0.0996
  C  C1905  1  0.912610  0.912610  0.794260  1.0  -0.0247
  C  C1906  1  0.881960  0.881960  0.737960  1.0  0.1719
  C  C1907  1  0.782450  0.782450  0.564530  1.0  0.1826
  C  C1908  1  0.769180  0.769180  0.530070  1.0  0.0435
  C  C1909  1  0.744110  0.744110  0.529680  1.0  0.0954
  C  C1910  1  0.412610  0.412610  0.294260  1.0  -0.0247
  C  C1911  1  0.381960  0.381960  0.237960  1.0  0.1719
  C  C1912  1  0.282450  0.282450  0.064530  1.0  0.1826
  C  C1913  1  0.269180  0.269180  0.030070  1.0  0.0435
  C  C1914  1  0.244110  0.244110  0.029680  1.0  0.0963
  C  C1915  1  0.087390  0.912610  0.205740  1.0  -0.0248
  C  C1916  1  0.118040  0.881960  0.262040  1.0  0.1691
  C  C1917  1  0.217550  0.782450  0.435470  1.0  0.1836
  C  C1918  1  0.230820  0.769180  0.469930  1.0  0.0422
  C  C1919  1  0.255890  0.744110  0.470320  1.0  0.0983
  C  C1920  1  0.587390  0.412610  0.705740  1.0  -0.0248
  C  C1921  1  0.618040  0.381960  0.762040  1.0  0.1691
  C  C1922  1  0.717550  0.282450  0.935470  1.0  0.1836
  C  C1923  1  0.730820  0.269180  0.969930  1.0  0.0422
  C  C1924  1  0.755890  0.244110  0.970320  1.0  0.0983
  C  C1925  1  0.912610  0.087390  0.205740  1.0  -0.0253
  C  C1926  1  0.881960  0.118040  0.262040  1.0  0.1719
  C  C1927  1  0.782450  0.217550  0.435470  1.0  0.1836
  C  C1928  1  0.769180  0.230820  0.469930  1.0  0.0422
  C  C1929  1  0.744110  0.255890  0.470320  1.0  0.1002
  C  C1930  1  0.412610  0.587390  0.705740  1.0  -0.0253
  C  C1931  1  0.381960  0.618040  0.762040  1.0  0.1719
  C  C1932  1  0.282450  0.717550  0.935470  1.0  0.1836
  C  C1933  1  0.269180  0.730820  0.969930  1.0  0.0422
  C  C1934  1  0.244110  0.755890  0.970320  1.0  0.1002
  C  C1935  1  0.087390  0.087390  0.794260  1.0  -0.0253
  C  C1936  1  0.118040  0.118040  0.737960  1.0  0.17
  C  C1937  1  0.217550  0.217550  0.564530  1.0  0.1809
  C  C1938  1  0.230820  0.230820  0.530070  1.0  0.0431
  C  C1939  1  0.255890  0.255890  0.529680  1.0  0.0953
  C  C1940  1  0.587390  0.587390  0.294260  1.0  -0.0253
  C  C1941  1  0.618040  0.618040  0.237960  1.0  0.17
  C  C1942  1  0.717550  0.717550  0.064530  1.0  0.1809
  C  C1943  1  0.730820  0.730820  0.030070  1.0  0.0431
  C  C1944  1  0.755890  0.755890  0.029680  1.0  0.0992
  C  C1945  1  0.912610  0.794260  0.087390  1.0  -0.0246
  C  C1946  1  0.881960  0.737960  0.118040  1.0  0.1744
  C  C1947  1  0.782450  0.564530  0.217550  1.0  0.1826
  C  C1948  1  0.769180  0.530070  0.230820  1.0  0.041
  C  C1949  1  0.744110  0.529680  0.255890  1.0  0.0953
  C  C1950  1  0.412610  0.294260  0.587390  1.0  -0.0246
  C  C1951  1  0.381960  0.237960  0.618040  1.0  0.1744
  C  C1952  1  0.282450  0.064530  0.717550  1.0  0.1826
  C  C1953  1  0.269180  0.030070  0.730820  1.0  0.041
  C  C1954  1  0.244110  0.029680  0.755890  1.0  0.0964
  C  C1955  1  0.087390  0.205740  0.087390  1.0  -0.026
  C  C1956  1  0.118040  0.262040  0.118040  1.0  0.172
  C  C1957  1  0.217550  0.435470  0.217550  1.0  0.1837
  C  C1958  1  0.230820  0.469930  0.230820  1.0  0.0411
  C  C1959  1  0.255890  0.470320  0.255890  1.0  0.096
  C  C1960  1  0.587390  0.705740  0.587390  1.0  -0.026
  C  C1961  1  0.618040  0.762040  0.618040  1.0  0.172
  C  C1962  1  0.717550  0.935470  0.717550  1.0  0.1837
  C  C1963  1  0.730820  0.969930  0.730820  1.0  0.0411
  C  C1964  1  0.755890  0.970320  0.755890  1.0  0.096
  C  C1965  1  0.912610  0.205740  0.912610  1.0  -0.0253
  C  C1966  1  0.881960  0.262040  0.881960  1.0  0.1737
  C  C1967  1  0.782450  0.435470  0.782450  1.0  0.1831
  C  C1968  1  0.769180  0.469930  0.769180  1.0  0.0411
  C  C1969  1  0.744110  0.470320  0.744110  1.0  0.1039
  C  C1970  1  0.412610  0.705740  0.412610  1.0  -0.0253
  C  C1971  1  0.381960  0.762040  0.381960  1.0  0.1737
  C  C1972  1  0.282450  0.935470  0.282450  1.0  0.1831
  C  C1973  1  0.269180  0.969930  0.269180  1.0  0.0411
  C  C1974  1  0.244110  0.970320  0.244110  1.0  0.1039
  C  C1975  1  0.087390  0.794260  0.912610  1.0  -0.0258
  C  C1976  1  0.118040  0.737960  0.881960  1.0  0.1703
  C  C1977  1  0.217550  0.564530  0.782450  1.0  0.1794
  C  C1978  1  0.230820  0.530070  0.769180  1.0  0.0406
  C  C1979  1  0.255890  0.529680  0.744110  1.0  0.0979
  C  C1980  1  0.587390  0.294260  0.412610  1.0  -0.0258
  C  C1981  1  0.618040  0.237960  0.381960  1.0  0.1703
  C  C1982  1  0.717550  0.064530  0.282450  1.0  0.1794
  C  C1983  1  0.730820  0.030070  0.269180  1.0  0.0406
  C  C1984  1  0.755890  0.029680  0.244110  1.0  0.0992
  C  C1985  1  0.794260  0.912610  0.087390  1.0  -0.0246
  C  C1986  1  0.737960  0.881960  0.118040  1.0  0.1724
  C  C1987  1  0.564530  0.782450  0.217550  1.0  0.1851
  C  C1988  1  0.530070  0.769180  0.230820  1.0  0.0389
  C  C1989  1  0.529680  0.744110  0.255890  1.0  0.0948
  C  C1990  1  0.294260  0.412610  0.587390  1.0  -0.0246
  C  C1991  1  0.237960  0.381960  0.618040  1.0  0.1724
  C  C1992  1  0.064530  0.282450  0.717550  1.0  0.1851
  C  C1993  1  0.030070  0.269180  0.730820  1.0  0.0389
  C  C1994  1  0.029680  0.244110  0.755890  1.0  0.0959
  C  C1995  1  0.205740  0.912610  0.912610  1.0  -0.0256
  C  C1996  1  0.262040  0.881960  0.881960  1.0  0.1702
  C  C1997  1  0.435470  0.782450  0.782450  1.0  0.1881
  C  C1998  1  0.469930  0.769180  0.769180  1.0  0.0402
  C  C1999  1  0.470320  0.744110  0.744110  1.0  0.1035
  C  C2000  1  0.705740  0.412610  0.412610  1.0  -0.0256
  C  C2001  1  0.762040  0.381960  0.381960  1.0  0.1702
  C  C2002  1  0.935470  0.282450  0.282450  1.0  0.1881
  C  C2003  1  0.969930  0.269180  0.269180  1.0  0.0402
  C  C2004  1  0.970320  0.244110  0.244110  1.0  0.1035
  C  C2005  1  0.205740  0.087390  0.087390  1.0  -0.0258
  C  C2006  1  0.262040  0.118040  0.118040  1.0  0.1721
  C  C2007  1  0.435470  0.217550  0.217550  1.0  0.1895
  C  C2008  1  0.469930  0.230820  0.230820  1.0  0.0403
  C  C2009  1  0.470320  0.255890  0.255890  1.0  0.0957
  C  C2010  1  0.705740  0.587390  0.587390  1.0  -0.0258
  C  C2011  1  0.762040  0.618040  0.618040  1.0  0.1721
  C  C2012  1  0.935470  0.717550  0.717550  1.0  0.1895
  C  C2013  1  0.969930  0.730820  0.730820  1.0  0.0403
  C  C2014  1  0.970320  0.755890  0.755890  1.0  0.0957
  C  C2015  1  0.794260  0.087390  0.912610  1.0  -0.0252
  C  C2016  1  0.737960  0.118040  0.881960  1.0  0.1723
  C  C2017  1  0.564530  0.217550  0.782450  1.0  0.1826
  C  C2018  1  0.530070  0.230820  0.769180  1.0  0.0385
  C  C2019  1  0.529680  0.255890  0.744110  1.0  0.095
  C  C2020  1  0.294260  0.587390  0.412610  1.0  -0.0252
  C  C2021  1  0.237960  0.618040  0.381960  1.0  0.1723
  C  C2022  1  0.064530  0.717550  0.282450  1.0  0.1826
  C  C2023  1  0.030070  0.730820  0.269180  1.0  0.0385
  C  C2024  1  0.029680  0.755890  0.244110  1.0  0.0951
  C  C2025  1  0.912610  0.912610  0.205740  1.0  -0.0245
  C  C2026  1  0.881960  0.881960  0.262040  1.0  0.1716
  C  C2027  1  0.782450  0.782450  0.435470  1.0  0.1852
  C  C2028  1  0.769180  0.769180  0.469930  1.0  0.0423
  C  C2029  1  0.744110  0.744110  0.470320  1.0  0.1031
  C  C2030  1  0.412610  0.412610  0.705740  1.0  -0.0245
  C  C2031  1  0.381960  0.381960  0.762040  1.0  0.1716
  C  C2032  1  0.282450  0.282450  0.935470  1.0  0.1852
  C  C2033  1  0.269180  0.269180  0.969930  1.0  0.0423
  C  C2034  1  0.244110  0.244110  0.970320  1.0  0.1031
  C  C2035  1  0.912610  0.087390  0.794260  1.0  -0.0247
  C  C2036  1  0.881960  0.118040  0.737960  1.0  0.173
  C  C2037  1  0.782450  0.217550  0.564530  1.0  0.1819
  C  C2038  1  0.769180  0.230820  0.530070  1.0  0.0433
  C  C2039  1  0.744110  0.255890  0.529680  1.0  0.0991
  C  C2040  1  0.412610  0.587390  0.294260  1.0  -0.0247
  C  C2041  1  0.381960  0.618040  0.237960  1.0  0.173
  C  C2042  1  0.282450  0.717550  0.064530  1.0  0.1819
  C  C2043  1  0.269180  0.730820  0.030070  1.0  0.0433
  C  C2044  1  0.244110  0.755890  0.029680  1.0  0.1011
  C  C2045  1  0.087390  0.912610  0.794260  1.0  -0.0252
  C  C2046  1  0.118040  0.881960  0.737960  1.0  0.1689
  C  C2047  1  0.217550  0.782450  0.564530  1.0  0.1814
  C  C2048  1  0.230820  0.769180  0.530070  1.0  0.0431
  C  C2049  1  0.255890  0.744110  0.529680  1.0  0.0984
  C  C2050  1  0.587390  0.412610  0.294260  1.0  -0.0252
  C  C2051  1  0.618040  0.381960  0.237960  1.0  0.1689
  C  C2052  1  0.717550  0.282450  0.064530  1.0  0.1814
  C  C2053  1  0.730820  0.269180  0.030070  1.0  0.0431
  C  C2054  1  0.755890  0.244110  0.029680  1.0  0.0997
  C  C2055  1  0.087390  0.087390  0.205740  1.0  -0.0257
  C  C2056  1  0.118040  0.118040  0.262040  1.0  0.1697
  C  C2057  1  0.217550  0.217550  0.435470  1.0  0.1824
  C  C2058  1  0.230820  0.230820  0.469930  1.0  0.0421
  C  C2059  1  0.255890  0.255890  0.470320  1.0  0.0955
  C  C2060  1  0.587390  0.587390  0.705740  1.0  -0.0257
  C  C2061  1  0.618040  0.618040  0.762040  1.0  0.1697
  C  C2062  1  0.717550  0.717550  0.935470  1.0  0.1824
  C  C2063  1  0.730820  0.730820  0.969930  1.0  0.0421
  C  C2064  1  0.755890  0.755890  0.970320  1.0  0.0955
  N  N2065  1  0.579000  0.811300  0.764900  1.0  -0.1048
  N  N2066  1  0.079000  0.311300  0.264900  1.0  -0.1048
  N  N2067  1  0.421000  0.188700  0.764900  1.0  -0.1048
  N  N2068  1  0.921000  0.688700  0.264900  1.0  -0.1048
  N  N2069  1  0.421000  0.811300  0.235100  1.0  -0.1041
  N  N2070  1  0.921000  0.311300  0.735100  1.0  -0.1041
  N  N2071  1  0.579000  0.188700  0.235100  1.0  -0.1073
  N  N2072  1  0.079000  0.688700  0.735100  1.0  -0.1073
  N  N2073  1  0.764900  0.579000  0.811300  1.0  -0.1099
  N  N2074  1  0.264900  0.079000  0.311300  1.0  -0.1099
  N  N2075  1  0.764900  0.421000  0.188700  1.0  -0.105
  N  N2076  1  0.264900  0.921000  0.688700  1.0  -0.105
  N  N2077  1  0.235100  0.421000  0.811300  1.0  -0.1044
  N  N2078  1  0.735100  0.921000  0.311300  1.0  -0.1044
  N  N2079  1  0.235100  0.579000  0.188700  1.0  -0.1002
  N  N2080  1  0.735100  0.079000  0.688700  1.0  -0.1002
  N  N2081  1  0.811300  0.764900  0.579000  1.0  -0.1049
  N  N2082  1  0.311300  0.264900  0.079000  1.0  -0.1049
  N  N2083  1  0.188700  0.764900  0.421000  1.0  -0.1107
  N  N2084  1  0.688700  0.264900  0.921000  1.0  -0.1107
  N  N2085  1  0.811300  0.235100  0.421000  1.0  -0.105
  N  N2086  1  0.311300  0.735100  0.921000  1.0  -0.105
  N  N2087  1  0.188700  0.235100  0.579000  1.0  -0.1095
  N  N2088  1  0.688700  0.735100  0.079000  1.0  -0.1095
  N  N2089  1  0.811300  0.579000  0.235100  1.0  -0.1008
  N  N2090  1  0.311300  0.079000  0.735100  1.0  -0.1008
  N  N2091  1  0.188700  0.421000  0.235100  1.0  -0.1069
  N  N2092  1  0.688700  0.921000  0.735100  1.0  -0.1069
  N  N2093  1  0.811300  0.421000  0.764900  1.0  -0.1011
  N  N2094  1  0.311300  0.921000  0.264900  1.0  -0.1011
  N  N2095  1  0.188700  0.579000  0.764900  1.0  -0.1065
  N  N2096  1  0.688700  0.079000  0.264900  1.0  -0.1065
  N  N2097  1  0.579000  0.764900  0.188700  1.0  -0.1045
  N  N2098  1  0.079000  0.264900  0.688700  1.0  -0.1045
  N  N2099  1  0.421000  0.764900  0.811300  1.0  -0.1074
  N  N2100  1  0.921000  0.264900  0.311300  1.0  -0.1074
  N  N2101  1  0.421000  0.235100  0.188700  1.0  -0.1046
  N  N2102  1  0.921000  0.735100  0.688700  1.0  -0.1046
  N  N2103  1  0.579000  0.235100  0.811300  1.0  -0.1093
  N  N2104  1  0.079000  0.735100  0.311300  1.0  -0.1093
  N  N2105  1  0.764900  0.811300  0.421000  1.0  -0.1078
  N  N2106  1  0.264900  0.311300  0.921000  1.0  -0.1078
  N  N2107  1  0.764900  0.188700  0.579000  1.0  -0.1116
  N  N2108  1  0.264900  0.688700  0.079000  1.0  -0.1116
  N  N2109  1  0.235100  0.811300  0.579000  1.0  -0.1038
  N  N2110  1  0.735100  0.311300  0.079000  1.0  -0.1038
  N  N2111  1  0.235100  0.188700  0.421000  1.0  -0.1057
  N  N2112  1  0.735100  0.688700  0.921000  1.0  -0.1057
  N  N2113  1  0.421000  0.188700  0.235100  1.0  -0.1064
  N  N2114  1  0.921000  0.688700  0.735100  1.0  -0.1064
  N  N2115  1  0.579000  0.811300  0.235100  1.0  -0.1068
  N  N2116  1  0.079000  0.311300  0.735100  1.0  -0.1068
  N  N2117  1  0.579000  0.188700  0.764900  1.0  -0.1069
  N  N2118  1  0.079000  0.688700  0.264900  1.0  -0.1069
  N  N2119  1  0.421000  0.811300  0.764900  1.0  -0.1024
  N  N2120  1  0.921000  0.311300  0.264900  1.0  -0.1024
  N  N2121  1  0.235100  0.421000  0.188700  1.0  -0.1023
  N  N2122  1  0.735100  0.921000  0.688700  1.0  -0.1023
  N  N2123  1  0.235100  0.579000  0.811300  1.0  -0.1037
  N  N2124  1  0.735100  0.079000  0.311300  1.0  -0.1037
  N  N2125  1  0.764900  0.579000  0.188700  1.0  -0.1051
  N  N2126  1  0.264900  0.079000  0.688700  1.0  -0.1051
  N  N2127  1  0.764900  0.421000  0.811300  1.0  -0.1083
  N  N2128  1  0.264900  0.921000  0.311300  1.0  -0.1083
  N  N2129  1  0.188700  0.235100  0.421000  1.0  -0.1103
  N  N2130  1  0.688700  0.735100  0.921000  1.0  -0.1103
  N  N2131  1  0.811300  0.235100  0.579000  1.0  -0.104
  N  N2132  1  0.311300  0.735100  0.079000  1.0  -0.104
  N  N2133  1  0.188700  0.764900  0.579000  1.0  -0.1121
  N  N2134  1  0.688700  0.264900  0.079000  1.0  -0.1121
  N  N2135  1  0.811300  0.764900  0.421000  1.0  -0.1042
  N  N2136  1  0.311300  0.264900  0.921000  1.0  -0.1042
  N  N2137  1  0.188700  0.421000  0.764900  1.0  -0.1066
  N  N2138  1  0.688700  0.921000  0.264900  1.0  -0.1066
  N  N2139  1  0.811300  0.579000  0.764900  1.0  -0.0988
  N  N2140  1  0.311300  0.079000  0.264900  1.0  -0.0988
  N  N2141  1  0.188700  0.579000  0.235100  1.0  -0.1083
  N  N2142  1  0.688700  0.079000  0.735100  1.0  -0.1083
  N  N2143  1  0.811300  0.421000  0.235100  1.0  -0.1026
  N  N2144  1  0.311300  0.921000  0.735100  1.0  -0.1026
  N  N2145  1  0.421000  0.235100  0.811300  1.0  -0.1069
  N  N2146  1  0.921000  0.735100  0.311300  1.0  -0.1069
  N  N2147  1  0.579000  0.235100  0.188700  1.0  -0.105
  N  N2148  1  0.079000  0.735100  0.688700  1.0  -0.105
  N  N2149  1  0.579000  0.764900  0.811300  1.0  -0.107
  N  N2150  1  0.079000  0.264900  0.311300  1.0  -0.107
  N  N2151  1  0.421000  0.764900  0.188700  1.0  -0.1046
  N  N2152  1  0.921000  0.264900  0.688700  1.0  -0.1046
  N  N2153  1  0.235100  0.188700  0.579000  1.0  -0.1067
  N  N2154  1  0.735100  0.688700  0.079000  1.0  -0.1067
  N  N2155  1  0.235100  0.811300  0.421000  1.0  -0.1041
  N  N2156  1  0.735100  0.311300  0.921000  1.0  -0.1041
  N  N2157  1  0.764900  0.188700  0.421000  1.0  -0.108
  N  N2158  1  0.264900  0.688700  0.921000  1.0  -0.108
  N  N2159  1  0.764900  0.811300  0.579000  1.0  -0.1092
  N  N2160  1  0.264900  0.311300  0.079000  1.0  -0.1092
  N  N2161  1  0.500000  0.732040  0.732040  1.0  -0.2769
  N  N2162  1  0.000000  0.232040  0.232040  1.0  -0.2769
  N  N2163  1  0.500000  0.267960  0.732040  1.0  -0.2747
  N  N2164  1  0.000000  0.767960  0.232040  1.0  -0.2747
  N  N2165  1  0.500000  0.732040  0.267960  1.0  -0.2759
  N  N2166  1  0.000000  0.232040  0.767960  1.0  -0.2759
  N  N2167  1  0.500000  0.267960  0.267960  1.0  -0.2737
  N  N2168  1  0.000000  0.767960  0.767960  1.0  -0.2737
  N  N2169  1  0.732040  0.500000  0.732040  1.0  -0.2738
  N  N2170  1  0.232040  0.000000  0.232040  1.0  -0.2738
  N  N2171  1  0.732040  0.500000  0.267960  1.0  -0.2724
  N  N2172  1  0.232040  0.000000  0.767960  1.0  -0.2724
  N  N2173  1  0.267960  0.500000  0.732040  1.0  -0.2716
  N  N2174  1  0.767960  0.000000  0.232040  1.0  -0.2716
  N  N2175  1  0.267960  0.500000  0.267960  1.0  -0.2702
  N  N2176  1  0.767960  0.000000  0.767960  1.0  -0.2702
  N  N2177  1  0.732040  0.732040  0.500000  1.0  -0.274
  N  N2178  1  0.232040  0.232040  0.000000  1.0  -0.274
  N  N2179  1  0.267960  0.732040  0.500000  1.0  -0.2712
  N  N2180  1  0.767960  0.232040  0.000000  1.0  -0.2712
  N  N2181  1  0.732040  0.267960  0.500000  1.0  -0.2729
  N  N2182  1  0.232040  0.767960  0.000000  1.0  -0.2729
  N  N2183  1  0.267960  0.267960  0.500000  1.0  -0.2708
  N  N2184  1  0.767960  0.767960  0.000000  1.0  -0.2708
  N  N2185  1  0.706960  0.865180  0.865180  1.0  -0.0863
  N  N2186  1  0.206960  0.365180  0.365180  1.0  -0.0863
  N  N2187  1  0.293040  0.134820  0.865180  1.0  -0.0852
  N  N2188  1  0.793040  0.634820  0.365180  1.0  -0.0852
  N  N2189  1  0.293040  0.865180  0.134820  1.0  -0.0848
  N  N2190  1  0.793040  0.365180  0.634820  1.0  -0.0848
  N  N2191  1  0.706960  0.134820  0.134820  1.0  -0.0884
  N  N2192  1  0.206960  0.634820  0.634820  1.0  -0.0884
  N  N2193  1  0.865180  0.706960  0.865180  1.0  -0.0852
  N  N2194  1  0.365180  0.206960  0.365180  1.0  -0.0852
  N  N2195  1  0.865180  0.293040  0.134820  1.0  -0.0875
  N  N2196  1  0.365180  0.793040  0.634820  1.0  -0.0875
  N  N2197  1  0.134820  0.293040  0.865180  1.0  -0.0848
  N  N2198  1  0.634820  0.793040  0.365180  1.0  -0.0848
  N  N2199  1  0.134820  0.706960  0.134820  1.0  -0.0855
  N  N2200  1  0.634820  0.206960  0.634820  1.0  -0.0855
  N  N2201  1  0.865180  0.865180  0.706960  1.0  -0.0832
  N  N2202  1  0.365180  0.365180  0.206960  1.0  -0.0832
  N  N2203  1  0.134820  0.865180  0.293040  1.0  -0.0836
  N  N2204  1  0.634820  0.365180  0.793040  1.0  -0.0836
  N  N2205  1  0.865180  0.134820  0.293040  1.0  -0.0867
  N  N2206  1  0.365180  0.634820  0.793040  1.0  -0.0867
  N  N2207  1  0.134820  0.134820  0.706960  1.0  -0.0833
  N  N2208  1  0.634820  0.634820  0.206960  1.0  -0.0833
  N  N2209  1  0.865180  0.706960  0.134820  1.0  -0.0862
  N  N2210  1  0.365180  0.206960  0.634820  1.0  -0.0862
  N  N2211  1  0.134820  0.293040  0.134820  1.0  -0.0883
  N  N2212  1  0.634820  0.793040  0.634820  1.0  -0.0883
  N  N2213  1  0.865180  0.293040  0.865180  1.0  -0.0847
  N  N2214  1  0.365180  0.793040  0.365180  1.0  -0.0847
  N  N2215  1  0.134820  0.706960  0.865180  1.0  -0.0841
  N  N2216  1  0.634820  0.206960  0.365180  1.0  -0.0841
  N  N2217  1  0.706960  0.865180  0.134820  1.0  -0.0858
  N  N2218  1  0.206960  0.365180  0.634820  1.0  -0.0858
  N  N2219  1  0.293040  0.865180  0.865180  1.0  -0.0843
  N  N2220  1  0.793040  0.365180  0.365180  1.0  -0.0843
  N  N2221  1  0.293040  0.134820  0.134820  1.0  -0.0887
  N  N2222  1  0.793040  0.634820  0.634820  1.0  -0.0887
  N  N2223  1  0.706960  0.134820  0.865180  1.0  -0.0863
  N  N2224  1  0.206960  0.634820  0.365180  1.0  -0.0863
  N  N2225  1  0.865180  0.865180  0.293040  1.0  -0.0846
  N  N2226  1  0.365180  0.365180  0.793040  1.0  -0.0846
  N  N2227  1  0.865180  0.134820  0.706960  1.0  -0.0831
  N  N2228  1  0.365180  0.634820  0.206960  1.0  -0.0831
  N  N2229  1  0.134820  0.865180  0.706960  1.0  -0.0827
  N  N2230  1  0.634820  0.365180  0.206960  1.0  -0.0827
  N  N2231  1  0.134820  0.134820  0.293040  1.0  -0.087
  N  N2232  1  0.634820  0.634820  0.793040  1.0  -0.087
  O  O2233  1  0.825770  0.876220  0.964950  1.0  -0.5545
  O  O2234  1  0.785840  0.834520  0.964140  1.0  -0.5596
  O  O2235  1  0.700690  0.908390  0.820810  1.0  -0.4659
  O  O2236  1  0.576000  0.806500  0.767100  1.0  -0.4295
  O  O2237  1  0.325770  0.376220  0.464950  1.0  -0.5545
  O  O2238  1  0.285840  0.334520  0.464140  1.0  -0.5596
  O  O2239  1  0.200690  0.408390  0.320810  1.0  -0.4659
  O  O2240  1  0.076000  0.306500  0.267100  1.0  -0.4295
  O  O2241  1  0.174230  0.123780  0.964950  1.0  -0.5541
  O  O2242  1  0.214160  0.165480  0.964140  1.0  -0.5579
  O  O2243  1  0.299310  0.091610  0.820810  1.0  -0.4619
  O  O2244  1  0.424000  0.193500  0.767100  1.0  -0.4285
  O  O2245  1  0.674230  0.623780  0.464950  1.0  -0.5541
  O  O2246  1  0.714160  0.665480  0.464140  1.0  -0.5579
  O  O2247  1  0.799310  0.591610  0.320810  1.0  -0.4619
  O  O2248  1  0.924000  0.693500  0.267100  1.0  -0.4285
  O  O2249  1  0.174230  0.876220  0.035050  1.0  -0.5533
  O  O2250  1  0.214160  0.834520  0.035860  1.0  -0.5598
  O  O2251  1  0.299310  0.908390  0.179190  1.0  -0.464
  O  O2252  1  0.424000  0.806500  0.232900  1.0  -0.4299
  O  O2253  1  0.674230  0.376220  0.535050  1.0  -0.5533
  O  O2254  1  0.714160  0.334520  0.535860  1.0  -0.5598
  O  O2255  1  0.799310  0.408390  0.679190  1.0  -0.464
  O  O2256  1  0.924000  0.306500  0.732900  1.0  -0.4299
  O  O2257  1  0.825770  0.123780  0.035050  1.0  -0.5539
  O  O2258  1  0.785840  0.165480  0.035860  1.0  -0.5603
  O  O2259  1  0.700690  0.091610  0.179190  1.0  -0.4639
  O  O2260  1  0.576000  0.193500  0.232900  1.0  -0.4319
  O  O2261  1  0.325770  0.623780  0.535050  1.0  -0.5539
  O  O2262  1  0.285840  0.665480  0.535860  1.0  -0.5603
  O  O2263  1  0.200690  0.591610  0.679190  1.0  -0.4639
  O  O2264  1  0.076000  0.693500  0.732900  1.0  -0.4319
  O  O2265  1  0.964950  0.825770  0.876220  1.0  -0.5512
  O  O2266  1  0.964140  0.785840  0.834520  1.0  -0.5602
  O  O2267  1  0.820810  0.700690  0.908390  1.0  -0.4686
  O  O2268  1  0.767100  0.576000  0.806500  1.0  -0.4313
  O  O2269  1  0.464950  0.325770  0.376220  1.0  -0.5512
  O  O2270  1  0.464140  0.285840  0.334520  1.0  -0.5602
  O  O2271  1  0.320810  0.200690  0.408390  1.0  -0.4686
  O  O2272  1  0.267100  0.076000  0.306500  1.0  -0.4313
  O  O2273  1  0.964950  0.174230  0.123780  1.0  -0.5532
  O  O2274  1  0.964140  0.214160  0.165480  1.0  -0.5588
  O  O2275  1  0.820810  0.299310  0.091610  1.0  -0.4693
  O  O2276  1  0.767100  0.424000  0.193500  1.0  -0.4332
  O  O2277  1  0.464950  0.674230  0.623780  1.0  -0.5532
  O  O2278  1  0.464140  0.714160  0.665480  1.0  -0.5588
  O  O2279  1  0.320810  0.799310  0.591610  1.0  -0.4693
  O  O2280  1  0.267100  0.924000  0.693500  1.0  -0.4332
  O  O2281  1  0.035050  0.174230  0.876220  1.0  -0.5531
  O  O2282  1  0.035860  0.214160  0.834520  1.0  -0.5586
  O  O2283  1  0.179190  0.299310  0.908390  1.0  -0.4657
  O  O2284  1  0.232900  0.424000  0.806500  1.0  -0.432
  O  O2285  1  0.535050  0.674230  0.376220  1.0  -0.5531
  O  O2286  1  0.535860  0.714160  0.334520  1.0  -0.5586
  O  O2287  1  0.679190  0.799310  0.408390  1.0  -0.4657
  O  O2288  1  0.732900  0.924000  0.306500  1.0  -0.432
  O  O2289  1  0.035050  0.825770  0.123780  1.0  -0.5525
  O  O2290  1  0.035860  0.785840  0.165480  1.0  -0.5591
  O  O2291  1  0.179190  0.700690  0.091610  1.0  -0.4685
  O  O2292  1  0.232900  0.576000  0.193500  1.0  -0.43
  O  O2293  1  0.535050  0.325770  0.623780  1.0  -0.5525
  O  O2294  1  0.535860  0.285840  0.665480  1.0  -0.5586
  O  O2295  1  0.679190  0.200690  0.591610  1.0  -0.4685
  O  O2296  1  0.732900  0.076000  0.693500  1.0  -0.43
  O  O2297  1  0.876220  0.964950  0.825770  1.0  -0.5517
  O  O2298  1  0.834520  0.964140  0.785840  1.0  -0.5588
  O  O2299  1  0.908390  0.820810  0.700690  1.0  -0.4685
  O  O2300  1  0.806500  0.767100  0.576000  1.0  -0.4331
  O  O2301  1  0.376220  0.464950  0.325770  1.0  -0.5517
  O  O2302  1  0.334520  0.464140  0.285840  1.0  -0.5588
  O  O2303  1  0.408390  0.320810  0.200690  1.0  -0.4685
  O  O2304  1  0.306500  0.267100  0.076000  1.0  -0.4331
  O  O2305  1  0.123780  0.964950  0.174230  1.0  -0.5525
  O  O2306  1  0.165480  0.964140  0.214160  1.0  -0.5584
  O  O2307  1  0.091610  0.820810  0.299310  1.0  -0.4674
  O  O2308  1  0.193500  0.767100  0.424000  1.0  -0.433
  O  O2309  1  0.623780  0.464950  0.674230  1.0  -0.5525
  O  O2310  1  0.665480  0.464140  0.714160  1.0  -0.5584
  O  O2311  1  0.591610  0.320810  0.799310  1.0  -0.4674
  O  O2312  1  0.693500  0.267100  0.924000  1.0  -0.433
  O  O2313  1  0.876220  0.035050  0.174230  1.0  -0.5517
  O  O2314  1  0.834520  0.035860  0.214160  1.0  -0.5589
  O  O2315  1  0.908390  0.179190  0.299310  1.0  -0.4686
  O  O2316  1  0.806500  0.232900  0.424000  1.0  -0.4341
  O  O2317  1  0.376220  0.535050  0.674230  1.0  -0.5517
  O  O2318  1  0.334520  0.535860  0.714160  1.0  -0.5589
  O  O2319  1  0.408390  0.679190  0.799310  1.0  -0.4686
  O  O2320  1  0.306500  0.732900  0.924000  1.0  -0.4341
  O  O2321  1  0.123780  0.035050  0.825770  1.0  -0.5523
  O  O2322  1  0.165480  0.035860  0.785840  1.0  -0.5592
  O  O2323  1  0.091610  0.179190  0.700690  1.0  -0.468
  O  O2324  1  0.193500  0.232900  0.576000  1.0  -0.4338
  O  O2325  1  0.623780  0.535050  0.325770  1.0  -0.5523
  O  O2326  1  0.665480  0.535860  0.285840  1.0  -0.5592
  O  O2327  1  0.591610  0.679190  0.200690  1.0  -0.468
  O  O2328  1  0.693500  0.732900  0.076000  1.0  -0.4338
  O  O2329  1  0.876220  0.825770  0.035050  1.0  -0.5524
  O  O2330  1  0.834520  0.785840  0.035860  1.0  -0.5601
  O  O2331  1  0.908390  0.700690  0.179190  1.0  -0.4672
  O  O2332  1  0.806500  0.576000  0.232900  1.0  -0.4305
  O  O2333  1  0.376220  0.325770  0.535050  1.0  -0.5524
  O  O2334  1  0.334520  0.285840  0.535860  1.0  -0.5601
  O  O2335  1  0.408390  0.200690  0.679190  1.0  -0.4672
  O  O2336  1  0.306500  0.076000  0.732900  1.0  -0.4305
  O  O2337  1  0.123780  0.174230  0.035050  1.0  -0.5536
  O  O2338  1  0.165480  0.214160  0.035860  1.0  -0.5588
  O  O2339  1  0.091610  0.299310  0.179190  1.0  -0.4666
  O  O2340  1  0.193500  0.424000  0.232900  1.0  -0.4311
  O  O2341  1  0.623780  0.674230  0.535050  1.0  -0.5536
  O  O2342  1  0.665480  0.714160  0.535860  1.0  -0.5588
  O  O2343  1  0.591610  0.799310  0.679190  1.0  -0.4666
  O  O2344  1  0.693500  0.924000  0.732900  1.0  -0.4311
  O  O2345  1  0.876220  0.174230  0.964950  1.0  -0.5536
  O  O2346  1  0.834520  0.214160  0.964140  1.0  -0.5586
  O  O2347  1  0.908390  0.299310  0.820810  1.0  -0.4667
  O  O2348  1  0.806500  0.424000  0.767100  1.0  -0.4307
  O  O2349  1  0.376220  0.674230  0.464950  1.0  -0.5536
  O  O2350  1  0.334520  0.714160  0.464140  1.0  -0.5586
  O  O2351  1  0.408390  0.799310  0.320810  1.0  -0.4667
  O  O2352  1  0.306500  0.924000  0.267100  1.0  -0.4307
  O  O2353  1  0.123780  0.825770  0.964950  1.0  -0.5533
  O  O2354  1  0.165480  0.785840  0.964140  1.0  -0.5594
  O  O2355  1  0.091610  0.700690  0.820810  1.0  -0.4677
  O  O2356  1  0.193500  0.576000  0.767100  1.0  -0.4302
  O  O2357  1  0.623780  0.325770  0.464950  1.0  -0.5533
  O  O2358  1  0.665480  0.285840  0.464140  1.0  -0.5589
  O  O2359  1  0.591610  0.200690  0.320810  1.0  -0.4677
  O  O2360  1  0.693500  0.076000  0.267100  1.0  -0.4302
  O  O2361  1  0.825770  0.964950  0.123780  1.0  -0.553
  O  O2362  1  0.785840  0.964140  0.165480  1.0  -0.5603
  O  O2363  1  0.700690  0.820810  0.091610  1.0  -0.4699
  O  O2364  1  0.576000  0.767100  0.193500  1.0  -0.4359
  O  O2365  1  0.325770  0.464950  0.623780  1.0  -0.553
  O  O2366  1  0.285840  0.464140  0.665480  1.0  -0.5599
  O  O2367  1  0.200690  0.320810  0.591610  1.0  -0.4699
  O  O2368  1  0.076000  0.267100  0.693500  1.0  -0.4359
  O  O2369  1  0.174230  0.964950  0.876220  1.0  -0.5524
  O  O2370  1  0.214160  0.964140  0.834520  1.0  -0.559
  O  O2371  1  0.299310  0.820810  0.908390  1.0  -0.4657
  O  O2372  1  0.424000  0.767100  0.806500  1.0  -0.431
  O  O2373  1  0.674230  0.464950  0.376220  1.0  -0.5524
  O  O2374  1  0.714160  0.464140  0.334520  1.0  -0.5599
  O  O2375  1  0.799310  0.320810  0.408390  1.0  -0.4657
  O  O2376  1  0.924000  0.267100  0.306500  1.0  -0.431
  O  O2377  1  0.174230  0.035050  0.123780  1.0  -0.5525
  O  O2378  1  0.214160  0.035860  0.165480  1.0  -0.558
  O  O2379  1  0.299310  0.179190  0.091610  1.0  -0.4671
  O  O2380  1  0.424000  0.232900  0.193500  1.0  -0.4323
  O  O2381  1  0.674230  0.535050  0.623780  1.0  -0.5525
  O  O2382  1  0.714160  0.535860  0.665480  1.0  -0.558
  O  O2383  1  0.799310  0.679190  0.591610  1.0  -0.4671
  O  O2384  1  0.924000  0.732900  0.693500  1.0  -0.4323
  O  O2385  1  0.825770  0.035050  0.876220  1.0  -0.5525
  O  O2386  1  0.785840  0.035860  0.834520  1.0  -0.5608
  O  O2387  1  0.700690  0.179190  0.908390  1.0  -0.4668
  O  O2388  1  0.576000  0.232900  0.806500  1.0  -0.4347
  O  O2389  1  0.325770  0.535050  0.376220  1.0  -0.5525
  O  O2390  1  0.285840  0.535860  0.334520  1.0  -0.5608
  O  O2391  1  0.200690  0.679190  0.408390  1.0  -0.4668
  O  O2392  1  0.076000  0.732900  0.306500  1.0  -0.4347
  O  O2393  1  0.964950  0.876220  0.174230  1.0  -0.5529
  O  O2394  1  0.964140  0.834520  0.214160  1.0  -0.5584
  O  O2395  1  0.820810  0.908390  0.299310  1.0  -0.4655
  O  O2396  1  0.767100  0.806500  0.424000  1.0  -0.4316
  O  O2397  1  0.464950  0.376220  0.674230  1.0  -0.5529
  O  O2398  1  0.464140  0.334520  0.714160  1.0  -0.5584
  O  O2399  1  0.320810  0.408390  0.799310  1.0  -0.4655
  O  O2400  1  0.267100  0.306500  0.924000  1.0  -0.4316
  O  O2401  1  0.964950  0.123780  0.825770  1.0  -0.5532
  O  O2402  1  0.964140  0.165480  0.785840  1.0  -0.5588
  O  O2403  1  0.820810  0.091610  0.700690  1.0  -0.464
  O  O2404  1  0.767100  0.193500  0.576000  1.0  -0.4315
  O  O2405  1  0.464950  0.623780  0.325770  1.0  -0.5532
  O  O2406  1  0.464140  0.665480  0.285840  1.0  -0.5583
  O  O2407  1  0.320810  0.591610  0.200690  1.0  -0.464
  O  O2408  1  0.267100  0.693500  0.076000  1.0  -0.4315
  O  O2409  1  0.035050  0.876220  0.825770  1.0  -0.5526
  O  O2410  1  0.035860  0.834520  0.785840  1.0  -0.5584
  O  O2411  1  0.179190  0.908390  0.700690  1.0  -0.4658
  O  O2412  1  0.232900  0.806500  0.576000  1.0  -0.4292
  O  O2413  1  0.535050  0.376220  0.325770  1.0  -0.5528
  O  O2414  1  0.535860  0.334520  0.285840  1.0  -0.5584
  O  O2415  1  0.679190  0.408390  0.200690  1.0  -0.4658
  O  O2416  1  0.732900  0.306500  0.076000  1.0  -0.4292
  O  O2417  1  0.035050  0.123780  0.174230  1.0  -0.5524
  O  O2418  1  0.035860  0.165480  0.214160  1.0  -0.5577
  O  O2419  1  0.179190  0.091610  0.299310  1.0  -0.4641
  O  O2420  1  0.232900  0.193500  0.424000  1.0  -0.4297
  O  O2421  1  0.535050  0.623780  0.674230  1.0  -0.5524
  O  O2422  1  0.535860  0.665480  0.714160  1.0  -0.5577
  O  O2423  1  0.679190  0.591610  0.799310  1.0  -0.4641
  O  O2424  1  0.732900  0.693500  0.924000  1.0  -0.4297
  O  O2425  1  0.174230  0.123780  0.035050  1.0  -0.5543
  O  O2426  1  0.214160  0.165480  0.035860  1.0  -0.5584
  O  O2427  1  0.299310  0.091610  0.179190  1.0  -0.4623
  O  O2428  1  0.424000  0.193500  0.232900  1.0  -0.4285
  O  O2429  1  0.674230  0.623780  0.535050  1.0  -0.5543
  O  O2430  1  0.714160  0.665480  0.535860  1.0  -0.5584
  O  O2431  1  0.799310  0.591610  0.679190  1.0  -0.4623
  O  O2432  1  0.924000  0.693500  0.732900  1.0  -0.4285
  O  O2433  1  0.825770  0.876220  0.035050  1.0  -0.5543
  O  O2434  1  0.785840  0.834520  0.035860  1.0  -0.5602
  O  O2435  1  0.700690  0.908390  0.179190  1.0  -0.4652
  O  O2436  1  0.576000  0.806500  0.232900  1.0  -0.4315
  O  O2437  1  0.325770  0.376220  0.535050  1.0  -0.5543
  O  O2438  1  0.285840  0.334520  0.535860  1.0  -0.5602
  O  O2439  1  0.200690  0.408390  0.679190  1.0  -0.4652
  O  O2440  1  0.076000  0.306500  0.732900  1.0  -0.4315
  O  O2441  1  0.825770  0.123780  0.964950  1.0  -0.5541
  O  O2442  1  0.785840  0.165480  0.964140  1.0  -0.5599
  O  O2443  1  0.700690  0.091610  0.820810  1.0  -0.4644
  O  O2444  1  0.576000  0.193500  0.767100  1.0  -0.4321
  O  O2445  1  0.325770  0.623780  0.464950  1.0  -0.5541
  O  O2446  1  0.285840  0.665480  0.464140  1.0  -0.5599
  O  O2447  1  0.200690  0.591610  0.320810  1.0  -0.4644
  O  O2448  1  0.076000  0.693500  0.267100  1.0  -0.4321
  O  O2449  1  0.174230  0.876220  0.964950  1.0  -0.5537
  O  O2450  1  0.214160  0.834520  0.964140  1.0  -0.5593
  O  O2451  1  0.299310  0.908390  0.820810  1.0  -0.4642
  O  O2452  1  0.424000  0.806500  0.767100  1.0  -0.428
  O  O2453  1  0.674230  0.376220  0.464950  1.0  -0.5537
  O  O2454  1  0.714160  0.334520  0.464140  1.0  -0.5593
  O  O2455  1  0.799310  0.408390  0.320810  1.0  -0.4642
  O  O2456  1  0.924000  0.306500  0.267100  1.0  -0.428
  O  O2457  1  0.035050  0.174230  0.123780  1.0  -0.5534
  O  O2458  1  0.035860  0.214160  0.165480  1.0  -0.5568
  O  O2459  1  0.179190  0.299310  0.091610  1.0  -0.4679
  O  O2460  1  0.232900  0.424000  0.193500  1.0  -0.4305
  O  O2461  1  0.535050  0.674230  0.623780  1.0  -0.5534
  O  O2462  1  0.535860  0.714160  0.665480  1.0  -0.5567
  O  O2463  1  0.679190  0.799310  0.591610  1.0  -0.4679
  O  O2464  1  0.732900  0.924000  0.693500  1.0  -0.4305
  O  O2465  1  0.035050  0.825770  0.876220  1.0  -0.5516
  O  O2466  1  0.035860  0.785840  0.834520  1.0  -0.5596
  O  O2467  1  0.179190  0.700690  0.908390  1.0  -0.4671
  O  O2468  1  0.232900  0.576000  0.806500  1.0  -0.431
  O  O2469  1  0.535050  0.325770  0.376220  1.0  -0.5516
  O  O2470  1  0.535860  0.285840  0.334520  1.0  -0.5596
  O  O2471  1  0.679190  0.200690  0.408390  1.0  -0.4671
  O  O2472  1  0.732900  0.076000  0.306500  1.0  -0.431
  O  O2473  1  0.964950  0.825770  0.123780  1.0  -0.5526
  O  O2474  1  0.964140  0.785840  0.165480  1.0  -0.5596
  O  O2475  1  0.820810  0.700690  0.091610  1.0  -0.4693
  O  O2476  1  0.767100  0.576000  0.193500  1.0  -0.4338
  O  O2477  1  0.464950  0.325770  0.623780  1.0  -0.5526
  O  O2478  1  0.464140  0.285840  0.665480  1.0  -0.5596
  O  O2479  1  0.320810  0.200690  0.591610  1.0  -0.4693
  O  O2480  1  0.267100  0.076000  0.693500  1.0  -0.4338
  O  O2481  1  0.964950  0.174230  0.876220  1.0  -0.5531
  O  O2482  1  0.964140  0.214160  0.834520  1.0  -0.5592
  O  O2483  1  0.820810  0.299310  0.908390  1.0  -0.4665
  O  O2484  1  0.767100  0.424000  0.806500  1.0  -0.4322
  O  O2485  1  0.464950  0.674230  0.376220  1.0  -0.5531
  O  O2486  1  0.464140  0.714160  0.334520  1.0  -0.5592
  O  O2487  1  0.320810  0.799310  0.408390  1.0  -0.4665
  O  O2488  1  0.267100  0.924000  0.306500  1.0  -0.4322
  O  O2489  1  0.123780  0.035050  0.174230  1.0  -0.5528
  O  O2490  1  0.165480  0.035860  0.214160  1.0  -0.5587
  O  O2491  1  0.091610  0.179190  0.299310  1.0  -0.4676
  O  O2492  1  0.193500  0.232900  0.424000  1.0  -0.4351
  O  O2493  1  0.623780  0.535050  0.674230  1.0  -0.5528
  O  O2494  1  0.665480  0.535860  0.714160  1.0  -0.5587
  O  O2495  1  0.591610  0.679190  0.799310  1.0  -0.4676
  O  O2496  1  0.693500  0.732900  0.924000  1.0  -0.4351
  O  O2497  1  0.876220  0.035050  0.825770  1.0  -0.5519
  O  O2498  1  0.834520  0.035860  0.785840  1.0  -0.5589
  O  O2499  1  0.908390  0.179190  0.700690  1.0  -0.4693
  O  O2500  1  0.806500  0.232900  0.576000  1.0  -0.4332
  O  O2501  1  0.376220  0.535050  0.325770  1.0  -0.5521
  O  O2502  1  0.334520  0.535860  0.285840  1.0  -0.5589
  O  O2503  1  0.408390  0.679190  0.200690  1.0  -0.4693
  O  O2504  1  0.306500  0.732900  0.076000  1.0  -0.4332
  O  O2505  1  0.123780  0.964950  0.825770  1.0  -0.5523
  O  O2506  1  0.165480  0.964140  0.785840  1.0  -0.5589
  O  O2507  1  0.091610  0.820810  0.700690  1.0  -0.4682
  O  O2508  1  0.193500  0.767100  0.576000  1.0  -0.4328
  O  O2509  1  0.623780  0.464950  0.325770  1.0  -0.5523
  O  O2510  1  0.665480  0.464140  0.285840  1.0  -0.5589
  O  O2511  1  0.591610  0.320810  0.200690  1.0  -0.4682
  O  O2512  1  0.693500  0.267100  0.076000  1.0  -0.4328
  O  O2513  1  0.876220  0.964950  0.174230  1.0  -0.5512
  O  O2514  1  0.834520  0.964140  0.214160  1.0  -0.5586
  O  O2515  1  0.908390  0.820810  0.299310  1.0  -0.4675
  O  O2516  1  0.806500  0.767100  0.424000  1.0  -0.4336
  O  O2517  1  0.376220  0.464950  0.674230  1.0  -0.5511
  O  O2518  1  0.334520  0.464140  0.714160  1.0  -0.5586
  O  O2519  1  0.408390  0.320810  0.799310  1.0  -0.4675
  O  O2520  1  0.306500  0.267100  0.924000  1.0  -0.4336
  O  O2521  1  0.123780  0.174230  0.964950  1.0  -0.5533
  O  O2522  1  0.165480  0.214160  0.964140  1.0  -0.5585
  O  O2523  1  0.091610  0.299310  0.820810  1.0  -0.4655
  O  O2524  1  0.193500  0.424000  0.767100  1.0  -0.4299
  O  O2525  1  0.623780  0.674230  0.464950  1.0  -0.5533
  O  O2526  1  0.665480  0.714160  0.464140  1.0  -0.5585
  O  O2527  1  0.591610  0.799310  0.320810  1.0  -0.4655
  O  O2528  1  0.693500  0.924000  0.267100  1.0  -0.4299
  O  O2529  1  0.876220  0.825770  0.964950  1.0  -0.5526
  O  O2530  1  0.834520  0.785840  0.964140  1.0  -0.5598
  O  O2531  1  0.908390  0.700690  0.820810  1.0  -0.4687
  O  O2532  1  0.806500  0.576000  0.767100  1.0  -0.4296
  O  O2533  1  0.376220  0.325770  0.464950  1.0  -0.5526
  O  O2534  1  0.334520  0.285840  0.464140  1.0  -0.5598
  O  O2535  1  0.408390  0.200690  0.320810  1.0  -0.4687
  O  O2536  1  0.306500  0.076000  0.267100  1.0  -0.4296
  O  O2537  1  0.123780  0.825770  0.035050  1.0  -0.5534
  O  O2538  1  0.165480  0.785840  0.035860  1.0  -0.5596
  O  O2539  1  0.091610  0.700690  0.179190  1.0  -0.4678
  O  O2540  1  0.193500  0.576000  0.232900  1.0  -0.4296
  O  O2541  1  0.623780  0.325770  0.535050  1.0  -0.5534
  O  O2542  1  0.665480  0.285840  0.535860  1.0  -0.5596
  O  O2543  1  0.591610  0.200690  0.679190  1.0  -0.4678
  O  O2544  1  0.693500  0.076000  0.732900  1.0  -0.4296
  O  O2545  1  0.876220  0.174230  0.035050  1.0  -0.5529
  O  O2546  1  0.834520  0.214160  0.035860  1.0  -0.5589
  O  O2547  1  0.908390  0.299310  0.179190  1.0  -0.4663
  O  O2548  1  0.806500  0.424000  0.232900  1.0  -0.4319
  O  O2549  1  0.376220  0.674230  0.535050  1.0  -0.5529
  O  O2550  1  0.334520  0.714160  0.535860  1.0  -0.5589
  O  O2551  1  0.408390  0.799310  0.679190  1.0  -0.4663
  O  O2552  1  0.306500  0.924000  0.732900  1.0  -0.4319
  O  O2553  1  0.174230  0.035050  0.876220  1.0  -0.5525
  O  O2554  1  0.214160  0.035860  0.834520  1.0  -0.5609
  O  O2555  1  0.299310  0.179190  0.908390  1.0  -0.4656
  O  O2556  1  0.424000  0.232900  0.806500  1.0  -0.4327
  O  O2557  1  0.674230  0.535050  0.376220  1.0  -0.5525
  O  O2558  1  0.714160  0.535860  0.334520  1.0  -0.5609
  O  O2559  1  0.799310  0.679190  0.408390  1.0  -0.4656
  O  O2560  1  0.924000  0.732900  0.306500  1.0  -0.4327
  O  O2561  1  0.825770  0.035050  0.123780  1.0  -0.5534
  O  O2562  1  0.785840  0.035860  0.165480  1.0  -0.5601
  O  O2563  1  0.700690  0.179190  0.091610  1.0  -0.4705
  O  O2564  1  0.576000  0.232900  0.193500  1.0  -0.4362
  O  O2565  1  0.325770  0.535050  0.623780  1.0  -0.5534
  O  O2566  1  0.285840  0.535860  0.665480  1.0  -0.5601
  O  O2567  1  0.200690  0.679190  0.591610  1.0  -0.4705
  O  O2568  1  0.076000  0.732900  0.693500  1.0  -0.4362
  O  O2569  1  0.825770  0.964950  0.876220  1.0  -0.5524
  O  O2570  1  0.785840  0.964140  0.834520  1.0  -0.5604
  O  O2571  1  0.700690  0.820810  0.908390  1.0  -0.467
  O  O2572  1  0.576000  0.767100  0.806500  1.0  -0.4339
  O  O2573  1  0.325770  0.464950  0.376220  1.0  -0.5524
  O  O2574  1  0.285840  0.464140  0.334520  1.0  -0.5604
  O  O2575  1  0.200690  0.320810  0.408390  1.0  -0.467
  O  O2576  1  0.076000  0.267100  0.306500  1.0  -0.4339
  O  O2577  1  0.174230  0.964950  0.123780  1.0  -0.5522
  O  O2578  1  0.214160  0.964140  0.165480  1.0  -0.5584
  O  O2579  1  0.299310  0.820810  0.091610  1.0  -0.4666
  O  O2580  1  0.424000  0.767100  0.193500  1.0  -0.4307
  O  O2581  1  0.674230  0.464950  0.623780  1.0  -0.5522
  O  O2582  1  0.714160  0.464140  0.665480  1.0  -0.5584
  O  O2583  1  0.799310  0.320810  0.591610  1.0  -0.4666
  O  O2584  1  0.924000  0.267100  0.693500  1.0  -0.4307
  O  O2585  1  0.035050  0.123780  0.825770  1.0  -0.5536
  O  O2586  1  0.035860  0.165480  0.785840  1.0  -0.5582
  O  O2587  1  0.179190  0.091610  0.700690  1.0  -0.465
  O  O2588  1  0.232900  0.193500  0.576000  1.0  -0.43
  O  O2589  1  0.535050  0.623780  0.325770  1.0  -0.5536
  O  O2590  1  0.535860  0.665480  0.285840  1.0  -0.5576
  O  O2591  1  0.679190  0.591610  0.200690  1.0  -0.465
  O  O2592  1  0.732900  0.693500  0.076000  1.0  -0.43
  O  O2593  1  0.035050  0.876220  0.174230  1.0  -0.5532
  O  O2594  1  0.035860  0.834520  0.214160  1.0  -0.558
  O  O2595  1  0.179190  0.908390  0.299310  1.0  -0.4649
  O  O2596  1  0.232900  0.806500  0.424000  1.0  -0.43
  O  O2597  1  0.535050  0.376220  0.674230  1.0  -0.5532
  O  O2598  1  0.535860  0.334520  0.714160  1.0  -0.558
  O  O2599  1  0.679190  0.408390  0.799310  1.0  -0.4649
  O  O2600  1  0.732900  0.306500  0.924000  1.0  -0.43
  O  O2601  1  0.964950  0.123780  0.174230  1.0  -0.5521
  O  O2602  1  0.964140  0.165480  0.214160  1.0  -0.5581
  O  O2603  1  0.820810  0.091610  0.299310  1.0  -0.4639
  O  O2604  1  0.767100  0.193500  0.424000  1.0  -0.431
  O  O2605  1  0.464950  0.623780  0.674230  1.0  -0.5521
  O  O2606  1  0.464140  0.665480  0.714160  1.0  -0.5581
  O  O2607  1  0.320810  0.591610  0.799310  1.0  -0.4639
  O  O2608  1  0.267100  0.693500  0.924000  1.0  -0.431
  O  O2609  1  0.964950  0.876220  0.825770  1.0  -0.5523
  O  O2610  1  0.964140  0.834520  0.785840  1.0  -0.5588
  O  O2611  1  0.820810  0.908390  0.700690  1.0  -0.4664
  O  O2612  1  0.767100  0.806500  0.576000  1.0  -0.4313
  O  O2613  1  0.464950  0.376220  0.325770  1.0  -0.5523
  O  O2614  1  0.464140  0.334520  0.285840  1.0  -0.5588
  O  O2615  1  0.320810  0.408390  0.200690  1.0  -0.4664
  O  O2616  1  0.267100  0.306500  0.076000  1.0  -0.4313
