# generated using pymatgen
data_Cu2H9C25NO8
_symmetry_space_group_name_H-M   'P 1'
_cell_length_a   31.10890000
_cell_length_b   31.10890000
_cell_length_c   31.10890000
_cell_angle_alpha   90.00000000
_cell_angle_beta   90.00000000
_cell_angle_gamma   90.00000000
_symmetry_Int_Tables_number   1
_chemical_formula_structural   Cu2H9C25NO8
_chemical_formula_sum   'Cu48 H216 C600 N24 O192'
_cell_volume   30106.06289800
_cell_formula_units_Z   24
loop_
 _symmetry_equiv_pos_site_id
 _symmetry_equiv_pos_as_xyz
  1  'x, y, z'
loop_
 _atom_site_type_symbol
 _atom_site_label
 _atom_site_symmetry_multiplicity
 _atom_site_fract_x
 _atom_site_fract_y
 _atom_site_fract_z
 _atom_site_occupancy
 _atom_site_charge
  Cu  Cu1  1  0.000000  0.180480  0.180480  1.0  0.8799
  Cu  Cu2  1  0.000000  0.240470  0.240470  1.0  0.8077
  Cu  Cu3  1  0.500000  0.680480  0.680480  1.0  0.8799
  Cu  Cu4  1  0.500000  0.740470  0.740470  1.0  0.8077
  Cu  Cu5  1  0.000000  0.819520  0.180480  1.0  0.8794
  Cu  Cu6  1  0.000000  0.759530  0.240470  1.0  0.8071
  Cu  Cu7  1  0.500000  0.319520  0.680480  1.0  0.8794
  Cu  Cu8  1  0.500000  0.259530  0.740470  1.0  0.8071
  Cu  Cu9  1  0.000000  0.180480  0.819520  1.0  0.8794
  Cu  Cu10  1  0.000000  0.240470  0.759530  1.0  0.8079
  Cu  Cu11  1  0.500000  0.680480  0.319520  1.0  0.8794
  Cu  Cu12  1  0.500000  0.740470  0.259530  1.0  0.8079
  Cu  Cu13  1  0.000000  0.819520  0.819520  1.0  0.8797
  Cu  Cu14  1  0.000000  0.759530  0.759530  1.0  0.8072
  Cu  Cu15  1  0.500000  0.319520  0.319520  1.0  0.8797
  Cu  Cu16  1  0.500000  0.259530  0.259530  1.0  0.8072
  Cu  Cu17  1  0.180480  0.000000  0.180480  1.0  0.8816
  Cu  Cu18  1  0.240470  0.000000  0.240470  1.0  0.806
  Cu  Cu19  1  0.680480  0.500000  0.680480  1.0  0.8816
  Cu  Cu20  1  0.740470  0.500000  0.740470  1.0  0.806
  Cu  Cu21  1  0.180480  0.000000  0.819520  1.0  0.8806
  Cu  Cu22  1  0.240470  0.000000  0.759530  1.0  0.8061
  Cu  Cu23  1  0.680480  0.500000  0.319520  1.0  0.8806
  Cu  Cu24  1  0.740470  0.500000  0.259530  1.0  0.8061
  Cu  Cu25  1  0.819520  0.000000  0.180480  1.0  0.8803
  Cu  Cu26  1  0.759530  0.000000  0.240470  1.0  0.8072
  Cu  Cu27  1  0.319520  0.500000  0.680480  1.0  0.8803
  Cu  Cu28  1  0.259530  0.500000  0.740470  1.0  0.8072
  Cu  Cu29  1  0.819520  0.000000  0.819520  1.0  0.8802
  Cu  Cu30  1  0.759530  0.000000  0.759530  1.0  0.8073
  Cu  Cu31  1  0.319520  0.500000  0.319520  1.0  0.8802
  Cu  Cu32  1  0.259530  0.500000  0.259530  1.0  0.8073
  Cu  Cu33  1  0.180480  0.180480  0.000000  1.0  0.8821
  Cu  Cu34  1  0.240470  0.240470  0.000000  1.0  0.806
  Cu  Cu35  1  0.680480  0.680480  0.500000  1.0  0.8821
  Cu  Cu36  1  0.740470  0.740470  0.500000  1.0  0.806
  Cu  Cu37  1  0.819520  0.180480  0.000000  1.0  0.8814
  Cu  Cu38  1  0.759530  0.240470  0.000000  1.0  0.807
  Cu  Cu39  1  0.319520  0.680480  0.500000  1.0  0.8814
  Cu  Cu40  1  0.259530  0.740470  0.500000  1.0  0.807
  Cu  Cu41  1  0.180480  0.819520  0.000000  1.0  0.882
  Cu  Cu42  1  0.240470  0.759530  0.000000  1.0  0.8053
  Cu  Cu43  1  0.680480  0.319520  0.500000  1.0  0.882
  Cu  Cu44  1  0.740470  0.259530  0.500000  1.0  0.8053
  Cu  Cu45  1  0.819520  0.819520  0.000000  1.0  0.8823
  Cu  Cu46  1  0.759530  0.759530  0.000000  1.0  0.8063
  Cu  Cu47  1  0.319520  0.319520  0.500000  1.0  0.8823
  Cu  Cu48  1  0.259530  0.259530  0.500000  1.0  0.8063
  H  H49  1  0.085500  0.176100  0.331600  1.0  0.1104
  H  H50  1  0.585500  0.676100  0.831600  1.0  0.1104
  H  H51  1  0.914500  0.823900  0.331600  1.0  0.1102
  H  H52  1  0.414500  0.323900  0.831600  1.0  0.1102
  H  H53  1  0.914500  0.176100  0.668400  1.0  0.1105
  H  H54  1  0.414500  0.676100  0.168400  1.0  0.1105
  H  H55  1  0.085500  0.823900  0.668400  1.0  0.1105
  H  H56  1  0.585500  0.323900  0.168400  1.0  0.1105
  H  H57  1  0.331600  0.085500  0.176100  1.0  0.1104
  H  H58  1  0.831600  0.585500  0.676100  1.0  0.1104
  H  H59  1  0.331600  0.914500  0.823900  1.0  0.1102
  H  H60  1  0.831600  0.414500  0.323900  1.0  0.1102
  H  H61  1  0.668400  0.914500  0.176100  1.0  0.1107
  H  H62  1  0.168400  0.414500  0.676100  1.0  0.1107
  H  H63  1  0.668400  0.085500  0.823900  1.0  0.1106
  H  H64  1  0.168400  0.585500  0.323900  1.0  0.1106
  H  H65  1  0.176100  0.331600  0.085500  1.0  0.1097
  H  H66  1  0.676100  0.831600  0.585500  1.0  0.1097
  H  H67  1  0.823900  0.331600  0.914500  1.0  0.1097
  H  H68  1  0.323900  0.831600  0.414500  1.0  0.1097
  H  H69  1  0.176100  0.668400  0.914500  1.0  0.1091
  H  H70  1  0.676100  0.168400  0.414500  1.0  0.1091
  H  H71  1  0.823900  0.668400  0.085500  1.0  0.1101
  H  H72  1  0.323900  0.168400  0.585500  1.0  0.1101
  H  H73  1  0.176100  0.085500  0.668400  1.0  0.1096
  H  H74  1  0.676100  0.585500  0.168400  1.0  0.1096
  H  H75  1  0.823900  0.914500  0.668400  1.0  0.1099
  H  H76  1  0.323900  0.414500  0.168400  1.0  0.1099
  H  H77  1  0.176100  0.914500  0.331600  1.0  0.1093
  H  H78  1  0.676100  0.414500  0.831600  1.0  0.1093
  H  H79  1  0.823900  0.085500  0.331600  1.0  0.1103
  H  H80  1  0.323900  0.585500  0.831600  1.0  0.1103
  H  H81  1  0.085500  0.331600  0.823900  1.0  0.1109
  H  H82  1  0.585500  0.831600  0.323900  1.0  0.1109
  H  H83  1  0.914500  0.331600  0.176100  1.0  0.1108
  H  H84  1  0.414500  0.831600  0.676100  1.0  0.1108
  H  H85  1  0.914500  0.668400  0.823900  1.0  0.1107
  H  H86  1  0.414500  0.168400  0.323900  1.0  0.1107
  H  H87  1  0.085500  0.668400  0.176100  1.0  0.1115
  H  H88  1  0.585500  0.168400  0.676100  1.0  0.1115
  H  H89  1  0.331600  0.176100  0.914500  1.0  0.1091
  H  H90  1  0.831600  0.676100  0.414500  1.0  0.1091
  H  H91  1  0.331600  0.823900  0.085500  1.0  0.1095
  H  H92  1  0.831600  0.323900  0.585500  1.0  0.1095
  H  H93  1  0.668400  0.176100  0.085500  1.0  0.11
  H  H94  1  0.168400  0.676100  0.585500  1.0  0.11
  H  H95  1  0.668400  0.823900  0.914500  1.0  0.1098
  H  H96  1  0.168400  0.323900  0.414500  1.0  0.1098
  H  H97  1  0.914500  0.823900  0.668400  1.0  0.1102
  H  H98  1  0.414500  0.323900  0.168400  1.0  0.1102
  H  H99  1  0.085500  0.176100  0.668400  1.0  0.1106
  H  H100  1  0.585500  0.676100  0.168400  1.0  0.1106
  H  H101  1  0.085500  0.823900  0.331600  1.0  0.1108
  H  H102  1  0.585500  0.323900  0.831600  1.0  0.1108
  H  H103  1  0.914500  0.176100  0.331600  1.0  0.1101
  H  H104  1  0.414500  0.676100  0.831600  1.0  0.1101
  H  H105  1  0.668400  0.914500  0.823900  1.0  0.1103
  H  H106  1  0.168400  0.414500  0.323900  1.0  0.1103
  H  H107  1  0.668400  0.085500  0.176100  1.0  0.1112
  H  H108  1  0.168400  0.585500  0.676100  1.0  0.1112
  H  H109  1  0.331600  0.085500  0.823900  1.0  0.1101
  H  H110  1  0.831600  0.585500  0.323900  1.0  0.1101
  H  H111  1  0.331600  0.914500  0.176100  1.0  0.1102
  H  H112  1  0.831600  0.414500  0.676100  1.0  0.1102
  H  H113  1  0.823900  0.668400  0.914500  1.0  0.1099
  H  H114  1  0.323900  0.168400  0.414500  1.0  0.1099
  H  H115  1  0.176100  0.668400  0.085500  1.0  0.1095
  H  H116  1  0.676100  0.168400  0.585500  1.0  0.1095
  H  H117  1  0.823900  0.331600  0.085500  1.0  0.1102
  H  H118  1  0.323900  0.831600  0.585500  1.0  0.1102
  H  H119  1  0.176100  0.331600  0.914500  1.0  0.109
  H  H120  1  0.676100  0.831600  0.414500  1.0  0.109
  H  H121  1  0.823900  0.914500  0.331600  1.0  0.1099
  H  H122  1  0.323900  0.414500  0.831600  1.0  0.1099
  H  H123  1  0.176100  0.085500  0.331600  1.0  0.1095
  H  H124  1  0.676100  0.585500  0.831600  1.0  0.1095
  H  H125  1  0.823900  0.085500  0.668400  1.0  0.1101
  H  H126  1  0.323900  0.585500  0.168400  1.0  0.1101
  H  H127  1  0.176100  0.914500  0.668400  1.0  0.1096
  H  H128  1  0.676100  0.414500  0.168400  1.0  0.1096
  H  H129  1  0.914500  0.668400  0.176100  1.0  0.1108
  H  H130  1  0.414500  0.168400  0.676100  1.0  0.1108
  H  H131  1  0.085500  0.668400  0.823900  1.0  0.1111
  H  H132  1  0.585500  0.168400  0.323900  1.0  0.1111
  H  H133  1  0.085500  0.331600  0.176100  1.0  0.1113
  H  H134  1  0.585500  0.831600  0.676100  1.0  0.1113
  H  H135  1  0.914500  0.331600  0.823900  1.0  0.1107
  H  H136  1  0.414500  0.831600  0.323900  1.0  0.1107
  H  H137  1  0.668400  0.823900  0.085500  1.0  0.1098
  H  H138  1  0.168400  0.323900  0.585500  1.0  0.1098
  H  H139  1  0.668400  0.176100  0.914500  1.0  0.1094
  H  H140  1  0.168400  0.676100  0.414500  1.0  0.1094
  H  H141  1  0.331600  0.823900  0.914500  1.0  0.109
  H  H142  1  0.831600  0.323900  0.414500  1.0  0.109
  H  H143  1  0.331600  0.176100  0.085500  1.0  0.11
  H  H144  1  0.831600  0.676100  0.585500  1.0  0.11
  H  H145  1  0.126300  0.126300  0.500000  1.0  0.118
  H  H146  1  0.626300  0.626300  0.000000  1.0  0.118
  H  H147  1  0.873700  0.873700  0.500000  1.0  0.1188
  H  H148  1  0.373700  0.373700  0.000000  1.0  0.1188
  H  H149  1  0.873700  0.126300  0.500000  1.0  0.119
  H  H150  1  0.373700  0.626300  0.000000  1.0  0.119
  H  H151  1  0.126300  0.873700  0.500000  1.0  0.1185
  H  H152  1  0.626300  0.373700  0.000000  1.0  0.1185
  H  H153  1  0.500000  0.126300  0.126300  1.0  0.1182
  H  H154  1  0.000000  0.626300  0.626300  1.0  0.1182
  H  H155  1  0.500000  0.873700  0.873700  1.0  0.1183
  H  H156  1  0.000000  0.373700  0.373700  1.0  0.1183
  H  H157  1  0.500000  0.873700  0.126300  1.0  0.1185
  H  H158  1  0.000000  0.373700  0.626300  1.0  0.1185
  H  H159  1  0.500000  0.126300  0.873700  1.0  0.1184
  H  H160  1  0.000000  0.626300  0.373700  1.0  0.1184
  H  H161  1  0.126300  0.500000  0.126300  1.0  0.1173
  H  H162  1  0.626300  0.000000  0.626300  1.0  0.1173
  H  H163  1  0.873700  0.500000  0.873700  1.0  0.1176
  H  H164  1  0.373700  0.000000  0.373700  1.0  0.1176
  H  H165  1  0.126300  0.500000  0.873700  1.0  0.1175
  H  H166  1  0.626300  0.000000  0.373700  1.0  0.1175
  H  H167  1  0.873700  0.500000  0.126300  1.0  0.1176
  H  H168  1  0.373700  0.000000  0.626300  1.0  0.1176
  H  H169  1  0.206600  0.206600  0.437700  1.0  0.0833
  H  H170  1  0.104900  0.104900  0.226300  1.0  0.1037
  H  H171  1  0.706600  0.706600  0.937700  1.0  0.0833
  H  H172  1  0.604900  0.604900  0.726300  1.0  0.1037
  H  H173  1  0.793400  0.793400  0.437700  1.0  0.0829
  H  H174  1  0.895100  0.895100  0.226300  1.0  0.1033
  H  H175  1  0.293400  0.293400  0.937700  1.0  0.0829
  H  H176  1  0.395100  0.395100  0.726300  1.0  0.1033
  H  H177  1  0.793400  0.206600  0.562300  1.0  0.0835
  H  H178  1  0.895100  0.104900  0.773700  1.0  0.1039
  H  H179  1  0.293400  0.706600  0.062300  1.0  0.0835
  H  H180  1  0.395100  0.604900  0.273700  1.0  0.1039
  H  H181  1  0.206600  0.793400  0.562300  1.0  0.0831
  H  H182  1  0.104900  0.895100  0.773700  1.0  0.1039
  H  H183  1  0.706600  0.293400  0.062300  1.0  0.0831
  H  H184  1  0.604900  0.395100  0.273700  1.0  0.1039
  H  H185  1  0.437700  0.206600  0.206600  1.0  0.0829
  H  H186  1  0.226300  0.104900  0.104900  1.0  0.1037
  H  H187  1  0.937700  0.706600  0.706600  1.0  0.0829
  H  H188  1  0.726300  0.604900  0.604900  1.0  0.1037
  H  H189  1  0.437700  0.793400  0.793400  1.0  0.0824
  H  H190  1  0.226300  0.895100  0.895100  1.0  0.1035
  H  H191  1  0.937700  0.293400  0.293400  1.0  0.0824
  H  H192  1  0.726300  0.395100  0.395100  1.0  0.1035
  H  H193  1  0.562300  0.793400  0.206600  1.0  0.0832
  H  H194  1  0.773700  0.895100  0.104900  1.0  0.1034
  H  H195  1  0.062300  0.293400  0.706600  1.0  0.0832
  H  H196  1  0.273700  0.395100  0.604900  1.0  0.1034
  H  H197  1  0.562300  0.206600  0.793400  1.0  0.0828
  H  H198  1  0.773700  0.104900  0.895100  1.0  0.104
  H  H199  1  0.062300  0.706600  0.293400  1.0  0.0828
  H  H200  1  0.273700  0.604900  0.395100  1.0  0.104
  H  H201  1  0.206600  0.437700  0.206600  1.0  0.0842
  H  H202  1  0.104900  0.226300  0.104900  1.0  0.1047
  H  H203  1  0.706600  0.937700  0.706600  1.0  0.0842
  H  H204  1  0.604900  0.726300  0.604900  1.0  0.1047
  H  H205  1  0.793400  0.437700  0.793400  1.0  0.0839
  H  H206  1  0.895100  0.226300  0.895100  1.0  0.1051
  H  H207  1  0.293400  0.937700  0.293400  1.0  0.0839
  H  H208  1  0.395100  0.726300  0.395100  1.0  0.1051
  H  H209  1  0.206600  0.562300  0.793400  1.0  0.0838
  H  H210  1  0.104900  0.773700  0.895100  1.0  0.1048
  H  H211  1  0.706600  0.062300  0.293400  1.0  0.0838
  H  H212  1  0.604900  0.273700  0.395100  1.0  0.1048
  H  H213  1  0.793400  0.562300  0.206600  1.0  0.0846
  H  H214  1  0.895100  0.773700  0.104900  1.0  0.1041
  H  H215  1  0.293400  0.062300  0.706600  1.0  0.0846
  H  H216  1  0.395100  0.273700  0.604900  1.0  0.1041
  H  H217  1  0.206600  0.206600  0.562300  1.0  0.0834
  H  H218  1  0.104900  0.104900  0.773700  1.0  0.1042
  H  H219  1  0.706600  0.706600  0.062300  1.0  0.0834
  H  H220  1  0.604900  0.604900  0.273700  1.0  0.1042
  H  H221  1  0.793400  0.793400  0.562300  1.0  0.0833
  H  H222  1  0.895100  0.895100  0.773700  1.0  0.1036
  H  H223  1  0.293400  0.293400  0.062300  1.0  0.0833
  H  H224  1  0.395100  0.395100  0.273700  1.0  0.1036
  H  H225  1  0.206600  0.793400  0.437700  1.0  0.0831
  H  H226  1  0.104900  0.895100  0.226300  1.0  0.1034
  H  H227  1  0.706600  0.293400  0.937700  1.0  0.0831
  H  H228  1  0.604900  0.395100  0.726300  1.0  0.1034
  H  H229  1  0.793400  0.206600  0.437700  1.0  0.0832
  H  H230  1  0.895100  0.104900  0.226300  1.0  0.1037
  H  H231  1  0.293400  0.706600  0.937700  1.0  0.0832
  H  H232  1  0.395100  0.604900  0.726300  1.0  0.1037
  H  H233  1  0.206600  0.437700  0.793400  1.0  0.0838
  H  H234  1  0.104900  0.226300  0.895100  1.0  0.1051
  H  H235  1  0.706600  0.937700  0.293400  1.0  0.0838
  H  H236  1  0.604900  0.726300  0.395100  1.0  0.1051
  H  H237  1  0.793400  0.437700  0.206600  1.0  0.0843
  H  H238  1  0.895100  0.226300  0.104900  1.0  0.1048
  H  H239  1  0.293400  0.937700  0.706600  1.0  0.0843
  H  H240  1  0.395100  0.726300  0.604900  1.0  0.1048
  H  H241  1  0.793400  0.562300  0.793400  1.0  0.0842
  H  H242  1  0.895100  0.773700  0.895100  1.0  0.1048
  H  H243  1  0.293400  0.062300  0.293400  1.0  0.0842
  H  H244  1  0.395100  0.273700  0.395100  1.0  0.1048
  H  H245  1  0.206600  0.562300  0.206600  1.0  0.0843
  H  H246  1  0.104900  0.773700  0.104900  1.0  0.1042
  H  H247  1  0.706600  0.062300  0.706600  1.0  0.0843
  H  H248  1  0.604900  0.273700  0.604900  1.0  0.1042
  H  H249  1  0.437700  0.206600  0.793400  1.0  0.0827
  H  H250  1  0.226300  0.104900  0.895100  1.0  0.1041
  H  H251  1  0.937700  0.706600  0.293400  1.0  0.0827
  H  H252  1  0.726300  0.604900  0.395100  1.0  0.1041
  H  H253  1  0.437700  0.793400  0.206600  1.0  0.0827
  H  H254  1  0.226300  0.895100  0.104900  1.0  0.1031
  H  H255  1  0.937700  0.293400  0.706600  1.0  0.0827
  H  H256  1  0.726300  0.395100  0.604900  1.0  0.1031
  H  H257  1  0.562300  0.206600  0.206600  1.0  0.0833
  H  H258  1  0.773700  0.104900  0.104900  1.0  0.1036
  H  H259  1  0.062300  0.706600  0.706600  1.0  0.0833
  H  H260  1  0.273700  0.604900  0.604900  1.0  0.1036
  H  H261  1  0.562300  0.793400  0.793400  1.0  0.0826
  H  H262  1  0.773700  0.895100  0.895100  1.0  0.1039
  H  H263  1  0.062300  0.293400  0.293400  1.0  0.0826
  H  H264  1  0.273700  0.395100  0.395100  1.0  0.1039
  C  C265  1  0.100200  0.154300  0.317600  1.0  -0.0836
  C  C266  1  0.090400  0.145000  0.274700  1.0  -0.166
  C  C267  1  0.057200  0.169700  0.250900  1.0  0.6729
  C  C268  1  0.600200  0.654300  0.817600  1.0  -0.0836
  C  C269  1  0.590400  0.645000  0.774700  1.0  -0.166
  C  C270  1  0.557200  0.669700  0.750900  1.0  0.6729
  C  C271  1  0.899800  0.845700  0.317600  1.0  -0.0825
  C  C272  1  0.909600  0.855000  0.274700  1.0  -0.1654
  C  C273  1  0.942800  0.830300  0.250900  1.0  0.6725
  C  C274  1  0.399800  0.345700  0.817600  1.0  -0.0825
  C  C275  1  0.409600  0.355000  0.774700  1.0  -0.1654
  C  C276  1  0.442800  0.330300  0.750900  1.0  0.6725
  C  C277  1  0.899800  0.154300  0.682400  1.0  -0.0837
  C  C278  1  0.909600  0.145000  0.725300  1.0  -0.1652
  C  C279  1  0.942800  0.169700  0.749100  1.0  0.6728
  C  C280  1  0.399800  0.654300  0.182400  1.0  -0.0837
  C  C281  1  0.409600  0.645000  0.225300  1.0  -0.1652
  C  C282  1  0.442800  0.669700  0.249100  1.0  0.6728
  C  C283  1  0.100200  0.845700  0.682400  1.0  -0.0837
  C  C284  1  0.090400  0.855000  0.725300  1.0  -0.1659
  C  C285  1  0.057200  0.830300  0.749100  1.0  0.6727
  C  C286  1  0.600200  0.345700  0.182400  1.0  -0.0837
  C  C287  1  0.590400  0.355000  0.225300  1.0  -0.1659
  C  C288  1  0.557200  0.330300  0.249100  1.0  0.6727
  C  C289  1  0.317600  0.100200  0.154300  1.0  -0.0819
  C  C290  1  0.274700  0.090400  0.145000  1.0  -0.1653
  C  C291  1  0.250900  0.057200  0.169700  1.0  0.6713
  C  C292  1  0.817600  0.600200  0.654300  1.0  -0.0819
  C  C293  1  0.774700  0.590400  0.645000  1.0  -0.1653
  C  C294  1  0.750900  0.557200  0.669700  1.0  0.6713
  C  C295  1  0.317600  0.899800  0.845700  1.0  -0.0819
  C  C296  1  0.274700  0.909600  0.855000  1.0  -0.1658
  C  C297  1  0.250900  0.942800  0.830300  1.0  0.6715
  C  C298  1  0.817600  0.399800  0.345700  1.0  -0.0819
  C  C299  1  0.774700  0.409600  0.355000  1.0  -0.1658
  C  C300  1  0.750900  0.442800  0.330300  1.0  0.6715
  C  C301  1  0.682400  0.899800  0.154300  1.0  -0.0836
  C  C302  1  0.725300  0.909600  0.145000  1.0  -0.165
  C  C303  1  0.749100  0.942800  0.169700  1.0  0.6718
  C  C304  1  0.182400  0.399800  0.654300  1.0  -0.0836
  C  C305  1  0.225300  0.409600  0.645000  1.0  -0.165
  C  C306  1  0.249100  0.442800  0.669700  1.0  0.6718
  C  C307  1  0.682400  0.100200  0.845700  1.0  -0.084
  C  C308  1  0.725300  0.090400  0.855000  1.0  -0.1655
  C  C309  1  0.749100  0.057200  0.830300  1.0  0.6717
  C  C310  1  0.182400  0.600200  0.345700  1.0  -0.084
  C  C311  1  0.225300  0.590400  0.355000  1.0  -0.1655
  C  C312  1  0.249100  0.557200  0.330300  1.0  0.6717
  C  C313  1  0.154300  0.317600  0.100200  1.0  -0.0841
  C  C314  1  0.145000  0.274700  0.090400  1.0  -0.1654
  C  C315  1  0.169700  0.250900  0.057200  1.0  0.6726
  C  C316  1  0.654300  0.817600  0.600200  1.0  -0.0841
  C  C317  1  0.645000  0.774700  0.590400  1.0  -0.1654
  C  C318  1  0.669700  0.750900  0.557200  1.0  0.6726
  C  C319  1  0.845700  0.317600  0.899800  1.0  -0.0854
  C  C320  1  0.855000  0.274700  0.909600  1.0  -0.1658
  C  C321  1  0.830300  0.250900  0.942800  1.0  0.6725
  C  C322  1  0.345700  0.817600  0.399800  1.0  -0.0854
  C  C323  1  0.355000  0.774700  0.409600  1.0  -0.1658
  C  C324  1  0.330300  0.750900  0.442800  1.0  0.6725
  C  C325  1  0.154300  0.682400  0.899800  1.0  -0.0835
  C  C326  1  0.145000  0.725300  0.909600  1.0  -0.1654
  C  C327  1  0.169700  0.749100  0.942800  1.0  0.6722
  C  C328  1  0.654300  0.182400  0.399800  1.0  -0.0835
  C  C329  1  0.645000  0.225300  0.409600  1.0  -0.1654
  C  C330  1  0.669700  0.249100  0.442800  1.0  0.6722
  C  C331  1  0.845700  0.682400  0.100200  1.0  -0.0859
  C  C332  1  0.855000  0.725300  0.090400  1.0  -0.1661
  C  C333  1  0.830300  0.749100  0.057200  1.0  0.6728
  C  C334  1  0.345700  0.182400  0.600200  1.0  -0.0859
  C  C335  1  0.355000  0.225300  0.590400  1.0  -0.1661
  C  C336  1  0.330300  0.249100  0.557200  1.0  0.6728
  C  C337  1  0.154300  0.100200  0.682400  1.0  -0.0829
  C  C338  1  0.145000  0.090400  0.725300  1.0  -0.165
  C  C339  1  0.169700  0.057200  0.749100  1.0  0.6729
  C  C340  1  0.654300  0.600200  0.182400  1.0  -0.0829
  C  C341  1  0.645000  0.590400  0.225300  1.0  -0.165
  C  C342  1  0.669700  0.557200  0.249100  1.0  0.6729
  C  C343  1  0.845700  0.899800  0.682400  1.0  -0.0842
  C  C344  1  0.855000  0.909600  0.725300  1.0  -0.1657
  C  C345  1  0.830300  0.942800  0.749100  1.0  0.6733
  C  C346  1  0.345700  0.399800  0.182400  1.0  -0.0842
  C  C347  1  0.355000  0.409600  0.225300  1.0  -0.1657
  C  C348  1  0.330300  0.442800  0.249100  1.0  0.6733
  C  C349  1  0.154300  0.899800  0.317600  1.0  -0.082
  C  C350  1  0.145000  0.909600  0.274700  1.0  -0.1653
  C  C351  1  0.169700  0.942800  0.250900  1.0  0.6731
  C  C352  1  0.654300  0.399800  0.817600  1.0  -0.082
  C  C353  1  0.645000  0.409600  0.774700  1.0  -0.1653
  C  C354  1  0.669700  0.442800  0.750900  1.0  0.6731
  C  C355  1  0.845700  0.100200  0.317600  1.0  -0.0842
  C  C356  1  0.855000  0.090400  0.274700  1.0  -0.1659
  C  C357  1  0.830300  0.057200  0.250900  1.0  0.673
  C  C358  1  0.345700  0.600200  0.817600  1.0  -0.0842
  C  C359  1  0.355000  0.590400  0.774700  1.0  -0.1659
  C  C360  1  0.330300  0.557200  0.750900  1.0  0.673
  C  C361  1  0.100200  0.317600  0.845700  1.0  -0.0844
  C  C362  1  0.090400  0.274700  0.855000  1.0  -0.166
  C  C363  1  0.057200  0.250900  0.830300  1.0  0.6716
  C  C364  1  0.600200  0.817600  0.345700  1.0  -0.0844
  C  C365  1  0.590400  0.774700  0.355000  1.0  -0.166
  C  C366  1  0.557200  0.750900  0.330300  1.0  0.6716
  C  C367  1  0.899800  0.317600  0.154300  1.0  -0.0846
  C  C368  1  0.909600  0.274700  0.145000  1.0  -0.1649
  C  C369  1  0.942800  0.250900  0.169700  1.0  0.6714
  C  C370  1  0.399800  0.817600  0.654300  1.0  -0.0846
  C  C371  1  0.409600  0.774700  0.645000  1.0  -0.1649
  C  C372  1  0.442800  0.750900  0.669700  1.0  0.6714
  C  C373  1  0.899800  0.682400  0.845700  1.0  -0.0845
  C  C374  1  0.909600  0.725300  0.855000  1.0  -0.1655
  C  C375  1  0.942800  0.749100  0.830300  1.0  0.6715
  C  C376  1  0.399800  0.182400  0.345700  1.0  -0.0845
  C  C377  1  0.409600  0.225300  0.355000  1.0  -0.1655
  C  C378  1  0.442800  0.249100  0.330300  1.0  0.6715
  C  C379  1  0.100200  0.682400  0.154300  1.0  -0.0854
  C  C380  1  0.090400  0.725300  0.145000  1.0  -0.1656
  C  C381  1  0.057200  0.749100  0.169700  1.0  0.6716
  C  C382  1  0.600200  0.182400  0.654300  1.0  -0.0854
  C  C383  1  0.590400  0.225300  0.645000  1.0  -0.1656
  C  C384  1  0.557200  0.249100  0.669700  1.0  0.6716
  C  C385  1  0.317600  0.154300  0.899800  1.0  -0.0822
  C  C386  1  0.274700  0.145000  0.909600  1.0  -0.1657
  C  C387  1  0.250900  0.169700  0.942800  1.0  0.672
  C  C388  1  0.817600  0.654300  0.399800  1.0  -0.0822
  C  C389  1  0.774700  0.645000  0.409600  1.0  -0.1657
  C  C390  1  0.750900  0.669700  0.442800  1.0  0.672
  C  C391  1  0.317600  0.845700  0.100200  1.0  -0.0823
  C  C392  1  0.274700  0.855000  0.090400  1.0  -0.1662
  C  C393  1  0.250900  0.830300  0.057200  1.0  0.6721
  C  C394  1  0.817600  0.345700  0.600200  1.0  -0.0823
  C  C395  1  0.774700  0.355000  0.590400  1.0  -0.1662
  C  C396  1  0.750900  0.330300  0.557200  1.0  0.6721
  C  C397  1  0.682400  0.154300  0.100200  1.0  -0.0849
  C  C398  1  0.725300  0.145000  0.090400  1.0  -0.1656
  C  C399  1  0.749100  0.169700  0.057200  1.0  0.6728
  C  C400  1  0.182400  0.654300  0.600200  1.0  -0.0849
  C  C401  1  0.225300  0.645000  0.590400  1.0  -0.1656
  C  C402  1  0.249100  0.669700  0.557200  1.0  0.6728
  C  C403  1  0.682400  0.845700  0.899800  1.0  -0.0838
  C  C404  1  0.725300  0.855000  0.909600  1.0  -0.1655
  C  C405  1  0.749100  0.830300  0.942800  1.0  0.6719
  C  C406  1  0.182400  0.345700  0.399800  1.0  -0.0838
  C  C407  1  0.225300  0.355000  0.409600  1.0  -0.1655
  C  C408  1  0.249100  0.330300  0.442800  1.0  0.6719
  C  C409  1  0.899800  0.845700  0.682400  1.0  -0.0828
  C  C410  1  0.909600  0.855000  0.725300  1.0  -0.1652
  C  C411  1  0.942800  0.830300  0.749100  1.0  0.6726
  C  C412  1  0.399800  0.345700  0.182400  1.0  -0.0828
  C  C413  1  0.409600  0.355000  0.225300  1.0  -0.1652
  C  C414  1  0.442800  0.330300  0.249100  1.0  0.6726
  C  C415  1  0.100200  0.154300  0.682400  1.0  -0.0836
  C  C416  1  0.090400  0.145000  0.725300  1.0  -0.1658
  C  C417  1  0.057200  0.169700  0.749100  1.0  0.673
  C  C418  1  0.600200  0.654300  0.182400  1.0  -0.0836
  C  C419  1  0.590400  0.645000  0.225300  1.0  -0.1658
  C  C420  1  0.557200  0.669700  0.249100  1.0  0.673
  C  C421  1  0.100200  0.845700  0.317600  1.0  -0.0835
  C  C422  1  0.090400  0.855000  0.274700  1.0  -0.1661
  C  C423  1  0.057200  0.830300  0.250900  1.0  0.6726
  C  C424  1  0.600200  0.345700  0.817600  1.0  -0.0835
  C  C425  1  0.590400  0.355000  0.774700  1.0  -0.1661
  C  C426  1  0.557200  0.330300  0.750900  1.0  0.6726
  C  C427  1  0.899800  0.154300  0.317600  1.0  -0.0821
  C  C428  1  0.909600  0.145000  0.274700  1.0  -0.1654
  C  C429  1  0.942800  0.169700  0.250900  1.0  0.6728
  C  C430  1  0.399800  0.654300  0.817600  1.0  -0.0821
  C  C431  1  0.409600  0.645000  0.774700  1.0  -0.1654
  C  C432  1  0.442800  0.669700  0.750900  1.0  0.6728
  C  C433  1  0.682400  0.899800  0.845700  1.0  -0.0832
  C  C434  1  0.725300  0.909600  0.855000  1.0  -0.1655
  C  C435  1  0.749100  0.942800  0.830300  1.0  0.6719
  C  C436  1  0.182400  0.399800  0.345700  1.0  -0.0832
  C  C437  1  0.225300  0.409600  0.355000  1.0  -0.1655
  C  C438  1  0.249100  0.442800  0.330300  1.0  0.6719
  C  C439  1  0.682400  0.100200  0.154300  1.0  -0.0834
  C  C440  1  0.725300  0.090400  0.145000  1.0  -0.165
  C  C441  1  0.749100  0.057200  0.169700  1.0  0.6717
  C  C442  1  0.182400  0.600200  0.654300  1.0  -0.0834
  C  C443  1  0.225300  0.590400  0.645000  1.0  -0.165
  C  C444  1  0.249100  0.557200  0.669700  1.0  0.6717
  C  C445  1  0.317600  0.100200  0.845700  1.0  -0.082
  C  C446  1  0.274700  0.090400  0.855000  1.0  -0.166
  C  C447  1  0.250900  0.057200  0.830300  1.0  0.6713
  C  C448  1  0.817600  0.600200  0.345700  1.0  -0.082
  C  C449  1  0.774700  0.590400  0.355000  1.0  -0.166
  C  C450  1  0.750900  0.557200  0.330300  1.0  0.6713
  C  C451  1  0.317600  0.899800  0.154300  1.0  -0.0815
  C  C452  1  0.274700  0.909600  0.145000  1.0  -0.1652
  C  C453  1  0.250900  0.942800  0.169700  1.0  0.6714
  C  C454  1  0.817600  0.399800  0.654300  1.0  -0.0815
  C  C455  1  0.774700  0.409600  0.645000  1.0  -0.1652
  C  C456  1  0.750900  0.442800  0.669700  1.0  0.6714
  C  C457  1  0.845700  0.682400  0.899800  1.0  -0.0848
  C  C458  1  0.855000  0.725300  0.909600  1.0  -0.166
  C  C459  1  0.830300  0.749100  0.942800  1.0  0.6726
  C  C460  1  0.345700  0.182400  0.399800  1.0  -0.0848
  C  C461  1  0.355000  0.225300  0.409600  1.0  -0.166
  C  C462  1  0.330300  0.249100  0.442800  1.0  0.6726
  C  C463  1  0.154300  0.682400  0.100200  1.0  -0.0837
  C  C464  1  0.145000  0.725300  0.090400  1.0  -0.1655
  C  C465  1  0.169700  0.749100  0.057200  1.0  0.6728
  C  C466  1  0.654300  0.182400  0.600200  1.0  -0.0837
  C  C467  1  0.645000  0.225300  0.590400  1.0  -0.1655
  C  C468  1  0.669700  0.249100  0.557200  1.0  0.6728
  C  C469  1  0.845700  0.317600  0.100200  1.0  -0.0852
  C  C470  1  0.855000  0.274700  0.090400  1.0  -0.166
  C  C471  1  0.830300  0.250900  0.057200  1.0  0.6727
  C  C472  1  0.345700  0.817600  0.600200  1.0  -0.0852
  C  C473  1  0.355000  0.774700  0.590400  1.0  -0.166
  C  C474  1  0.330300  0.750900  0.557200  1.0  0.6727
  C  C475  1  0.154300  0.317600  0.899800  1.0  -0.0838
  C  C476  1  0.145000  0.274700  0.909600  1.0  -0.1653
  C  C477  1  0.169700  0.250900  0.942800  1.0  0.672
  C  C478  1  0.654300  0.817600  0.399800  1.0  -0.0838
  C  C479  1  0.645000  0.774700  0.409600  1.0  -0.1653
  C  C480  1  0.669700  0.750900  0.442800  1.0  0.672
  C  C481  1  0.845700  0.899800  0.317600  1.0  -0.0837
  C  C482  1  0.855000  0.909600  0.274700  1.0  -0.1658
  C  C483  1  0.830300  0.942800  0.250900  1.0  0.6732
  C  C484  1  0.345700  0.399800  0.817600  1.0  -0.0837
  C  C485  1  0.355000  0.409600  0.774700  1.0  -0.1658
  C  C486  1  0.330300  0.442800  0.750900  1.0  0.6732
  C  C487  1  0.154300  0.100200  0.317600  1.0  -0.0816
  C  C488  1  0.145000  0.090400  0.274700  1.0  -0.1653
  C  C489  1  0.169700  0.057200  0.250900  1.0  0.6729
  C  C490  1  0.654300  0.600200  0.817600  1.0  -0.0816
  C  C491  1  0.645000  0.590400  0.774700  1.0  -0.1653
  C  C492  1  0.669700  0.557200  0.750900  1.0  0.6729
  C  C493  1  0.845700  0.100200  0.682400  1.0  -0.0837
  C  C494  1  0.855000  0.090400  0.725300  1.0  -0.1656
  C  C495  1  0.830300  0.057200  0.749100  1.0  0.6732
  C  C496  1  0.345700  0.600200  0.182400  1.0  -0.0837
  C  C497  1  0.355000  0.590400  0.225300  1.0  -0.1656
  C  C498  1  0.330300  0.557200  0.249100  1.0  0.6732
  C  C499  1  0.154300  0.899800  0.682400  1.0  -0.0826
  C  C500  1  0.145000  0.909600  0.725300  1.0  -0.1652
  C  C501  1  0.169700  0.942800  0.749100  1.0  0.6731
  C  C502  1  0.654300  0.399800  0.182400  1.0  -0.0826
  C  C503  1  0.645000  0.409600  0.225300  1.0  -0.1652
  C  C504  1  0.669700  0.442800  0.249100  1.0  0.6731
  C  C505  1  0.899800  0.682400  0.154300  1.0  -0.0837
  C  C506  1  0.909600  0.725300  0.145000  1.0  -0.165
  C  C507  1  0.942800  0.749100  0.169700  1.0  0.6715
  C  C508  1  0.399800  0.182400  0.654300  1.0  -0.0837
  C  C509  1  0.409600  0.225300  0.645000  1.0  -0.165
  C  C510  1  0.442800  0.249100  0.669700  1.0  0.6715
  C  C511  1  0.100200  0.682400  0.845700  1.0  -0.0849
  C  C512  1  0.090400  0.725300  0.855000  1.0  -0.1661
  C  C513  1  0.057200  0.749100  0.830300  1.0  0.6717
  C  C514  1  0.600200  0.182400  0.345700  1.0  -0.0849
  C  C515  1  0.590400  0.225300  0.355000  1.0  -0.1661
  C  C516  1  0.557200  0.249100  0.330300  1.0  0.6717
  C  C517  1  0.100200  0.317600  0.154300  1.0  -0.0847
  C  C518  1  0.090400  0.274700  0.145000  1.0  -0.1655
  C  C519  1  0.057200  0.250900  0.169700  1.0  0.6715
  C  C520  1  0.600200  0.817600  0.654300  1.0  -0.0847
  C  C521  1  0.590400  0.774700  0.645000  1.0  -0.1655
  C  C522  1  0.557200  0.750900  0.669700  1.0  0.6715
  C  C523  1  0.899800  0.317600  0.845700  1.0  -0.0838
  C  C524  1  0.909600  0.274700  0.855000  1.0  -0.1654
  C  C525  1  0.942800  0.250900  0.830300  1.0  0.6714
  C  C526  1  0.399800  0.817600  0.345700  1.0  -0.0838
  C  C527  1  0.409600  0.774700  0.355000  1.0  -0.1654
  C  C528  1  0.442800  0.750900  0.330300  1.0  0.6714
  C  C529  1  0.682400  0.845700  0.100200  1.0  -0.084
  C  C530  1  0.725300  0.855000  0.090400  1.0  -0.1657
  C  C531  1  0.749100  0.830300  0.057200  1.0  0.6724
  C  C532  1  0.182400  0.345700  0.600200  1.0  -0.084
  C  C533  1  0.225300  0.355000  0.590400  1.0  -0.1657
  C  C534  1  0.249100  0.330300  0.557200  1.0  0.6724
  C  C535  1  0.682400  0.154300  0.899800  1.0  -0.0839
  C  C536  1  0.725300  0.145000  0.909600  1.0  -0.1654
  C  C537  1  0.749100  0.169700  0.942800  1.0  0.6724
  C  C538  1  0.182400  0.654300  0.399800  1.0  -0.0839
  C  C539  1  0.225300  0.645000  0.409600  1.0  -0.1654
  C  C540  1  0.249100  0.669700  0.442800  1.0  0.6724
  C  C541  1  0.317600  0.845700  0.899800  1.0  -0.0816
  C  C542  1  0.274700  0.855000  0.909600  1.0  -0.1658
  C  C543  1  0.250900  0.830300  0.942800  1.0  0.6716
  C  C544  1  0.817600  0.345700  0.399800  1.0  -0.0816
  C  C545  1  0.774700  0.355000  0.409600  1.0  -0.1658
  C  C546  1  0.750900  0.330300  0.442800  1.0  0.6716
  C  C547  1  0.317600  0.154300  0.100200  1.0  -0.0828
  C  C548  1  0.274700  0.145000  0.090400  1.0  -0.1659
  C  C549  1  0.250900  0.169700  0.057200  1.0  0.6725
  C  C550  1  0.817600  0.654300  0.600200  1.0  -0.0828
  C  C551  1  0.774700  0.645000  0.590400  1.0  -0.1659
  C  C552  1  0.750900  0.669700  0.557200  1.0  0.6725
  C  C553  1  0.147400  0.147400  0.500000  1.0  -0.0437
  C  C554  1  0.647400  0.647400  0.000000  1.0  -0.0437
  C  C555  1  0.852600  0.852600  0.500000  1.0  -0.0444
  C  C556  1  0.352600  0.352600  0.000000  1.0  -0.0444
  C  C557  1  0.852600  0.147400  0.500000  1.0  -0.0442
  C  C558  1  0.352600  0.647400  0.000000  1.0  -0.0442
  C  C559  1  0.147400  0.852600  0.500000  1.0  -0.0445
  C  C560  1  0.647400  0.352600  0.000000  1.0  -0.0445
  C  C561  1  0.500000  0.147400  0.147400  1.0  -0.0459
  C  C562  1  0.000000  0.647400  0.647400  1.0  -0.0459
  C  C563  1  0.500000  0.852600  0.852600  1.0  -0.0463
  C  C564  1  0.000000  0.352600  0.352600  1.0  -0.0463
  C  C565  1  0.500000  0.852600  0.147400  1.0  -0.0467
  C  C566  1  0.000000  0.352600  0.647400  1.0  -0.0467
  C  C567  1  0.500000  0.147400  0.852600  1.0  -0.0454
  C  C568  1  0.000000  0.647400  0.352600  1.0  -0.0454
  C  C569  1  0.147400  0.500000  0.147400  1.0  -0.0442
  C  C570  1  0.647400  0.000000  0.647400  1.0  -0.0442
  C  C571  1  0.852600  0.500000  0.852600  1.0  -0.0445
  C  C572  1  0.352600  0.000000  0.352600  1.0  -0.0445
  C  C573  1  0.147400  0.500000  0.852600  1.0  -0.0451
  C  C574  1  0.647400  0.000000  0.352600  1.0  -0.0451
  C  C575  1  0.852600  0.500000  0.147400  1.0  -0.045
  C  C576  1  0.352600  0.000000  0.647400  1.0  -0.045
  C  C577  1  0.195700  0.195700  0.463300  1.0  0.1351
  C  C578  1  0.163600  0.163600  0.461500  1.0  0.0127
  C  C579  1  0.149500  0.149500  0.419800  1.0  0.0325
  C  C580  1  0.141000  0.141000  0.383100  1.0  0.0829
  C  C581  1  0.131600  0.131600  0.339500  1.0  0.0443
  C  C582  1  0.112300  0.112300  0.254300  1.0  0.0183
  C  C583  1  0.695700  0.695700  0.963300  1.0  0.1351
  C  C584  1  0.663600  0.663600  0.961500  1.0  0.0127
  C  C585  1  0.649500  0.649500  0.919800  1.0  0.0325
  C  C586  1  0.641000  0.641000  0.883100  1.0  0.0829
  C  C587  1  0.631600  0.631600  0.839500  1.0  0.0443
  C  C588  1  0.612300  0.612300  0.754300  1.0  0.0183
  C  C589  1  0.804300  0.804300  0.463300  1.0  0.1347
  C  C590  1  0.836400  0.836400  0.461500  1.0  0.0123
  C  C591  1  0.850500  0.850500  0.419800  1.0  0.0329
  C  C592  1  0.859000  0.859000  0.383100  1.0  0.0818
  C  C593  1  0.868400  0.868400  0.339500  1.0  0.0441
  C  C594  1  0.887700  0.887700  0.254300  1.0  0.018
  C  C595  1  0.304300  0.304300  0.963300  1.0  0.1347
  C  C596  1  0.336400  0.336400  0.961500  1.0  0.0123
  C  C597  1  0.350500  0.350500  0.919800  1.0  0.0329
  C  C598  1  0.359000  0.359000  0.883100  1.0  0.0818
  C  C599  1  0.368400  0.368400  0.839500  1.0  0.0441
  C  C600  1  0.387700  0.387700  0.754300  1.0  0.018
  C  C601  1  0.804300  0.195700  0.536700  1.0  0.1354
  C  C602  1  0.836400  0.163600  0.538500  1.0  0.0105
  C  C603  1  0.850500  0.149500  0.580200  1.0  0.0334
  C  C604  1  0.859000  0.141000  0.616900  1.0  0.0794
  C  C605  1  0.868400  0.131600  0.660500  1.0  0.0445
  C  C606  1  0.887700  0.112300  0.745700  1.0  0.0181
  C  C607  1  0.304300  0.695700  0.036700  1.0  0.1354
  C  C608  1  0.336400  0.663600  0.038500  1.0  0.0105
  C  C609  1  0.350500  0.649500  0.080200  1.0  0.0334
  C  C610  1  0.359000  0.641000  0.116900  1.0  0.0794
  C  C611  1  0.368400  0.631600  0.160500  1.0  0.0445
  C  C612  1  0.387700  0.612300  0.245700  1.0  0.0181
  C  C613  1  0.195700  0.804300  0.536700  1.0  0.1352
  C  C614  1  0.163600  0.836400  0.538500  1.0  0.013
  C  C615  1  0.149500  0.850500  0.580200  1.0  0.033
  C  C616  1  0.141000  0.859000  0.616900  1.0  0.0805
  C  C617  1  0.131600  0.868400  0.660500  1.0  0.0443
  C  C618  1  0.112300  0.887700  0.745700  1.0  0.0177
  C  C619  1  0.695700  0.304300  0.036700  1.0  0.1352
  C  C620  1  0.663600  0.336400  0.038500  1.0  0.013
  C  C621  1  0.649500  0.350500  0.080200  1.0  0.033
  C  C622  1  0.641000  0.359000  0.116900  1.0  0.0805
  C  C623  1  0.631600  0.368400  0.160500  1.0  0.0443
  C  C624  1  0.612300  0.387700  0.245700  1.0  0.0177
  C  C625  1  0.463300  0.195700  0.195700  1.0  0.1373
  C  C626  1  0.461500  0.163600  0.163600  1.0  0.0119
  C  C627  1  0.419800  0.149500  0.149500  1.0  0.0303
  C  C628  1  0.383100  0.141000  0.141000  1.0  0.0835
  C  C629  1  0.339500  0.131600  0.131600  1.0  0.0434
  C  C630  1  0.254300  0.112300  0.112300  1.0  0.016
  C  C631  1  0.963300  0.695700  0.695700  1.0  0.1373
  C  C632  1  0.961500  0.663600  0.663600  1.0  0.0119
  C  C633  1  0.919800  0.649500  0.649500  1.0  0.0303
  C  C634  1  0.883100  0.641000  0.641000  1.0  0.0835
  C  C635  1  0.839500  0.631600  0.631600  1.0  0.0434
  C  C636  1  0.754300  0.612300  0.612300  1.0  0.016
  C  C637  1  0.463300  0.804300  0.804300  1.0  0.1366
  C  C638  1  0.461500  0.836400  0.836400  1.0  0.0132
  C  C639  1  0.419800  0.850500  0.850500  1.0  0.0329
  C  C640  1  0.383100  0.859000  0.859000  1.0  0.0838
  C  C641  1  0.339500  0.868400  0.868400  1.0  0.0435
  C  C642  1  0.254300  0.887700  0.887700  1.0  0.0162
  C  C643  1  0.963300  0.304300  0.304300  1.0  0.1366
  C  C644  1  0.961500  0.336400  0.336400  1.0  0.0132
  C  C645  1  0.919800  0.350500  0.350500  1.0  0.0329
  C  C646  1  0.883100  0.359000  0.359000  1.0  0.0838
  C  C647  1  0.839500  0.368400  0.368400  1.0  0.0435
  C  C648  1  0.754300  0.387700  0.387700  1.0  0.0162
  C  C649  1  0.536700  0.804300  0.195700  1.0  0.1375
  C  C650  1  0.538500  0.836400  0.163600  1.0  0.013
  C  C651  1  0.580200  0.850500  0.149500  1.0  0.0312
  C  C652  1  0.616900  0.859000  0.141000  1.0  0.0801
  C  C653  1  0.660500  0.868400  0.131600  1.0  0.042
  C  C654  1  0.745700  0.887700  0.112300  1.0  0.0168
  C  C655  1  0.036700  0.304300  0.695700  1.0  0.1375
  C  C656  1  0.038500  0.336400  0.663600  1.0  0.013
  C  C657  1  0.080200  0.350500  0.649500  1.0  0.0312
  C  C658  1  0.116900  0.359000  0.641000  1.0  0.0801
  C  C659  1  0.160500  0.368400  0.631600  1.0  0.042
  C  C660  1  0.245700  0.387700  0.612300  1.0  0.0168
  C  C661  1  0.536700  0.195700  0.804300  1.0  0.1372
  C  C662  1  0.538500  0.163600  0.836400  1.0  0.0134
  C  C663  1  0.580200  0.149500  0.850500  1.0  0.0336
  C  C664  1  0.616900  0.141000  0.859000  1.0  0.08
  C  C665  1  0.660500  0.131600  0.868400  1.0  0.0421
  C  C666  1  0.745700  0.112300  0.887700  1.0  0.0169
  C  C667  1  0.036700  0.695700  0.304300  1.0  0.1372
  C  C668  1  0.038500  0.663600  0.336400  1.0  0.0134
  C  C669  1  0.080200  0.649500  0.350500  1.0  0.0336
  C  C670  1  0.116900  0.641000  0.359000  1.0  0.08
  C  C671  1  0.160500  0.631600  0.368400  1.0  0.0421
  C  C672  1  0.245700  0.612300  0.387700  1.0  0.0169
  C  C673  1  0.195700  0.463300  0.195700  1.0  0.1372
  C  C674  1  0.163600  0.461500  0.163600  1.0  0.013
  C  C675  1  0.149500  0.419800  0.149500  1.0  0.031
  C  C676  1  0.141000  0.383100  0.141000  1.0  0.0822
  C  C677  1  0.131600  0.339500  0.131600  1.0  0.0462
  C  C678  1  0.112300  0.254300  0.112300  1.0  0.0177
  C  C679  1  0.695700  0.963300  0.695700  1.0  0.1372
  C  C680  1  0.663600  0.961500  0.663600  1.0  0.013
  C  C681  1  0.649500  0.919800  0.649500  1.0  0.031
  C  C682  1  0.641000  0.883100  0.641000  1.0  0.0822
  C  C683  1  0.631600  0.839500  0.631600  1.0  0.0462
  C  C684  1  0.612300  0.754300  0.612300  1.0  0.0177
  C  C685  1  0.804300  0.463300  0.804300  1.0  0.1367
  C  C686  1  0.836400  0.461500  0.836400  1.0  0.0133
  C  C687  1  0.850500  0.419800  0.850500  1.0  0.0342
  C  C688  1  0.859000  0.383100  0.859000  1.0  0.0809
  C  C689  1  0.868400  0.339500  0.868400  1.0  0.0464
  C  C690  1  0.887700  0.254300  0.887700  1.0  0.0183
  C  C691  1  0.304300  0.963300  0.304300  1.0  0.1367
  C  C692  1  0.336400  0.961500  0.336400  1.0  0.0133
  C  C693  1  0.350500  0.919800  0.350500  1.0  0.0342
  C  C694  1  0.359000  0.883100  0.359000  1.0  0.0809
  C  C695  1  0.368400  0.839500  0.368400  1.0  0.0464
  C  C696  1  0.387700  0.754300  0.387700  1.0  0.0183
  C  C697  1  0.195700  0.536700  0.804300  1.0  0.137
  C  C698  1  0.163600  0.538500  0.836400  1.0  0.0144
  C  C699  1  0.149500  0.580200  0.850500  1.0  0.033
  C  C700  1  0.141000  0.616900  0.859000  1.0  0.0824
  C  C701  1  0.131600  0.660500  0.868400  1.0  0.0454
  C  C702  1  0.112300  0.745700  0.887700  1.0  0.017
  C  C703  1  0.695700  0.036700  0.304300  1.0  0.137
  C  C704  1  0.663600  0.038500  0.336400  1.0  0.0144
  C  C705  1  0.649500  0.080200  0.350500  1.0  0.033
  C  C706  1  0.641000  0.116900  0.359000  1.0  0.0824
  C  C707  1  0.631600  0.160500  0.368400  1.0  0.0454
  C  C708  1  0.612300  0.245700  0.387700  1.0  0.017
  C  C709  1  0.804300  0.536700  0.195700  1.0  0.1372
  C  C710  1  0.836400  0.538500  0.163600  1.0  0.0124
  C  C711  1  0.850500  0.580200  0.149500  1.0  0.0319
  C  C712  1  0.859000  0.616900  0.141000  1.0  0.0809
  C  C713  1  0.868400  0.660500  0.131600  1.0  0.045
  C  C714  1  0.887700  0.745700  0.112300  1.0  0.0173
  C  C715  1  0.304300  0.036700  0.695700  1.0  0.1372
  C  C716  1  0.336400  0.038500  0.663600  1.0  0.0124
  C  C717  1  0.350500  0.080200  0.649500  1.0  0.0319
  C  C718  1  0.359000  0.116900  0.641000  1.0  0.0809
  C  C719  1  0.368400  0.160500  0.631600  1.0  0.045
  C  C720  1  0.387700  0.245700  0.612300  1.0  0.0173
  C  C721  1  0.195700  0.195700  0.536700  1.0  0.1351
  C  C722  1  0.163600  0.163600  0.538500  1.0  0.011
  C  C723  1  0.149500  0.149500  0.580200  1.0  0.0329
  C  C724  1  0.141000  0.141000  0.616900  1.0  0.0805
  C  C725  1  0.131600  0.131600  0.660500  1.0  0.0447
  C  C726  1  0.112300  0.112300  0.745700  1.0  0.0182
  C  C727  1  0.695700  0.695700  0.036700  1.0  0.1351
  C  C728  1  0.663600  0.663600  0.038500  1.0  0.011
  C  C729  1  0.649500  0.649500  0.080200  1.0  0.0329
  C  C730  1  0.641000  0.641000  0.116900  1.0  0.0805
  C  C731  1  0.631600  0.631600  0.160500  1.0  0.0447
  C  C732  1  0.612300  0.612300  0.245700  1.0  0.0182
  C  C733  1  0.804300  0.804300  0.536700  1.0  0.1346
  C  C734  1  0.836400  0.836400  0.538500  1.0  0.0096
  C  C735  1  0.850500  0.850500  0.580200  1.0  0.0334
  C  C736  1  0.859000  0.859000  0.616900  1.0  0.0794
  C  C737  1  0.868400  0.868400  0.660500  1.0  0.0441
  C  C738  1  0.887700  0.887700  0.745700  1.0  0.0178
  C  C739  1  0.304300  0.304300  0.036700  1.0  0.1346
  C  C740  1  0.336400  0.336400  0.038500  1.0  0.0096
  C  C741  1  0.350500  0.350500  0.080200  1.0  0.0334
  C  C742  1  0.359000  0.359000  0.116900  1.0  0.0794
  C  C743  1  0.368400  0.368400  0.160500  1.0  0.0441
  C  C744  1  0.387700  0.387700  0.245700  1.0  0.0178
  C  C745  1  0.195700  0.804300  0.463300  1.0  0.1348
  C  C746  1  0.163600  0.836400  0.461500  1.0  0.012
  C  C747  1  0.149500  0.850500  0.419800  1.0  0.0324
  C  C748  1  0.141000  0.859000  0.383100  1.0  0.0831
  C  C749  1  0.131600  0.868400  0.339500  1.0  0.0441
  C  C750  1  0.112300  0.887700  0.254300  1.0  0.0181
  C  C751  1  0.695700  0.304300  0.963300  1.0  0.1348
  C  C752  1  0.663600  0.336400  0.961500  1.0  0.012
  C  C753  1  0.649500  0.350500  0.919800  1.0  0.0324
  C  C754  1  0.641000  0.359000  0.883100  1.0  0.0831
  C  C755  1  0.631600  0.368400  0.839500  1.0  0.0441
  C  C756  1  0.612300  0.387700  0.754300  1.0  0.0181
  C  C757  1  0.804300  0.195700  0.463300  1.0  0.1345
  C  C758  1  0.836400  0.163600  0.461500  1.0  0.0102
  C  C759  1  0.850500  0.149500  0.419800  1.0  0.033
  C  C760  1  0.859000  0.141000  0.383100  1.0  0.0815
  C  C761  1  0.868400  0.131600  0.339500  1.0  0.0442
  C  C762  1  0.887700  0.112300  0.254300  1.0  0.0182
  C  C763  1  0.304300  0.695700  0.963300  1.0  0.1345
  C  C764  1  0.336400  0.663600  0.961500  1.0  0.0102
  C  C765  1  0.350500  0.649500  0.919800  1.0  0.033
  C  C766  1  0.359000  0.641000  0.883100  1.0  0.0815
  C  C767  1  0.368400  0.631600  0.839500  1.0  0.0442
  C  C768  1  0.387700  0.612300  0.754300  1.0  0.0182
  C  C769  1  0.195700  0.463300  0.804300  1.0  0.1363
  C  C770  1  0.163600  0.461500  0.836400  1.0  0.0131
  C  C771  1  0.149500  0.419800  0.850500  1.0  0.0332
  C  C772  1  0.141000  0.383100  0.859000  1.0  0.0825
  C  C773  1  0.131600  0.339500  0.868400  1.0  0.0464
  C  C774  1  0.112300  0.254300  0.887700  1.0  0.0179
  C  C775  1  0.695700  0.963300  0.304300  1.0  0.1363
  C  C776  1  0.663600  0.961500  0.336400  1.0  0.0131
  C  C777  1  0.649500  0.919800  0.350500  1.0  0.0332
  C  C778  1  0.641000  0.883100  0.359000  1.0  0.0825
  C  C779  1  0.631600  0.839500  0.368400  1.0  0.0464
  C  C780  1  0.612300  0.754300  0.387700  1.0  0.0179
  C  C781  1  0.804300  0.463300  0.195700  1.0  0.1365
  C  C782  1  0.836400  0.461500  0.163600  1.0  0.0108
  C  C783  1  0.850500  0.419800  0.149500  1.0  0.0318
  C  C784  1  0.859000  0.383100  0.141000  1.0  0.0806
  C  C785  1  0.868400  0.339500  0.131600  1.0  0.0461
  C  C786  1  0.887700  0.254300  0.112300  1.0  0.0183
  C  C787  1  0.304300  0.963300  0.695700  1.0  0.1365
  C  C788  1  0.336400  0.961500  0.663600  1.0  0.0108
  C  C789  1  0.350500  0.919800  0.649500  1.0  0.0318
  C  C790  1  0.359000  0.883100  0.641000  1.0  0.0806
  C  C791  1  0.368400  0.839500  0.631600  1.0  0.0461
  C  C792  1  0.387700  0.754300  0.612300  1.0  0.0183
  C  C793  1  0.804300  0.536700  0.804300  1.0  0.1368
  C  C794  1  0.836400  0.538500  0.836400  1.0  0.0117
  C  C795  1  0.850500  0.580200  0.850500  1.0  0.0339
  C  C796  1  0.859000  0.616900  0.859000  1.0  0.0812
  C  C797  1  0.868400  0.660500  0.868400  1.0  0.0451
  C  C798  1  0.887700  0.745700  0.887700  1.0  0.0168
  C  C799  1  0.304300  0.036700  0.304300  1.0  0.1368
  C  C800  1  0.336400  0.038500  0.336400  1.0  0.0117
  C  C801  1  0.350500  0.080200  0.350500  1.0  0.0339
  C  C802  1  0.359000  0.116900  0.359000  1.0  0.0812
  C  C803  1  0.368400  0.160500  0.368400  1.0  0.0451
  C  C804  1  0.387700  0.245700  0.387700  1.0  0.0168
  C  C805  1  0.195700  0.536700  0.195700  1.0  0.1367
  C  C806  1  0.163600  0.538500  0.163600  1.0  0.0124
  C  C807  1  0.149500  0.580200  0.149500  1.0  0.0311
  C  C808  1  0.141000  0.616900  0.141000  1.0  0.0821
  C  C809  1  0.131600  0.660500  0.131600  1.0  0.0453
  C  C810  1  0.112300  0.745700  0.112300  1.0  0.0173
  C  C811  1  0.695700  0.036700  0.695700  1.0  0.1367
  C  C812  1  0.663600  0.038500  0.663600  1.0  0.0124
  C  C813  1  0.649500  0.080200  0.649500  1.0  0.0311
  C  C814  1  0.641000  0.116900  0.641000  1.0  0.0821
  C  C815  1  0.631600  0.160500  0.631600  1.0  0.0453
  C  C816  1  0.612300  0.245700  0.612300  1.0  0.0173
  C  C817  1  0.463300  0.195700  0.804300  1.0  0.1366
  C  C818  1  0.461500  0.163600  0.836400  1.0  0.0114
  C  C819  1  0.419800  0.149500  0.850500  1.0  0.0329
  C  C820  1  0.383100  0.141000  0.859000  1.0  0.0837
  C  C821  1  0.339500  0.131600  0.868400  1.0  0.0435
  C  C822  1  0.254300  0.112300  0.887700  1.0  0.0163
  C  C823  1  0.963300  0.695700  0.304300  1.0  0.1366
  C  C824  1  0.961500  0.663600  0.336400  1.0  0.0114
  C  C825  1  0.919800  0.649500  0.350500  1.0  0.0329
  C  C826  1  0.883100  0.641000  0.359000  1.0  0.0837
  C  C827  1  0.839500  0.631600  0.368400  1.0  0.0435
  C  C828  1  0.754300  0.612300  0.387700  1.0  0.0163
  C  C829  1  0.463300  0.804300  0.195700  1.0  0.1367
  C  C830  1  0.461500  0.836400  0.163600  1.0  0.0113
  C  C831  1  0.419800  0.850500  0.149500  1.0  0.0304
  C  C832  1  0.383100  0.859000  0.141000  1.0  0.0837
  C  C833  1  0.339500  0.868400  0.131600  1.0  0.0435
  C  C834  1  0.254300  0.887700  0.112300  1.0  0.0161
  C  C835  1  0.963300  0.304300  0.695700  1.0  0.1367
  C  C836  1  0.961500  0.336400  0.663600  1.0  0.0113
  C  C837  1  0.919800  0.350500  0.649500  1.0  0.0304
  C  C838  1  0.883100  0.359000  0.641000  1.0  0.0837
  C  C839  1  0.839500  0.368400  0.631600  1.0  0.0435
  C  C840  1  0.754300  0.387700  0.612300  1.0  0.0161
  C  C841  1  0.536700  0.195700  0.195700  1.0  0.1373
  C  C842  1  0.538500  0.163600  0.163600  1.0  0.0114
  C  C843  1  0.580200  0.149500  0.149500  1.0  0.0311
  C  C844  1  0.616900  0.141000  0.141000  1.0  0.0798
  C  C845  1  0.660500  0.131600  0.131600  1.0  0.0421
  C  C846  1  0.745700  0.112300  0.112300  1.0  0.017
  C  C847  1  0.036700  0.695700  0.695700  1.0  0.1373
  C  C848  1  0.038500  0.663600  0.663600  1.0  0.0114
  C  C849  1  0.080200  0.649500  0.649500  1.0  0.0311
  C  C850  1  0.116900  0.641000  0.641000  1.0  0.0798
  C  C851  1  0.160500  0.631600  0.631600  1.0  0.0421
  C  C852  1  0.245700  0.612300  0.612300  1.0  0.017
  C  C853  1  0.536700  0.804300  0.804300  1.0  0.1366
  C  C854  1  0.538500  0.836400  0.836400  1.0  0.0118
  C  C855  1  0.580200  0.850500  0.850500  1.0  0.0338
  C  C856  1  0.616900  0.859000  0.859000  1.0  0.0802
  C  C857  1  0.660500  0.868400  0.868400  1.0  0.042
  C  C858  1  0.745700  0.887700  0.887700  1.0  0.0167
  C  C859  1  0.036700  0.304300  0.304300  1.0  0.1366
  C  C860  1  0.038500  0.336400  0.336400  1.0  0.0118
  C  C861  1  0.080200  0.350500  0.350500  1.0  0.0338
  C  C862  1  0.116900  0.359000  0.359000  1.0  0.0802
  C  C863  1  0.160500  0.368400  0.368400  1.0  0.042
  C  C864  1  0.245700  0.387700  0.387700  1.0  0.0167
  N  N865  1  0.210700  0.210700  0.500000  1.0  -0.2927
  N  N866  1  0.710700  0.710700  0.000000  1.0  -0.2927
  N  N867  1  0.789300  0.789300  0.500000  1.0  -0.2923
  N  N868  1  0.289300  0.289300  0.000000  1.0  -0.2923
  N  N869  1  0.789300  0.210700  0.500000  1.0  -0.2927
  N  N870  1  0.289300  0.710700  0.000000  1.0  -0.2927
  N  N871  1  0.210700  0.789300  0.500000  1.0  -0.2922
  N  N872  1  0.710700  0.289300  0.000000  1.0  -0.2922
  N  N873  1  0.500000  0.210700  0.210700  1.0  -0.2964
  N  N874  1  0.000000  0.710700  0.710700  1.0  -0.2964
  N  N875  1  0.500000  0.789300  0.789300  1.0  -0.2955
  N  N876  1  0.000000  0.289300  0.289300  1.0  -0.2955
  N  N877  1  0.500000  0.789300  0.210700  1.0  -0.2963
  N  N878  1  0.000000  0.289300  0.710700  1.0  -0.2963
  N  N879  1  0.500000  0.210700  0.789300  1.0  -0.2952
  N  N880  1  0.000000  0.710700  0.289300  1.0  -0.2952
  N  N881  1  0.210700  0.500000  0.210700  1.0  -0.2928
  N  N882  1  0.710700  0.000000  0.710700  1.0  -0.2928
  N  N883  1  0.789300  0.500000  0.789300  1.0  -0.2919
  N  N884  1  0.289300  0.000000  0.289300  1.0  -0.2919
  N  N885  1  0.210700  0.500000  0.789300  1.0  -0.2919
  N  N886  1  0.710700  0.000000  0.289300  1.0  -0.2919
  N  N887  1  0.789300  0.500000  0.210700  1.0  -0.2928
  N  N888  1  0.289300  0.000000  0.710700  1.0  -0.2928
  O  O889  1  0.044060  0.153940  0.216010  1.0  -0.5781
  O  O890  1  0.044370  0.204560  0.267690  1.0  -0.5798
  O  O891  1  0.544060  0.653940  0.716010  1.0  -0.5781
  O  O892  1  0.544370  0.704560  0.767690  1.0  -0.5798
  O  O893  1  0.955940  0.846060  0.216010  1.0  -0.5785
  O  O894  1  0.955630  0.795440  0.267690  1.0  -0.5803
  O  O895  1  0.455940  0.346060  0.716010  1.0  -0.5785
  O  O896  1  0.455630  0.295440  0.767690  1.0  -0.5803
  O  O897  1  0.955940  0.153940  0.783990  1.0  -0.578
  O  O898  1  0.955630  0.204560  0.732310  1.0  -0.5799
  O  O899  1  0.455940  0.653940  0.283990  1.0  -0.578
  O  O900  1  0.455630  0.704560  0.232310  1.0  -0.5799
  O  O901  1  0.044060  0.846060  0.783990  1.0  -0.5787
  O  O902  1  0.044370  0.795440  0.732310  1.0  -0.5795
  O  O903  1  0.544060  0.346060  0.283990  1.0  -0.5787
  O  O904  1  0.544370  0.295440  0.232310  1.0  -0.5795
  O  O905  1  0.216010  0.044060  0.153940  1.0  -0.5777
  O  O906  1  0.267690  0.044370  0.204560  1.0  -0.577
  O  O907  1  0.716010  0.544060  0.653940  1.0  -0.5778
  O  O908  1  0.767690  0.544370  0.704560  1.0  -0.577
  O  O909  1  0.216010  0.955940  0.846060  1.0  -0.5778
  O  O910  1  0.267690  0.955630  0.795440  1.0  -0.5767
  O  O911  1  0.716010  0.455940  0.346060  1.0  -0.5779
  O  O912  1  0.767690  0.455630  0.295440  1.0  -0.5767
  O  O913  1  0.783990  0.955940  0.153940  1.0  -0.5786
  O  O914  1  0.732310  0.955630  0.204560  1.0  -0.5772
  O  O915  1  0.283990  0.455940  0.653940  1.0  -0.5786
  O  O916  1  0.232310  0.455630  0.704560  1.0  -0.5772
  O  O917  1  0.783990  0.044060  0.846060  1.0  -0.5783
  O  O918  1  0.732310  0.044370  0.795440  1.0  -0.5761
  O  O919  1  0.283990  0.544060  0.346060  1.0  -0.5782
  O  O920  1  0.232310  0.544370  0.295440  1.0  -0.5761
  O  O921  1  0.153940  0.216010  0.044060  1.0  -0.5775
  O  O922  1  0.204560  0.267690  0.044370  1.0  -0.5766
  O  O923  1  0.653940  0.716010  0.544060  1.0  -0.5775
  O  O924  1  0.704560  0.767690  0.544370  1.0  -0.5766
  O  O925  1  0.846060  0.216010  0.955940  1.0  -0.5787
  O  O926  1  0.795440  0.267690  0.955630  1.0  -0.5764
  O  O927  1  0.346060  0.716010  0.455940  1.0  -0.5787
  O  O928  1  0.295440  0.767690  0.455630  1.0  -0.5764
  O  O929  1  0.153940  0.783990  0.955940  1.0  -0.5784
  O  O930  1  0.204560  0.732310  0.955630  1.0  -0.5775
  O  O931  1  0.653940  0.283990  0.455940  1.0  -0.5784
  O  O932  1  0.704560  0.232310  0.455630  1.0  -0.5775
  O  O933  1  0.846060  0.783990  0.044060  1.0  -0.5783
  O  O934  1  0.795440  0.732310  0.044370  1.0  -0.5761
  O  O935  1  0.346060  0.283990  0.544060  1.0  -0.5783
  O  O936  1  0.295440  0.232310  0.544370  1.0  -0.5761
  O  O937  1  0.153940  0.044060  0.783990  1.0  -0.5771
  O  O938  1  0.204560  0.044370  0.732310  1.0  -0.5766
  O  O939  1  0.653940  0.544060  0.283990  1.0  -0.5771
  O  O940  1  0.704560  0.544370  0.232310  1.0  -0.5766
  O  O941  1  0.846060  0.955940  0.783990  1.0  -0.5779
  O  O942  1  0.795440  0.955630  0.732310  1.0  -0.5765
  O  O943  1  0.346060  0.455940  0.283990  1.0  -0.5779
  O  O944  1  0.295440  0.455630  0.232310  1.0  -0.5766
  O  O945  1  0.153940  0.955940  0.216010  1.0  -0.5771
  O  O946  1  0.204560  0.955630  0.267690  1.0  -0.5772
  O  O947  1  0.653940  0.455940  0.716010  1.0  -0.5771
  O  O948  1  0.704560  0.455630  0.767690  1.0  -0.5772
  O  O949  1  0.846060  0.044060  0.216010  1.0  -0.5775
  O  O950  1  0.795440  0.044370  0.267690  1.0  -0.5768
  O  O951  1  0.346060  0.544060  0.716010  1.0  -0.5775
  O  O952  1  0.295440  0.544370  0.767690  1.0  -0.5768
  O  O953  1  0.044060  0.216010  0.846060  1.0  -0.5788
  O  O954  1  0.044370  0.267690  0.795440  1.0  -0.5773
  O  O955  1  0.544060  0.716010  0.346060  1.0  -0.5788
  O  O956  1  0.544370  0.767690  0.295440  1.0  -0.5773
  O  O957  1  0.955940  0.216010  0.153940  1.0  -0.5789
  O  O958  1  0.955630  0.267690  0.204560  1.0  -0.5782
  O  O959  1  0.455940  0.716010  0.653940  1.0  -0.5789
  O  O960  1  0.455630  0.767690  0.704560  1.0  -0.5782
  O  O961  1  0.955940  0.783990  0.846060  1.0  -0.5782
  O  O962  1  0.955630  0.732310  0.795440  1.0  -0.5782
  O  O963  1  0.455940  0.283990  0.346060  1.0  -0.5782
  O  O964  1  0.455630  0.232310  0.295440  1.0  -0.5782
  O  O965  1  0.044060  0.783990  0.153940  1.0  -0.5786
  O  O966  1  0.044370  0.732310  0.204560  1.0  -0.5789
  O  O967  1  0.544060  0.283990  0.653940  1.0  -0.5786
  O  O968  1  0.544370  0.232310  0.704560  1.0  -0.5789
  O  O969  1  0.216010  0.153940  0.955940  1.0  -0.5785
  O  O970  1  0.267690  0.204560  0.955630  1.0  -0.5783
  O  O971  1  0.716010  0.653940  0.455940  1.0  -0.5785
  O  O972  1  0.767690  0.704560  0.455630  1.0  -0.5783
  O  O973  1  0.216010  0.846060  0.044060  1.0  -0.5788
  O  O974  1  0.267690  0.795440  0.044370  1.0  -0.5778
  O  O975  1  0.716010  0.346060  0.544060  1.0  -0.5788
  O  O976  1  0.767690  0.295440  0.544370  1.0  -0.5778
  O  O977  1  0.783990  0.153940  0.044060  1.0  -0.5784
  O  O978  1  0.732310  0.204560  0.044370  1.0  -0.5777
  O  O979  1  0.283990  0.653940  0.544060  1.0  -0.5784
  O  O980  1  0.232310  0.704560  0.544370  1.0  -0.5777
  O  O981  1  0.783990  0.846060  0.955940  1.0  -0.5798
  O  O982  1  0.732310  0.795440  0.955630  1.0  -0.5782
  O  O983  1  0.283990  0.346060  0.455940  1.0  -0.5798
  O  O984  1  0.232310  0.295440  0.455630  1.0  -0.5782
  O  O985  1  0.955940  0.846060  0.783990  1.0  -0.5786
  O  O986  1  0.955630  0.795440  0.732310  1.0  -0.5794
  O  O987  1  0.455940  0.346060  0.283990  1.0  -0.5786
  O  O988  1  0.455630  0.295440  0.232310  1.0  -0.5794
  O  O989  1  0.044060  0.153940  0.783990  1.0  -0.5779
  O  O990  1  0.044370  0.204560  0.732310  1.0  -0.5793
  O  O991  1  0.544060  0.653940  0.283990  1.0  -0.5778
  O  O992  1  0.544370  0.704560  0.232310  1.0  -0.5793
  O  O993  1  0.044060  0.846060  0.216010  1.0  -0.5786
  O  O994  1  0.044370  0.795440  0.267690  1.0  -0.5798
  O  O995  1  0.544060  0.346060  0.716010  1.0  -0.5786
  O  O996  1  0.544370  0.295440  0.767690  1.0  -0.5798
  O  O997  1  0.955940  0.153940  0.216010  1.0  -0.5777
  O  O998  1  0.955630  0.204560  0.267690  1.0  -0.5795
  O  O999  1  0.455940  0.653940  0.716010  1.0  -0.5778
  O  O1000  1  0.455630  0.704560  0.767690  1.0  -0.5795
  O  O1001  1  0.783990  0.955940  0.846060  1.0  -0.5784
  O  O1002  1  0.732310  0.955630  0.795440  1.0  -0.5764
  O  O1003  1  0.283990  0.455940  0.346060  1.0  -0.5784
  O  O1004  1  0.232310  0.455630  0.295440  1.0  -0.5764
  O  O1005  1  0.783990  0.044060  0.153940  1.0  -0.5788
  O  O1006  1  0.732310  0.044370  0.204560  1.0  -0.5767
  O  O1007  1  0.283990  0.544060  0.653940  1.0  -0.5789
  O  O1008  1  0.232310  0.544370  0.704560  1.0  -0.5767
  O  O1009  1  0.216010  0.044060  0.846060  1.0  -0.5777
  O  O1010  1  0.267690  0.044370  0.795440  1.0  -0.5758
  O  O1011  1  0.716010  0.544060  0.346060  1.0  -0.5777
  O  O1012  1  0.767690  0.544370  0.295440  1.0  -0.5758
  O  O1013  1  0.216010  0.955940  0.153940  1.0  -0.5774
  O  O1014  1  0.267690  0.955630  0.204560  1.0  -0.5769
  O  O1015  1  0.716010  0.455940  0.653940  1.0  -0.5774
  O  O1016  1  0.767690  0.455630  0.704560  1.0  -0.5769
  O  O1017  1  0.846060  0.783990  0.955940  1.0  -0.5786
  O  O1018  1  0.795440  0.732310  0.955630  1.0  -0.5767
  O  O1019  1  0.346060  0.283990  0.455940  1.0  -0.5786
  O  O1020  1  0.295440  0.232310  0.455630  1.0  -0.5767
  O  O1021  1  0.153940  0.783990  0.044060  1.0  -0.5782
  O  O1022  1  0.204560  0.732310  0.044370  1.0  -0.5766
  O  O1023  1  0.653940  0.283990  0.544060  1.0  -0.5782
  O  O1024  1  0.704560  0.232310  0.544370  1.0  -0.5766
  O  O1025  1  0.846060  0.216010  0.044060  1.0  -0.5783
  O  O1026  1  0.795440  0.267690  0.044370  1.0  -0.5755
  O  O1027  1  0.346060  0.716010  0.544060  1.0  -0.5783
  O  O1028  1  0.295440  0.767690  0.544370  1.0  -0.5755
  O  O1029  1  0.153940  0.216010  0.955940  1.0  -0.5774
  O  O1030  1  0.204560  0.267690  0.955630  1.0  -0.5769
  O  O1031  1  0.653940  0.716010  0.455940  1.0  -0.5774
  O  O1032  1  0.704560  0.767690  0.455630  1.0  -0.5769
  O  O1033  1  0.846060  0.955940  0.216010  1.0  -0.5771
  O  O1034  1  0.795440  0.955630  0.267690  1.0  -0.5766
  O  O1035  1  0.346060  0.455940  0.716010  1.0  -0.5771
  O  O1036  1  0.295440  0.455630  0.767690  1.0  -0.5768
  O  O1037  1  0.153940  0.044060  0.216010  1.0  -0.5773
  O  O1038  1  0.204560  0.044370  0.267690  1.0  -0.5769
  O  O1039  1  0.653940  0.544060  0.716010  1.0  -0.5773
  O  O1040  1  0.704560  0.544370  0.767690  1.0  -0.5769
  O  O1041  1  0.846060  0.044060  0.783990  1.0  -0.5778
  O  O1042  1  0.795440  0.044370  0.732310  1.0  -0.5757
  O  O1043  1  0.346060  0.544060  0.283990  1.0  -0.5778
  O  O1044  1  0.295440  0.544370  0.232310  1.0  -0.5757
  O  O1045  1  0.153940  0.955940  0.783990  1.0  -0.5769
  O  O1046  1  0.204560  0.955630  0.732310  1.0  -0.577
  O  O1047  1  0.653940  0.455940  0.283990  1.0  -0.5769
  O  O1048  1  0.704560  0.455630  0.232310  1.0  -0.577
  O  O1049  1  0.955940  0.783990  0.153940  1.0  -0.5785
  O  O1050  1  0.955630  0.732310  0.204560  1.0  -0.5785
  O  O1051  1  0.455940  0.283990  0.653940  1.0  -0.5785
  O  O1052  1  0.455630  0.232310  0.704560  1.0  -0.5785
  O  O1053  1  0.044060  0.783990  0.846060  1.0  -0.5782
  O  O1054  1  0.044370  0.732310  0.795440  1.0  -0.5778
  O  O1055  1  0.544060  0.283990  0.346060  1.0  -0.5782
  O  O1056  1  0.544370  0.232310  0.295440  1.0  -0.5775
  O  O1057  1  0.044060  0.216010  0.153940  1.0  -0.5788
  O  O1058  1  0.044370  0.267690  0.204560  1.0  -0.5784
  O  O1059  1  0.544060  0.716010  0.653940  1.0  -0.5788
  O  O1060  1  0.544370  0.767690  0.704560  1.0  -0.578
  O  O1061  1  0.955940  0.216010  0.846060  1.0  -0.5788
  O  O1062  1  0.955630  0.267690  0.795440  1.0  -0.5774
  O  O1063  1  0.455940  0.716010  0.346060  1.0  -0.5788
  O  O1064  1  0.455630  0.767690  0.295440  1.0  -0.5774
  O  O1065  1  0.783990  0.846060  0.044060  1.0  -0.5794
  O  O1066  1  0.732310  0.795440  0.044370  1.0  -0.5772
  O  O1067  1  0.283990  0.346060  0.544060  1.0  -0.5794
  O  O1068  1  0.232310  0.295440  0.544370  1.0  -0.5772
  O  O1069  1  0.783990  0.153940  0.955940  1.0  -0.5786
  O  O1070  1  0.732310  0.204560  0.955630  1.0  -0.5785
  O  O1071  1  0.283990  0.653940  0.455940  1.0  -0.5786
  O  O1072  1  0.232310  0.704560  0.455630  1.0  -0.5785
  O  O1073  1  0.216010  0.846060  0.955940  1.0  -0.5787
  O  O1074  1  0.267690  0.795440  0.955630  1.0  -0.578
  O  O1075  1  0.716010  0.346060  0.455940  1.0  -0.5787
  O  O1076  1  0.767690  0.295440  0.455630  1.0  -0.578
  O  O1077  1  0.216010  0.153940  0.044060  1.0  -0.5782
  O  O1078  1  0.267690  0.204560  0.044370  1.0  -0.5773
  O  O1079  1  0.716010  0.653940  0.544060  1.0  -0.5782
  O  O1080  1  0.767690  0.704560  0.544370  1.0  -0.5773
