# generated using pymatgen
data_CoH66C62S2(N4O)2
_symmetry_space_group_name_H-M   'P 1'
_cell_length_a   23.88220000
_cell_length_b   23.88220000
_cell_length_c   46.85140000
_cell_angle_alpha   90.00000000
_cell_angle_beta   90.00000000
_cell_angle_gamma   90.00000000
_symmetry_Int_Tables_number   1
_chemical_formula_structural   CoH66C62S2(N4O)2
_chemical_formula_sum   'Co16 H1056 C992 S32 N128 O32'
_cell_volume   26722.13999322
_cell_formula_units_Z   16
loop_
 _symmetry_equiv_pos_site_id
 _symmetry_equiv_pos_as_xyz
  1  'x, y, z'
loop_
 _atom_site_type_symbol
 _atom_site_label
 _atom_site_symmetry_multiplicity
 _atom_site_fract_x
 _atom_site_fract_y
 _atom_site_fract_z
 _atom_site_occupancy
 _atom_site_charge
  Co  Co1  1  0.381810  0.879860  0.495380  1.0  0.6651
  Co  Co2  1  0.618190  0.120140  0.995380  1.0  0.6647
  Co  Co3  1  0.620140  0.881810  0.745380  1.0  0.6643
  Co  Co4  1  0.379860  0.118190  0.245380  1.0  0.6644
  Co  Co5  1  0.118190  0.379860  0.754620  1.0  0.6646
  Co  Co6  1  0.881810  0.620140  0.254620  1.0  0.666
  Co  Co7  1  0.879860  0.381810  0.504620  1.0  0.665
  Co  Co8  1  0.120140  0.618190  0.004620  1.0  0.6643
  Co  Co9  1  0.138310  0.861690  0.750000  1.0  0.6265
  Co  Co10  1  0.861690  0.138310  0.250000  1.0  0.6264
  Co  Co11  1  0.638310  0.638310  0.000000  1.0  0.6261
  Co  Co12  1  0.361690  0.361690  0.500000  1.0  0.6272
  Co  Co13  1  0.387400  0.612600  0.250000  1.0  0.6176
  Co  Co14  1  0.612600  0.387400  0.750000  1.0  0.6181
  Co  Co15  1  0.887400  0.887400  0.500000  1.0  0.6178
  Co  Co16  1  0.112600  0.112600  0.000000  1.0  0.6181
  H  H17  1  0.179500  0.743800  0.735000  1.0  0.078
  H  H18  1  0.197600  0.883900  0.692400  1.0  0.0717
  H  H19  1  0.224700  0.693800  0.699300  1.0  0.1271
  H  H20  1  0.245100  0.840400  0.656700  1.0  0.1136
  H  H21  1  0.266500  0.652400  0.667000  1.0  0.1121
  H  H22  1  0.320800  0.660300  0.585100  1.0  0.1252
  H  H23  1  0.293700  0.846500  0.594400  1.0  0.1176
  H  H24  1  0.325400  0.706300  0.549300  1.0  0.1145
  H  H25  1  0.283400  0.571200  0.584400  1.0  0.1049
  H  H26  1  0.331000  0.577100  0.666900  1.0  0.1016
  H  H27  1  0.321500  0.898200  0.555600  1.0  0.0791
  H  H28  1  0.353000  0.761700  0.511700  1.0  0.0815
  H  H29  1  0.300400  0.475700  0.583200  1.0  0.1129
  H  H30  1  0.350900  0.480800  0.666200  1.0  0.1303
  H  H31  1  0.337300  0.384200  0.661600  1.0  0.066
  H  H32  1  0.397500  0.404800  0.650500  1.0  0.0583
  H  H33  1  0.262900  0.837400  0.483700  1.0  0.0751
  H  H34  1  0.400000  0.810800  0.439800  1.0  0.0815
  H  H35  1  0.454600  0.863900  0.548900  1.0  0.0927
  H  H36  1  0.412500  0.002700  0.508700  1.0  0.0837
  H  H37  1  0.341500  0.303500  0.635700  1.0  0.0789
  H  H38  1  0.390500  0.326800  0.615800  1.0  0.0731
  H  H39  1  0.210300  0.784900  0.451800  1.0  0.1244
  H  H40  1  0.350600  0.763300  0.404400  1.0  0.1154
  H  H41  1  0.500700  0.914800  0.584100  1.0  0.1054
  H  H42  1  0.457200  0.057500  0.542500  1.0  0.1291
  H  H43  1  0.426700  0.259900  0.645900  1.0  0.0848
  H  H44  1  0.454200  0.318900  0.653200  1.0  0.0796
  H  H45  1  0.392300  0.325500  0.693200  1.0  0.0683
  H  H46  1  0.437000  0.275400  0.695500  1.0  0.0737
  H  H47  1  0.322000  0.265600  0.679500  1.0  0.0584
  H  H48  1  0.365700  0.216200  0.672400  1.0  0.0691
  H  H49  1  0.165100  0.741900  0.420700  1.0  0.1145
  H  H50  1  0.515900  0.100400  0.569900  1.0  0.1145
  H  H51  1  0.342000  0.259800  0.727600  1.0  0.0721
  H  H52  1  0.392000  0.216600  0.721800  1.0  0.0743
  H  H53  1  0.326900  0.146200  0.708500  1.0  0.0588
  H  H54  1  0.275800  0.189600  0.712100  1.0  0.0874
  H  H55  1  0.165700  0.683800  0.339500  1.0  0.1109
  H  H56  1  0.569400  0.100400  0.651900  1.0  0.1146
  H  H57  1  0.324200  0.200800  0.762500  1.0  0.1074
  H  H58  1  0.336300  0.135200  0.756400  1.0  0.101
  H  H59  1  0.350900  0.714200  0.344900  1.0  0.0896
  H  H60  1  0.211200  0.667000  0.303700  1.0  0.1254
  H  H61  1  0.075500  0.713300  0.340700  1.0  0.1113
  H  H62  1  0.091700  0.678600  0.424200  1.0  0.1029
  H  H63  1  0.571200  0.056100  0.690300  1.0  0.1241
  H  H64  1  0.538100  0.913800  0.645800  1.0  0.1115
  H  H65  1  0.579800  0.177100  0.567500  1.0  0.1037
  H  H66  1  0.538800  0.188400  0.651300  1.0  0.1078
  H  H67  1  0.240500  0.145900  0.774900  1.0  0.0977
  H  H68  1  0.226400  0.187200  0.749000  1.0  0.1094
  H  H69  1  0.238300  0.122400  0.743000  1.0  0.1025
  H  H70  1  0.404000  0.683500  0.306300  1.0  0.0867
  H  H71  1  0.266500  0.637300  0.266600  1.0  0.0817
  H  H72  1  0.981000  0.693700  0.343300  1.0  0.1065
  H  H73  1  0.996900  0.657900  0.427300  1.0  0.1186
  H  H74  1  0.593900  0.001000  0.728700  1.0  0.0806
  H  H75  1  0.557800  0.863900  0.686600  1.0  0.0826
  H  H76  1  0.598100  0.274300  0.566800  1.0  0.1187
  H  H77  1  0.557800  0.284100  0.650600  1.0  0.121
  H  H78  1  0.902400  0.678000  0.425500  1.0  0.0755
  H  H79  1  0.914800  0.613700  0.418100  1.0  0.0724
  H  H80  1  0.574000  0.367700  0.570300  1.0  0.078
  H  H81  1  0.638800  0.356900  0.578100  1.0  0.0664
  H  H82  1  0.363900  0.546200  0.305800  1.0  0.075
  H  H83  1  0.505600  0.574300  0.266100  1.0  0.0861
  H  H84  1  0.830300  0.610200  0.391100  1.0  0.0763
  H  H85  1  0.817700  0.673800  0.399500  1.0  0.0843
  H  H86  1  0.577400  0.445400  0.606300  1.0  0.0833
  H  H87  1  0.608600  0.458100  0.576700  1.0  0.0884
  H  H88  1  0.409100  0.506000  0.344000  1.0  0.1194
  H  H89  1  0.555700  0.529700  0.301600  1.0  0.122
  H  H90  1  0.819400  0.583100  0.439900  1.0  0.0711
  H  H91  1  0.806500  0.647000  0.448200  1.0  0.0874
  H  H92  1  0.694100  0.457300  0.596800  1.0  0.0945
  H  H93  1  0.678100  0.408500  0.618800  1.0  0.0841
  H  H94  1  0.738400  0.575500  0.413900  1.0  0.069
  H  H95  1  0.729500  0.642200  0.413200  1.0  0.0694
  H  H96  1  0.629800  0.475900  0.648700  1.0  0.0773
  H  H97  1  0.694400  0.492200  0.645500  1.0  0.0978
  H  H98  1  0.727800  0.631100  0.467400  1.0  0.1
  H  H99  1  0.711100  0.568100  0.460100  1.0  0.0938
  H  H100  1  0.670700  0.560200  0.610600  1.0  0.0708
  H  H101  1  0.606100  0.543800  0.613600  1.0  0.0778
  H  H102  1  0.597300  0.488200  0.334600  1.0  0.1104
  H  H103  1  0.641000  0.655200  0.465700  1.0  0.101
  H  H104  1  0.639700  0.641100  0.432700  1.0  0.1203
  H  H105  1  0.607900  0.574500  0.661300  1.0  0.0708
  H  H106  1  0.671700  0.592800  0.657300  1.0  0.0752
  H  H107  1  0.602500  0.580600  0.477500  1.0  0.0673
  H  H108  1  0.615000  0.551300  0.448700  1.0  0.0618
  H  H109  1  0.586300  0.641300  0.624200  1.0  0.0572
  H  H110  1  0.648600  0.664500  0.628700  1.0  0.0644
  H  H111  1  0.588700  0.434200  0.416200  1.0  0.131
  H  H112  1  0.522600  0.555000  0.438700  1.0  0.0943
  H  H113  1  0.547800  0.512900  0.461000  1.0  0.0993
  H  H114  1  0.626100  0.682900  0.678900  1.0  0.0848
  H  H115  1  0.563100  0.663300  0.672900  1.0  0.0869
  H  H116  1  0.540200  0.420200  0.450900  1.0  0.1228
  H  H117  1  0.403400  0.464900  0.405700  1.0  0.1108
  H  H118  1  0.672900  0.427500  0.334200  1.0  0.104
  H  H119  1  0.679200  0.469500  0.417400  1.0  0.1043
  H  H120  1  0.455100  0.527800  0.470300  1.0  0.0932
  H  H121  1  0.490400  0.550900  0.496900  1.0  0.0852
  H  H122  1  0.464800  0.593700  0.474100  1.0  0.106
  H  H123  1  0.596100  0.750600  0.636100  1.0  0.0996
  H  H124  1  0.596000  0.769600  0.668800  1.0  0.1039
  H  H125  1  0.539700  0.746800  0.654400  1.0  0.1046
  H  H126  1  0.481300  0.392300  0.487500  1.0  0.0826
  H  H127  1  0.349200  0.433400  0.444000  1.0  0.0754
  H  H128  1  0.769500  0.409200  0.334200  1.0  0.1292
  H  H129  1  0.775400  0.453700  0.417900  1.0  0.1159
  H  H130  1  0.866400  0.430800  0.340200  1.0  0.062
  H  H131  1  0.848100  0.367900  0.348000  1.0  0.064
  H  H132  1  0.943700  0.421900  0.373600  1.0  0.0803
  H  H133  1  0.926900  0.357600  0.378300  1.0  0.0939
  H  H134  1  0.941800  0.342800  0.327900  1.0  0.0811
  H  H135  1  0.964800  0.405300  0.325700  1.0  0.0689
  H  H136  1  0.036400  0.346600  0.324900  1.0  0.0813
  H  H137  1  0.015000  0.314800  0.352600  1.0  0.0693
  H  H138  1  0.068300  0.420600  0.352000  1.0  0.0689
  H  H139  1  0.041700  0.394200  0.380200  1.0  0.0692
  H  H140  1  0.123400  0.340400  0.349200  1.0  0.071
  H  H141  1  0.101600  0.325200  0.380200  1.0  0.0746
  H  H142  1  0.195400  0.360200  0.376900  1.0  0.0745
  H  H143  1  0.169100  0.420600  0.370700  1.0  0.0786
  H  H144  1  0.150200  0.359700  0.422500  1.0  0.0712
  H  H145  1  0.127700  0.422100  0.416200  1.0  0.0648
  H  H146  1  0.243700  0.389000  0.420500  1.0  0.1021
  H  H147  1  0.213500  0.435600  0.439600  1.0  0.1054
  H  H148  1  0.226800  0.447900  0.406700  1.0  0.0982
  H  H149  1  0.820500  0.256200  0.235000  1.0  0.0772
  H  H150  1  0.802400  0.116100  0.192400  1.0  0.0718
  H  H151  1  0.775300  0.306200  0.199300  1.0  0.1273
  H  H152  1  0.754900  0.159600  0.156700  1.0  0.1136
  H  H153  1  0.733500  0.347600  0.167000  1.0  0.1117
  H  H154  1  0.679200  0.339700  0.085100  1.0  0.1255
  H  H155  1  0.706300  0.153500  0.094400  1.0  0.1175
  H  H156  1  0.674600  0.293700  0.049300  1.0  0.1139
  H  H157  1  0.716600  0.428800  0.084400  1.0  0.105
  H  H158  1  0.669000  0.422900  0.166900  1.0  0.1014
  H  H159  1  0.678500  0.101800  0.055600  1.0  0.0799
  H  H160  1  0.647000  0.238300  0.011700  1.0  0.0816
  H  H161  1  0.699600  0.524300  0.083200  1.0  0.1127
  H  H162  1  0.649100  0.519200  0.166200  1.0  0.1297
  H  H163  1  0.662700  0.615800  0.161600  1.0  0.066
  H  H164  1  0.602500  0.595200  0.150500  1.0  0.0577
  H  H165  1  0.737100  0.162600  0.983700  1.0  0.0748
  H  H166  1  0.600000  0.189200  0.939800  1.0  0.0812
  H  H167  1  0.545400  0.136100  0.048900  1.0  0.0928
  H  H168  1  0.587500  0.997300  0.008700  1.0  0.0834
  H  H169  1  0.658500  0.696500  0.135700  1.0  0.0801
  H  H170  1  0.609500  0.673200  0.115800  1.0  0.0732
  H  H171  1  0.789700  0.215100  0.951800  1.0  0.1248
  H  H172  1  0.649400  0.236700  0.904400  1.0  0.1162
  H  H173  1  0.499300  0.085200  0.084100  1.0  0.1052
  H  H174  1  0.542800  0.942500  0.042500  1.0  0.1294
  H  H175  1  0.573300  0.740100  0.145900  1.0  0.0842
  H  H176  1  0.545800  0.681100  0.153200  1.0  0.0777
  H  H177  1  0.607700  0.674500  0.193200  1.0  0.0693
  H  H178  1  0.563000  0.724600  0.195500  1.0  0.0747
  H  H179  1  0.678000  0.734400  0.179500  1.0  0.0568
  H  H180  1  0.634300  0.783800  0.172400  1.0  0.0694
  H  H181  1  0.834900  0.258100  0.920700  1.0  0.1145
  H  H182  1  0.484100  0.899600  0.069900  1.0  0.1153
  H  H183  1  0.658000  0.740200  0.227600  1.0  0.076
  H  H184  1  0.608000  0.783400  0.221800  1.0  0.0735
  H  H185  1  0.673100  0.853800  0.208500  1.0  0.064
  H  H186  1  0.724200  0.810400  0.212100  1.0  0.0869
  H  H187  1  0.834300  0.316200  0.839500  1.0  0.1113
  H  H188  1  0.430600  0.899600  0.151900  1.0  0.1154
  H  H189  1  0.675800  0.799200  0.262500  1.0  0.1088
  H  H190  1  0.663700  0.864800  0.256400  1.0  0.1004
  H  H191  1  0.649100  0.285800  0.844900  1.0  0.09
  H  H192  1  0.788800  0.333000  0.803700  1.0  0.1266
  H  H193  1  0.924500  0.286700  0.840700  1.0  0.1112
  H  H194  1  0.908300  0.321400  0.924200  1.0  0.1028
  H  H195  1  0.428800  0.943900  0.190300  1.0  0.1238
  H  H196  1  0.461900  0.086200  0.145800  1.0  0.1117
  H  H197  1  0.420200  0.822900  0.067500  1.0  0.1041
  H  H198  1  0.461200  0.811600  0.151300  1.0  0.1083
  H  H199  1  0.759500  0.854100  0.274900  1.0  0.0967
  H  H200  1  0.773600  0.812800  0.249000  1.0  0.1093
  H  H201  1  0.761700  0.877600  0.243000  1.0  0.1037
  H  H202  1  0.596000  0.316500  0.806300  1.0  0.0859
  H  H203  1  0.733500  0.362700  0.766600  1.0  0.0813
  H  H204  1  0.019000  0.306300  0.843300  1.0  0.1069
  H  H205  1  0.003100  0.342100  0.927300  1.0  0.1185
  H  H206  1  0.406100  0.999000  0.228700  1.0  0.0808
  H  H207  1  0.442200  0.136100  0.186600  1.0  0.0822
  H  H208  1  0.401900  0.725700  0.066800  1.0  0.1191
  H  H209  1  0.442200  0.715900  0.150600  1.0  0.1212
  H  H210  1  0.097600  0.322000  0.925500  1.0  0.0757
  H  H211  1  0.085200  0.386300  0.918100  1.0  0.0717
  H  H212  1  0.426000  0.632300  0.070300  1.0  0.0783
  H  H213  1  0.361200  0.643100  0.078100  1.0  0.0644
  H  H214  1  0.636100  0.453800  0.805800  1.0  0.0743
  H  H215  1  0.494400  0.425700  0.766100  1.0  0.086
  H  H216  1  0.169700  0.389800  0.891100  1.0  0.0768
  H  H217  1  0.182300  0.326200  0.899500  1.0  0.0845
  H  H218  1  0.422600  0.554600  0.106300  1.0  0.0846
  H  H219  1  0.391400  0.541900  0.076700  1.0  0.0894
  H  H220  1  0.590900  0.494000  0.844000  1.0  0.119
  H  H221  1  0.444300  0.470300  0.801600  1.0  0.1223
  H  H222  1  0.180600  0.416900  0.939900  1.0  0.0682
  H  H223  1  0.193500  0.353000  0.948200  1.0  0.0871
  H  H224  1  0.305900  0.542700  0.096800  1.0  0.094
  H  H225  1  0.321900  0.591500  0.118800  1.0  0.0846
  H  H226  1  0.261600  0.424500  0.913900  1.0  0.0674
  H  H227  1  0.270500  0.357800  0.913200  1.0  0.0691
  H  H228  1  0.370200  0.524100  0.148700  1.0  0.0767
  H  H229  1  0.305600  0.507800  0.145500  1.0  0.0972
  H  H230  1  0.272200  0.368900  0.967400  1.0  0.1006
  H  H231  1  0.288900  0.431900  0.960100  1.0  0.0971
  H  H232  1  0.329300  0.439800  0.110600  1.0  0.0716
  H  H233  1  0.393900  0.456200  0.113600  1.0  0.0792
  H  H234  1  0.402700  0.511800  0.834600  1.0  0.1107
  H  H235  1  0.359000  0.344800  0.965700  1.0  0.0975
  H  H236  1  0.360300  0.358900  0.932700  1.0  0.1198
  H  H237  1  0.392100  0.425500  0.161300  1.0  0.0696
  H  H238  1  0.328300  0.407200  0.157300  1.0  0.076
  H  H239  1  0.397500  0.419400  0.977500  1.0  0.0675
  H  H240  1  0.385000  0.448700  0.948700  1.0  0.0624
  H  H241  1  0.413700  0.358700  0.124200  1.0  0.0578
  H  H242  1  0.351400  0.335500  0.128700  1.0  0.0637
  H  H243  1  0.411300  0.565800  0.916200  1.0  0.1313
  H  H244  1  0.477400  0.445000  0.938700  1.0  0.0935
  H  H245  1  0.452200  0.487100  0.961000  1.0  0.1031
  H  H246  1  0.373900  0.317100  0.178900  1.0  0.0834
  H  H247  1  0.436900  0.336700  0.172900  1.0  0.0861
  H  H248  1  0.459800  0.579800  0.950900  1.0  0.1216
  H  H249  1  0.596600  0.535100  0.905700  1.0  0.1108
  H  H250  1  0.327100  0.572500  0.834200  1.0  0.1043
  H  H251  1  0.320800  0.530500  0.917400  1.0  0.1042
  H  H252  1  0.544900  0.472200  0.970300  1.0  0.0936
  H  H253  1  0.509600  0.449100  0.996900  1.0  0.0835
  H  H254  1  0.535200  0.406300  0.974100  1.0  0.105
  H  H255  1  0.403900  0.249400  0.136100  1.0  0.0991
  H  H256  1  0.404000  0.230400  0.168800  1.0  0.1046
  H  H257  1  0.460300  0.253200  0.154400  1.0  0.103
  H  H258  1  0.518700  0.607700  0.987500  1.0  0.0821
  H  H259  1  0.650800  0.566600  0.944000  1.0  0.0761
  H  H260  1  0.230500  0.590800  0.834200  1.0  0.1299
  H  H261  1  0.224600  0.546300  0.917900  1.0  0.1157
  H  H262  1  0.133600  0.569200  0.840200  1.0  0.0619
  H  H263  1  0.151900  0.632100  0.848000  1.0  0.0635
  H  H264  1  0.056300  0.578100  0.873600  1.0  0.0807
  H  H265  1  0.073100  0.642400  0.878300  1.0  0.0929
  H  H266  1  0.058200  0.657200  0.827900  1.0  0.0833
  H  H267  1  0.035200  0.594700  0.825700  1.0  0.069
  H  H268  1  0.963600  0.653400  0.824900  1.0  0.082
  H  H269  1  0.985000  0.685200  0.852600  1.0  0.072
  H  H270  1  0.931700  0.579400  0.852000  1.0  0.0669
  H  H271  1  0.958300  0.605800  0.880200  1.0  0.0691
  H  H272  1  0.876600  0.659600  0.849200  1.0  0.0727
  H  H273  1  0.898400  0.674800  0.880200  1.0  0.0731
  H  H274  1  0.804600  0.639800  0.876900  1.0  0.0755
  H  H275  1  0.830900  0.579400  0.870700  1.0  0.079
  H  H276  1  0.849800  0.640300  0.922500  1.0  0.0701
  H  H277  1  0.872300  0.577900  0.916200  1.0  0.065
  H  H278  1  0.756300  0.611000  0.920500  1.0  0.1025
  H  H279  1  0.786500  0.564400  0.939600  1.0  0.1056
  H  H280  1  0.773200  0.552100  0.906700  1.0  0.1002
  H  H281  1  0.756200  0.679500  0.985000  1.0  0.0773
  H  H282  1  0.616100  0.697600  0.942400  1.0  0.0715
  H  H283  1  0.806200  0.724700  0.949300  1.0  0.1227
  H  H284  1  0.659600  0.745100  0.906700  1.0  0.1137
  H  H285  1  0.847600  0.766500  0.917000  1.0  0.1121
  H  H286  1  0.839700  0.820800  0.835100  1.0  0.1252
  H  H287  1  0.653500  0.793700  0.844400  1.0  0.1181
  H  H288  1  0.793700  0.825400  0.799300  1.0  0.1134
  H  H289  1  0.928800  0.783400  0.834400  1.0  0.1051
  H  H290  1  0.922900  0.831000  0.916900  1.0  0.1014
  H  H291  1  0.601800  0.821500  0.805600  1.0  0.079
  H  H292  1  0.738300  0.853000  0.761700  1.0  0.0808
  H  H293  1  0.024300  0.800400  0.833200  1.0  0.1127
  H  H294  1  0.019200  0.850900  0.916200  1.0  0.13
  H  H295  1  0.115800  0.837300  0.911600  1.0  0.0678
  H  H296  1  0.095200  0.897500  0.900500  1.0  0.0569
  H  H297  1  0.662600  0.762900  0.733700  1.0  0.0756
  H  H298  1  0.689200  0.900000  0.689800  1.0  0.0817
  H  H299  1  0.636100  0.954600  0.798900  1.0  0.0922
  H  H300  1  0.497300  0.912500  0.758700  1.0  0.0826
  H  H301  1  0.196500  0.841500  0.885700  1.0  0.0807
  H  H302  1  0.173200  0.890500  0.865800  1.0  0.0733
  H  H303  1  0.715100  0.710300  0.701800  1.0  0.1248
  H  H304  1  0.736700  0.850600  0.654400  1.0  0.1159
  H  H305  1  0.585200  0.000700  0.834100  1.0  0.105
  H  H306  1  0.442500  0.957200  0.792500  1.0  0.1277
  H  H307  1  0.240100  0.926700  0.895900  1.0  0.0828
  H  H308  1  0.181100  0.954200  0.903200  1.0  0.0791
  H  H309  1  0.174500  0.892300  0.943200  1.0  0.071
  H  H310  1  0.224600  0.937000  0.945500  1.0  0.0722
  H  H311  1  0.234400  0.822000  0.929500  1.0  0.0598
  H  H312  1  0.283800  0.865700  0.922400  1.0  0.0696
  H  H313  1  0.758100  0.665100  0.670700  1.0  0.1147
  H  H314  1  0.399600  0.015900  0.819900  1.0  0.1151
  H  H315  1  0.240200  0.842000  0.977600  1.0  0.074
  H  H316  1  0.283400  0.892000  0.971800  1.0  0.0689
  H  H317  1  0.353800  0.826900  0.958500  1.0  0.0584
  H  H318  1  0.310400  0.775800  0.962100  1.0  0.0858
  H  H319  1  0.816200  0.665700  0.589500  1.0  0.1115
  H  H320  1  0.399600  0.069400  0.901900  1.0  0.1146
  H  H321  1  0.299200  0.824200  0.012500  1.0  0.1067
  H  H322  1  0.364800  0.836300  0.006400  1.0  0.1003
  H  H323  1  0.785800  0.850900  0.594900  1.0  0.0898
  H  H324  1  0.833000  0.711200  0.553700  1.0  0.1273
  H  H325  1  0.786700  0.575500  0.590700  1.0  0.1115
  H  H326  1  0.821400  0.591700  0.674200  1.0  0.1031
  H  H327  1  0.443900  0.071200  0.940300  1.0  0.1233
  H  H328  1  0.586200  0.038100  0.895800  1.0  0.1113
  H  H329  1  0.322900  0.079800  0.817500  1.0  0.1042
  H  H330  1  0.311600  0.038800  0.901300  1.0  0.108
  H  H331  1  0.354100  0.740500  0.024900  1.0  0.0971
  H  H332  1  0.312800  0.726400  0.999000  1.0  0.107
  H  H333  1  0.377600  0.738300  0.993000  1.0  0.1014
  H  H334  1  0.816500  0.904000  0.556300  1.0  0.088
  H  H335  1  0.862700  0.766500  0.516600  1.0  0.0821
  H  H336  1  0.806300  0.481000  0.593300  1.0  0.1063
  H  H337  1  0.842100  0.496900  0.677300  1.0  0.119
  H  H338  1  0.499000  0.093900  0.978700  1.0  0.0818
  H  H339  1  0.636100  0.057800  0.936600  1.0  0.0821
  H  H340  1  0.225700  0.098100  0.816800  1.0  0.1188
  H  H341  1  0.215900  0.057800  0.900600  1.0  0.1211
  H  H342  1  0.822000  0.402400  0.675500  1.0  0.0754
  H  H343  1  0.886300  0.414800  0.668100  1.0  0.0711
  H  H344  1  0.132300  0.074000  0.820300  1.0  0.0788
  H  H345  1  0.143100  0.138800  0.828100  1.0  0.0663
  H  H346  1  0.953800  0.863900  0.555800  1.0  0.0751
  H  H347  1  0.925700  0.005600  0.516100  1.0  0.0858
  H  H348  1  0.889800  0.330300  0.641100  1.0  0.0761
  H  H349  1  0.826200  0.317700  0.649500  1.0  0.0848
  H  H350  1  0.054600  0.077400  0.856300  1.0  0.0832
  H  H351  1  0.041900  0.108600  0.826700  1.0  0.0891
  H  H352  1  0.994000  0.909100  0.594000  1.0  0.1195
  H  H353  1  0.970300  0.055700  0.551600  1.0  0.122
  H  H354  1  0.916900  0.319400  0.689900  1.0  0.0655
  H  H355  1  0.853000  0.306500  0.698200  1.0  0.0866
  H  H356  1  0.042700  0.194100  0.846800  1.0  0.0949
  H  H357  1  0.091500  0.178100  0.868800  1.0  0.0844
  H  H358  1  0.924500  0.238400  0.663900  1.0  0.0692
  H  H359  1  0.857800  0.229500  0.663200  1.0  0.0677
  H  H360  1  0.024100  0.129800  0.898700  1.0  0.0794
  H  H361  1  0.007800  0.194400  0.895500  1.0  0.0981
  H  H362  1  0.868900  0.227800  0.717400  1.0  0.0993
  H  H363  1  0.931900  0.211100  0.710100  1.0  0.0939
  H  H364  1  0.939800  0.170700  0.860600  1.0  0.0722
  H  H365  1  0.956200  0.106100  0.863600  1.0  0.0776
  H  H366  1  0.011800  0.097300  0.584600  1.0  0.1107
  H  H367  1  0.844800  0.141000  0.715700  1.0  0.0994
  H  H368  1  0.858900  0.139700  0.682700  1.0  0.1216
  H  H369  1  0.925500  0.107900  0.911300  1.0  0.0714
  H  H370  1  0.907200  0.171700  0.907300  1.0  0.0754
  H  H371  1  0.919400  0.102500  0.727500  1.0  0.0663
  H  H372  1  0.948700  0.115000  0.698700  1.0  0.0623
  H  H373  1  0.858700  0.086300  0.874200  1.0  0.0574
  H  H374  1  0.835500  0.148600  0.878700  1.0  0.0632
  H  H375  1  0.065800  0.088700  0.666200  1.0  0.1311
  H  H376  1  0.945000  0.022600  0.688700  1.0  0.0948
  H  H377  1  0.987100  0.047800  0.711000  1.0  0.1036
  H  H378  1  0.817100  0.126100  0.928900  1.0  0.0835
  H  H379  1  0.836700  0.063100  0.922900  1.0  0.0879
  H  H380  1  0.079800  0.040200  0.700900  1.0  0.1208
  H  H381  1  0.035100  0.903400  0.655700  1.0  0.1108
  H  H382  1  0.072500  0.172900  0.584200  1.0  0.1047
  H  H383  1  0.030500  0.179200  0.667400  1.0  0.1044
  H  H384  1  0.972200  0.955100  0.720300  1.0  0.0926
  H  H385  1  0.949100  0.990400  0.746900  1.0  0.0847
  H  H386  1  0.906300  0.964800  0.724100  1.0  0.1074
  H  H387  1  0.749400  0.096100  0.886100  1.0  0.0995
  H  H388  1  0.730400  0.096000  0.918800  1.0  0.1031
  H  H389  1  0.753200  0.039700  0.904400  1.0  0.1004
  H  H390  1  0.107700  0.981300  0.737500  1.0  0.0825
  H  H391  1  0.066600  0.849200  0.694000  1.0  0.0769
  H  H392  1  0.090800  0.269500  0.584200  1.0  0.1298
  H  H393  1  0.046300  0.275400  0.667900  1.0  0.1156
  H  H394  1  0.069200  0.366400  0.590200  1.0  0.0617
  H  H395  1  0.132100  0.348100  0.598000  1.0  0.0619
  H  H396  1  0.078100  0.443700  0.623600  1.0  0.0811
  H  H397  1  0.142400  0.426900  0.628300  1.0  0.0918
  H  H398  1  0.157200  0.441800  0.577900  1.0  0.0835
  H  H399  1  0.094700  0.464800  0.575700  1.0  0.0672
  H  H400  1  0.153400  0.536400  0.574900  1.0  0.0816
  H  H401  1  0.185200  0.515000  0.602600  1.0  0.0712
  H  H402  1  0.079400  0.568300  0.602000  1.0  0.0699
  H  H403  1  0.105800  0.541700  0.630200  1.0  0.0694
  H  H404  1  0.159600  0.623400  0.599200  1.0  0.0712
  H  H405  1  0.174800  0.601600  0.630200  1.0  0.0736
  H  H406  1  0.139800  0.695400  0.626900  1.0  0.0748
  H  H407  1  0.079400  0.669100  0.620700  1.0  0.0792
  H  H408  1  0.140300  0.650200  0.672500  1.0  0.069
  H  H409  1  0.077900  0.627700  0.666200  1.0  0.0661
  H  H410  1  0.111000  0.743700  0.670500  1.0  0.1012
  H  H411  1  0.064400  0.713500  0.689600  1.0  0.1055
  H  H412  1  0.052100  0.726800  0.656700  1.0  0.0983
  H  H413  1  0.243800  0.320500  0.485000  1.0  0.0776
  H  H414  1  0.383900  0.302400  0.442400  1.0  0.0713
  H  H415  1  0.193800  0.275300  0.449300  1.0  0.1233
  H  H416  1  0.340400  0.254900  0.406700  1.0  0.113
  H  H417  1  0.152400  0.233500  0.417000  1.0  0.1124
  H  H418  1  0.160300  0.179200  0.335100  1.0  0.1252
  H  H419  1  0.346500  0.206300  0.344400  1.0  0.1181
  H  H420  1  0.206300  0.174600  0.299300  1.0  0.1128
  H  H421  1  0.071200  0.216600  0.334400  1.0  0.1049
  H  H422  1  0.077100  0.169000  0.416900  1.0  0.1018
  H  H423  1  0.398200  0.178500  0.305600  1.0  0.0783
  H  H424  1  0.261700  0.147000  0.261700  1.0  0.0813
  H  H425  1  0.975700  0.199600  0.333200  1.0  0.1132
  H  H426  1  0.980800  0.149100  0.416200  1.0  0.1295
  H  H427  1  0.884200  0.162700  0.411600  1.0  0.0663
  H  H428  1  0.904800  0.102500  0.400500  1.0  0.0573
  H  H429  1  0.337400  0.237100  0.233700  1.0  0.0753
  H  H430  1  0.310800  0.100000  0.189800  1.0  0.0815
  H  H431  1  0.363900  0.045400  0.298900  1.0  0.0914
  H  H432  1  0.502700  0.087500  0.258700  1.0  0.0828
  H  H433  1  0.803500  0.158500  0.385700  1.0  0.081
  H  H434  1  0.826800  0.109500  0.365800  1.0  0.0736
  H  H435  1  0.284900  0.289700  0.201800  1.0  0.1248
  H  H436  1  0.263300  0.149400  0.154400  1.0  0.1158
  H  H437  1  0.414800  0.999300  0.334100  1.0  0.1053
  H  H438  1  0.557500  0.042800  0.292500  1.0  0.1273
  H  H439  1  0.759900  0.073300  0.395900  1.0  0.0835
  H  H440  1  0.818900  0.045800  0.403200  1.0  0.0766
  H  H441  1  0.825500  0.107700  0.443200  1.0  0.0708
  H  H442  1  0.775400  0.063000  0.445500  1.0  0.0734
  H  H443  1  0.765600  0.178000  0.429500  1.0  0.0621
  H  H444  1  0.716200  0.134300  0.422400  1.0  0.0693
  H  H445  1  0.241900  0.334900  0.170700  1.0  0.114
  H  H446  1  0.600400  0.984100  0.319900  1.0  0.1151
  H  H447  1  0.759800  0.158000  0.477600  1.0  0.0728
  H  H448  1  0.716600  0.108000  0.471800  1.0  0.0676
  H  H449  1  0.646200  0.173100  0.458500  1.0  0.061
  H  H450  1  0.689600  0.224200  0.462100  1.0  0.085
  H  H451  1  0.183800  0.334300  0.089500  1.0  0.1111
  H  H452  1  0.600400  0.930600  0.401900  1.0  0.115
  H  H453  1  0.700800  0.175800  0.512500  1.0  0.1069
  H  H454  1  0.635200  0.163700  0.506400  1.0  0.0999
  H  H455  1  0.214200  0.149100  0.094900  1.0  0.0896
  H  H456  1  0.167000  0.288800  0.053700  1.0  0.127
  H  H457  1  0.213300  0.424500  0.090700  1.0  0.1112
  H  H458  1  0.178600  0.408300  0.174200  1.0  0.103
  H  H459  1  0.556100  0.928800  0.440300  1.0  0.1222
  H  H460  1  0.413800  0.961900  0.395800  1.0  0.1114
  H  H461  1  0.677100  0.920200  0.317500  1.0  0.1042
  H  H462  1  0.688400  0.961200  0.401300  1.0  0.1078
  H  H463  1  0.645900  0.259500  0.524900  1.0  0.0972
  H  H464  1  0.687200  0.273600  0.499000  1.0  0.1051
  H  H465  1  0.622400  0.261700  0.493000  1.0  0.1022
  H  H466  1  0.183500  0.096000  0.056300  1.0  0.0882
  H  H467  1  0.137300  0.233500  0.016600  1.0  0.0824
  H  H468  1  0.193700  0.519000  0.093300  1.0  0.1063
  H  H469  1  0.157900  0.503100  0.177300  1.0  0.1187
  H  H470  1  0.501000  0.906100  0.478700  1.0  0.0821
  H  H471  1  0.363900  0.942200  0.436600  1.0  0.0826
  H  H472  1  0.774300  0.901900  0.316800  1.0  0.1186
  H  H473  1  0.784100  0.942200  0.400600  1.0  0.1211
  H  H474  1  0.178000  0.597600  0.175500  1.0  0.0761
  H  H475  1  0.113700  0.585200  0.168100  1.0  0.0705
  H  H476  1  0.867700  0.926000  0.320300  1.0  0.0781
  H  H477  1  0.856900  0.861200  0.328100  1.0  0.0654
  H  H478  1  0.046200  0.136100  0.055800  1.0  0.0747
  H  H479  1  0.074300  0.994400  0.016100  1.0  0.0859
  H  H480  1  0.110200  0.669700  0.141100  1.0  0.0767
  H  H481  1  0.173800  0.682300  0.149500  1.0  0.0855
  H  H482  1  0.945400  0.922600  0.356300  1.0  0.083
  H  H483  1  0.958100  0.891400  0.326700  1.0  0.0882
  H  H484  1  0.006000  0.090900  0.094000  1.0  0.1191
  H  H485  1  0.029700  0.944300  0.051600  1.0  0.1227
  H  H486  1  0.083100  0.680600  0.189900  1.0  0.0658
  H  H487  1  0.147000  0.693500  0.198200  1.0  0.0869
  H  H488  1  0.957300  0.805900  0.346800  1.0  0.0937
  H  H489  1  0.908500  0.821900  0.368800  1.0  0.0848
  H  H490  1  0.075500  0.761600  0.163900  1.0  0.0662
  H  H491  1  0.142200  0.770500  0.163200  1.0  0.0689
  H  H492  1  0.975900  0.870200  0.398700  1.0  0.0781
  H  H493  1  0.992200  0.805600  0.395500  1.0  0.0992
  H  H494  1  0.131100  0.772200  0.217400  1.0  0.1006
  H  H495  1  0.068100  0.788900  0.210100  1.0  0.0934
  H  H496  1  0.060200  0.829300  0.360600  1.0  0.0701
  H  H497  1  0.043800  0.893900  0.363600  1.0  0.0775
  H  H498  1  0.988200  0.902700  0.084600  1.0  0.1108
  H  H499  1  0.155200  0.859000  0.215700  1.0  0.099
  H  H500  1  0.141100  0.860300  0.182700  1.0  0.1212
  H  H501  1  0.074500  0.892100  0.411300  1.0  0.0706
  H  H502  1  0.092800  0.828300  0.407300  1.0  0.0776
  H  H503  1  0.080600  0.897500  0.227500  1.0  0.0674
  H  H504  1  0.051300  0.885000  0.198700  1.0  0.0622
  H  H505  1  0.141300  0.913700  0.374200  1.0  0.0578
  H  H506  1  0.164500  0.851400  0.378700  1.0  0.0628
  H  H507  1  0.934200  0.911300  0.166200  1.0  0.1318
  H  H508  1  0.055000  0.977400  0.188700  1.0  0.0938
  H  H509  1  0.012900  0.952200  0.211000  1.0  0.098
  H  H510  1  0.182900  0.873900  0.428900  1.0  0.0833
  H  H511  1  0.163300  0.936900  0.422900  1.0  0.0864
  H  H512  1  0.920200  0.959800  0.200900  1.0  0.1219
  H  H513  1  0.964900  0.096600  0.155700  1.0  0.1103
  H  H514  1  0.927500  0.827100  0.084200  1.0  0.104
  H  H515  1  0.969500  0.820800  0.167400  1.0  0.1042
  H  H516  1  0.027800  0.044900  0.220300  1.0  0.0921
  H  H517  1  0.050900  0.009600  0.246900  1.0  0.0842
  H  H518  1  0.093700  0.035200  0.224100  1.0  0.1058
  H  H519  1  0.250600  0.903900  0.386100  1.0  0.0986
  H  H520  1  0.269600  0.904000  0.418800  1.0  0.1032
  H  H521  1  0.246800  0.960300  0.404400  1.0  0.1023
  H  H522  1  0.892300  0.018700  0.237500  1.0  0.0835
  H  H523  1  0.933400  0.150800  0.194000  1.0  0.0768
  H  H524  1  0.909200  0.730500  0.084200  1.0  0.1296
  H  H525  1  0.953700  0.724600  0.167900  1.0  0.1158
  H  H526  1  0.930800  0.633600  0.090200  1.0  0.0611
  H  H527  1  0.867900  0.651900  0.098000  1.0  0.0606
  H  H528  1  0.921900  0.556300  0.123600  1.0  0.0813
  H  H529  1  0.857600  0.573100  0.128300  1.0  0.0921
  H  H530  1  0.842800  0.558200  0.077900  1.0  0.0834
  H  H531  1  0.905300  0.535200  0.075700  1.0  0.0678
  H  H532  1  0.846600  0.463600  0.074900  1.0  0.0821
  H  H533  1  0.814800  0.485000  0.102600  1.0  0.0713
  H  H534  1  0.920600  0.431700  0.102000  1.0  0.0698
  H  H535  1  0.894200  0.458300  0.130200  1.0  0.0685
  H  H536  1  0.840400  0.376600  0.099200  1.0  0.072
  H  H537  1  0.825200  0.398400  0.130200  1.0  0.0734
  H  H538  1  0.860200  0.304600  0.126900  1.0  0.0753
  H  H539  1  0.920600  0.330900  0.120700  1.0  0.0796
  H  H540  1  0.859700  0.349800  0.172500  1.0  0.0689
  H  H541  1  0.922100  0.372300  0.166200  1.0  0.0643
  H  H542  1  0.889000  0.256300  0.170500  1.0  0.1027
  H  H543  1  0.935600  0.286500  0.189600  1.0  0.105
  H  H544  1  0.947900  0.273200  0.156700  1.0  0.0999
  H  H545  1  0.320500  0.243800  0.515000  1.0  0.0789
  H  H546  1  0.302400  0.383900  0.557600  1.0  0.0721
  H  H547  1  0.275300  0.193800  0.550700  1.0  0.1278
  H  H548  1  0.254900  0.340400  0.593300  1.0  0.1139
  H  H549  1  0.233500  0.152400  0.583000  1.0  0.1106
  H  H550  1  0.179200  0.160300  0.664900  1.0  0.1256
  H  H551  1  0.206300  0.346500  0.655600  1.0  0.1172
  H  H552  1  0.174600  0.206300  0.700700  1.0  0.1149
  H  H553  1  0.216600  0.071200  0.665600  1.0  0.104
  H  H554  1  0.169000  0.077100  0.583100  1.0  0.1015
  H  H555  1  0.178500  0.398200  0.694400  1.0  0.0789
  H  H556  1  0.147000  0.261700  0.738300  1.0  0.0813
  H  H557  1  0.199600  0.975700  0.666800  1.0  0.1128
  H  H558  1  0.149100  0.980800  0.583800  1.0  0.1296
  H  H559  1  0.162700  0.884200  0.588400  1.0  0.0662
  H  H560  1  0.102500  0.904800  0.599500  1.0  0.0578
  H  H561  1  0.237100  0.337400  0.766300  1.0  0.0747
  H  H562  1  0.100000  0.310800  0.810200  1.0  0.0807
  H  H563  1  0.045400  0.363900  0.701100  1.0  0.0926
  H  H564  1  0.087500  0.502700  0.741300  1.0  0.0843
  H  H565  1  0.158500  0.803500  0.614300  1.0  0.0801
  H  H566  1  0.109500  0.826800  0.634200  1.0  0.0718
  H  H567  1  0.289700  0.284900  0.798200  1.0  0.1251
  H  H568  1  0.149400  0.263300  0.845600  1.0  0.1167
  H  H569  1  0.999300  0.414800  0.665900  1.0  0.1052
  H  H570  1  0.042800  0.557500  0.707500  1.0  0.1288
  H  H571  1  0.073300  0.759900  0.604100  1.0  0.0831
  H  H572  1  0.045800  0.818900  0.596800  1.0  0.0779
  H  H573  1  0.107700  0.825500  0.556800  1.0  0.0683
  H  H574  1  0.063000  0.775400  0.554500  1.0  0.0738
  H  H575  1  0.178000  0.765600  0.570500  1.0  0.0563
  H  H576  1  0.134300  0.716200  0.577600  1.0  0.0692
  H  H577  1  0.334900  0.241900  0.829300  1.0  0.1143
  H  H578  1  0.984100  0.600400  0.680100  1.0  0.1141
  H  H579  1  0.158000  0.759800  0.522400  1.0  0.073
  H  H580  1  0.108000  0.716600  0.528200  1.0  0.0746
  H  H581  1  0.173100  0.646200  0.541500  1.0  0.0589
  H  H582  1  0.224200  0.689600  0.537900  1.0  0.0864
  H  H583  1  0.334300  0.183800  0.910500  1.0  0.111
  H  H584  1  0.930600  0.600400  0.598100  1.0  0.1158
  H  H585  1  0.175800  0.700800  0.487500  1.0  0.1105
  H  H586  1  0.163700  0.635200  0.493600  1.0  0.1002
  H  H587  1  0.149100  0.214200  0.905100  1.0  0.0894
  H  H588  1  0.288800  0.167000  0.946300  1.0  0.1251
  H  H589  1  0.424500  0.213300  0.909300  1.0  0.1109
  H  H590  1  0.408300  0.178600  0.825800  1.0  0.1041
  H  H591  1  0.928800  0.556100  0.559700  1.0  0.1245
  H  H592  1  0.961900  0.413800  0.604200  1.0  0.1118
  H  H593  1  0.920200  0.677100  0.682500  1.0  0.1043
  H  H594  1  0.961200  0.688400  0.598700  1.0  0.1109
  H  H595  1  0.259500  0.645900  0.475100  1.0  0.0978
  H  H596  1  0.273600  0.687200  0.501000  1.0  0.1088
  H  H597  1  0.261700  0.622400  0.507000  1.0  0.1025
  H  H598  1  0.096000  0.183500  0.943700  1.0  0.0875
  H  H599  1  0.233500  0.137300  0.983400  1.0  0.0803
  H  H600  1  0.519000  0.193700  0.906700  1.0  0.1064
  H  H601  1  0.503100  0.157900  0.822700  1.0  0.1188
  H  H602  1  0.906100  0.501000  0.521300  1.0  0.0802
  H  H603  1  0.942200  0.363900  0.563400  1.0  0.0821
  H  H604  1  0.901900  0.774300  0.683200  1.0  0.1193
  H  H605  1  0.942200  0.784100  0.599400  1.0  0.1211
  H  H606  1  0.597600  0.178000  0.824500  1.0  0.0749
  H  H607  1  0.585200  0.113700  0.831900  1.0  0.0705
  H  H608  1  0.926000  0.867700  0.679700  1.0  0.0791
  H  H609  1  0.861200  0.856900  0.671900  1.0  0.0639
  H  H610  1  0.136100  0.046200  0.944200  1.0  0.0745
  H  H611  1  0.994400  0.074300  0.983900  1.0  0.0868
  H  H612  1  0.669700  0.110200  0.858900  1.0  0.0771
  H  H613  1  0.682300  0.173800  0.850500  1.0  0.083
  H  H614  1  0.922600  0.945400  0.643700  1.0  0.0849
  H  H615  1  0.891400  0.958100  0.673300  1.0  0.0884
  H  H616  1  0.090900  0.006000  0.906000  1.0  0.1177
  H  H617  1  0.944300  0.029700  0.948400  1.0  0.1217
  H  H618  1  0.680600  0.083100  0.810100  1.0  0.0687
  H  H619  1  0.693500  0.147000  0.801800  1.0  0.0874
  H  H620  1  0.805900  0.957300  0.653200  1.0  0.0932
  H  H621  1  0.821900  0.908500  0.631200  1.0  0.084
  H  H622  1  0.761600  0.075500  0.836100  1.0  0.0674
  H  H623  1  0.770500  0.142200  0.836800  1.0  0.0688
  H  H624  1  0.870200  0.975900  0.601300  1.0  0.0772
  H  H625  1  0.805600  0.992200  0.604500  1.0  0.0986
  H  H626  1  0.772200  0.131100  0.782600  1.0  0.0995
  H  H627  1  0.788900  0.068100  0.789900  1.0  0.0937
  H  H628  1  0.829300  0.060200  0.639400  1.0  0.0706
  H  H629  1  0.893900  0.043800  0.636400  1.0  0.0798
  H  H630  1  0.902700  0.988200  0.915400  1.0  0.1105
  H  H631  1  0.859000  0.155200  0.784300  1.0  0.101
  H  H632  1  0.860300  0.141100  0.817300  1.0  0.1185
  H  H633  1  0.892100  0.074500  0.588700  1.0  0.0692
  H  H634  1  0.828300  0.092800  0.592700  1.0  0.0764
  H  H635  1  0.897500  0.080600  0.772500  1.0  0.0656
  H  H636  1  0.885000  0.051300  0.801300  1.0  0.0617
  H  H637  1  0.913700  0.141300  0.625800  1.0  0.0572
  H  H638  1  0.851400  0.164500  0.621300  1.0  0.0637
  H  H639  1  0.911300  0.934200  0.833800  1.0  0.131
  H  H640  1  0.977400  0.055000  0.811300  1.0  0.094
  H  H641  1  0.952200  0.012900  0.789000  1.0  0.0998
  H  H642  1  0.873900  0.182900  0.571100  1.0  0.0838
  H  H643  1  0.936900  0.163300  0.577100  1.0  0.0875
  H  H644  1  0.959800  0.920200  0.799100  1.0  0.1215
  H  H645  1  0.096600  0.964900  0.844300  1.0  0.1106
  H  H646  1  0.827100  0.927500  0.915800  1.0  0.104
  H  H647  1  0.820800  0.969500  0.832600  1.0  0.1044
  H  H648  1  0.044900  0.027800  0.779700  1.0  0.0931
  H  H649  1  0.009600  0.050900  0.753100  1.0  0.0841
  H  H650  1  0.035200  0.093700  0.775900  1.0  0.1059
  H  H651  1  0.903900  0.250600  0.613900  1.0  0.0982
  H  H652  1  0.904000  0.269600  0.581200  1.0  0.1042
  H  H653  1  0.960300  0.246800  0.595600  1.0  0.1026
  H  H654  1  0.018700  0.892300  0.762500  1.0  0.0835
  H  H655  1  0.150800  0.933400  0.806000  1.0  0.076
  H  H656  1  0.730500  0.909200  0.915800  1.0  0.1286
  H  H657  1  0.724600  0.953700  0.832100  1.0  0.1161
  H  H658  1  0.633600  0.930800  0.909800  1.0  0.0623
  H  H659  1  0.651900  0.867900  0.902000  1.0  0.0648
  H  H660  1  0.556300  0.921900  0.876400  1.0  0.0809
  H  H661  1  0.573100  0.857600  0.871700  1.0  0.092
  H  H662  1  0.558200  0.842800  0.922100  1.0  0.0823
  H  H663  1  0.535200  0.905300  0.924300  1.0  0.0688
  H  H664  1  0.463600  0.846600  0.925100  1.0  0.0816
  H  H665  1  0.485000  0.814800  0.897400  1.0  0.0687
  H  H666  1  0.431700  0.920600  0.898000  1.0  0.0678
  H  H667  1  0.458300  0.894200  0.869800  1.0  0.0694
  H  H668  1  0.376600  0.840400  0.900800  1.0  0.0714
  H  H669  1  0.398400  0.825200  0.869800  1.0  0.0731
  H  H670  1  0.304600  0.860200  0.873100  1.0  0.0754
  H  H671  1  0.330900  0.920600  0.879300  1.0  0.0772
  H  H672  1  0.349800  0.859700  0.827500  1.0  0.0717
  H  H673  1  0.372300  0.922100  0.833800  1.0  0.063
  H  H674  1  0.256300  0.889000  0.829500  1.0  0.1018
  H  H675  1  0.286500  0.935600  0.810400  1.0  0.1046
  H  H676  1  0.273200  0.947900  0.843300  1.0  0.0962
  H  H677  1  0.679500  0.756200  0.015000  1.0  0.0774
  H  H678  1  0.697600  0.616100  0.057600  1.0  0.072
  H  H679  1  0.724700  0.806200  0.050700  1.0  0.1273
  H  H680  1  0.745100  0.659600  0.093300  1.0  0.1139
  H  H681  1  0.766500  0.847600  0.083000  1.0  0.112
  H  H682  1  0.820800  0.839700  0.164900  1.0  0.1253
  H  H683  1  0.793700  0.653500  0.155600  1.0  0.1174
  H  H684  1  0.825400  0.793700  0.200700  1.0  0.1125
  H  H685  1  0.783400  0.928800  0.165600  1.0  0.1041
  H  H686  1  0.831000  0.922900  0.083100  1.0  0.1016
  H  H687  1  0.821500  0.601800  0.194400  1.0  0.0797
  H  H688  1  0.853000  0.738300  0.238300  1.0  0.0808
  H  H689  1  0.800400  0.024300  0.166800  1.0  0.1129
  H  H690  1  0.850900  0.019200  0.083800  1.0  0.1293
  H  H691  1  0.837300  0.115800  0.088400  1.0  0.0662
  H  H692  1  0.897500  0.095200  0.099500  1.0  0.0591
  H  H693  1  0.762900  0.662600  0.266300  1.0  0.075
  H  H694  1  0.900000  0.689200  0.310200  1.0  0.0811
  H  H695  1  0.954600  0.636100  0.201100  1.0  0.0929
  H  H696  1  0.912500  0.497300  0.241300  1.0  0.0842
  H  H697  1  0.841500  0.196500  0.114300  1.0  0.079
  H  H698  1  0.890500  0.173200  0.134200  1.0  0.0719
  H  H699  1  0.710300  0.715100  0.298200  1.0  0.1252
  H  H700  1  0.850600  0.736700  0.345600  1.0  0.1161
  H  H701  1  0.000700  0.585200  0.165900  1.0  0.1051
  H  H702  1  0.957200  0.442500  0.207500  1.0  0.1287
  H  H703  1  0.926700  0.240100  0.104100  1.0  0.0832
  H  H704  1  0.954200  0.181100  0.096800  1.0  0.0779
  H  H705  1  0.892300  0.174500  0.056800  1.0  0.0681
  H  H706  1  0.937000  0.224600  0.054500  1.0  0.0749
  H  H707  1  0.822000  0.234400  0.070500  1.0  0.0579
  H  H708  1  0.865700  0.283800  0.077600  1.0  0.0676
  H  H709  1  0.665100  0.758100  0.329300  1.0  0.114
  H  H710  1  0.015900  0.399600  0.180100  1.0  0.1141
  H  H711  1  0.842000  0.240200  0.022400  1.0  0.0726
  H  H712  1  0.892000  0.283400  0.028200  1.0  0.0748
  H  H713  1  0.826900  0.353800  0.041500  1.0  0.0626
  H  H714  1  0.775800  0.310400  0.037900  1.0  0.0863
  H  H715  1  0.665700  0.816200  0.410500  1.0  0.1112
  H  H716  1  0.069400  0.399600  0.098100  1.0  0.1156
  H  H717  1  0.824200  0.299200  0.987500  1.0  0.1104
  H  H718  1  0.836300  0.364800  0.993600  1.0  0.1011
  H  H719  1  0.850900  0.785800  0.405100  1.0  0.089
  H  H720  1  0.711200  0.833000  0.446300  1.0  0.125
  H  H721  1  0.575500  0.786700  0.409300  1.0  0.111
  H  H722  1  0.591700  0.821400  0.325800  1.0  0.104
  H  H723  1  0.071200  0.443900  0.059700  1.0  0.1245
  H  H724  1  0.038100  0.586200  0.104200  1.0  0.1116
  H  H725  1  0.079800  0.322900  0.182500  1.0  0.1039
  H  H726  1  0.038800  0.311600  0.098700  1.0  0.1102
  H  H727  1  0.740500  0.354100  0.975100  1.0  0.1
  H  H728  1  0.726400  0.312800  0.001000  1.0  0.1094
  H  H729  1  0.738300  0.377600  0.007000  1.0  0.1035
  H  H730  1  0.904000  0.816500  0.443700  1.0  0.0874
  H  H731  1  0.766500  0.862700  0.483400  1.0  0.0802
  H  H732  1  0.481000  0.806300  0.406700  1.0  0.1061
  H  H733  1  0.496900  0.842100  0.322700  1.0  0.1187
  H  H734  1  0.093900  0.499000  0.021300  1.0  0.0811
  H  H735  1  0.057800  0.636100  0.063400  1.0  0.0823
  H  H736  1  0.098100  0.225700  0.183200  1.0  0.1196
  H  H737  1  0.057800  0.215900  0.099400  1.0  0.1213
  H  H738  1  0.402400  0.822000  0.324500  1.0  0.0743
  H  H739  1  0.414800  0.886300  0.331900  1.0  0.0721
  H  H740  1  0.074000  0.132300  0.179700  1.0  0.0781
  H  H741  1  0.138800  0.143100  0.171900  1.0  0.0658
  H  H742  1  0.863900  0.953800  0.444200  1.0  0.0751
  H  H743  1  0.005600  0.925700  0.483900  1.0  0.0861
  H  H744  1  0.330300  0.889800  0.358900  1.0  0.0758
  H  H745  1  0.317700  0.826200  0.350500  1.0  0.0843
  H  H746  1  0.077400  0.054600  0.143700  1.0  0.0833
  H  H747  1  0.108600  0.041900  0.173300  1.0  0.088
  H  H748  1  0.909100  0.994000  0.406000  1.0  0.1179
  H  H749  1  0.055700  0.970300  0.448400  1.0  0.1212
  H  H750  1  0.319400  0.916900  0.310100  1.0  0.0684
  H  H751  1  0.306500  0.853000  0.301800  1.0  0.0863
  H  H752  1  0.194100  0.042700  0.153200  1.0  0.0935
  H  H753  1  0.178100  0.091500  0.131200  1.0  0.0842
  H  H754  1  0.238400  0.924500  0.336100  1.0  0.0662
  H  H755  1  0.229500  0.857800  0.336800  1.0  0.0696
  H  H756  1  0.129800  0.024100  0.101300  1.0  0.0777
  H  H757  1  0.194400  0.007800  0.104500  1.0  0.0991
  H  H758  1  0.227800  0.868900  0.282600  1.0  0.0995
  H  H759  1  0.211100  0.931900  0.289900  1.0  0.0965
  H  H760  1  0.170700  0.939800  0.139400  1.0  0.07
  H  H761  1  0.106100  0.956200  0.136400  1.0  0.0769
  H  H762  1  0.097300  0.011800  0.415400  1.0  0.1101
  H  H763  1  0.141000  0.844800  0.284300  1.0  0.0957
  H  H764  1  0.139700  0.858900  0.317300  1.0  0.12
  H  H765  1  0.107900  0.925500  0.088700  1.0  0.0697
  H  H766  1  0.171700  0.907200  0.092700  1.0  0.0762
  H  H767  1  0.102500  0.919400  0.272500  1.0  0.0661
  H  H768  1  0.115000  0.948700  0.301300  1.0  0.0618
  H  H769  1  0.086300  0.858700  0.125800  1.0  0.057
  H  H770  1  0.148600  0.835500  0.121300  1.0  0.0645
  H  H771  1  0.088700  0.065800  0.333800  1.0  0.1306
  H  H772  1  0.022600  0.945000  0.311300  1.0  0.0945
  H  H773  1  0.047800  0.987100  0.289000  1.0  0.1016
  H  H774  1  0.126100  0.817100  0.071100  1.0  0.0838
  H  H775  1  0.063100  0.836700  0.077100  1.0  0.0874
  H  H776  1  0.040200  0.079800  0.299100  1.0  0.1227
  H  H777  1  0.903400  0.035100  0.344300  1.0  0.1111
  H  H778  1  0.172900  0.072500  0.415800  1.0  0.1033
  H  H779  1  0.179200  0.030500  0.332600  1.0  0.1046
  H  H780  1  0.955100  0.972200  0.279700  1.0  0.0938
  H  H781  1  0.990400  0.949100  0.253100  1.0  0.0844
  H  H782  1  0.964800  0.906300  0.275900  1.0  0.1043
  H  H783  1  0.096100  0.749400  0.113900  1.0  0.0981
  H  H784  1  0.096000  0.730400  0.081200  1.0  0.1037
  H  H785  1  0.039700  0.753200  0.095600  1.0  0.1041
  H  H786  1  0.981300  0.107700  0.262500  1.0  0.0833
  H  H787  1  0.849200  0.066600  0.306000  1.0  0.0752
  H  H788  1  0.269500  0.090800  0.415800  1.0  0.1281
  H  H789  1  0.275400  0.046300  0.332100  1.0  0.1166
  H  H790  1  0.366400  0.069200  0.409800  1.0  0.0631
  H  H791  1  0.348100  0.132100  0.402000  1.0  0.0641
  H  H792  1  0.443700  0.078100  0.376400  1.0  0.0799
  H  H793  1  0.426900  0.142400  0.371700  1.0  0.093
  H  H794  1  0.441800  0.157200  0.422100  1.0  0.0805
  H  H795  1  0.464800  0.094700  0.424300  1.0  0.0697
  H  H796  1  0.536400  0.153400  0.425100  1.0  0.0812
  H  H797  1  0.515000  0.185200  0.397400  1.0  0.071
  H  H798  1  0.568300  0.079400  0.398000  1.0  0.0683
  H  H799  1  0.541700  0.105800  0.369800  1.0  0.0695
  H  H800  1  0.623400  0.159600  0.400800  1.0  0.0702
  H  H801  1  0.601600  0.174800  0.369800  1.0  0.0754
  H  H802  1  0.695400  0.139800  0.373100  1.0  0.075
  H  H803  1  0.669100  0.079400  0.379300  1.0  0.0791
  H  H804  1  0.650200  0.140300  0.327500  1.0  0.0714
  H  H805  1  0.627700  0.077900  0.333800  1.0  0.0633
  H  H806  1  0.743700  0.111000  0.329500  1.0  0.1017
  H  H807  1  0.713500  0.064400  0.310400  1.0  0.1048
  H  H808  1  0.726800  0.052100  0.343300  1.0  0.0963
  H  H809  1  0.743800  0.179500  0.265000  1.0  0.0779
  H  H810  1  0.883900  0.197600  0.307600  1.0  0.0713
  H  H811  1  0.693800  0.224700  0.300700  1.0  0.1232
  H  H812  1  0.840400  0.245100  0.343300  1.0  0.1136
  H  H813  1  0.652400  0.266500  0.333000  1.0  0.1123
  H  H814  1  0.660300  0.320800  0.414900  1.0  0.1255
  H  H815  1  0.846500  0.293700  0.405600  1.0  0.1176
  H  H816  1  0.706300  0.325400  0.450700  1.0  0.1125
  H  H817  1  0.571200  0.283400  0.415600  1.0  0.1041
  H  H818  1  0.577100  0.331000  0.333100  1.0  0.102
  H  H819  1  0.898200  0.321500  0.444400  1.0  0.0784
  H  H820  1  0.761700  0.353000  0.488300  1.0  0.0808
  H  H821  1  0.475700  0.300400  0.416800  1.0  0.1121
  H  H822  1  0.480800  0.350900  0.333800  1.0  0.129
  H  H823  1  0.384200  0.337300  0.338400  1.0  0.0662
  H  H824  1  0.404800  0.397500  0.349500  1.0  0.0562
  H  H825  1  0.837400  0.262900  0.516300  1.0  0.0755
  H  H826  1  0.810800  0.400000  0.560200  1.0  0.0818
  H  H827  1  0.863900  0.454600  0.451100  1.0  0.092
  H  H828  1  0.002700  0.412500  0.491300  1.0  0.0834
  H  H829  1  0.303500  0.341500  0.364300  1.0  0.0808
  H  H830  1  0.326800  0.390500  0.384200  1.0  0.0718
  H  H831  1  0.784900  0.210300  0.548200  1.0  0.1255
  H  H832  1  0.763300  0.350600  0.595600  1.0  0.1164
  H  H833  1  0.914800  0.500700  0.415900  1.0  0.1051
  H  H834  1  0.057500  0.457200  0.457500  1.0  0.127
  H  H835  1  0.259900  0.426700  0.354100  1.0  0.0826
  H  H836  1  0.318900  0.454200  0.346800  1.0  0.0771
  H  H837  1  0.325500  0.392300  0.306800  1.0  0.07
  H  H838  1  0.275400  0.437000  0.304500  1.0  0.075
  H  H839  1  0.265600  0.322000  0.320500  1.0  0.0613
  H  H840  1  0.216200  0.365700  0.327600  1.0  0.0685
  H  H841  1  0.741900  0.165100  0.579300  1.0  0.114
  H  H842  1  0.100400  0.515900  0.430100  1.0  0.1141
  H  H843  1  0.259800  0.342000  0.272400  1.0  0.0722
  H  H844  1  0.216600  0.392000  0.278200  1.0  0.0707
  H  H845  1  0.146200  0.326900  0.291500  1.0  0.06
  H  H846  1  0.189600  0.275800  0.287900  1.0  0.0843
  H  H847  1  0.683800  0.165700  0.660500  1.0  0.1114
  H  H848  1  0.100400  0.569400  0.348100  1.0  0.1153
  H  H849  1  0.200800  0.324200  0.237500  1.0  0.1085
  H  H850  1  0.135200  0.336300  0.243600  1.0  0.0994
  H  H851  1  0.714200  0.350900  0.655100  1.0  0.0891
  H  H852  1  0.667000  0.211200  0.696300  1.0  0.1265
  H  H853  1  0.713300  0.075500  0.659300  1.0  0.1108
  H  H854  1  0.678600  0.091700  0.575800  1.0  0.104
  H  H855  1  0.056100  0.571200  0.309700  1.0  0.124
  H  H856  1  0.913800  0.538100  0.354200  1.0  0.1114
  H  H857  1  0.177100  0.579800  0.432500  1.0  0.1041
  H  H858  1  0.188400  0.538800  0.348700  1.0  0.1102
  H  H859  1  0.145900  0.240500  0.225100  1.0  0.0996
  H  H860  1  0.187200  0.226400  0.251000  1.0  0.1052
  H  H861  1  0.122400  0.238300  0.257000  1.0  0.1015
  H  H862  1  0.683500  0.404000  0.693700  1.0  0.0885
  H  H863  1  0.637300  0.266500  0.733400  1.0  0.0816
  H  H864  1  0.693700  0.981000  0.656700  1.0  0.1061
  H  H865  1  0.657900  0.996900  0.572700  1.0  0.1189
  H  H866  1  0.001000  0.593900  0.271300  1.0  0.0823
  H  H867  1  0.863900  0.557800  0.313400  1.0  0.0822
  H  H868  1  0.274300  0.598100  0.433200  1.0  0.1193
  H  H869  1  0.284100  0.557800  0.349400  1.0  0.1213
  H  H870  1  0.678000  0.902400  0.574500  1.0  0.075
  H  H871  1  0.613700  0.914800  0.581900  1.0  0.0698
  H  H872  1  0.367700  0.574000  0.429700  1.0  0.0799
  H  H873  1  0.356900  0.638800  0.421900  1.0  0.0655
  H  H874  1  0.546200  0.363900  0.694200  1.0  0.0752
  H  H875  1  0.574300  0.505600  0.733900  1.0  0.0864
  H  H876  1  0.610200  0.830300  0.608900  1.0  0.0763
  H  H877  1  0.673800  0.817700  0.600500  1.0  0.0846
  H  H878  1  0.445400  0.577400  0.393700  1.0  0.0831
  H  H879  1  0.458100  0.608600  0.423300  1.0  0.0875
  H  H880  1  0.506000  0.409100  0.656000  1.0  0.118
  H  H881  1  0.529700  0.555700  0.698400  1.0  0.1218
  H  H882  1  0.583100  0.819400  0.560100  1.0  0.0638
  H  H883  1  0.647000  0.806500  0.551800  1.0  0.0867
  H  H884  1  0.457300  0.694100  0.403200  1.0  0.0935
  H  H885  1  0.408500  0.678100  0.381200  1.0  0.0846
  H  H886  1  0.575500  0.738400  0.586100  1.0  0.0649
  H  H887  1  0.642200  0.729500  0.586800  1.0  0.0686
  H  H888  1  0.475900  0.629800  0.351300  1.0  0.0804
  H  H889  1  0.492200  0.694400  0.354500  1.0  0.0995
  H  H890  1  0.631100  0.727800  0.532600  1.0  0.0999
  H  H891  1  0.568100  0.711100  0.539900  1.0  0.0935
  H  H892  1  0.560200  0.670700  0.389400  1.0  0.0704
  H  H893  1  0.543800  0.606100  0.386400  1.0  0.0778
  H  H894  1  0.488200  0.597300  0.665400  1.0  0.1105
  H  H895  1  0.655200  0.641000  0.534300  1.0  0.0995
  H  H896  1  0.641100  0.639700  0.567300  1.0  0.1205
  H  H897  1  0.574500  0.607900  0.338700  1.0  0.0707
  H  H898  1  0.592800  0.671700  0.342700  1.0  0.0769
  H  H899  1  0.580600  0.602500  0.522500  1.0  0.0646
  H  H900  1  0.551300  0.615000  0.551300  1.0  0.0613
  H  H901  1  0.641300  0.586300  0.375800  1.0  0.0573
  H  H902  1  0.664500  0.648600  0.371300  1.0  0.0624
  H  H903  1  0.434200  0.588700  0.583800  1.0  0.1311
  H  H904  1  0.555000  0.522600  0.561300  1.0  0.094
  H  H905  1  0.512900  0.547800  0.539000  1.0  0.0996
  H  H906  1  0.682900  0.626100  0.321100  1.0  0.0835
  H  H907  1  0.663300  0.563100  0.327100  1.0  0.0872
  H  H908  1  0.420200  0.540200  0.549100  1.0  0.1214
  H  H909  1  0.464900  0.403400  0.594300  1.0  0.111
  H  H910  1  0.427500  0.672900  0.665800  1.0  0.1036
  H  H911  1  0.469500  0.679200  0.582600  1.0  0.1047
  H  H912  1  0.527800  0.455100  0.529700  1.0  0.0932
  H  H913  1  0.550900  0.490400  0.503100  1.0  0.083
  H  H914  1  0.593700  0.464800  0.525900  1.0  0.1058
  H  H915  1  0.750600  0.596100  0.363900  1.0  0.0978
  H  H916  1  0.769600  0.596000  0.331200  1.0  0.1031
  H  H917  1  0.746800  0.539700  0.345600  1.0  0.1023
  H  H918  1  0.392300  0.481300  0.512500  1.0  0.0846
  H  H919  1  0.433400  0.349200  0.556000  1.0  0.0771
  H  H920  1  0.409200  0.769500  0.665800  1.0  0.1282
  H  H921  1  0.453700  0.775400  0.582100  1.0  0.1162
  H  H922  1  0.430800  0.866400  0.659800  1.0  0.0625
  H  H923  1  0.367900  0.848100  0.652000  1.0  0.0616
  H  H924  1  0.421900  0.943700  0.626400  1.0  0.0805
  H  H925  1  0.357600  0.926900  0.621700  1.0  0.0914
  H  H926  1  0.342800  0.941800  0.672100  1.0  0.0825
  H  H927  1  0.405300  0.964800  0.674300  1.0  0.0681
  H  H928  1  0.346600  0.036400  0.675100  1.0  0.0821
  H  H929  1  0.314800  0.015000  0.647400  1.0  0.0709
  H  H930  1  0.420600  0.068300  0.648000  1.0  0.0702
  H  H931  1  0.394200  0.041700  0.619800  1.0  0.0691
  H  H932  1  0.340400  0.123400  0.650800  1.0  0.072
  H  H933  1  0.325200  0.101600  0.619800  1.0  0.0735
  H  H934  1  0.360200  0.195400  0.623100  1.0  0.0754
  H  H935  1  0.420600  0.169100  0.629300  1.0  0.079
  H  H936  1  0.359700  0.150200  0.577500  1.0  0.0695
  H  H937  1  0.422100  0.127700  0.583800  1.0  0.0628
  H  H938  1  0.389000  0.243700  0.579500  1.0  0.1019
  H  H939  1  0.435600  0.213500  0.560400  1.0  0.1046
  H  H940  1  0.447900  0.226800  0.593300  1.0  0.0967
  H  H941  1  0.256200  0.820500  0.765000  1.0  0.0784
  H  H942  1  0.116100  0.802400  0.807600  1.0  0.071
  H  H943  1  0.306200  0.775300  0.800700  1.0  0.124
  H  H944  1  0.159600  0.754900  0.843300  1.0  0.1135
  H  H945  1  0.347600  0.733500  0.833000  1.0  0.112
  H  H946  1  0.339700  0.679200  0.914900  1.0  0.1253
  H  H947  1  0.153500  0.706300  0.905600  1.0  0.1182
  H  H948  1  0.293700  0.674600  0.950700  1.0  0.1132
  H  H949  1  0.428800  0.716600  0.915600  1.0  0.1044
  H  H950  1  0.422900  0.669000  0.833100  1.0  0.1017
  H  H951  1  0.101800  0.678500  0.944400  1.0  0.0788
  H  H952  1  0.238300  0.647000  0.988300  1.0  0.0805
  H  H953  1  0.524300  0.699600  0.916800  1.0  0.1129
  H  H954  1  0.519200  0.649100  0.833800  1.0  0.1295
  H  H955  1  0.615800  0.662700  0.838400  1.0  0.0673
  H  H956  1  0.595200  0.602500  0.849500  1.0  0.0562
  H  H957  1  0.162600  0.737100  0.016300  1.0  0.0748
  H  H958  1  0.189200  0.600000  0.060200  1.0  0.0814
  H  H959  1  0.136100  0.545400  0.951100  1.0  0.0924
  H  H960  1  0.997300  0.587500  0.991300  1.0  0.0834
  H  H961  1  0.696500  0.658500  0.864300  1.0  0.0798
  H  H962  1  0.673200  0.609500  0.884200  1.0  0.0722
  H  H963  1  0.215100  0.789700  0.048200  1.0  0.1241
  H  H964  1  0.236700  0.649400  0.095600  1.0  0.1162
  H  H965  1  0.085200  0.499300  0.915900  1.0  0.1051
  H  H966  1  0.942500  0.542800  0.957500  1.0  0.1271
  H  H967  1  0.740100  0.573300  0.854100  1.0  0.0818
  H  H968  1  0.681100  0.545800  0.846800  1.0  0.0773
  H  H969  1  0.674500  0.607700  0.806800  1.0  0.0718
  H  H970  1  0.724600  0.563000  0.804500  1.0  0.0713
  H  H971  1  0.734400  0.678000  0.820500  1.0  0.0625
  H  H972  1  0.783800  0.634300  0.827600  1.0  0.0688
  H  H973  1  0.258100  0.834900  0.079300  1.0  0.1141
  H  H974  1  0.899600  0.484100  0.930100  1.0  0.1146
  H  H975  1  0.740200  0.658000  0.772400  1.0  0.0724
  H  H976  1  0.783400  0.608000  0.778200  1.0  0.0659
  H  H977  1  0.853800  0.673100  0.791500  1.0  0.0579
  H  H978  1  0.810400  0.724200  0.787900  1.0  0.0852
  H  H979  1  0.316200  0.834300  0.160500  1.0  0.111
  H  H980  1  0.899600  0.430600  0.848100  1.0  0.1155
  H  H981  1  0.799200  0.675800  0.737500  1.0  0.1084
  H  H982  1  0.864800  0.663700  0.743600  1.0  0.1
  H  H983  1  0.285800  0.649100  0.155100  1.0  0.0892
  H  H984  1  0.333000  0.788800  0.196300  1.0  0.1264
  H  H985  1  0.286700  0.924500  0.159300  1.0  0.111
  H  H986  1  0.321400  0.908300  0.075800  1.0  0.104
  H  H987  1  0.943900  0.428800  0.809700  1.0  0.1235
  H  H988  1  0.086200  0.461900  0.854200  1.0  0.1115
  H  H989  1  0.822900  0.420200  0.932500  1.0  0.1044
  H  H990  1  0.811600  0.461200  0.848700  1.0  0.1105
  H  H991  1  0.854100  0.759500  0.725100  1.0  0.099
  H  H992  1  0.812800  0.773600  0.751000  1.0  0.1063
  H  H993  1  0.877600  0.761700  0.757000  1.0  0.1018
  H  H994  1  0.316500  0.596000  0.193700  1.0  0.0885
  H  H995  1  0.362700  0.733500  0.233400  1.0  0.0816
  H  H996  1  0.306300  0.019000  0.156700  1.0  0.106
  H  H997  1  0.342100  0.003100  0.072700  1.0  0.1191
  H  H998  1  0.999000  0.406100  0.771300  1.0  0.082
  H  H999  1  0.136100  0.442200  0.813400  1.0  0.0818
  H  H1000  1  0.725700  0.401900  0.933200  1.0  0.1192
  H  H1001  1  0.715900  0.442200  0.849400  1.0  0.1211
  H  H1002  1  0.322000  0.097600  0.074500  1.0  0.0749
  H  H1003  1  0.386300  0.085200  0.081900  1.0  0.0705
  H  H1004  1  0.632300  0.426000  0.929700  1.0  0.0788
  H  H1005  1  0.643100  0.361200  0.921900  1.0  0.0658
  H  H1006  1  0.453800  0.636100  0.194200  1.0  0.0745
  H  H1007  1  0.425700  0.494400  0.233900  1.0  0.0864
  H  H1008  1  0.389800  0.169700  0.108900  1.0  0.0764
  H  H1009  1  0.326200  0.182300  0.100500  1.0  0.0839
  H  H1010  1  0.554600  0.422600  0.893700  1.0  0.0831
  H  H1011  1  0.541900  0.391400  0.923300  1.0  0.0883
  H  H1012  1  0.494000  0.590900  0.156000  1.0  0.1179
  H  H1013  1  0.470300  0.444300  0.198400  1.0  0.1224
  H  H1014  1  0.416900  0.180600  0.060100  1.0  0.0655
  H  H1015  1  0.353000  0.193500  0.051800  1.0  0.0862
  H  H1016  1  0.542700  0.305900  0.903200  1.0  0.0946
  H  H1017  1  0.591500  0.321900  0.881200  1.0  0.0839
  H  H1018  1  0.424500  0.261600  0.086100  1.0  0.0672
  H  H1019  1  0.357800  0.270500  0.086800  1.0  0.0676
  H  H1020  1  0.524100  0.370200  0.851300  1.0  0.0782
  H  H1021  1  0.507800  0.305600  0.854500  1.0  0.0996
  H  H1022  1  0.368900  0.272200  0.032600  1.0  0.0989
  H  H1023  1  0.431900  0.288900  0.039900  1.0  0.0933
  H  H1024  1  0.439800  0.329300  0.889400  1.0  0.0704
  H  H1025  1  0.456200  0.393900  0.886400  1.0  0.0767
  H  H1026  1  0.511800  0.402700  0.165400  1.0  0.1106
  H  H1027  1  0.344800  0.359000  0.034300  1.0  0.0986
  H  H1028  1  0.358900  0.360300  0.067300  1.0  0.1206
  H  H1029  1  0.425500  0.392100  0.838700  1.0  0.0698
  H  H1030  1  0.407200  0.328300  0.842700  1.0  0.0767
  H  H1031  1  0.419400  0.397500  0.022500  1.0  0.0648
  H  H1032  1  0.448700  0.385000  0.051300  1.0  0.0633
  H  H1033  1  0.358700  0.413700  0.875800  1.0  0.0567
  H  H1034  1  0.335500  0.351400  0.871300  1.0  0.0634
  H  H1035  1  0.565800  0.411300  0.083800  1.0  0.1307
  H  H1036  1  0.445000  0.477400  0.061300  1.0  0.0946
  H  H1037  1  0.487100  0.452200  0.039000  1.0  0.1027
  H  H1038  1  0.317100  0.373900  0.821100  1.0  0.0835
  H  H1039  1  0.336700  0.436900  0.827100  1.0  0.0884
  H  H1040  1  0.579800  0.459800  0.049100  1.0  0.122
  H  H1041  1  0.535100  0.596600  0.094300  1.0  0.1104
  H  H1042  1  0.572500  0.327100  0.165800  1.0  0.1038
  H  H1043  1  0.530500  0.320800  0.082600  1.0  0.1045
  H  H1044  1  0.472200  0.544900  0.029700  1.0  0.0913
  H  H1045  1  0.449100  0.509600  0.003100  1.0  0.0841
  H  H1046  1  0.406300  0.535200  0.025900  1.0  0.1077
  H  H1047  1  0.249400  0.403900  0.863900  1.0  0.0984
  H  H1048  1  0.230400  0.404000  0.831200  1.0  0.1032
  H  H1049  1  0.253200  0.460300  0.845600  1.0  0.1028
  H  H1050  1  0.607700  0.518700  0.012500  1.0  0.0837
  H  H1051  1  0.566600  0.650800  0.056000  1.0  0.0764
  H  H1052  1  0.590800  0.230500  0.165800  1.0  0.1286
  H  H1053  1  0.546300  0.224600  0.082100  1.0  0.1161
  H  H1054  1  0.569200  0.133600  0.159800  1.0  0.062
  H  H1055  1  0.632100  0.151900  0.152000  1.0  0.0619
  H  H1056  1  0.578100  0.056300  0.126400  1.0  0.081
  H  H1057  1  0.642400  0.073100  0.121700  1.0  0.0913
  H  H1058  1  0.657200  0.058200  0.172100  1.0  0.0821
  H  H1059  1  0.594700  0.035200  0.174300  1.0  0.0681
  H  H1060  1  0.653400  0.963600  0.175100  1.0  0.0819
  H  H1061  1  0.685200  0.985000  0.147400  1.0  0.0703
  H  H1062  1  0.579400  0.931700  0.148000  1.0  0.0705
  H  H1063  1  0.605800  0.958300  0.119800  1.0  0.07
  H  H1064  1  0.659600  0.876600  0.150800  1.0  0.0712
  H  H1065  1  0.674800  0.898400  0.119800  1.0  0.0744
  H  H1066  1  0.639800  0.804600  0.123100  1.0  0.0753
  H  H1067  1  0.579400  0.830900  0.129300  1.0  0.0789
  H  H1068  1  0.640300  0.849800  0.077500  1.0  0.0697
  H  H1069  1  0.577900  0.872300  0.083800  1.0  0.0649
  H  H1070  1  0.611000  0.756300  0.079500  1.0  0.1009
  H  H1071  1  0.564400  0.786500  0.060400  1.0  0.1037
  H  H1072  1  0.552100  0.773200  0.093300  1.0  0.0951
  C  C1073  1  0.192700  0.763400  0.718650  1.0  0.1489
  C  C1074  1  0.203700  0.844700  0.693870  1.0  0.1706
  C  C1075  1  0.041000  0.779200  0.754400  1.0  0.2229
  C  C1076  1  0.219700  0.733100  0.697290  1.0  -0.207
  C  C1077  1  0.231300  0.819200  0.672290  1.0  -0.1611
  C  C1078  1  0.239300  0.760200  0.673200  1.0  -0.0132
  C  C1079  1  0.264300  0.729700  0.648660  1.0  0.2141
  C  C1080  1  0.274300  0.672600  0.650020  1.0  -0.1455
  C  C1081  1  0.296000  0.734300  0.602140  1.0  0.2362
  C  C1082  1  0.296000  0.645100  0.626080  1.0  0.0594
  C  C1083  1  0.306500  0.677500  0.601840  1.0  -0.1576
  C  C1084  1  0.308700  0.769700  0.576670  1.0  0.0151
  C  C1085  1  0.306400  0.584100  0.625890  1.0  0.0182
  C  C1086  1  0.306500  0.828000  0.577650  1.0  -0.1611
  C  C1087  1  0.325100  0.745900  0.551290  1.0  -0.1948
  C  C1088  1  0.297000  0.552800  0.601020  1.0  -0.1017
  C  C1089  1  0.325400  0.556500  0.649780  1.0  -0.1154
  C  C1090  1  0.322900  0.858500  0.554350  1.0  0.1723
  C  C1091  1  0.341100  0.779300  0.528790  1.0  0.1591
  C  C1092  1  0.307000  0.496100  0.600230  1.0  -0.2055
  C  C1093  1  0.336800  0.498900  0.649610  1.0  -0.2668
  C  C1094  1  0.326900  0.468600  0.624530  1.0  0.2706
  C  C1095  1  0.362800  0.384900  0.644920  1.0  0.0503
  C  C1096  1  0.281100  0.821200  0.467660  1.0  0.1755
  C  C1097  1  0.360700  0.806500  0.441850  1.0  0.1652
  C  C1098  1  0.472800  0.784300  0.485200  1.0  0.1774
  C  C1099  1  0.455000  0.903600  0.547880  1.0  0.1447
  C  C1100  1  0.430300  0.984900  0.524350  1.0  0.1591
  C  C1101  1  0.287000  0.972500  0.485270  1.0  0.2753
  C  C1102  1  0.376400  0.325900  0.635700  1.0  -0.139
  C  C1103  1  0.249000  0.790900  0.448300  1.0  -0.2026
  C  C1104  1  0.331600  0.777400  0.420670  1.0  -0.1623
  C  C1105  1  0.482700  0.933700  0.568830  1.0  -0.1137
  C  C1106  1  0.457100  0.017900  0.544390  1.0  -0.2047
  C  C1107  1  0.419000  0.297200  0.654200  1.0  -0.1499
  C  C1108  1  0.274100  0.769500  0.423840  1.0  -0.0402
  C  C1109  1  0.484100  0.992300  0.567380  1.0  -0.0859
  C  C1110  1  0.404400  0.289500  0.684700  1.0  -0.1162
  C  C1111  1  0.241300  0.742700  0.400370  1.0  0.2348
  C  C1112  1  0.511600  0.025400  0.590450  1.0  0.2219
  C  C1113  1  0.357700  0.247900  0.685400  1.0  -0.1167
  C  C1114  1  0.183800  0.732800  0.403450  1.0  -0.1578
  C  C1115  1  0.523000  0.081800  0.587480  1.0  -0.1089
  C  C1116  1  0.354200  0.228300  0.715400  1.0  -0.1339
  C  C1117  1  0.241700  0.707300  0.354900  1.0  0.2169
  C  C1118  1  0.154700  0.709200  0.380550  1.0  0.0605
  C  C1119  1  0.542600  0.025200  0.636860  1.0  0.2353
  C  C1120  1  0.545100  0.111300  0.610790  1.0  0.0509
  C  C1121  1  0.313600  0.179400  0.719100  1.0  -0.1451
  C  C1122  1  0.184500  0.697900  0.355880  1.0  -0.1618
  C  C1123  1  0.276300  0.692000  0.329220  1.0  -0.0762
  C  C1124  1  0.093600  0.697200  0.382150  1.0  -0.0053
  C  C1125  1  0.554600  0.081800  0.635640  1.0  -0.1392
  C  C1126  1  0.552700  0.992400  0.662920  1.0  0.0002
  C  C1127  1  0.557200  0.172100  0.609660  1.0  0.0037
  C  C1128  1  0.312600  0.167700  0.751200  1.0  -0.1233
  C  C1129  1  0.332600  0.697600  0.328950  1.0  -0.1302
  C  C1130  1  0.250800  0.670000  0.304900  1.0  -0.2252
  C  C1131  1  0.059700  0.702000  0.358430  1.0  -0.1416
  C  C1132  1  0.069000  0.681300  0.407550  1.0  -0.105
  C  C1133  1  0.569100  0.016500  0.688640  1.0  -0.2129
  C  C1134  1  0.549200  0.932900  0.662620  1.0  -0.1515
  C  C1135  1  0.575000  0.198600  0.584430  1.0  -0.1121
  C  C1136  1  0.550900  0.205400  0.634030  1.0  -0.1196
  C  C1137  1  0.248400  0.155000  0.754900  1.0  -0.3264
  C  C1138  1  0.364400  0.679500  0.305690  1.0  0.1468
  C  C1139  1  0.284300  0.652900  0.282920  1.0  0.1704
  C  C1140  1  0.003400  0.690500  0.359960  1.0  -0.1593
  C  C1141  1  0.012700  0.669400  0.409670  1.0  -0.2489
  C  C1142  1  0.582300  0.983300  0.711520  1.0  0.16
  C  C1143  1  0.561900  0.903400  0.686970  1.0  0.1668
  C  C1144  1  0.585800  0.256700  0.583900  1.0  -0.2095
  C  C1145  1  0.561700  0.262500  0.633700  1.0  -0.2252
  C  C1146  1  0.979300  0.674600  0.385260  1.0  0.284
  C  C1147  1  0.578300  0.287600  0.608400  1.0  0.2877
  C  C1148  1  0.897100  0.648400  0.411000  1.0  0.0502
  C  C1149  1  0.602900  0.371900  0.585300  1.0  0.0813
  C  C1150  1  0.403600  0.544000  0.305360  1.0  0.18
  C  C1151  1  0.486000  0.559600  0.282070  1.0  0.156
  C  C1152  1  0.483000  0.702800  0.262860  1.0  0.2575
  C  C1153  1  0.834900  0.638500  0.406300  1.0  -0.0861
  C  C1154  1  0.609400  0.434400  0.594100  1.0  -0.1304
  C  C1155  1  0.430100  0.519100  0.328130  1.0  -0.171
  C  C1156  1  0.516200  0.533700  0.303390  1.0  -0.2063
  C  C1157  1  0.803300  0.618700  0.432900  1.0  -0.1033
  C  C1158  1  0.665200  0.444400  0.610400  1.0  -0.1094
  C  C1159  1  0.488800  0.513400  0.327740  1.0  0.0206
  C  C1160  1  0.742900  0.610500  0.425000  1.0  -0.1275
  C  C1161  1  0.658500  0.489200  0.635000  1.0  -0.1281
  C  C1162  1  0.519400  0.489300  0.352560  1.0  0.2337
  C  C1163  1  0.709000  0.607100  0.453100  1.0  -0.1502
  C  C1164  1  0.641900  0.546900  0.624200  1.0  -0.1356
  C  C1165  1  0.577100  0.480500  0.351580  1.0  -0.1672
  C  C1166  1  0.645600  0.624400  0.451800  1.0  -0.1621
  C  C1167  1  0.635400  0.589000  0.647300  1.0  -0.1155
  C  C1168  1  0.515000  0.457100  0.398590  1.0  0.2251
  C  C1169  1  0.605000  0.460600  0.375500  1.0  0.0727
  C  C1170  1  0.595300  0.584100  0.456800  1.0  -0.0895
  C  C1171  1  0.617100  0.645100  0.638200  1.0  -0.1258
  C  C1172  1  0.571800  0.448500  0.399330  1.0  -0.1627
  C  C1173  1  0.478200  0.443300  0.423180  1.0  -0.0377
  C  C1174  1  0.665800  0.449500  0.375470  1.0  0.037
  C  C1175  1  0.536600  0.552500  0.458500  1.0  -0.0919
  C  C1176  1  0.596200  0.681400  0.664300  1.0  -0.1482
  C  C1177  1  0.500800  0.422500  0.448480  1.0  -0.1998
  C  C1178  1  0.420800  0.448500  0.421840  1.0  -0.1939
  C  C1179  1  0.693500  0.432400  0.351380  1.0  -0.0964
  C  C1180  1  0.697400  0.457500  0.400430  1.0  -0.1202
  C  C1181  1  0.481600  0.556600  0.476700  1.0  -0.3029
  C  C1182  1  0.580500  0.742900  0.655000  1.0  -0.3545
  C  C1183  1  0.465100  0.405000  0.470090  1.0  0.1526
  C  C1184  1  0.388700  0.429100  0.444860  1.0  0.1635
  C  C1185  1  0.751600  0.421900  0.351110  1.0  -0.2259
  C  C1186  1  0.754900  0.448100  0.400820  1.0  -0.228
  C  C1187  1  0.782300  0.430400  0.376230  1.0  0.2778
  C  C1188  1  0.866500  0.402100  0.355400  1.0  0.0574
  C  C1189  1  0.927000  0.388700  0.364300  1.0  -0.0732
  C  C1190  1  0.962200  0.372300  0.338400  1.0  -0.1118
  C  C1191  1  0.018700  0.352300  0.343800  1.0  -0.1533
  C  C1192  1  0.059900  0.384900  0.361800  1.0  -0.1435
  C  C1193  1  0.111100  0.356900  0.367600  1.0  -0.1248
  C  C1194  1  0.162500  0.384400  0.380500  1.0  -0.1017
  C  C1195  1  0.157900  0.394900  0.412100  1.0  -0.1005
  C  C1196  1  0.215800  0.419100  0.420500  1.0  -0.3373
  C  C1197  1  0.807300  0.236600  0.218650  1.0  0.1496
  C  C1198  1  0.796300  0.155300  0.193870  1.0  0.1713
  C  C1199  1  0.959000  0.220800  0.254400  1.0  0.2225
  C  C1200  1  0.780300  0.266900  0.197290  1.0  -0.2115
  C  C1201  1  0.768700  0.180800  0.172290  1.0  -0.1606
  C  C1202  1  0.760700  0.239800  0.173200  1.0  -0.0131
  C  C1203  1  0.735700  0.270300  0.148660  1.0  0.2128
  C  C1204  1  0.725700  0.327400  0.150020  1.0  -0.1455
  C  C1205  1  0.704000  0.265700  0.102140  1.0  0.236
  C  C1206  1  0.704000  0.354900  0.126080  1.0  0.0586
  C  C1207  1  0.693500  0.322500  0.101840  1.0  -0.1586
  C  C1208  1  0.691300  0.230300  0.076670  1.0  0.0154
  C  C1209  1  0.693600  0.415900  0.125890  1.0  0.0177
  C  C1210  1  0.693500  0.172000  0.077650  1.0  -0.1608
  C  C1211  1  0.674900  0.254100  0.051290  1.0  -0.1958
  C  C1212  1  0.703000  0.447200  0.101020  1.0  -0.1027
  C  C1213  1  0.674600  0.443500  0.149780  1.0  -0.1167
  C  C1214  1  0.677100  0.141500  0.054350  1.0  0.1726
  C  C1215  1  0.658900  0.220700  0.028790  1.0  0.1591
  C  C1216  1  0.693000  0.503900  0.100230  1.0  -0.2061
  C  C1217  1  0.663200  0.501100  0.149610  1.0  -0.2662
  C  C1218  1  0.673100  0.531400  0.124530  1.0  0.2695
  C  C1219  1  0.637200  0.615100  0.144920  1.0  0.0505
  C  C1220  1  0.718900  0.178800  0.967660  1.0  0.1769
  C  C1221  1  0.639300  0.193500  0.941850  1.0  0.1664
  C  C1222  1  0.527200  0.215700  0.985200  1.0  0.1766
  C  C1223  1  0.545000  0.096400  0.047880  1.0  0.1449
  C  C1224  1  0.569700  0.015100  0.024350  1.0  0.1599
  C  C1225  1  0.713000  0.027500  0.985270  1.0  0.2737
  C  C1226  1  0.623600  0.674100  0.135700  1.0  -0.1426
  C  C1227  1  0.751000  0.209100  0.948300  1.0  -0.2038
  C  C1228  1  0.668400  0.222600  0.920670  1.0  -0.1629
  C  C1229  1  0.517300  0.066300  0.068830  1.0  -0.113
  C  C1230  1  0.542900  0.982100  0.044390  1.0  -0.2043
  C  C1231  1  0.581000  0.702800  0.154200  1.0  -0.1504
  C  C1232  1  0.725900  0.230500  0.923840  1.0  -0.0394
  C  C1233  1  0.515900  0.007700  0.067380  1.0  -0.086
  C  C1234  1  0.595600  0.710500  0.184700  1.0  -0.1142
  C  C1235  1  0.758700  0.257300  0.900370  1.0  0.2349
  C  C1236  1  0.488400  0.974600  0.090450  1.0  0.2225
  C  C1237  1  0.642300  0.752100  0.185400  1.0  -0.1168
  C  C1238  1  0.816200  0.267200  0.903450  1.0  -0.1568
  C  C1239  1  0.477000  0.918200  0.087480  1.0  -0.108
  C  C1240  1  0.645800  0.771700  0.215400  1.0  -0.1323
  C  C1241  1  0.758300  0.292700  0.854900  1.0  0.217
  C  C1242  1  0.845300  0.290800  0.880550  1.0  0.0603
  C  C1243  1  0.457400  0.974800  0.136860  1.0  0.2351
  C  C1244  1  0.454900  0.888700  0.110790  1.0  0.0502
  C  C1245  1  0.686400  0.820600  0.219100  1.0  -0.1449
  C  C1246  1  0.815500  0.302100  0.855880  1.0  -0.1612
  C  C1247  1  0.723700  0.308000  0.829220  1.0  -0.0761
  C  C1248  1  0.906400  0.302800  0.882150  1.0  -0.0054
  C  C1249  1  0.445400  0.918200  0.135640  1.0  -0.1392
  C  C1250  1  0.447300  0.007600  0.162920  1.0  -0.0
  C  C1251  1  0.442800  0.827900  0.109660  1.0  0.0038
  C  C1252  1  0.687400  0.832300  0.251200  1.0  -0.1238
  C  C1253  1  0.667400  0.302400  0.828950  1.0  -0.1292
  C  C1254  1  0.749200  0.330000  0.804900  1.0  -0.2247
  C  C1255  1  0.940300  0.298000  0.858430  1.0  -0.1403
  C  C1256  1  0.931000  0.318700  0.907550  1.0  -0.105
  C  C1257  1  0.430900  0.983500  0.188640  1.0  -0.2145
  C  C1258  1  0.450800  0.067100  0.162620  1.0  -0.1508
  C  C1259  1  0.425000  0.801400  0.084430  1.0  -0.1118
  C  C1260  1  0.449100  0.794600  0.134030  1.0  -0.1184
  C  C1261  1  0.751600  0.845000  0.254900  1.0  -0.3278
  C  C1262  1  0.635600  0.320500  0.805690  1.0  0.147
  C  C1263  1  0.715700  0.347100  0.782920  1.0  0.1708
  C  C1264  1  0.996600  0.309500  0.859960  1.0  -0.159
  C  C1265  1  0.987300  0.330600  0.909670  1.0  -0.2477
  C  C1266  1  0.417700  0.016700  0.211520  1.0  0.1596
  C  C1267  1  0.438100  0.096600  0.186970  1.0  0.1662
  C  C1268  1  0.414200  0.743300  0.083900  1.0  -0.2105
  C  C1269  1  0.438300  0.737500  0.133700  1.0  -0.2251
  C  C1270  1  0.020700  0.325400  0.885260  1.0  0.2836
  C  C1271  1  0.421700  0.712400  0.108400  1.0  0.288
  C  C1272  1  0.102900  0.351600  0.911000  1.0  0.0517
  C  C1273  1  0.397100  0.628100  0.085300  1.0  0.0826
  C  C1274  1  0.596400  0.456000  0.805360  1.0  0.1792
  C  C1275  1  0.514000  0.440400  0.782070  1.0  0.1563
  C  C1276  1  0.517000  0.297200  0.762860  1.0  0.2579
  C  C1277  1  0.165100  0.361500  0.906300  1.0  -0.0851
  C  C1278  1  0.390600  0.565600  0.094100  1.0  -0.1314
  C  C1279  1  0.569900  0.480900  0.828130  1.0  -0.1711
  C  C1280  1  0.483800  0.466300  0.803390  1.0  -0.2047
  C  C1281  1  0.196700  0.381300  0.932900  1.0  -0.1051
  C  C1282  1  0.334800  0.555600  0.110400  1.0  -0.1102
  C  C1283  1  0.511200  0.486600  0.827740  1.0  0.0217
  C  C1284  1  0.257100  0.389500  0.925000  1.0  -0.1284
  C  C1285  1  0.341500  0.510800  0.135000  1.0  -0.1277
  C  C1286  1  0.480600  0.510700  0.852560  1.0  0.2355
  C  C1287  1  0.291000  0.392900  0.953100  1.0  -0.1504
  C  C1288  1  0.358100  0.453100  0.124200  1.0  -0.1353
  C  C1289  1  0.422900  0.519500  0.851580  1.0  -0.1674
  C  C1290  1  0.354400  0.375600  0.951800  1.0  -0.1658
  C  C1291  1  0.364600  0.411000  0.147300  1.0  -0.1159
  C  C1292  1  0.485000  0.542900  0.898590  1.0  0.2249
  C  C1293  1  0.395000  0.539400  0.875500  1.0  0.0723
  C  C1294  1  0.404700  0.415900  0.956800  1.0  -0.0859
  C  C1295  1  0.382900  0.354900  0.138200  1.0  -0.1248
  C  C1296  1  0.428200  0.551500  0.899330  1.0  -0.1651
  C  C1297  1  0.521800  0.556700  0.923180  1.0  -0.0373
  C  C1298  1  0.334200  0.550500  0.875470  1.0  0.0373
  C  C1299  1  0.463400  0.447500  0.958500  1.0  -0.0944
  C  C1300  1  0.403800  0.318600  0.164300  1.0  -0.1467
  C  C1301  1  0.499200  0.577500  0.948480  1.0  -0.1992
  C  C1302  1  0.579200  0.551500  0.921840  1.0  -0.1928
  C  C1303  1  0.306500  0.567600  0.851380  1.0  -0.0979
  C  C1304  1  0.302600  0.542500  0.900430  1.0  -0.1203
  C  C1305  1  0.518400  0.443400  0.976700  1.0  -0.3029
  C  C1306  1  0.419500  0.257100  0.155000  1.0  -0.357
  C  C1307  1  0.534900  0.595000  0.970090  1.0  0.1512
  C  C1308  1  0.611300  0.570900  0.944860  1.0  0.1618
  C  C1309  1  0.248400  0.578100  0.851110  1.0  -0.2257
  C  C1310  1  0.245100  0.551900  0.900820  1.0  -0.2286
  C  C1311  1  0.217700  0.569600  0.876230  1.0  0.2779
  C  C1312  1  0.133500  0.597900  0.855400  1.0  0.056
  C  C1313  1  0.073000  0.611300  0.864300  1.0  -0.0735
  C  C1314  1  0.037800  0.627700  0.838400  1.0  -0.1133
  C  C1315  1  0.981300  0.647700  0.843800  1.0  -0.1536
  C  C1316  1  0.940100  0.615100  0.861800  1.0  -0.1442
  C  C1317  1  0.888900  0.643100  0.867600  1.0  -0.1239
  C  C1318  1  0.837500  0.615600  0.880500  1.0  -0.101
  C  C1319  1  0.842100  0.605100  0.912100  1.0  -0.0995
  C  C1320  1  0.784200  0.580900  0.920500  1.0  -0.3371
  C  C1321  1  0.736600  0.692700  0.968650  1.0  0.1509
  C  C1322  1  0.655300  0.703700  0.943870  1.0  0.1698
  C  C1323  1  0.720800  0.541000  0.004400  1.0  0.2263
  C  C1324  1  0.766900  0.719700  0.947290  1.0  -0.2096
  C  C1325  1  0.680800  0.731300  0.922290  1.0  -0.1609
  C  C1326  1  0.739800  0.739300  0.923200  1.0  -0.012
  C  C1327  1  0.770300  0.764300  0.898660  1.0  0.2139
  C  C1328  1  0.827400  0.774300  0.900020  1.0  -0.1457
  C  C1329  1  0.765700  0.796000  0.852140  1.0  0.2365
  C  C1330  1  0.854900  0.796000  0.876080  1.0  0.0594
  C  C1331  1  0.822500  0.806500  0.851840  1.0  -0.1575
  C  C1332  1  0.730300  0.808700  0.826670  1.0  0.0148
  C  C1333  1  0.915900  0.806400  0.875890  1.0  0.0172
  C  C1334  1  0.672000  0.806500  0.827650  1.0  -0.1586
  C  C1335  1  0.754100  0.825100  0.801290  1.0  -0.1958
  C  C1336  1  0.947200  0.797000  0.851020  1.0  -0.1027
  C  C1337  1  0.943500  0.825400  0.899780  1.0  -0.1148
  C  C1338  1  0.641500  0.822900  0.804350  1.0  0.1754
  C  C1339  1  0.720700  0.841100  0.778790  1.0  0.1607
  C  C1340  1  0.003900  0.807000  0.850230  1.0  -0.205
  C  C1341  1  0.001100  0.836800  0.899610  1.0  -0.2642
  C  C1342  1  0.031400  0.826900  0.874530  1.0  0.2709
  C  C1343  1  0.115100  0.862800  0.894920  1.0  0.0497
  C  C1344  1  0.678800  0.781100  0.717660  1.0  0.1761
  C  C1345  1  0.693500  0.860700  0.691850  1.0  0.1661
  C  C1346  1  0.715700  0.972800  0.735200  1.0  0.1764
  C  C1347  1  0.596400  0.955000  0.797880  1.0  0.1431
  C  C1348  1  0.515100  0.930300  0.774350  1.0  0.1588
  C  C1349  1  0.527500  0.787000  0.735270  1.0  0.274
  C  C1350  1  0.174100  0.876400  0.885700  1.0  -0.1411
  C  C1351  1  0.709100  0.749000  0.698300  1.0  -0.2025
  C  C1352  1  0.722600  0.831600  0.670670  1.0  -0.164
  C  C1353  1  0.566300  0.982700  0.818830  1.0  -0.1098
  C  C1354  1  0.482100  0.957100  0.794390  1.0  -0.1987
  C  C1355  1  0.202800  0.919000  0.904200  1.0  -0.1498
  C  C1356  1  0.730500  0.774100  0.673840  1.0  -0.041
  C  C1357  1  0.507700  0.984100  0.817380  1.0  -0.0835
  C  C1358  1  0.210500  0.904400  0.934700  1.0  -0.1157
  C  C1359  1  0.757300  0.741300  0.650370  1.0  0.2353
  C  C1360  1  0.474600  0.011600  0.840450  1.0  0.2219
  C  C1361  1  0.252100  0.857700  0.935400  1.0  -0.1163
  C  C1362  1  0.767200  0.683800  0.653450  1.0  -0.1578
  C  C1363  1  0.418200  0.023000  0.837480  1.0  -0.1063
  C  C1364  1  0.271700  0.854200  0.965400  1.0  -0.1331
  C  C1365  1  0.792700  0.741700  0.604900  1.0  0.2174
  C  C1366  1  0.790800  0.654700  0.630550  1.0  0.0608
  C  C1367  1  0.474800  0.042600  0.886860  1.0  0.2348
  C  C1368  1  0.388700  0.045100  0.860790  1.0  0.0526
  C  C1369  1  0.320600  0.813600  0.969100  1.0  -0.1448
  C  C1370  1  0.802100  0.684500  0.605880  1.0  -0.1606
  C  C1371  1  0.808000  0.776300  0.579220  1.0  -0.0728
  C  C1372  1  0.802800  0.593600  0.632150  1.0  -0.0042
  C  C1373  1  0.418200  0.054600  0.885640  1.0  -0.1402
  C  C1374  1  0.507600  0.052700  0.912920  1.0  -0.0003
  C  C1375  1  0.327900  0.057200  0.859660  1.0  0.0038
  C  C1376  1  0.332300  0.812600  0.001200  1.0  -0.1224
  C  C1377  1  0.802400  0.832600  0.578950  1.0  -0.129
  C  C1378  1  0.830000  0.750800  0.554900  1.0  -0.228
  C  C1379  1  0.798000  0.559700  0.608430  1.0  -0.1405
  C  C1380  1  0.818700  0.569000  0.657550  1.0  -0.1026
  C  C1381  1  0.483500  0.069100  0.938640  1.0  -0.2129
  C  C1382  1  0.567100  0.049200  0.912620  1.0  -0.1481
  C  C1383  1  0.301400  0.075000  0.834430  1.0  -0.1125
  C  C1384  1  0.294600  0.050900  0.884030  1.0  -0.1186
  C  C1385  1  0.345000  0.748400  0.004900  1.0  -0.3274
  C  C1386  1  0.820500  0.864400  0.555690  1.0  0.1448
  C  C1387  1  0.847100  0.784300  0.532920  1.0  0.1705
  C  C1388  1  0.809500  0.503400  0.609960  1.0  -0.156
  C  C1389  1  0.830600  0.512700  0.659670  1.0  -0.248
  C  C1390  1  0.516700  0.082300  0.961520  1.0  0.1622
  C  C1391  1  0.596600  0.061900  0.936970  1.0  0.1658
  C  C1392  1  0.243300  0.085800  0.833900  1.0  -0.21
  C  C1393  1  0.237500  0.061700  0.883700  1.0  -0.2281
  C  C1394  1  0.825400  0.479300  0.635260  1.0  0.2838
  C  C1395  1  0.212400  0.078300  0.858400  1.0  0.2871
  C  C1396  1  0.851600  0.397100  0.661000  1.0  0.0536
  C  C1397  1  0.128100  0.102900  0.835300  1.0  0.0787
  C  C1398  1  0.956000  0.903600  0.555360  1.0  0.1818
  C  C1399  1  0.940400  0.986000  0.532070  1.0  0.1544
  C  C1400  1  0.797200  0.983000  0.512860  1.0  0.2594
  C  C1401  1  0.861500  0.334900  0.656300  1.0  -0.082
  C  C1402  1  0.065600  0.109400  0.844100  1.0  -0.1327
  C  C1403  1  0.980900  0.930100  0.578130  1.0  -0.1754
  C  C1404  1  0.966300  0.016200  0.553390  1.0  -0.2092
  C  C1405  1  0.881300  0.303300  0.682900  1.0  -0.1018
  C  C1406  1  0.055600  0.165200  0.860400  1.0  -0.1105
  C  C1407  1  0.986600  0.988800  0.577740  1.0  0.0172
  C  C1408  1  0.889500  0.242900  0.675000  1.0  -0.1265
  C  C1409  1  0.010800  0.158500  0.885000  1.0  -0.1268
  C  C1410  1  0.010700  0.019400  0.602560  1.0  0.2339
  C  C1411  1  0.892900  0.209000  0.703100  1.0  -0.1492
  C  C1412  1  0.953100  0.141900  0.874200  1.0  -0.1335
  C  C1413  1  0.019500  0.077100  0.601580  1.0  -0.1678
  C  C1414  1  0.875600  0.145600  0.701800  1.0  -0.1625
  C  C1415  1  0.911000  0.135400  0.897300  1.0  -0.1136
  C  C1416  1  0.042900  0.015000  0.648590  1.0  0.2243
  C  C1417  1  0.039400  0.105000  0.625500  1.0  0.073
  C  C1418  1  0.915900  0.095300  0.706800  1.0  -0.0873
  C  C1419  1  0.854900  0.117100  0.888200  1.0  -0.1253
  C  C1420  1  0.051500  0.071800  0.649330  1.0  -0.163
  C  C1421  1  0.056700  0.978200  0.673180  1.0  -0.0392
  C  C1422  1  0.050500  0.165800  0.625470  1.0  0.0371
  C  C1423  1  0.947500  0.036600  0.708500  1.0  -0.0929
  C  C1424  1  0.818600  0.096200  0.914300  1.0  -0.1463
  C  C1425  1  0.077500  0.000800  0.698480  1.0  -0.1962
  C  C1426  1  0.051500  0.920800  0.671840  1.0  -0.1941
  C  C1427  1  0.067600  0.193500  0.601380  1.0  -0.0984
  C  C1428  1  0.042500  0.197400  0.650430  1.0  -0.1214
  C  C1429  1  0.943400  0.981600  0.726700  1.0  -0.3039
  C  C1430  1  0.757100  0.080500  0.905000  1.0  -0.3555
  C  C1431  1  0.095000  0.965100  0.720090  1.0  0.1508
  C  C1432  1  0.070900  0.888700  0.694860  1.0  0.1652
  C  C1433  1  0.078100  0.251600  0.601110  1.0  -0.2263
  C  C1434  1  0.051900  0.254900  0.650820  1.0  -0.2258
  C  C1435  1  0.069600  0.282300  0.626230  1.0  0.2789
  C  C1436  1  0.097900  0.366500  0.605400  1.0  0.0579
  C  C1437  1  0.111300  0.427000  0.614300  1.0  -0.0725
  C  C1438  1  0.127700  0.462200  0.588400  1.0  -0.1114
  C  C1439  1  0.147700  0.518700  0.593800  1.0  -0.1495
  C  C1440  1  0.115100  0.559900  0.611800  1.0  -0.141
  C  C1441  1  0.143100  0.611100  0.617600  1.0  -0.119
  C  C1442  1  0.115600  0.662500  0.630500  1.0  -0.1003
  C  C1443  1  0.105100  0.657900  0.662100  1.0  -0.0984
  C  C1444  1  0.080900  0.715800  0.670500  1.0  -0.3365
  C  C1445  1  0.263400  0.307300  0.468650  1.0  0.1497
  C  C1446  1  0.344700  0.296300  0.443870  1.0  0.167
  C  C1447  1  0.279200  0.459000  0.504400  1.0  0.2256
  C  C1448  1  0.233100  0.280300  0.447290  1.0  -0.2089
  C  C1449  1  0.319200  0.268700  0.422290  1.0  -0.1612
  C  C1450  1  0.260200  0.260700  0.423200  1.0  -0.0095
  C  C1451  1  0.229700  0.235700  0.398660  1.0  0.2143
  C  C1452  1  0.172600  0.225700  0.400020  1.0  -0.1465
  C  C1453  1  0.234300  0.204000  0.352140  1.0  0.236
  C  C1454  1  0.145100  0.204000  0.376080  1.0  0.0584
  C  C1455  1  0.177500  0.193500  0.351840  1.0  -0.1588
  C  C1456  1  0.269700  0.191300  0.326670  1.0  0.0154
  C  C1457  1  0.084100  0.193600  0.375890  1.0  0.015
  C  C1458  1  0.328000  0.193500  0.327650  1.0  -0.1585
  C  C1459  1  0.245900  0.174900  0.301290  1.0  -0.1948
  C  C1460  1  0.052800  0.203000  0.351020  1.0  -0.1026
  C  C1461  1  0.056500  0.174600  0.399780  1.0  -0.1154
  C  C1462  1  0.358500  0.177100  0.304350  1.0  0.174
  C  C1463  1  0.279300  0.158900  0.278790  1.0  0.1609
  C  C1464  1  0.996100  0.193000  0.350230  1.0  -0.2049
  C  C1465  1  0.998900  0.163200  0.399610  1.0  -0.2669
  C  C1466  1  0.968600  0.173100  0.374530  1.0  0.2707
  C  C1467  1  0.884900  0.137200  0.394920  1.0  0.0504
  C  C1468  1  0.321200  0.218900  0.217660  1.0  0.1764
  C  C1469  1  0.306500  0.139300  0.191850  1.0  0.1673
  C  C1470  1  0.284300  0.027200  0.235200  1.0  0.1768
  C  C1471  1  0.403600  0.045000  0.297880  1.0  0.1435
  C  C1472  1  0.484900  0.069700  0.274350  1.0  0.1592
  C  C1473  1  0.472500  0.213000  0.235270  1.0  0.2724
  C  C1474  1  0.825900  0.123600  0.385700  1.0  -0.1412
  C  C1475  1  0.290900  0.251000  0.198300  1.0  -0.2026
  C  C1476  1  0.277400  0.168400  0.170670  1.0  -0.164
  C  C1477  1  0.433700  0.017300  0.318830  1.0  -0.1088
  C  C1478  1  0.517900  0.042900  0.294390  1.0  -0.1982
  C  C1479  1  0.797200  0.081000  0.404200  1.0  -0.1486
  C  C1480  1  0.269500  0.225900  0.173840  1.0  -0.0413
  C  C1481  1  0.492300  0.015900  0.317380  1.0  -0.0846
  C  C1482  1  0.789500  0.095600  0.434700  1.0  -0.1121
  C  C1483  1  0.242700  0.258700  0.150370  1.0  0.2355
  C  C1484  1  0.525400  0.988400  0.340450  1.0  0.2213
  C  C1485  1  0.747900  0.142300  0.435400  1.0  -0.1177
  C  C1486  1  0.232800  0.316200  0.153450  1.0  -0.1578
  C  C1487  1  0.581800  0.977000  0.337480  1.0  -0.1058
  C  C1488  1  0.728300  0.145800  0.465400  1.0  -0.1316
  C  C1489  1  0.207300  0.258300  0.104900  1.0  0.2167
  C  C1490  1  0.209200  0.345300  0.130550  1.0  0.0609
  C  C1491  1  0.525200  0.957400  0.386860  1.0  0.2346
  C  C1492  1  0.611300  0.954900  0.360790  1.0  0.0533
  C  C1493  1  0.679400  0.186400  0.469100  1.0  -0.1452
  C  C1494  1  0.197900  0.315500  0.105880  1.0  -0.1622
  C  C1495  1  0.192000  0.223700  0.079220  1.0  -0.0732
  C  C1496  1  0.197200  0.406400  0.132150  1.0  -0.0048
  C  C1497  1  0.581800  0.945400  0.385640  1.0  -0.1386
  C  C1498  1  0.492400  0.947300  0.412920  1.0  -0.0013
  C  C1499  1  0.672100  0.942800  0.359660  1.0  0.0037
  C  C1500  1  0.667700  0.187400  0.501200  1.0  -0.1233
  C  C1501  1  0.197600  0.167400  0.078950  1.0  -0.1301
  C  C1502  1  0.170000  0.249200  0.054900  1.0  -0.2253
  C  C1503  1  0.202000  0.440300  0.108430  1.0  -0.1405
  C  C1504  1  0.181300  0.431000  0.157550  1.0  -0.1035
  C  C1505  1  0.516500  0.930900  0.438640  1.0  -0.2124
  C  C1506  1  0.432900  0.950800  0.412620  1.0  -0.1492
  C  C1507  1  0.698600  0.925000  0.334430  1.0  -0.1121
  C  C1508  1  0.705400  0.949100  0.384030  1.0  -0.1191
  C  C1509  1  0.655000  0.251600  0.504900  1.0  -0.3247
  C  C1510  1  0.179500  0.135600  0.055690  1.0  0.1459
  C  C1511  1  0.152900  0.215700  0.032920  1.0  0.1693
  C  C1512  1  0.190500  0.496600  0.109960  1.0  -0.1562
  C  C1513  1  0.169400  0.487300  0.159670  1.0  -0.2488
  C  C1514  1  0.483300  0.917700  0.461520  1.0  0.1629
  C  C1515  1  0.403400  0.938100  0.436970  1.0  0.1667
  C  C1516  1  0.756700  0.914200  0.333900  1.0  -0.2096
  C  C1517  1  0.762500  0.938300  0.383700  1.0  -0.2265
  C  C1518  1  0.174600  0.520700  0.135260  1.0  0.2838
  C  C1519  1  0.787600  0.921700  0.358400  1.0  0.2876
  C  C1520  1  0.148400  0.602900  0.161000  1.0  0.0529
  C  C1521  1  0.871900  0.897100  0.335300  1.0  0.0796
  C  C1522  1  0.044000  0.096400  0.055360  1.0  0.1807
  C  C1523  1  0.059600  0.014000  0.032070  1.0  0.154
  C  C1524  1  0.202800  0.017000  0.012860  1.0  0.2602
  C  C1525  1  0.138500  0.665100  0.156300  1.0  -0.0827
  C  C1526  1  0.934400  0.890600  0.344100  1.0  -0.1316
  C  C1527  1  0.019100  0.069900  0.078130  1.0  -0.1746
  C  C1528  1  0.033700  0.983800  0.053390  1.0  -0.2069
  C  C1529  1  0.118700  0.696700  0.182900  1.0  -0.101
  C  C1530  1  0.944400  0.834800  0.360400  1.0  -0.1086
  C  C1531  1  0.013400  0.011200  0.077740  1.0  0.0171
  C  C1532  1  0.110500  0.757100  0.175000  1.0  -0.1249
  C  C1533  1  0.989200  0.841500  0.385000  1.0  -0.1279
  C  C1534  1  0.989300  0.980600  0.102560  1.0  0.2334
  C  C1535  1  0.107100  0.791000  0.203100  1.0  -0.1512
  C  C1536  1  0.046900  0.858100  0.374200  1.0  -0.1342
  C  C1537  1  0.980500  0.922900  0.101580  1.0  -0.1666
  C  C1538  1  0.124400  0.854400  0.201800  1.0  -0.162
  C  C1539  1  0.089000  0.864600  0.397300  1.0  -0.1143
  C  C1540  1  0.957100  0.985000  0.148590  1.0  0.2246
  C  C1541  1  0.960600  0.895000  0.125500  1.0  0.0727
  C  C1542  1  0.084100  0.904700  0.206800  1.0  -0.0846
  C  C1543  1  0.145100  0.882900  0.388200  1.0  -0.1248
  C  C1544  1  0.948500  0.928200  0.149330  1.0  -0.1642
  C  C1545  1  0.943300  0.021800  0.173180  1.0  -0.0418
  C  C1546  1  0.949500  0.834200  0.125470  1.0  0.0365
  C  C1547  1  0.052500  0.963400  0.208500  1.0  -0.0939
  C  C1548  1  0.181400  0.903800  0.414300  1.0  -0.1472
  C  C1549  1  0.922500  0.999200  0.198480  1.0  -0.1962
  C  C1550  1  0.948500  0.079200  0.171840  1.0  -0.1924
  C  C1551  1  0.932400  0.806500  0.101380  1.0  -0.097
  C  C1552  1  0.957500  0.802600  0.150430  1.0  -0.1216
  C  C1553  1  0.056600  0.018400  0.226700  1.0  -0.3025
  C  C1554  1  0.242900  0.919500  0.405000  1.0  -0.3553
  C  C1555  1  0.905000  0.034900  0.220090  1.0  0.1535
  C  C1556  1  0.929100  0.111300  0.194860  1.0  0.165
  C  C1557  1  0.921900  0.748400  0.101110  1.0  -0.2258
  C  C1558  1  0.948100  0.745100  0.150820  1.0  -0.2255
  C  C1559  1  0.930400  0.717700  0.126230  1.0  0.2785
  C  C1560  1  0.902100  0.633500  0.105400  1.0  0.0581
  C  C1561  1  0.888700  0.573000  0.114300  1.0  -0.0742
  C  C1562  1  0.872300  0.537800  0.088400  1.0  -0.1108
  C  C1563  1  0.852300  0.481300  0.093800  1.0  -0.152
  C  C1564  1  0.884900  0.440100  0.111800  1.0  -0.138
  C  C1565  1  0.856900  0.388900  0.117600  1.0  -0.1233
  C  C1566  1  0.884400  0.337500  0.130500  1.0  -0.0991
  C  C1567  1  0.894900  0.342100  0.162100  1.0  -0.1015
  C  C1568  1  0.919100  0.284200  0.170500  1.0  -0.3378
  C  C1569  1  0.307300  0.263400  0.531350  1.0  0.1493
  C  C1570  1  0.296300  0.344700  0.556130  1.0  0.1714
  C  C1571  1  0.459000  0.279200  0.495600  1.0  0.2231
  C  C1572  1  0.280300  0.233100  0.552710  1.0  -0.2092
  C  C1573  1  0.268700  0.319200  0.577710  1.0  -0.1603
  C  C1574  1  0.260700  0.260200  0.576800  1.0  -0.0135
  C  C1575  1  0.235700  0.229700  0.601340  1.0  0.2139
  C  C1576  1  0.225700  0.172600  0.599980  1.0  -0.1472
  C  C1577  1  0.204000  0.234300  0.647860  1.0  0.2364
  C  C1578  1  0.204000  0.145100  0.623920  1.0  0.0576
  C  C1579  1  0.193500  0.177500  0.648160  1.0  -0.1584
  C  C1580  1  0.191300  0.269700  0.673330  1.0  0.0145
  C  C1581  1  0.193600  0.084100  0.624110  1.0  0.0187
  C  C1582  1  0.193500  0.328000  0.672350  1.0  -0.1625
  C  C1583  1  0.174900  0.245900  0.698710  1.0  -0.1958
  C  C1584  1  0.203000  0.052800  0.648980  1.0  -0.1034
  C  C1585  1  0.174600  0.056500  0.600220  1.0  -0.1134
  C  C1586  1  0.177100  0.358500  0.695650  1.0  0.1725
  C  C1587  1  0.158900  0.279300  0.721210  1.0  0.1589
  C  C1588  1  0.193000  0.996100  0.649770  1.0  -0.2061
  C  C1589  1  0.163200  0.998900  0.600390  1.0  -0.268
  C  C1590  1  0.173100  0.968600  0.625470  1.0  0.2686
  C  C1591  1  0.137200  0.884900  0.605080  1.0  0.0516
  C  C1592  1  0.218900  0.321200  0.782340  1.0  0.1759
  C  C1593  1  0.139300  0.306500  0.808150  1.0  0.1665
  C  C1594  1  0.027200  0.284300  0.764800  1.0  0.1758
  C  C1595  1  0.045000  0.403600  0.702120  1.0  0.1447
  C  C1596  1  0.069700  0.484900  0.725650  1.0  0.1585
  C  C1597  1  0.213000  0.472500  0.764730  1.0  0.2751
  C  C1598  1  0.123600  0.825900  0.614300  1.0  -0.1412
  C  C1599  1  0.251000  0.290900  0.801700  1.0  -0.2038
  C  C1600  1  0.168400  0.277400  0.829330  1.0  -0.1626
  C  C1601  1  0.017300  0.433700  0.681170  1.0  -0.113
  C  C1602  1  0.042900  0.517900  0.705610  1.0  -0.2048
  C  C1603  1  0.081000  0.797200  0.595800  1.0  -0.1519
  C  C1604  1  0.225900  0.269500  0.826160  1.0  -0.0401
  C  C1605  1  0.015900  0.492300  0.682620  1.0  -0.0851
  C  C1606  1  0.095600  0.789500  0.565300  1.0  -0.1141
  C  C1607  1  0.258700  0.242700  0.849630  1.0  0.2352
  C  C1608  1  0.988400  0.525400  0.659550  1.0  0.2216
  C  C1609  1  0.142300  0.747900  0.564600  1.0  -0.1177
  C  C1610  1  0.316200  0.232800  0.846550  1.0  -0.1558
  C  C1611  1  0.977000  0.581800  0.662520  1.0  -0.1057
  C  C1612  1  0.145800  0.728300  0.534600  1.0  -0.1318
  C  C1613  1  0.258300  0.207300  0.895100  1.0  0.2177
  C  C1614  1  0.345300  0.209200  0.869450  1.0  0.0597
  C  C1615  1  0.957400  0.525200  0.613140  1.0  0.236
  C  C1616  1  0.954900  0.611300  0.639210  1.0  0.05
  C  C1617  1  0.186400  0.679400  0.530900  1.0  -0.1463
  C  C1618  1  0.315500  0.197900  0.894120  1.0  -0.1597
  C  C1619  1  0.223700  0.192000  0.920780  1.0  -0.0768
  C  C1620  1  0.406400  0.197200  0.867850  1.0  -0.0052
  C  C1621  1  0.945400  0.581800  0.614360  1.0  -0.1387
  C  C1622  1  0.947300  0.492400  0.587080  1.0  1e-04
  C  C1623  1  0.942800  0.672100  0.640340  1.0  0.0039
  C  C1624  1  0.187400  0.667700  0.498800  1.0  -0.1237
  C  C1625  1  0.167400  0.197600  0.921050  1.0  -0.1286
  C  C1626  1  0.249200  0.170000  0.945100  1.0  -0.2237
  C  C1627  1  0.440300  0.202000  0.891570  1.0  -0.1426
  C  C1628  1  0.431000  0.181300  0.842450  1.0  -0.1026
  C  C1629  1  0.930900  0.516500  0.561360  1.0  -0.2114
  C  C1630  1  0.950800  0.432900  0.587380  1.0  -0.1522
  C  C1631  1  0.925000  0.698600  0.665570  1.0  -0.1125
  C  C1632  1  0.949100  0.705400  0.615970  1.0  -0.1188
  C  C1633  1  0.251600  0.655000  0.495100  1.0  -0.3274
  C  C1634  1  0.135600  0.179500  0.944310  1.0  0.1476
  C  C1635  1  0.215700  0.152900  0.967080  1.0  0.1711
  C  C1636  1  0.496600  0.190500  0.890040  1.0  -0.1583
  C  C1637  1  0.487300  0.169400  0.840330  1.0  -0.2472
  C  C1638  1  0.917700  0.483300  0.538480  1.0  0.1593
  C  C1639  1  0.938100  0.403400  0.563030  1.0  0.1673
  C  C1640  1  0.914200  0.756700  0.666100  1.0  -0.2101
  C  C1641  1  0.938300  0.762500  0.616300  1.0  -0.2259
  C  C1642  1  0.520700  0.174600  0.864740  1.0  0.2823
  C  C1643  1  0.921700  0.787600  0.641600  1.0  0.2875
  C  C1644  1  0.602900  0.148400  0.839000  1.0  0.0549
  C  C1645  1  0.897100  0.871900  0.664700  1.0  0.0805
  C  C1646  1  0.096400  0.044000  0.944640  1.0  0.1784
  C  C1647  1  0.014000  0.059600  0.967930  1.0  0.1568
  C  C1648  1  0.017000  0.202800  0.987140  1.0  0.256
  C  C1649  1  0.665100  0.138500  0.843700  1.0  -0.0832
  C  C1650  1  0.890600  0.934400  0.655900  1.0  -0.1302
  C  C1651  1  0.069900  0.019100  0.921870  1.0  -0.1706
  C  C1652  1  0.983800  0.033700  0.946610  1.0  -0.2079
  C  C1653  1  0.696700  0.118700  0.817100  1.0  -0.1024
  C  C1654  1  0.834800  0.944400  0.639600  1.0  -0.1101
  C  C1655  1  0.011200  0.013400  0.922260  1.0  0.0266
  C  C1656  1  0.757100  0.110500  0.825000  1.0  -0.1291
  C  C1657  1  0.841500  0.989200  0.615000  1.0  -0.1274
  C  C1658  1  0.980600  0.989300  0.897440  1.0  0.2353
  C  C1659  1  0.791000  0.107100  0.796900  1.0  -0.1508
  C  C1660  1  0.858100  0.046900  0.625800  1.0  -0.1368
  C  C1661  1  0.922900  0.980500  0.898420  1.0  -0.1664
  C  C1662  1  0.854400  0.124400  0.798200  1.0  -0.161
  C  C1663  1  0.864600  0.089000  0.602700  1.0  -0.1156
  C  C1664  1  0.985000  0.957100  0.851410  1.0  0.2247
  C  C1665  1  0.895000  0.960600  0.874500  1.0  0.0731
  C  C1666  1  0.904700  0.084100  0.793200  1.0  -0.0866
  C  C1667  1  0.882900  0.145100  0.611800  1.0  -0.1266
  C  C1668  1  0.928200  0.948500  0.850670  1.0  -0.1652
  C  C1669  1  0.021800  0.943300  0.826820  1.0  -0.0381
  C  C1670  1  0.834200  0.949500  0.874530  1.0  0.0369
  C  C1671  1  0.963400  0.052500  0.791500  1.0  -0.0931
  C  C1672  1  0.903800  0.181400  0.585700  1.0  -0.1475
  C  C1673  1  0.999200  0.922500  0.801520  1.0  -0.1988
  C  C1674  1  0.079200  0.948500  0.828160  1.0  -0.1935
  C  C1675  1  0.806500  0.932400  0.898620  1.0  -0.0948
  C  C1676  1  0.802600  0.957500  0.849570  1.0  -0.1197
  C  C1677  1  0.018400  0.056600  0.773300  1.0  -0.3014
  C  C1678  1  0.919500  0.242900  0.595000  1.0  -0.3553
  C  C1679  1  0.034900  0.905000  0.779910  1.0  0.1529
  C  C1680  1  0.111300  0.929100  0.805140  1.0  0.1617
  C  C1681  1  0.748400  0.921900  0.898890  1.0  -0.2278
  C  C1682  1  0.745100  0.948100  0.849180  1.0  -0.2306
  C  C1683  1  0.717700  0.930400  0.873770  1.0  0.2778
  C  C1684  1  0.633500  0.902100  0.894600  1.0  0.0573
  C  C1685  1  0.573000  0.888700  0.885700  1.0  -0.0729
  C  C1686  1  0.537800  0.872300  0.911600  1.0  -0.1108
  C  C1687  1  0.481300  0.852300  0.906200  1.0  -0.1538
  C  C1688  1  0.440100  0.884900  0.888200  1.0  -0.1427
  C  C1689  1  0.388900  0.856900  0.882400  1.0  -0.1245
  C  C1690  1  0.337500  0.884400  0.869500  1.0  -0.1006
  C  C1691  1  0.342100  0.894900  0.837900  1.0  -0.1001
  C  C1692  1  0.284200  0.919100  0.829500  1.0  -0.3369
  C  C1693  1  0.692700  0.736600  0.031350  1.0  0.1496
  C  C1694  1  0.703700  0.655300  0.056130  1.0  0.1721
  C  C1695  1  0.541000  0.720800  0.995600  1.0  0.2242
  C  C1696  1  0.719700  0.766900  0.052710  1.0  -0.2087
  C  C1697  1  0.731300  0.680800  0.077710  1.0  -0.1599
  C  C1698  1  0.739300  0.739800  0.076800  1.0  -0.0143
  C  C1699  1  0.764300  0.770300  0.101340  1.0  0.2141
  C  C1700  1  0.774300  0.827400  0.099980  1.0  -0.1484
  C  C1701  1  0.796000  0.765700  0.147860  1.0  0.2364
  C  C1702  1  0.796000  0.854900  0.123920  1.0  0.0585
  C  C1703  1  0.806500  0.822500  0.148160  1.0  -0.1578
  C  C1704  1  0.808700  0.730300  0.173330  1.0  0.0155
  C  C1705  1  0.806400  0.915900  0.124110  1.0  0.0173
  C  C1706  1  0.806500  0.672000  0.172350  1.0  -0.1611
  C  C1707  1  0.825100  0.754100  0.198710  1.0  -0.1952
  C  C1708  1  0.797000  0.947200  0.148980  1.0  -0.1042
  C  C1709  1  0.825400  0.943500  0.100220  1.0  -0.1141
  C  C1710  1  0.822900  0.641500  0.195650  1.0  0.1724
  C  C1711  1  0.841100  0.720700  0.221210  1.0  0.1587
  C  C1712  1  0.807000  0.003900  0.149770  1.0  -0.2052
  C  C1713  1  0.836800  0.001100  0.100390  1.0  -0.2659
  C  C1714  1  0.826900  0.031400  0.125470  1.0  0.2697
  C  C1715  1  0.862800  0.115100  0.105080  1.0  0.0516
  C  C1716  1  0.781100  0.678800  0.282340  1.0  0.1763
  C  C1717  1  0.860700  0.693500  0.308150  1.0  0.1652
  C  C1718  1  0.972800  0.715700  0.264800  1.0  0.1786
  C  C1719  1  0.955000  0.596400  0.202120  1.0  0.1452
  C  C1720  1  0.930300  0.515100  0.225650  1.0  0.1602
  C  C1721  1  0.787000  0.527500  0.264730  1.0  0.2745
  C  C1722  1  0.876400  0.174100  0.114300  1.0  -0.1397
  C  C1723  1  0.749000  0.709100  0.301700  1.0  -0.2019
  C  C1724  1  0.831600  0.722600  0.329330  1.0  -0.1634
  C  C1725  1  0.982700  0.566300  0.181170  1.0  -0.115
  C  C1726  1  0.957100  0.482100  0.205610  1.0  -0.2034
  C  C1727  1  0.919000  0.202800  0.095800  1.0  -0.1516
  C  C1728  1  0.774100  0.730500  0.326160  1.0  -0.0395
  C  C1729  1  0.984100  0.507700  0.182620  1.0  -0.0849
  C  C1730  1  0.904400  0.210500  0.065300  1.0  -0.1141
  C  C1731  1  0.741300  0.757300  0.349630  1.0  0.2348
  C  C1732  1  0.011600  0.474600  0.159550  1.0  0.2213
  C  C1733  1  0.857700  0.252100  0.064600  1.0  -0.1183
  C  C1734  1  0.683800  0.767200  0.346550  1.0  -0.1561
  C  C1735  1  0.023000  0.418200  0.162520  1.0  -0.106
  C  C1736  1  0.854200  0.271700  0.034600  1.0  -0.1347
  C  C1737  1  0.741700  0.792700  0.395100  1.0  0.2172
  C  C1738  1  0.654700  0.790800  0.369450  1.0  0.06
  C  C1739  1  0.042600  0.474800  0.113140  1.0  0.2356
  C  C1740  1  0.045100  0.388700  0.139210  1.0  0.0502
  C  C1741  1  0.813600  0.320600  0.030900  1.0  -0.1474
  C  C1742  1  0.684500  0.802100  0.394120  1.0  -0.1616
  C  C1743  1  0.776300  0.808000  0.420780  1.0  -0.0761
  C  C1744  1  0.593600  0.802800  0.367850  1.0  -0.0051
  C  C1745  1  0.054600  0.418200  0.114360  1.0  -0.1385
  C  C1746  1  0.052700  0.507600  0.087080  1.0  0.0008
  C  C1747  1  0.057200  0.327900  0.140340  1.0  0.0034
  C  C1748  1  0.812600  0.332300  0.998800  1.0  -0.1223
  C  C1749  1  0.832600  0.802400  0.421050  1.0  -0.1284
  C  C1750  1  0.750800  0.830000  0.445100  1.0  -0.2252
  C  C1751  1  0.559700  0.798000  0.391570  1.0  -0.1428
  C  C1752  1  0.569000  0.818700  0.342450  1.0  -0.1031
  C  C1753  1  0.069100  0.483500  0.061360  1.0  -0.2152
  C  C1754  1  0.049200  0.567100  0.087380  1.0  -0.1538
  C  C1755  1  0.075000  0.301400  0.165570  1.0  -0.1116
  C  C1756  1  0.050900  0.294600  0.115970  1.0  -0.1192
  C  C1757  1  0.748400  0.345000  0.995100  1.0  -0.3269
  C  C1758  1  0.864400  0.820500  0.444310  1.0  0.1474
  C  C1759  1  0.784300  0.847100  0.467080  1.0  0.171
  C  C1760  1  0.503400  0.809500  0.390040  1.0  -0.1594
  C  C1761  1  0.512700  0.830600  0.340330  1.0  -0.2482
  C  C1762  1  0.082300  0.516700  0.038480  1.0  0.1599
  C  C1763  1  0.061900  0.596600  0.063030  1.0  0.1662
  C  C1764  1  0.085800  0.243300  0.166100  1.0  -0.2093
  C  C1765  1  0.061700  0.237500  0.116300  1.0  -0.2255
  C  C1766  1  0.479300  0.825400  0.364740  1.0  0.2829
  C  C1767  1  0.078300  0.212400  0.141600  1.0  0.2874
  C  C1768  1  0.397100  0.851600  0.339000  1.0  0.0531
  C  C1769  1  0.102900  0.128100  0.164700  1.0  0.0801
  C  C1770  1  0.903600  0.956000  0.444640  1.0  0.1797
  C  C1771  1  0.986000  0.940400  0.467930  1.0  0.1565
  C  C1772  1  0.983000  0.797200  0.487140  1.0  0.2565
  C  C1773  1  0.334900  0.861500  0.343700  1.0  -0.084
  C  C1774  1  0.109400  0.065600  0.155900  1.0  -0.1315
  C  C1775  1  0.930100  0.980900  0.421870  1.0  -0.1702
  C  C1776  1  0.016200  0.966300  0.446610  1.0  -0.2069
  C  C1777  1  0.303300  0.881300  0.317100  1.0  -0.1025
  C  C1778  1  0.165200  0.055600  0.139600  1.0  -0.1089
  C  C1779  1  0.988800  0.986600  0.422260  1.0  0.0251
  C  C1780  1  0.242900  0.889500  0.325000  1.0  -0.1276
  C  C1781  1  0.158500  0.010800  0.115000  1.0  -0.1305
  C  C1782  1  0.019400  0.010700  0.397440  1.0  0.2349
  C  C1783  1  0.209000  0.892900  0.296900  1.0  -0.1524
  C  C1784  1  0.141900  0.953100  0.125800  1.0  -0.1367
  C  C1785  1  0.077100  0.019500  0.398420  1.0  -0.1652
  C  C1786  1  0.145600  0.875600  0.298200  1.0  -0.1638
  C  C1787  1  0.135400  0.911000  0.102700  1.0  -0.1167
  C  C1788  1  0.015000  0.042900  0.351410  1.0  0.225
  C  C1789  1  0.105000  0.039400  0.374500  1.0  0.074
  C  C1790  1  0.095300  0.915900  0.293200  1.0  -0.0884
  C  C1791  1  0.117100  0.854900  0.111800  1.0  -0.1265
  C  C1792  1  0.071800  0.051500  0.350670  1.0  -0.1635
  C  C1793  1  0.978200  0.056700  0.326820  1.0  -0.0383
  C  C1794  1  0.165800  0.050500  0.374530  1.0  0.0371
  C  C1795  1  0.036600  0.947500  0.291500  1.0  -0.0942
  C  C1796  1  0.096200  0.818600  0.085700  1.0  -0.1479
  C  C1797  1  0.000800  0.077500  0.301520  1.0  -0.1988
  C  C1798  1  0.920800  0.051500  0.328160  1.0  -0.1936
  C  C1799  1  0.193500  0.067600  0.398620  1.0  -0.0951
  C  C1800  1  0.197400  0.042500  0.349570  1.0  -0.1195
  C  C1801  1  0.981600  0.943400  0.273300  1.0  -0.303
  C  C1802  1  0.080500  0.757100  0.095000  1.0  -0.3562
  C  C1803  1  0.965100  0.095000  0.279910  1.0  0.1527
  C  C1804  1  0.888700  0.070900  0.305140  1.0  0.1635
  C  C1805  1  0.251600  0.078100  0.398890  1.0  -0.2259
  C  C1806  1  0.254900  0.051900  0.349180  1.0  -0.2298
  C  C1807  1  0.282300  0.069600  0.373770  1.0  0.2779
  C  C1808  1  0.366500  0.097900  0.394600  1.0  0.0573
  C  C1809  1  0.427000  0.111300  0.385700  1.0  -0.0734
  C  C1810  1  0.462200  0.127700  0.411600  1.0  -0.113
  C  C1811  1  0.518700  0.147700  0.406200  1.0  -0.1551
  C  C1812  1  0.559900  0.115100  0.388200  1.0  -0.1439
  C  C1813  1  0.611100  0.143100  0.382400  1.0  -0.1243
  C  C1814  1  0.662500  0.115600  0.369500  1.0  -0.1016
  C  C1815  1  0.657900  0.105100  0.337900  1.0  -0.0993
  C  C1816  1  0.715800  0.080900  0.329500  1.0  -0.3379
  C  C1817  1  0.763400  0.192700  0.281350  1.0  0.1507
  C  C1818  1  0.844700  0.203700  0.306130  1.0  0.1687
  C  C1819  1  0.779200  0.041000  0.245600  1.0  0.2256
  C  C1820  1  0.733100  0.219700  0.302710  1.0  -0.2085
  C  C1821  1  0.819200  0.231300  0.327710  1.0  -0.1602
  C  C1822  1  0.760200  0.239300  0.326800  1.0  -0.012
  C  C1823  1  0.729700  0.264300  0.351340  1.0  0.2151
  C  C1824  1  0.672600  0.274300  0.349980  1.0  -0.1479
  C  C1825  1  0.734300  0.296000  0.397860  1.0  0.2364
  C  C1826  1  0.645100  0.296000  0.373920  1.0  0.0578
  C  C1827  1  0.677500  0.306500  0.398160  1.0  -0.1592
  C  C1828  1  0.769700  0.308700  0.423330  1.0  0.0144
  C  C1829  1  0.584100  0.306400  0.374110  1.0  0.0152
  C  C1830  1  0.828000  0.306500  0.422350  1.0  -0.1584
  C  C1831  1  0.745900  0.325100  0.448710  1.0  -0.195
  C  C1832  1  0.552800  0.297000  0.398980  1.0  -0.1043
  C  C1833  1  0.556500  0.325400  0.350220  1.0  -0.1129
  C  C1834  1  0.858500  0.322900  0.445650  1.0  0.1738
  C  C1835  1  0.779300  0.341100  0.471210  1.0  0.1608
  C  C1836  1  0.496100  0.307000  0.399770  1.0  -0.2051
  C  C1837  1  0.498900  0.336800  0.350390  1.0  -0.2665
  C  C1838  1  0.468600  0.326900  0.375470  1.0  0.2695
  C  C1839  1  0.384900  0.362800  0.355080  1.0  0.0512
  C  C1840  1  0.821200  0.281100  0.532340  1.0  0.1764
  C  C1841  1  0.806500  0.360700  0.558150  1.0  0.1659
  C  C1842  1  0.784300  0.472800  0.514800  1.0  0.1789
  C  C1843  1  0.903600  0.455000  0.452120  1.0  0.1438
  C  C1844  1  0.984900  0.430300  0.475650  1.0  0.1592
  C  C1845  1  0.972500  0.287000  0.514730  1.0  0.2756
  C  C1846  1  0.325900  0.376400  0.364300  1.0  -0.1402
  C  C1847  1  0.790900  0.249000  0.551700  1.0  -0.2017
  C  C1848  1  0.777400  0.331600  0.579330  1.0  -0.1647
  C  C1849  1  0.933700  0.482700  0.431170  1.0  -0.1107
  C  C1850  1  0.017900  0.457100  0.455610  1.0  -0.1971
  C  C1851  1  0.297200  0.419000  0.345800  1.0  -0.1518
  C  C1852  1  0.769500  0.274100  0.576160  1.0  -0.0419
  C  C1853  1  0.992300  0.484100  0.432620  1.0  -0.0834
  C  C1854  1  0.289500  0.404400  0.315300  1.0  -0.1121
  C  C1855  1  0.742700  0.241300  0.599630  1.0  0.2359
  C  C1856  1  0.025400  0.511600  0.409550  1.0  0.2208
  C  C1857  1  0.247900  0.357700  0.314600  1.0  -0.1181
  C  C1858  1  0.732800  0.183800  0.596550  1.0  -0.1564
  C  C1859  1  0.081800  0.523000  0.412520  1.0  -0.1029
  C  C1860  1  0.228300  0.354200  0.284600  1.0  -0.1325
  C  C1861  1  0.707300  0.241700  0.645100  1.0  0.2177
  C  C1862  1  0.709200  0.154700  0.619450  1.0  0.0602
  C  C1863  1  0.025200  0.542600  0.363140  1.0  0.235
  C  C1864  1  0.111300  0.545100  0.389210  1.0  0.0526
  C  C1865  1  0.179400  0.313600  0.280900  1.0  -0.1467
  C  C1866  1  0.697900  0.184500  0.644120  1.0  -0.1607
  C  C1867  1  0.692000  0.276300  0.670780  1.0  -0.0737
  C  C1868  1  0.697200  0.093600  0.617850  1.0  -0.0043
  C  C1869  1  0.081800  0.554600  0.364360  1.0  -0.1384
  C  C1870  1  0.992400  0.552700  0.337080  1.0  -0.0004
  C  C1871  1  0.172100  0.557200  0.390340  1.0  0.0038
  C  C1872  1  0.167700  0.312600  0.248800  1.0  -0.1216
  C  C1873  1  0.697600  0.332600  0.671050  1.0  -0.1292
  C  C1874  1  0.670000  0.250800  0.695100  1.0  -0.2243
  C  C1875  1  0.702000  0.059700  0.641570  1.0  -0.1416
  C  C1876  1  0.681300  0.069000  0.592450  1.0  -0.1013
  C  C1877  1  0.016500  0.569100  0.311360  1.0  -0.211
  C  C1878  1  0.932900  0.549200  0.337380  1.0  -0.1496
  C  C1879  1  0.198600  0.575000  0.415570  1.0  -0.113
  C  C1880  1  0.205400  0.550900  0.365970  1.0  -0.1187
  C  C1881  1  0.155000  0.248400  0.245100  1.0  -0.3257
  C  C1882  1  0.679500  0.364400  0.694310  1.0  0.1463
  C  C1883  1  0.652900  0.284300  0.717080  1.0  0.1702
  C  C1884  1  0.690500  0.003400  0.640040  1.0  -0.1552
  C  C1885  1  0.669400  0.012700  0.590330  1.0  -0.248
  C  C1886  1  0.983300  0.582300  0.288480  1.0  0.1625
  C  C1887  1  0.903400  0.561900  0.313030  1.0  0.1667
  C  C1888  1  0.256700  0.585800  0.416100  1.0  -0.2095
  C  C1889  1  0.262500  0.561700  0.366300  1.0  -0.2274
  C  C1890  1  0.674600  0.979300  0.614740  1.0  0.2827
  C  C1891  1  0.287600  0.578300  0.391600  1.0  0.2872
  C  C1892  1  0.648400  0.897100  0.589000  1.0  0.0561
  C  C1893  1  0.371900  0.602900  0.414700  1.0  0.078
  C  C1894  1  0.544000  0.403600  0.694640  1.0  0.1806
  C  C1895  1  0.559600  0.486000  0.717930  1.0  0.1537
  C  C1896  1  0.702800  0.483000  0.737140  1.0  0.2566
  C  C1897  1  0.638500  0.834900  0.593700  1.0  -0.0808
  C  C1898  1  0.434400  0.609400  0.405900  1.0  -0.1325
  C  C1899  1  0.519100  0.430100  0.671870  1.0  -0.1747
  C  C1900  1  0.533700  0.516200  0.696610  1.0  -0.2109
  C  C1901  1  0.618700  0.803300  0.567100  1.0  -0.0993
  C  C1902  1  0.444400  0.665200  0.389600  1.0  -0.1083
  C  C1903  1  0.513400  0.488800  0.672260  1.0  0.0215
  C  C1904  1  0.610500  0.742900  0.575000  1.0  -0.1259
  C  C1905  1  0.489200  0.658500  0.365000  1.0  -0.1273
  C  C1906  1  0.489300  0.519400  0.647440  1.0  0.2334
  C  C1907  1  0.607100  0.709000  0.546900  1.0  -0.1524
  C  C1908  1  0.546900  0.641900  0.375800  1.0  -0.1354
  C  C1909  1  0.480500  0.577100  0.648420  1.0  -0.1655
  C  C1910  1  0.624400  0.645600  0.548200  1.0  -0.1606
  C  C1911  1  0.589000  0.635400  0.352700  1.0  -0.1145
  C  C1912  1  0.457100  0.515000  0.601410  1.0  0.2235
  C  C1913  1  0.460600  0.605000  0.624500  1.0  0.0741
  C  C1914  1  0.584100  0.595300  0.543200  1.0  -0.0822
  C  C1915  1  0.645100  0.617100  0.361800  1.0  -0.126
  C  C1916  1  0.448500  0.571800  0.600670  1.0  -0.1652
  C  C1917  1  0.443300  0.478200  0.576820  1.0  -0.0414
  C  C1918  1  0.449500  0.665800  0.624530  1.0  0.0359
  C  C1919  1  0.552500  0.536600  0.541500  1.0  -0.0951
  C  C1920  1  0.681400  0.596200  0.335700  1.0  -0.1469
  C  C1921  1  0.422500  0.500800  0.551520  1.0  -0.1965
  C  C1922  1  0.448500  0.420800  0.578160  1.0  -0.1924
  C  C1923  1  0.432400  0.693500  0.648620  1.0  -0.097
  C  C1924  1  0.457500  0.697400  0.599570  1.0  -0.1206
  C  C1925  1  0.556600  0.481600  0.523300  1.0  -0.3032
  C  C1926  1  0.742900  0.580500  0.345000  1.0  -0.3552
  C  C1927  1  0.405000  0.465100  0.529910  1.0  0.1536
  C  C1928  1  0.429100  0.388700  0.555140  1.0  0.1656
  C  C1929  1  0.421900  0.751600  0.648890  1.0  -0.2282
  C  C1930  1  0.448100  0.754900  0.599180  1.0  -0.2275
  C  C1931  1  0.430400  0.782300  0.623770  1.0  0.2788
  C  C1932  1  0.402100  0.866500  0.644600  1.0  0.0585
  C  C1933  1  0.388700  0.927000  0.635700  1.0  -0.0732
  C  C1934  1  0.372300  0.962200  0.661600  1.0  -0.1106
  C  C1935  1  0.352300  0.018700  0.656200  1.0  -0.1525
  C  C1936  1  0.384900  0.059900  0.638200  1.0  -0.1375
  C  C1937  1  0.356900  0.111100  0.632400  1.0  -0.1233
  C  C1938  1  0.384400  0.162500  0.619500  1.0  -0.0984
  C  C1939  1  0.394900  0.157900  0.587900  1.0  -0.1002
  C  C1940  1  0.419100  0.215800  0.579500  1.0  -0.3373
  C  C1941  1  0.236600  0.807300  0.781350  1.0  0.151
  C  C1942  1  0.155300  0.796300  0.806130  1.0  0.169
  C  C1943  1  0.220800  0.959000  0.745600  1.0  0.2249
  C  C1944  1  0.266900  0.780300  0.802710  1.0  -0.2108
  C  C1945  1  0.180800  0.768700  0.827710  1.0  -0.1598
  C  C1946  1  0.239800  0.760700  0.826800  1.0  -0.011
  C  C1947  1  0.270300  0.735700  0.851340  1.0  0.2152
  C  C1948  1  0.327400  0.725700  0.849980  1.0  -0.148
  C  C1949  1  0.265700  0.704000  0.897860  1.0  0.2362
  C  C1950  1  0.354900  0.704000  0.873920  1.0  0.0587
  C  C1951  1  0.322500  0.693500  0.898160  1.0  -0.1567
  C  C1952  1  0.230300  0.691300  0.923330  1.0  0.0152
  C  C1953  1  0.415900  0.693600  0.874110  1.0  0.0171
  C  C1954  1  0.172000  0.693500  0.922350  1.0  -0.1595
  C  C1955  1  0.254100  0.674900  0.948710  1.0  -0.1962
  C  C1956  1  0.447200  0.703000  0.898980  1.0  -0.1044
  C  C1957  1  0.443500  0.674600  0.850220  1.0  -0.1133
  C  C1958  1  0.141500  0.677100  0.945650  1.0  0.1754
  C  C1959  1  0.220700  0.658900  0.971210  1.0  0.1604
  C  C1960  1  0.503900  0.693000  0.899770  1.0  -0.2049
  C  C1961  1  0.501100  0.663200  0.850390  1.0  -0.2655
  C  C1962  1  0.531400  0.673100  0.875470  1.0  0.2703
  C  C1963  1  0.615100  0.637200  0.855080  1.0  0.0525
  C  C1964  1  0.178800  0.718900  0.032340  1.0  0.1759
  C  C1965  1  0.193500  0.639300  0.058150  1.0  0.167
  C  C1966  1  0.215700  0.527200  0.014800  1.0  0.1773
  C  C1967  1  0.096400  0.545000  0.952120  1.0  0.1433
  C  C1968  1  0.015100  0.569700  0.975650  1.0  0.1582
  C  C1969  1  0.027500  0.713000  0.014730  1.0  0.2745
  C  C1970  1  0.674100  0.623600  0.864300  1.0  -0.142
  C  C1971  1  0.209100  0.751000  0.051700  1.0  -0.2025
  C  C1972  1  0.222600  0.668400  0.079330  1.0  -0.1649
  C  C1973  1  0.066300  0.517300  0.931170  1.0  -0.109
  C  C1974  1  0.982100  0.542900  0.955610  1.0  -0.1996
  C  C1975  1  0.702800  0.581000  0.845800  1.0  -0.1498
  C  C1976  1  0.230500  0.725900  0.076160  1.0  -0.0412
  C  C1977  1  0.007700  0.515900  0.932620  1.0  -0.0826
  C  C1978  1  0.710500  0.595600  0.815300  1.0  -0.1127
  C  C1979  1  0.257300  0.758700  0.099630  1.0  0.2352
  C  C1980  1  0.974600  0.488400  0.909550  1.0  0.2207
  C  C1981  1  0.752100  0.642300  0.814600  1.0  -0.117
  C  C1982  1  0.267200  0.816200  0.096550  1.0  -0.1567
  C  C1983  1  0.918200  0.477000  0.912520  1.0  -0.1036
  C  C1984  1  0.771700  0.645800  0.784600  1.0  -0.1314
  C  C1985  1  0.292700  0.758300  0.145100  1.0  0.2178
  C  C1986  1  0.290800  0.845300  0.119450  1.0  0.0607
  C  C1987  1  0.974800  0.457400  0.863140  1.0  0.2355
  C  C1988  1  0.888700  0.454900  0.889210  1.0  0.0523
  C  C1989  1  0.820600  0.686400  0.780900  1.0  -0.1476
  C  C1990  1  0.302100  0.815500  0.144120  1.0  -0.1601
  C  C1991  1  0.308000  0.723700  0.170780  1.0  -0.0718
  C  C1992  1  0.302800  0.906400  0.117850  1.0  -0.0043
  C  C1993  1  0.918200  0.445400  0.864360  1.0  -0.1389
  C  C1994  1  0.007600  0.447300  0.837080  1.0  -0.0003
  C  C1995  1  0.827900  0.442800  0.890340  1.0  0.0038
  C  C1996  1  0.832300  0.687400  0.748800  1.0  -0.1225
  C  C1997  1  0.302400  0.667400  0.171050  1.0  -0.128
  C  C1998  1  0.330000  0.749200  0.195100  1.0  -0.2262
  C  C1999  1  0.298000  0.940300  0.141570  1.0  -0.1424
  C  C2000  1  0.318700  0.931000  0.092450  1.0  -0.1012
  C  C2001  1  0.983500  0.430900  0.811360  1.0  -0.2122
  C  C2002  1  0.067100  0.450800  0.837380  1.0  -0.1511
  C  C2003  1  0.801400  0.425000  0.915570  1.0  -0.1116
  C  C2004  1  0.794600  0.449100  0.865970  1.0  -0.1189
  C  C2005  1  0.845000  0.751600  0.745100  1.0  -0.3277
  C  C2006  1  0.320500  0.635600  0.194310  1.0  0.1464
  C  C2007  1  0.347100  0.715700  0.217080  1.0  0.1694
  C  C2008  1  0.309500  0.996600  0.140040  1.0  -0.1561
  C  C2009  1  0.330600  0.987300  0.090330  1.0  -0.2475
  C  C2010  1  0.016700  0.417700  0.788480  1.0  0.162
  C  C2011  1  0.096600  0.438100  0.813030  1.0  0.1662
  C  C2012  1  0.743300  0.414200  0.916100  1.0  -0.2096
  C  C2013  1  0.737500  0.438300  0.866300  1.0  -0.2286
  C  C2014  1  0.325400  0.020700  0.114740  1.0  0.2828
  C  C2015  1  0.712400  0.421700  0.891600  1.0  0.2868
  C  C2016  1  0.351600  0.102900  0.089000  1.0  0.0565
  C  C2017  1  0.628100  0.397100  0.914700  1.0  0.0776
  C  C2018  1  0.456000  0.596400  0.194640  1.0  0.1811
  C  C2019  1  0.440400  0.514000  0.217930  1.0  0.1556
  C  C2020  1  0.297200  0.517000  0.237140  1.0  0.2569
  C  C2021  1  0.361500  0.165100  0.093700  1.0  -0.0799
  C  C2022  1  0.565600  0.390600  0.905900  1.0  -0.1318
  C  C2023  1  0.480900  0.569900  0.171870  1.0  -0.1743
  C  C2024  1  0.466300  0.483800  0.196610  1.0  -0.2076
  C  C2025  1  0.381300  0.196700  0.067100  1.0  -0.1015
  C  C2026  1  0.555600  0.334800  0.889600  1.0  -0.1101
  C  C2027  1  0.486600  0.511200  0.172260  1.0  0.0225
  C  C2028  1  0.389500  0.257100  0.075000  1.0  -0.1261
  C  C2029  1  0.510800  0.341500  0.865000  1.0  -0.1304
  C  C2030  1  0.510700  0.480600  0.147440  1.0  0.2349
  C  C2031  1  0.392900  0.291000  0.046900  1.0  -0.1513
  C  C2032  1  0.453100  0.358100  0.875800  1.0  -0.1355
  C  C2033  1  0.519500  0.422900  0.148420  1.0  -0.1665
  C  C2034  1  0.375600  0.354400  0.048200  1.0  -0.1605
  C  C2035  1  0.411000  0.364600  0.852700  1.0  -0.114
  C  C2036  1  0.542900  0.485000  0.101410  1.0  0.2251
  C  C2037  1  0.539400  0.395000  0.124500  1.0  0.0737
  C  C2038  1  0.415900  0.404700  0.043200  1.0  -0.0854
  C  C2039  1  0.354900  0.382900  0.861800  1.0  -0.127
  C  C2040  1  0.551500  0.428200  0.100670  1.0  -0.1629
  C  C2041  1  0.556700  0.521800  0.076820  1.0  -0.041
  C  C2042  1  0.550500  0.334200  0.124530  1.0  0.0375
  C  C2043  1  0.447500  0.463400  0.041500  1.0  -0.0937
  C  C2044  1  0.318600  0.403800  0.835700  1.0  -0.1473
  C  C2045  1  0.577500  0.499200  0.051520  1.0  -0.1971
  C  C2046  1  0.551500  0.579200  0.078160  1.0  -0.1942
  C  C2047  1  0.567600  0.306500  0.148620  1.0  -0.096
  C  C2048  1  0.542500  0.302600  0.099570  1.0  -0.1208
  C  C2049  1  0.443400  0.518400  0.023300  1.0  -0.3018
  C  C2050  1  0.257100  0.419500  0.845000  1.0  -0.3559
  C  C2051  1  0.595000  0.534900  0.029910  1.0  0.1526
  C  C2052  1  0.570900  0.611300  0.055140  1.0  0.1642
  C  C2053  1  0.578100  0.248400  0.148890  1.0  -0.2261
  C  C2054  1  0.551900  0.245100  0.099180  1.0  -0.2274
  C  C2055  1  0.569600  0.217700  0.123770  1.0  0.2786
  C  C2056  1  0.597900  0.133500  0.144600  1.0  0.0581
  C  C2057  1  0.611300  0.073000  0.135700  1.0  -0.0731
  C  C2058  1  0.627700  0.037800  0.161600  1.0  -0.1105
  C  C2059  1  0.647700  0.981300  0.156200  1.0  -0.1499
  C  C2060  1  0.615100  0.940100  0.138200  1.0  -0.1398
  C  C2061  1  0.643100  0.888900  0.132400  1.0  -0.1196
  C  C2062  1  0.615600  0.837500  0.119500  1.0  -0.1006
  C  C2063  1  0.605100  0.842100  0.087900  1.0  -0.1
  C  C2064  1  0.580900  0.784200  0.079500  1.0  -0.3369
  S  S2065  1  0.982900  0.748700  0.764400  1.0  -0.2504
  S  S2066  1  0.516300  0.741000  0.470130  1.0  -0.3483
  S  S2067  1  0.237970  0.016010  0.475150  1.0  -0.3196
  S  S2068  1  0.528520  0.742900  0.279430  1.0  -0.3086
  S  S2069  1  0.017100  0.251300  0.264400  1.0  -0.2476
  S  S2070  1  0.483700  0.259000  0.970130  1.0  -0.3483
  S  S2071  1  0.762030  0.983990  0.975150  1.0  -0.3193
  S  S2072  1  0.471480  0.257100  0.779430  1.0  -0.3103
  S  S2073  1  0.751300  0.482900  0.014400  1.0  -0.2472
  S  S2074  1  0.759000  0.016300  0.720130  1.0  -0.3496
  S  S2075  1  0.483990  0.737970  0.725150  1.0  -0.3209
  S  S2076  1  0.757100  0.028520  0.529430  1.0  -0.3069
  S  S2077  1  0.248700  0.517100  0.514400  1.0  -0.2481
  S  S2078  1  0.241000  0.983700  0.220130  1.0  -0.3522
  S  S2079  1  0.516010  0.262030  0.225150  1.0  -0.3178
  S  S2080  1  0.242900  0.971480  0.029430  1.0  -0.3087
  S  S2081  1  0.517100  0.248700  0.485600  1.0  -0.2481
  S  S2082  1  0.983700  0.241000  0.779870  1.0  -0.3488
  S  S2083  1  0.262030  0.516010  0.774850  1.0  -0.32
  S  S2084  1  0.971480  0.242900  0.970570  1.0  -0.3089
  S  S2085  1  0.482900  0.751300  0.985600  1.0  -0.2491
  S  S2086  1  0.016300  0.759000  0.279870  1.0  -0.3472
  S  S2087  1  0.737970  0.483990  0.274850  1.0  -0.319
  S  S2088  1  0.028520  0.757100  0.470570  1.0  -0.3101
  S  S2089  1  0.748700  0.982900  0.235600  1.0  -0.2482
  S  S2090  1  0.741000  0.516300  0.529870  1.0  -0.3514
  S  S2091  1  0.016010  0.237970  0.524850  1.0  -0.3182
  S  S2092  1  0.742900  0.528520  0.720570  1.0  -0.3089
  S  S2093  1  0.251300  0.017100  0.735600  1.0  -0.2467
  S  S2094  1  0.259000  0.483700  0.029870  1.0  -0.3492
  S  S2095  1  0.983990  0.762030  0.024850  1.0  -0.3212
  S  S2096  1  0.257100  0.471480  0.220570  1.0  -0.308
  N  N2097  1  0.184500  0.818400  0.717290  1.0  -0.3214
  N  N2098  1  0.077000  0.800000  0.748440  1.0  -0.308
  N  N2099  1  0.095000  0.911000  0.717890  1.0  -0.3219
  N  N2100  1  0.275200  0.760800  0.625130  1.0  -0.5101
  N  N2101  1  0.340900  0.835500  0.529780  1.0  -0.3317
  N  N2102  1  0.335810  0.828760  0.464920  1.0  -0.324
  N  N2103  1  0.444300  0.817700  0.495920  1.0  -0.493
  N  N2104  1  0.428500  0.929400  0.526070  1.0  -0.3159
  N  N2105  1  0.320900  0.940900  0.492480  1.0  -0.4786
  N  N2106  1  0.427400  0.920200  0.461000  1.0  -0.3167
  N  N2107  1  0.269700  0.729600  0.376600  1.0  -0.492
  N  N2108  1  0.520850  0.996900  0.614730  1.0  -0.4893
  N  N2109  1  0.340600  0.656500  0.282480  1.0  -0.3496
  N  N2110  1  0.429600  0.565000  0.282900  1.0  -0.3194
  N  N2111  1  0.450300  0.673400  0.252570  1.0  -0.4524
  N  N2112  1  0.488700  0.477800  0.375480  1.0  -0.5288
  N  N2113  1  0.815500  0.181600  0.217290  1.0  -0.321
  N  N2114  1  0.923000  0.200000  0.248440  1.0  -0.3098
  N  N2115  1  0.905000  0.089000  0.217890  1.0  -0.3212
  N  N2116  1  0.724800  0.239200  0.125130  1.0  -0.5121
  N  N2117  1  0.659100  0.164500  0.029780  1.0  -0.334
  N  N2118  1  0.664190  0.171240  0.964920  1.0  -0.3234
  N  N2119  1  0.555700  0.182300  0.995920  1.0  -0.4949
  N  N2120  1  0.571500  0.070600  0.026070  1.0  -0.3137
  N  N2121  1  0.679100  0.059100  0.992480  1.0  -0.4804
  N  N2122  1  0.572600  0.079800  0.961000  1.0  -0.3171
  N  N2123  1  0.730300  0.270400  0.876600  1.0  -0.4963
  N  N2124  1  0.479150  0.003100  0.114730  1.0  -0.4907
  N  N2125  1  0.659400  0.343500  0.782480  1.0  -0.3487
  N  N2126  1  0.570400  0.435000  0.782900  1.0  -0.3197
  N  N2127  1  0.549700  0.326600  0.752570  1.0  -0.4528
  N  N2128  1  0.511300  0.522200  0.875480  1.0  -0.5251
  N  N2129  1  0.681600  0.684500  0.967290  1.0  -0.322
  N  N2130  1  0.700000  0.577000  0.998440  1.0  -0.3053
  N  N2131  1  0.589000  0.595000  0.967890  1.0  -0.3235
  N  N2132  1  0.739200  0.775200  0.875130  1.0  -0.5125
  N  N2133  1  0.664500  0.840900  0.779780  1.0  -0.3317
  N  N2134  1  0.671240  0.835810  0.714920  1.0  -0.3238
  N  N2135  1  0.682300  0.944300  0.745920  1.0  -0.4947
  N  N2136  1  0.570600  0.928500  0.776070  1.0  -0.316
  N  N2137  1  0.559100  0.820900  0.742480  1.0  -0.4787
  N  N2138  1  0.579800  0.927400  0.711000  1.0  -0.3181
  N  N2139  1  0.770400  0.769700  0.626600  1.0  -0.4966
  N  N2140  1  0.503100  0.020850  0.864730  1.0  -0.4873
  N  N2141  1  0.843500  0.840600  0.532480  1.0  -0.3513
  N  N2142  1  0.935000  0.929600  0.532900  1.0  -0.3199
  N  N2143  1  0.826600  0.950300  0.502570  1.0  -0.4507
  N  N2144  1  0.022200  0.988700  0.625480  1.0  -0.5295
  N  N2145  1  0.318400  0.315500  0.467290  1.0  -0.3222
  N  N2146  1  0.300000  0.423000  0.498440  1.0  -0.3054
  N  N2147  1  0.411000  0.405000  0.467890  1.0  -0.3233
  N  N2148  1  0.260800  0.224800  0.375130  1.0  -0.5068
  N  N2149  1  0.335500  0.159100  0.279780  1.0  -0.3308
  N  N2150  1  0.328760  0.164190  0.214920  1.0  -0.3223
  N  N2151  1  0.317700  0.055700  0.245920  1.0  -0.4941
  N  N2152  1  0.429400  0.071500  0.276070  1.0  -0.3147
  N  N2153  1  0.440900  0.179100  0.242480  1.0  -0.479
  N  N2154  1  0.420200  0.072600  0.211000  1.0  -0.3179
  N  N2155  1  0.229600  0.230300  0.126600  1.0  -0.4949
  N  N2156  1  0.496900  0.979150  0.364730  1.0  -0.4908
  N  N2157  1  0.156500  0.159400  0.032480  1.0  -0.3518
  N  N2158  1  0.065000  0.070400  0.032900  1.0  -0.3188
  N  N2159  1  0.173400  0.049700  0.002570  1.0  -0.4514
  N  N2160  1  0.977800  0.011300  0.125480  1.0  -0.5306
  N  N2161  1  0.315500  0.318400  0.532710  1.0  -0.3205
  N  N2162  1  0.423000  0.300000  0.501560  1.0  -0.3129
  N  N2163  1  0.405000  0.411000  0.532110  1.0  -0.3229
  N  N2164  1  0.224800  0.260800  0.624870  1.0  -0.5111
  N  N2165  1  0.159100  0.335500  0.720220  1.0  -0.3324
  N  N2166  1  0.164190  0.328760  0.785080  1.0  -0.3232
  N  N2167  1  0.055700  0.317700  0.754080  1.0  -0.4939
  N  N2168  1  0.071500  0.429400  0.723930  1.0  -0.3153
  N  N2169  1  0.179100  0.440900  0.757520  1.0  -0.4785
  N  N2170  1  0.072600  0.420200  0.789000  1.0  -0.3183
  N  N2171  1  0.230300  0.229600  0.873400  1.0  -0.4962
  N  N2172  1  0.979150  0.496900  0.635270  1.0  -0.489
  N  N2173  1  0.159400  0.156500  0.967520  1.0  -0.3472
  N  N2174  1  0.070400  0.065000  0.967100  1.0  -0.3191
  N  N2175  1  0.049700  0.173400  0.997430  1.0  -0.4519
  N  N2176  1  0.011300  0.977800  0.874520  1.0  -0.5249
  N  N2177  1  0.684500  0.681600  0.032710  1.0  -0.3213
  N  N2178  1  0.577000  0.700000  0.001560  1.0  -0.3059
  N  N2179  1  0.595000  0.589000  0.032110  1.0  -0.322
  N  N2180  1  0.775200  0.739200  0.124870  1.0  -0.512
  N  N2181  1  0.840900  0.664500  0.220220  1.0  -0.3313
  N  N2182  1  0.835810  0.671240  0.285080  1.0  -0.3245
  N  N2183  1  0.944300  0.682300  0.254080  1.0  -0.494
  N  N2184  1  0.928500  0.570600  0.223930  1.0  -0.3154
  N  N2185  1  0.820900  0.559100  0.257520  1.0  -0.4817
  N  N2186  1  0.927400  0.579800  0.289000  1.0  -0.3177
  N  N2187  1  0.769700  0.770400  0.373400  1.0  -0.4921
  N  N2188  1  0.020850  0.503100  0.135270  1.0  -0.4906
  N  N2189  1  0.840600  0.843500  0.467520  1.0  -0.3478
  N  N2190  1  0.929600  0.935000  0.467100  1.0  -0.3192
  N  N2191  1  0.950300  0.826600  0.497430  1.0  -0.4528
  N  N2192  1  0.988700  0.022200  0.374520  1.0  -0.5273
  N  N2193  1  0.818400  0.184500  0.282710  1.0  -0.323
  N  N2194  1  0.800000  0.077000  0.251560  1.0  -0.306
  N  N2195  1  0.911000  0.095000  0.282110  1.0  -0.3232
  N  N2196  1  0.760800  0.275200  0.374870  1.0  -0.5076
  N  N2197  1  0.835500  0.340900  0.470220  1.0  -0.3296
  N  N2198  1  0.828760  0.335810  0.535080  1.0  -0.3231
  N  N2199  1  0.817700  0.444300  0.504080  1.0  -0.4947
  N  N2200  1  0.929400  0.428500  0.473930  1.0  -0.3155
  N  N2201  1  0.940900  0.320900  0.507520  1.0  -0.4799
  N  N2202  1  0.920200  0.427400  0.539000  1.0  -0.3195
  N  N2203  1  0.729600  0.269700  0.623400  1.0  -0.4954
  N  N2204  1  0.996900  0.520850  0.385270  1.0  -0.491
  N  N2205  1  0.656500  0.340600  0.717520  1.0  -0.3501
  N  N2206  1  0.565000  0.429600  0.717100  1.0  -0.3195
  N  N2207  1  0.673400  0.450300  0.747430  1.0  -0.4509
  N  N2208  1  0.477800  0.488700  0.624520  1.0  -0.5296
  N  N2209  1  0.181600  0.815500  0.782710  1.0  -0.3216
  N  N2210  1  0.200000  0.923000  0.751560  1.0  -0.3054
  N  N2211  1  0.089000  0.905000  0.782110  1.0  -0.3237
  N  N2212  1  0.239200  0.724800  0.874870  1.0  -0.5117
  N  N2213  1  0.164500  0.659100  0.970220  1.0  -0.3308
  N  N2214  1  0.171240  0.664190  0.035080  1.0  -0.3239
  N  N2215  1  0.182300  0.555700  0.004080  1.0  -0.4941
  N  N2216  1  0.070600  0.571500  0.973930  1.0  -0.3164
  N  N2217  1  0.059100  0.679100  0.007520  1.0  -0.4796
  N  N2218  1  0.079800  0.572600  0.039000  1.0  -0.3185
  N  N2219  1  0.270400  0.730300  0.123400  1.0  -0.4965
  N  N2220  1  0.003100  0.479150  0.885270  1.0  -0.4874
  N  N2221  1  0.343500  0.659400  0.217520  1.0  -0.35
  N  N2222  1  0.435000  0.570400  0.217100  1.0  -0.3197
  N  N2223  1  0.326600  0.549700  0.247430  1.0  -0.4506
  N  N2224  1  0.522200  0.511300  0.124520  1.0  -0.5287
  O  O2225  1  0.336800  0.412730  0.621670  1.0  -0.2656
  O  O2226  1  0.923000  0.664900  0.385110  1.0  -0.2665
  O  O2227  1  0.586700  0.343900  0.610370  1.0  -0.2452
  O  O2228  1  0.838100  0.421800  0.379170  1.0  -0.2648
  O  O2229  1  0.663200  0.587270  0.121670  1.0  -0.2641
  O  O2230  1  0.077000  0.335100  0.885110  1.0  -0.2665
  O  O2231  1  0.413300  0.656100  0.110370  1.0  -0.245
  O  O2232  1  0.161900  0.578200  0.879170  1.0  -0.2657
  O  O2233  1  0.087270  0.836800  0.871670  1.0  -0.2678
  O  O2234  1  0.835100  0.423000  0.635110  1.0  -0.267
  O  O2235  1  0.156100  0.086700  0.860370  1.0  -0.2461
  O  O2236  1  0.078200  0.338100  0.629170  1.0  -0.2644
  O  O2237  1  0.912730  0.163200  0.371670  1.0  -0.2647
  O  O2238  1  0.164900  0.577000  0.135110  1.0  -0.2667
  O  O2239  1  0.843900  0.913300  0.360370  1.0  -0.2481
  O  O2240  1  0.921800  0.661900  0.129170  1.0  -0.2637
  O  O2241  1  0.163200  0.912730  0.628330  1.0  -0.2649
  O  O2242  1  0.577000  0.164900  0.864890  1.0  -0.2669
  O  O2243  1  0.913300  0.843900  0.639630  1.0  -0.2448
  O  O2244  1  0.661900  0.921800  0.870830  1.0  -0.2638
  O  O2245  1  0.836800  0.087270  0.128330  1.0  -0.2666
  O  O2246  1  0.423000  0.835100  0.364890  1.0  -0.2686
  O  O2247  1  0.086700  0.156100  0.139630  1.0  -0.2445
  O  O2248  1  0.338100  0.078200  0.370830  1.0  -0.2653
  O  O2249  1  0.412730  0.336800  0.378330  1.0  -0.2678
  O  O2250  1  0.664900  0.923000  0.614890  1.0  -0.2678
  O  O2251  1  0.343900  0.586700  0.389630  1.0  -0.2475
  O  O2252  1  0.421800  0.838100  0.620830  1.0  -0.2627
  O  O2253  1  0.587270  0.663200  0.878330  1.0  -0.2676
  O  O2254  1  0.335100  0.077000  0.114890  1.0  -0.2684
  O  O2255  1  0.656100  0.413300  0.889630  1.0  -0.2452
  O  O2256  1  0.578200  0.161900  0.120830  1.0  -0.2639
