# generated using pymatgen
data_In40H33C30(S4N)16
_symmetry_space_group_name_H-M   'P 1'
_cell_length_a   25.59070000
_cell_length_b   42.31400000
_cell_length_c   42.31400000
_cell_angle_alpha   107.58500000
_cell_angle_beta   90.68460000
_cell_angle_gamma   90.68460000
_symmetry_Int_Tables_number   1
_chemical_formula_structural   In40H33C30(S4N)16
_chemical_formula_sum   'In160 H132 C120 S256 N64'
_cell_volume   43669.40782348
_cell_formula_units_Z   4
loop_
 _symmetry_equiv_pos_site_id
 _symmetry_equiv_pos_as_xyz
  1  'x, y, z'
loop_
 _atom_site_type_symbol
 _atom_site_label
 _atom_site_symmetry_multiplicity
 _atom_site_fract_x
 _atom_site_fract_y
 _atom_site_fract_z
 _atom_site_occupancy
 _atom_site_charge
  In  In1  1  0.954820  0.091060  0.860540  1.0  0.8647
  In  In2  1  0.949760  0.013700  0.788320  1.0  0.9102
  In  In3  1  0.896840  0.102760  0.782880  1.0  0.8846
  In  In4  1  0.052930  0.090330  0.795150  1.0  0.8769
  In  In5  1  0.948530  0.943220  0.709640  1.0  0.8194
  In  In6  1  0.893050  0.021720  0.700240  1.0  0.8784
  In  In7  1  0.851190  0.106140  0.699240  1.0  0.8803
  In  In8  1  0.049000  0.009180  0.712200  1.0  0.9117
  In  In9  1  0.995940  0.098990  0.707330  1.0  0.9186
  In  In10  1  0.137400  0.082970  0.721790  1.0  0.9008
  In  In11  1  0.449540  0.294140  0.657660  1.0  0.8744
  In  In12  1  0.394860  0.216000  0.669360  1.0  0.902
  In  In13  1  0.446440  0.222130  0.580390  1.0  0.8811
  In  In14  1  0.550290  0.230240  0.657700  1.0  0.9081
  In  In15  1  0.351780  0.131900  0.671780  1.0  0.8745
  In  In16  1  0.393050  0.133910  0.587510  1.0  0.9039
  In  In17  1  0.449780  0.144330  0.509330  1.0  0.8658
  In  In18  1  0.496210  0.141290  0.664810  1.0  0.8854
  In  In19  1  0.549800  0.148030  0.576330  1.0  0.9039
  In  In20  1  0.637680  0.158020  0.650580  1.0  0.8674
  In  In21  1  0.919960  0.686620  0.451420  1.0  0.8511
  In  In22  1  0.917240  0.741820  0.538140  1.0  0.9087
  In  In23  1  0.830310  0.655470  0.504750  1.0  0.8969
  In  In24  1  0.989730  0.651540  0.512120  1.0  0.8957
  In  In25  1  0.912780  0.788340  0.628620  1.0  0.9167
  In  In26  1  0.825780  0.713090  0.602050  1.0  0.9152
  In  In27  1  0.754520  0.630540  0.568860  1.0  0.8763
  In  In28  1  0.986400  0.708680  0.608680  1.0  0.9138
  In  In29  1  0.897030  0.622730  0.577210  1.0  0.9154
  In  In30  1  0.044330  0.624290  0.582490  1.0  0.8825
  In  In31  1  0.289650  0.173050  0.231570  1.0  0.8275
  In  In32  1  0.364030  0.145510  0.294870  1.0  0.8853
  In  In33  1  0.357510  0.091710  0.196630  1.0  0.9136
  In  In34  1  0.435330  0.180910  0.226830  1.0  0.8681
  In  In35  1  0.449410  0.113960  0.350880  1.0  0.8682
  In  In36  1  0.444270  0.059580  0.263160  1.0  0.9111
  In  In37  1  0.522840  0.149460  0.293040  1.0  0.8985
  In  In38  1  0.517030  0.094520  0.194720  1.0  0.9003
  In  In39  1  0.437600  0.015410  0.171430  1.0  0.8956
  In  In40  1  0.581550  0.178780  0.225580  1.0  0.9303
  In  In41  1  0.454820  0.860540  0.091060  1.0  0.8647
  In  In42  1  0.449760  0.788320  0.013700  1.0  0.9094
  In  In43  1  0.396840  0.782880  0.102760  1.0  0.8843
  In  In44  1  0.552930  0.795150  0.090330  1.0  0.8771
  In  In45  1  0.448530  0.709640  0.943220  1.0  0.8207
  In  In46  1  0.393050  0.700240  0.021720  1.0  0.8783
  In  In47  1  0.351190  0.699240  0.106140  1.0  0.8794
  In  In48  1  0.549000  0.712200  0.009180  1.0  0.9119
  In  In49  1  0.495940  0.707330  0.098990  1.0  0.9195
  In  In50  1  0.637400  0.721790  0.082970  1.0  0.9
  In  In51  1  0.949540  0.657660  0.294140  1.0  0.8717
  In  In52  1  0.894860  0.669360  0.216000  1.0  0.9022
  In  In53  1  0.946440  0.580390  0.222130  1.0  0.8828
  In  In54  1  0.050290  0.657700  0.230240  1.0  0.9077
  In  In55  1  0.851780  0.671780  0.131900  1.0  0.8761
  In  In56  1  0.893050  0.587510  0.133910  1.0  0.9041
  In  In57  1  0.949780  0.509330  0.144330  1.0  0.8664
  In  In58  1  0.996210  0.664810  0.141290  1.0  0.8853
  In  In59  1  0.049800  0.576330  0.148030  1.0  0.9036
  In  In60  1  0.137680  0.650580  0.158020  1.0  0.8675
  In  In61  1  0.419960  0.451420  0.686620  1.0  0.8509
  In  In62  1  0.417240  0.538140  0.741820  1.0  0.91
  In  In63  1  0.330310  0.504750  0.655470  1.0  0.8972
  In  In64  1  0.489730  0.512120  0.651540  1.0  0.8954
  In  In65  1  0.412780  0.628620  0.788340  1.0  0.9157
  In  In66  1  0.325780  0.602050  0.713090  1.0  0.9156
  In  In67  1  0.254520  0.568860  0.630540  1.0  0.8772
  In  In68  1  0.486400  0.608680  0.708680  1.0  0.9144
  In  In69  1  0.397030  0.577210  0.622730  1.0  0.9161
  In  In70  1  0.544330  0.582490  0.624290  1.0  0.8832
  In  In71  1  0.789650  0.231570  0.173050  1.0  0.8269
  In  In72  1  0.864030  0.294870  0.145510  1.0  0.8854
  In  In73  1  0.857510  0.196630  0.091710  1.0  0.9137
  In  In74  1  0.935330  0.226830  0.180910  1.0  0.8686
  In  In75  1  0.949410  0.350880  0.113960  1.0  0.8688
  In  In76  1  0.944270  0.263160  0.059580  1.0  0.9124
  In  In77  1  0.022840  0.293040  0.149460  1.0  0.899
  In  In78  1  0.017030  0.194720  0.094520  1.0  0.9001
  In  In79  1  0.937600  0.171430  0.015410  1.0  0.8964
  In  In80  1  0.081550  0.225580  0.178780  1.0  0.9303
  In  In81  1  0.545180  0.139460  0.908940  1.0  0.8655
  In  In82  1  0.550240  0.211680  0.986300  1.0  0.91
  In  In83  1  0.603160  0.217120  0.897240  1.0  0.8842
  In  In84  1  0.447070  0.204850  0.909670  1.0  0.8795
  In  In85  1  0.551470  0.290360  0.056780  1.0  0.8193
  In  In86  1  0.606950  0.299760  0.978280  1.0  0.876
  In  In87  1  0.648810  0.300760  0.893860  1.0  0.8818
  In  In88  1  0.451000  0.287800  0.990820  1.0  0.9133
  In  In89  1  0.504060  0.292670  0.901010  1.0  0.9186
  In  In90  1  0.362600  0.278210  0.917030  1.0  0.8994
  In  In91  1  0.050460  0.342340  0.705860  1.0  0.8738
  In  In92  1  0.105140  0.330640  0.784000  1.0  0.9016
  In  In93  1  0.053560  0.419610  0.777870  1.0  0.8802
  In  In94  1  0.949710  0.342300  0.769760  1.0  0.9106
  In  In95  1  0.148220  0.328220  0.868100  1.0  0.8761
  In  In96  1  0.106950  0.412490  0.866090  1.0  0.9013
  In  In97  1  0.050220  0.490670  0.855670  1.0  0.867
  In  In98  1  0.003790  0.335190  0.858710  1.0  0.8853
  In  In99  1  0.950200  0.423670  0.851970  1.0  0.9055
  In  In100  1  0.862320  0.349420  0.841980  1.0  0.8675
  In  In101  1  0.580040  0.548580  0.313380  1.0  0.8523
  In  In102  1  0.582760  0.461860  0.258180  1.0  0.9088
  In  In103  1  0.669690  0.495250  0.344530  1.0  0.8944
  In  In104  1  0.510270  0.487880  0.348460  1.0  0.8964
  In  In105  1  0.587220  0.371380  0.211660  1.0  0.9165
  In  In106  1  0.674220  0.397950  0.286910  1.0  0.9136
  In  In107  1  0.745480  0.431140  0.369460  1.0  0.8777
  In  In108  1  0.513600  0.391320  0.291320  1.0  0.9169
  In  In109  1  0.602970  0.422790  0.377270  1.0  0.9169
  In  In110  1  0.455670  0.417510  0.375710  1.0  0.8805
  In  In111  1  0.210350  0.768430  0.826950  1.0  0.8267
  In  In112  1  0.135970  0.705130  0.854490  1.0  0.886
  In  In113  1  0.142490  0.803370  0.908290  1.0  0.9114
  In  In114  1  0.064670  0.773170  0.819090  1.0  0.8685
  In  In115  1  0.050590  0.649120  0.886040  1.0  0.8667
  In  In116  1  0.055730  0.736840  0.940420  1.0  0.9119
  In  In117  1  0.977160  0.706960  0.850540  1.0  0.9018
  In  In118  1  0.982970  0.805280  0.905480  1.0  0.9014
  In  In119  1  0.062400  0.828570  0.984590  1.0  0.8956
  In  In120  1  0.918450  0.774420  0.821220  1.0  0.9302
  In  In121  1  0.045180  0.908940  0.139460  1.0  0.8657
  In  In122  1  0.050240  0.986300  0.211680  1.0  0.9093
  In  In123  1  0.103160  0.897240  0.217120  1.0  0.8842
  In  In124  1  0.947070  0.909670  0.204850  1.0  0.8795
  In  In125  1  0.051470  0.056780  0.290360  1.0  0.8202
  In  In126  1  0.106950  0.978280  0.299760  1.0  0.8759
  In  In127  1  0.148810  0.893860  0.300760  1.0  0.8803
  In  In128  1  0.951000  0.990820  0.287800  1.0  0.9134
  In  In129  1  0.004060  0.901010  0.292670  1.0  0.9195
  In  In130  1  0.862600  0.917030  0.278210  1.0  0.8987
  In  In131  1  0.550460  0.705860  0.342340  1.0  0.8734
  In  In132  1  0.605140  0.784000  0.330640  1.0  0.9015
  In  In133  1  0.553560  0.777870  0.419610  1.0  0.882
  In  In134  1  0.449710  0.769760  0.342300  1.0  0.9107
  In  In135  1  0.648220  0.868100  0.328220  1.0  0.8773
  In  In136  1  0.606950  0.866090  0.412490  1.0  0.9015
  In  In137  1  0.550220  0.855670  0.490670  1.0  0.8643
  In  In138  1  0.503790  0.858710  0.335190  1.0  0.8852
  In  In139  1  0.450200  0.851970  0.423670  1.0  0.9052
  In  In140  1  0.362320  0.841980  0.349420  1.0  0.8677
  In  In141  1  0.080040  0.313380  0.548580  1.0  0.8517
  In  In142  1  0.082760  0.258180  0.461860  1.0  0.9091
  In  In143  1  0.169690  0.344530  0.495250  1.0  0.8942
  In  In144  1  0.010270  0.348460  0.487880  1.0  0.8964
  In  In145  1  0.087220  0.211660  0.371380  1.0  0.9169
  In  In146  1  0.174220  0.286910  0.397950  1.0  0.9133
  In  In147  1  0.245480  0.369460  0.431140  1.0  0.8794
  In  In148  1  0.013600  0.291320  0.391320  1.0  0.9165
  In  In149  1  0.102970  0.377270  0.422790  1.0  0.9158
  In  In150  1  0.955670  0.375710  0.417510  1.0  0.8819
  In  In151  1  0.710350  0.826950  0.768430  1.0  0.8266
  In  In152  1  0.635970  0.854490  0.705130  1.0  0.8855
  In  In153  1  0.642490  0.908290  0.803370  1.0  0.9111
  In  In154  1  0.564670  0.819090  0.773170  1.0  0.8673
  In  In155  1  0.550590  0.886040  0.649120  1.0  0.8682
  In  In156  1  0.555730  0.940420  0.736840  1.0  0.9109
  In  In157  1  0.477160  0.850540  0.706960  1.0  0.9015
  In  In158  1  0.482970  0.905480  0.805280  1.0  0.9014
  In  In159  1  0.562400  0.984590  0.828570  1.0  0.8953
  In  In160  1  0.418450  0.821220  0.774420  1.0  0.9301
  H  H161  1  0.061700  0.552500  0.598700  1.0  -0.0348
  H  H162  1  0.637900  0.615600  0.531600  1.0  -0.0278
  H  H163  1  0.166500  0.647900  0.610100  1.0  0.0042
  H  H164  1  0.193900  0.626000  0.577000  1.0  -0.0006
  H  H165  1  0.219700  0.629300  0.612500  1.0  -0.0104
  H  H166  1  0.901600  0.884000  0.735000  1.0  -0.0319
  H  H167  1  0.877300  0.826300  0.702100  1.0  -0.0251
  H  H168  1  0.002300  0.875400  0.643800  1.0  -0.0183
  H  H169  1  0.963600  0.848600  0.619600  1.0  -0.0205
  H  H170  1  0.950100  0.887200  0.629800  1.0  -0.0166
  H  H171  1  0.336900  0.084900  0.715500  1.0  -0.0406
  H  H172  1  0.254800  0.062600  0.735000  1.0  -0.0185
  H  H173  1  0.178200  0.136700  0.687500  1.0  -0.0081
  H  H174  1  0.232900  0.154100  0.683900  1.0  -0.0079
  H  H175  1  0.212300  0.122300  0.654900  1.0  -0.0067
  H  H176  1  0.751600  0.182400  0.647200  1.0  -0.0383
  H  H177  1  0.833500  0.161300  0.658300  1.0  -0.0265
  H  H178  1  0.727300  0.104000  0.706600  1.0  -0.0184
  H  H179  1  0.676800  0.110300  0.686700  1.0  -0.015
  H  H180  1  0.718100  0.082900  0.668500  1.0  -0.0104
  H  H181  1  0.404100  0.076900  0.453300  1.0  -0.024
  H  H182  1  0.415400  0.063200  0.393000  1.0  -0.0326
  H  H183  1  0.516800  0.165900  0.443100  1.0  -0.0087
  H  H184  1  0.479200  0.170600  0.414400  1.0  0.0014
  H  H185  1  0.461100  0.182900  0.452100  1.0  -0.0064
  H  H186  1  0.917700  0.740300  0.407500  1.0  -0.0276
  H  H187  1  0.431800  0.348800  0.727200  1.0  -0.0277
  H  H188  1  0.922400  0.619000  0.349000  1.0  0.0011
  H  H189  1  0.923700  0.626900  0.388500  1.0  -0.0015
  H  H190  1  0.977100  0.625500  0.368900  1.0  -0.0083
  H  H191  1  0.383000  0.978400  0.108400  1.0  -0.0306
  H  H192  1  0.896500  0.066700  0.918700  1.0  0.0051
  H  H193  1  0.170900  0.195200  0.269400  1.0  0.0933
  H  H194  1  0.561700  0.598700  0.552500  1.0  -0.0352
  H  H195  1  0.137900  0.531600  0.615600  1.0  -0.0234
  H  H196  1  0.666500  0.610100  0.647900  1.0  0.0041
  H  H197  1  0.693900  0.577000  0.626000  1.0  0.0019
  H  H198  1  0.719700  0.612500  0.629300  1.0  -0.0101
  H  H199  1  0.401600  0.735000  0.884000  1.0  -0.0283
  H  H200  1  0.377300  0.702100  0.826300  1.0  -0.0269
  H  H201  1  0.502300  0.643800  0.875400  1.0  -0.0197
  H  H202  1  0.463600  0.619600  0.848600  1.0  -0.0196
  H  H203  1  0.450100  0.629800  0.887200  1.0  -0.0189
  H  H204  1  0.836900  0.715500  0.084900  1.0  -0.0394
  H  H205  1  0.754800  0.735000  0.062600  1.0  -0.0187
  H  H206  1  0.678200  0.687500  0.136700  1.0  -0.008
  H  H207  1  0.732900  0.683900  0.154100  1.0  -0.0078
  H  H208  1  0.712300  0.654900  0.122300  1.0  -0.0072
  H  H209  1  0.251600  0.647200  0.182400  1.0  -0.0397
  H  H210  1  0.333500  0.658300  0.161300  1.0  -0.0269
  H  H211  1  0.227300  0.706600  0.104000  1.0  -0.0186
  H  H212  1  0.176800  0.686700  0.110300  1.0  -0.0139
  H  H213  1  0.218100  0.668500  0.082900  1.0  -0.0121
  H  H214  1  0.904100  0.453300  0.076900  1.0  -0.0263
  H  H215  1  0.915400  0.393000  0.063200  1.0  -0.0341
  H  H216  1  0.016800  0.443100  0.165900  1.0  -0.0077
  H  H217  1  0.979200  0.414400  0.170600  1.0  0.0045
  H  H218  1  0.961100  0.452100  0.182900  1.0  -0.0064
  H  H219  1  0.417700  0.407500  0.740300  1.0  -0.0265
  H  H220  1  0.931800  0.727200  0.348800  1.0  -0.0271
  H  H221  1  0.422400  0.349000  0.619000  1.0  0.0025
  H  H222  1  0.423700  0.388500  0.626900  1.0  -0.0028
  H  H223  1  0.477100  0.368900  0.625500  1.0  -0.0114
  H  H224  1  0.883000  0.108400  0.978400  1.0  -0.0287
  H  H225  1  0.396500  0.918700  0.066700  1.0  0.0013
  H  H226  1  0.670900  0.269400  0.195200  1.0  0.0971
  H  H227  1  0.438300  0.401300  0.447500  1.0  -0.036
  H  H228  1  0.862100  0.468400  0.384400  1.0  -0.0262
  H  H229  1  0.333500  0.389900  0.352100  1.0  0.003
  H  H230  1  0.306100  0.423000  0.374000  1.0  -0.0007
  H  H231  1  0.280300  0.387500  0.370700  1.0  -0.0136
  H  H232  1  0.598400  0.265000  0.116000  1.0  -0.0275
  H  H233  1  0.622700  0.297900  0.173700  1.0  -0.0257
  H  H234  1  0.497700  0.356200  0.124600  1.0  -0.0211
  H  H235  1  0.536400  0.380400  0.151400  1.0  -0.0196
  H  H236  1  0.549900  0.370200  0.112800  1.0  -0.0174
  H  H237  1  0.163100  0.284500  0.915100  1.0  -0.0387
  H  H238  1  0.245200  0.265000  0.937400  1.0  -0.0179
  H  H239  1  0.321800  0.312500  0.863300  1.0  -0.0056
  H  H240  1  0.267100  0.316100  0.845900  1.0  -0.0075
  H  H241  1  0.287700  0.345100  0.877700  1.0  -0.0054
  H  H242  1  0.748400  0.352800  0.817600  1.0  -0.0388
  H  H243  1  0.666500  0.341700  0.838700  1.0  -0.0276
  H  H244  1  0.772700  0.293400  0.896000  1.0  -0.0188
  H  H245  1  0.823200  0.313300  0.889700  1.0  -0.0101
  H  H246  1  0.781900  0.331500  0.917100  1.0  -0.0085
  H  H247  1  0.095900  0.546700  0.923100  1.0  -0.0252
  H  H248  1  0.084600  0.607000  0.936800  1.0  -0.0324
  H  H249  1  0.983200  0.556900  0.834100  1.0  -0.0089
  H  H250  1  0.020800  0.585600  0.829400  1.0  0.0027
  H  H251  1  0.038900  0.547900  0.817100  1.0  -0.007
  H  H252  1  0.582300  0.592500  0.259700  1.0  -0.0288
  H  H253  1  0.068200  0.272800  0.651200  1.0  -0.0256
  H  H254  1  0.577600  0.651000  0.381000  1.0  0.0031
  H  H255  1  0.576300  0.611500  0.373100  1.0  -0.0003
  H  H256  1  0.522900  0.631100  0.374500  1.0  -0.0128
  H  H257  1  0.117000  0.891600  0.021600  1.0  -0.03
  H  H258  1  0.603500  0.081300  0.933300  1.0  0.0007
  H  H259  1  0.329100  0.730600  0.804800  1.0  0.0944
  H  H260  1  0.938300  0.447500  0.401300  1.0  -0.0355
  H  H261  1  0.362100  0.384400  0.468400  1.0  -0.0269
  H  H262  1  0.833500  0.352100  0.389900  1.0  0.0047
  H  H263  1  0.806100  0.374000  0.423000  1.0  -0.0004
  H  H264  1  0.780300  0.370700  0.387500  1.0  -0.0133
  H  H265  1  0.098400  0.116000  0.265000  1.0  -0.0307
  H  H266  1  0.122700  0.173700  0.297900  1.0  -0.0262
  H  H267  1  0.997700  0.124600  0.356200  1.0  -0.0205
  H  H268  1  0.036400  0.151400  0.380400  1.0  -0.0211
  H  H269  1  0.049900  0.112800  0.370200  1.0  -0.0152
  H  H270  1  0.663100  0.915100  0.284500  1.0  -0.0387
  H  H271  1  0.745200  0.937400  0.265000  1.0  -0.0185
  H  H272  1  0.821800  0.863300  0.312500  1.0  -0.0083
  H  H273  1  0.767100  0.845900  0.316100  1.0  -0.0064
  H  H274  1  0.787700  0.877700  0.345100  1.0  -0.0078
  H  H275  1  0.248400  0.817600  0.352800  1.0  -0.0369
  H  H276  1  0.166500  0.838700  0.341700  1.0  -0.0268
  H  H277  1  0.272700  0.896000  0.293400  1.0  -0.0194
  H  H278  1  0.323200  0.889700  0.313300  1.0  -0.01
  H  H279  1  0.281900  0.917100  0.331500  1.0  -0.0092
  H  H280  1  0.595900  0.923100  0.546700  1.0  -0.0261
  H  H281  1  0.584600  0.936800  0.607000  1.0  -0.0326
  H  H282  1  0.483200  0.834100  0.556900  1.0  -0.0096
  H  H283  1  0.520800  0.829400  0.585600  1.0  0.0024
  H  H284  1  0.538900  0.817100  0.547900  1.0  -0.0056
  H  H285  1  0.082300  0.259700  0.592500  1.0  -0.0264
  H  H286  1  0.568200  0.651200  0.272800  1.0  -0.0286
  H  H287  1  0.077600  0.381000  0.651000  1.0  0.002
  H  H288  1  0.076300  0.373100  0.611500  1.0  -0.0035
  H  H289  1  0.022900  0.374500  0.631100  1.0  -0.0103
  H  H290  1  0.617000  0.021600  0.891600  1.0  -0.0298
  H  H291  1  0.103500  0.933300  0.081300  1.0  0.0028
  H  H292  1  0.829100  0.804800  0.730600  1.0  0.0948
  C  C293  1  0.155800  0.597900  0.601700  1.0  0.071
  C  C294  1  0.095100  0.563100  0.601300  1.0  -0.0721
  C  C295  1  0.635400  0.610100  0.551700  1.0  -0.1212
  C  C296  1  0.186600  0.627900  0.600100  1.0  -0.5568
  C  C297  1  0.937500  0.866600  0.665800  1.0  0.1151
  C  C298  1  0.908600  0.874300  0.712100  1.0  -0.1094
  C  C299  1  0.896000  0.842000  0.694400  1.0  -0.1841
  C  C300  1  0.965700  0.869700  0.637500  1.0  -0.6009
  C  C301  1  0.240800  0.111100  0.694900  1.0  0.1103
  C  C302  1  0.302300  0.090400  0.711200  1.0  -0.0755
  C  C303  1  0.257500  0.078000  0.722800  1.0  -0.1148
  C  C304  1  0.213800  0.132800  0.679000  1.0  -0.5709
  C  C305  1  0.742300  0.129000  0.675000  1.0  0.1084
  C  C306  1  0.755300  0.164500  0.656300  1.0  -0.0481
  C  C307  1  0.800200  0.153800  0.662800  1.0  -0.1736
  C  C308  1  0.713900  0.104700  0.684900  1.0  -0.5988
  C  C309  1  0.456000  0.132800  0.431600  1.0  0.1573
  C  C310  1  0.419300  0.090600  0.441800  1.0  -0.2069
  C  C311  1  0.424500  0.083800  0.409000  1.0  -0.1569
  C  C312  1  0.480300  0.165800  0.435600  1.0  -0.6172
  C  C313  1  0.936500  0.667900  0.373500  1.0  0.0068
  C  C314  1  0.924400  0.718900  0.392900  1.0  -0.158
  C  C315  1  0.432000  0.360900  0.711500  1.0  -0.1265
  C  C316  1  0.940200  0.631700  0.369700  1.0  -0.5945
  C  C317  1  0.963000  0.139900  0.935500  1.0  -0.1328
  C  C318  1  0.406000  0.961800  0.111200  1.0  -0.0809
  C  C319  1  0.911000  0.088400  0.928000  1.0  -0.0873
  C  C320  1  0.219000  0.209900  0.177500  1.0  -0.1942
  C  C321  1  0.177000  0.199600  0.249000  1.0  0.1274
  C  C322  1  0.642600  0.218200  0.215400  1.0  -0.0066
  C  C323  1  0.655800  0.601700  0.597900  1.0  0.0698
  C  C324  1  0.595100  0.601300  0.563100  1.0  -0.0702
  C  C325  1  0.135400  0.551700  0.610100  1.0  -0.119
  C  C326  1  0.686600  0.600100  0.627900  1.0  -0.5601
  C  C327  1  0.437500  0.665800  0.866600  1.0  0.1164
  C  C328  1  0.408600  0.712100  0.874300  1.0  -0.1072
  C  C329  1  0.396000  0.694400  0.842000  1.0  -0.1858
  C  C330  1  0.465700  0.637500  0.869700  1.0  -0.6001
  C  C331  1  0.740800  0.694900  0.111100  1.0  0.1104
  C  C332  1  0.802300  0.711200  0.090400  1.0  -0.0744
  C  C333  1  0.757500  0.722800  0.078000  1.0  -0.1142
  C  C334  1  0.713800  0.679000  0.132800  1.0  -0.5729
  C  C335  1  0.242300  0.675000  0.129000  1.0  0.1098
  C  C336  1  0.255300  0.656300  0.164500  1.0  -0.0433
  C  C337  1  0.300200  0.662800  0.153800  1.0  -0.1728
  C  C338  1  0.213900  0.684900  0.104700  1.0  -0.5983
  C  C339  1  0.956000  0.431600  0.132800  1.0  0.1563
  C  C340  1  0.919300  0.441800  0.090600  1.0  -0.2081
  C  C341  1  0.924500  0.409000  0.083800  1.0  -0.1584
  C  C342  1  0.980300  0.435600  0.165800  1.0  -0.6192
  C  C343  1  0.436500  0.373500  0.667900  1.0  0.0061
  C  C344  1  0.424400  0.392900  0.718900  1.0  -0.1587
  C  C345  1  0.932000  0.711500  0.360900  1.0  -0.1282
  C  C346  1  0.440200  0.369700  0.631700  1.0  -0.5944
  C  C347  1  0.463000  0.935500  0.139900  1.0  -0.1382
  C  C348  1  0.906000  0.111200  0.961800  1.0  -0.0765
  C  C349  1  0.411000  0.928000  0.088400  1.0  -0.0878
  C  C350  1  0.719000  0.177500  0.209900  1.0  -0.1958
  C  C351  1  0.677000  0.249000  0.199600  1.0  0.1282
  C  C352  1  0.142600  0.215400  0.218200  1.0  -0.0053
  C  C353  1  0.344200  0.398300  0.402100  1.0  0.0705
  C  C354  1  0.404900  0.398700  0.436900  1.0  -0.0677
  C  C355  1  0.864600  0.448300  0.389900  1.0  -0.1209
  C  C356  1  0.313400  0.399900  0.372100  1.0  -0.5586
  C  C357  1  0.562500  0.334200  0.133400  1.0  0.118
  C  C358  1  0.591400  0.287900  0.125700  1.0  -0.1079
  C  C359  1  0.604000  0.305600  0.158000  1.0  -0.1826
  C  C360  1  0.534300  0.362500  0.130300  1.0  -0.599
  C  C361  1  0.259200  0.305100  0.888900  1.0  0.1092
  C  C362  1  0.197700  0.288800  0.909600  1.0  -0.0755
  C  C363  1  0.242500  0.277200  0.922000  1.0  -0.1138
  C  C364  1  0.286200  0.321000  0.867200  1.0  -0.5728
  C  C365  1  0.757700  0.325000  0.871000  1.0  0.1082
  C  C366  1  0.744700  0.343700  0.835500  1.0  -0.0444
  C  C367  1  0.699800  0.337200  0.846200  1.0  -0.1747
  C  C368  1  0.786100  0.315100  0.895300  1.0  -0.5996
  C  C369  1  0.044000  0.568400  0.867200  1.0  0.157
  C  C370  1  0.080700  0.558200  0.909400  1.0  -0.2065
  C  C371  1  0.075500  0.591000  0.916200  1.0  -0.1581
  C  C372  1  0.019700  0.564400  0.834200  1.0  -0.6156
  C  C373  1  0.563500  0.626500  0.332100  1.0  0.0069
  C  C374  1  0.575600  0.607100  0.281100  1.0  -0.1567
  C  C375  1  0.068000  0.288500  0.639100  1.0  -0.126
  C  C376  1  0.559800  0.630300  0.368300  1.0  -0.5963
  C  C377  1  0.537000  0.064500  0.860100  1.0  -0.1352
  C  C378  1  0.094000  0.888800  0.038200  1.0  -0.0792
  C  C379  1  0.589000  0.072000  0.911600  1.0  -0.0842
  C  C380  1  0.281000  0.822500  0.790100  1.0  -0.1941
  C  C381  1  0.323000  0.751000  0.800400  1.0  0.1297
  C  C382  1  0.857400  0.784600  0.781800  1.0  -0.0073
  C  C383  1  0.844200  0.402100  0.398300  1.0  0.0703
  C  C384  1  0.904900  0.436900  0.398700  1.0  -0.0713
  C  C385  1  0.364600  0.389900  0.448300  1.0  -0.1208
  C  C386  1  0.813400  0.372100  0.399900  1.0  -0.557
  C  C387  1  0.062500  0.133400  0.334200  1.0  0.1167
  C  C388  1  0.091400  0.125700  0.287900  1.0  -0.1084
  C  C389  1  0.104000  0.158000  0.305600  1.0  -0.1862
  C  C390  1  0.034300  0.130300  0.362500  1.0  -0.6015
  C  C391  1  0.759200  0.888900  0.305100  1.0  0.109
  C  C392  1  0.697700  0.909600  0.288800  1.0  -0.0731
  C  C393  1  0.742500  0.922000  0.277200  1.0  -0.1137
  C  C394  1  0.786200  0.867200  0.321000  1.0  -0.5712
  C  C395  1  0.257700  0.871000  0.325000  1.0  0.1093
  C  C396  1  0.244700  0.835500  0.343700  1.0  -0.0432
  C  C397  1  0.199800  0.846200  0.337200  1.0  -0.1756
  C  C398  1  0.286100  0.895300  0.315100  1.0  -0.5991
  C  C399  1  0.544000  0.867200  0.568400  1.0  0.1566
  C  C400  1  0.580700  0.909400  0.558200  1.0  -0.2086
  C  C401  1  0.575500  0.916200  0.591000  1.0  -0.1566
  C  C402  1  0.519700  0.834200  0.564400  1.0  -0.6167
  C  C403  1  0.063500  0.332100  0.626500  1.0  0.0059
  C  C404  1  0.075600  0.281100  0.607100  1.0  -0.1561
  C  C405  1  0.568000  0.639100  0.288500  1.0  -0.1296
  C  C406  1  0.059800  0.368300  0.630300  1.0  -0.5933
  C  C407  1  0.037000  0.860100  0.064500  1.0  -0.1396
  C  C408  1  0.594000  0.038200  0.888800  1.0  -0.0811
  C  C409  1  0.089000  0.911600  0.072000  1.0  -0.0841
  C  C410  1  0.781000  0.790100  0.822500  1.0  -0.1958
  C  C411  1  0.823000  0.800400  0.751000  1.0  0.1295
  C  C412  1  0.357400  0.781800  0.784600  1.0  -0.0073
  S  S413  1  0.939300  0.031930  0.847610  1.0  -0.3537
  S  S414  1  0.887200  0.121820  0.842120  1.0  -0.3414
  S  S415  1  0.938000  0.954390  0.768790  1.0  -0.3348
  S  S416  1  0.883400  0.041240  0.761900  1.0  -0.3986
  S  S417  1  0.039100  0.028690  0.773650  1.0  -0.3789
  S  S418  1  0.986700  0.117910  0.768690  1.0  -0.3936
  S  S419  1  0.880800  0.962750  0.679830  1.0  -0.3696
  S  S420  1  0.829300  0.048000  0.674480  1.0  -0.3681
  S  S421  1  0.036600  0.949870  0.691950  1.0  -0.3635
  S  S422  1  0.983000  0.037300  0.686220  1.0  -0.3883
  S  S423  1  0.135600  0.023560  0.698340  1.0  -0.3412
  S  S424  1  0.381800  0.274860  0.687280  1.0  -0.3574
  S  S425  1  0.432900  0.281420  0.598780  1.0  -0.3296
  S  S426  1  0.538600  0.289580  0.676040  1.0  -0.3651
  S  S427  1  0.381100  0.195370  0.607670  1.0  -0.4019
  S  S428  1  0.435300  0.203210  0.520830  1.0  -0.3571
  S  S429  1  0.484800  0.202580  0.684460  1.0  -0.3961
  S  S430  1  0.536200  0.209350  0.596010  1.0  -0.3853
  S  S431  1  0.637700  0.218210  0.671470  1.0  -0.3423
  S  S432  1  0.329200  0.108230  0.613490  1.0  -0.3395
  S  S433  1  0.381800  0.114270  0.528150  1.0  -0.3479
  S  S434  1  0.432600  0.113970  0.689970  1.0  -0.341
  S  S435  1  0.483600  0.120960  0.603120  1.0  -0.3854
  S  S436  1  0.582900  0.128970  0.679470  1.0  -0.353
  S  S437  1  0.636900  0.135390  0.590730  1.0  -0.363
  S  S438  1  0.921700  0.745100  0.482300  1.0  -0.3203
  S  S439  1  0.835200  0.659270  0.449250  1.0  -0.3841
  S  S440  1  0.995500  0.654880  0.456440  1.0  -0.3779
  S  S441  1  0.918200  0.797610  0.575210  1.0  -0.3584
  S  S442  1  0.832800  0.713600  0.543340  1.0  -0.4053
  S  S443  1  0.752900  0.625360  0.510260  1.0  -0.343
  S  S444  1  0.992400  0.709950  0.550230  1.0  -0.4044
  S  S445  1  0.905290  0.623740  0.518380  1.0  -0.3387
  S  S446  1  0.061000  0.620800  0.525200  1.0  -0.3533
  S  S447  1  0.828400  0.768220  0.640680  1.0  -0.3511
  S  S448  1  0.745800  0.685330  0.607830  1.0  -0.3361
  S  S449  1  0.901100  0.680990  0.614190  1.0  -0.3806
  S  S450  1  0.817100  0.595690  0.585190  1.0  -0.3611
  S  S451  1  0.058200  0.678690  0.621970  1.0  -0.3787
  S  S452  1  0.968600  0.593440  0.591780  1.0  -0.333
  S  S453  1  0.367200  0.141100  0.349940  1.0  -0.3549
  S  S454  1  0.363100  0.088310  0.254670  1.0  -0.3802
  S  S455  1  0.440600  0.178310  0.285150  1.0  -0.4064
  S  S456  1  0.521300  0.091910  0.252790  1.0  -0.3832
  S  S457  1  0.082800  0.113340  0.694080  1.0  -0.3445
  S  S458  1  0.139500  0.104230  0.781530  1.0  -0.3521
  S  S459  1  0.043600  0.108430  0.854430  1.0  -0.351
  S  S460  1  0.932200  0.125260  0.681820  1.0  -0.3447
  S  S461  1  0.832300  0.128590  0.757470  1.0  -0.3679
  S  S462  1  0.987900  0.763990  0.646150  1.0  -0.3773
  S  S463  1  0.333100  0.190250  0.696270  1.0  -0.3569
  S  S464  1  0.539000  0.128850  0.516770  1.0  -0.3688
  S  S465  1  0.278300  0.119430  0.190250  1.0  -0.3648
  S  S466  1  0.356100  0.208270  0.219290  1.0  -0.3335
  S  S467  1  0.284600  0.173580  0.288800  1.0  -0.372
  S  S468  1  0.356500  0.036830  0.157730  1.0  -0.3461
  S  S469  1  0.435600  0.123330  0.186850  1.0  -0.3915
  S  S470  1  0.508900  0.210540  0.214880  1.0  -0.3351
  S  S471  1  0.441200  0.004450  0.224430  1.0  -0.3262
  S  S472  1  0.516400  0.039550  0.156470  1.0  -0.3502
  S  S473  1  0.593200  0.124870  0.185290  1.0  -0.3363
  S  S474  1  0.450300  0.055890  0.318730  1.0  -0.3445
  S  S475  1  0.597600  0.180480  0.282720  1.0  -0.3399
  S  S476  1  0.527200  0.145910  0.348510  1.0  -0.3507
  S  S477  1  0.439300  0.847610  0.031930  1.0  -0.3522
  S  S478  1  0.387200  0.842120  0.121820  1.0  -0.3409
  S  S479  1  0.438000  0.768790  0.954390  1.0  -0.336
  S  S480  1  0.383400  0.761900  0.041240  1.0  -0.3986
  S  S481  1  0.539100  0.773650  0.028690  1.0  -0.3782
  S  S482  1  0.486700  0.768690  0.117910  1.0  -0.3917
  S  S483  1  0.380800  0.679830  0.962750  1.0  -0.3693
  S  S484  1  0.329300  0.674480  0.048000  1.0  -0.3697
  S  S485  1  0.536600  0.691950  0.949870  1.0  -0.3633
  S  S486  1  0.483000  0.686220  0.037300  1.0  -0.3833
  S  S487  1  0.635600  0.698340  0.023560  1.0  -0.3407
  S  S488  1  0.881800  0.687280  0.274860  1.0  -0.3581
  S  S489  1  0.932900  0.598780  0.281420  1.0  -0.3315
  S  S490  1  0.038600  0.676040  0.289580  1.0  -0.365
  S  S491  1  0.881100  0.607670  0.195370  1.0  -0.4017
  S  S492  1  0.935300  0.520830  0.203210  1.0  -0.358
  S  S493  1  0.984800  0.684460  0.202580  1.0  -0.3976
  S  S494  1  0.036200  0.596010  0.209350  1.0  -0.3858
  S  S495  1  0.137700  0.671470  0.218210  1.0  -0.3415
  S  S496  1  0.829200  0.613490  0.108230  1.0  -0.3411
  S  S497  1  0.881800  0.528150  0.114270  1.0  -0.3472
  S  S498  1  0.932600  0.689970  0.113970  1.0  -0.341
  S  S499  1  0.983600  0.603120  0.120960  1.0  -0.3855
  S  S500  1  0.082900  0.679470  0.128970  1.0  -0.352
  S  S501  1  0.136900  0.590730  0.135390  1.0  -0.3631
  S  S502  1  0.421700  0.482300  0.745100  1.0  -0.3182
  S  S503  1  0.335200  0.449250  0.659270  1.0  -0.384
  S  S504  1  0.495500  0.456440  0.654880  1.0  -0.3857
  S  S505  1  0.418200  0.575210  0.797610  1.0  -0.3583
  S  S506  1  0.332800  0.543340  0.713600  1.0  -0.4045
  S  S507  1  0.252900  0.510260  0.625360  1.0  -0.3433
  S  S508  1  0.492400  0.550230  0.709950  1.0  -0.4048
  S  S509  1  0.405290  0.518380  0.623740  1.0  -0.3389
  S  S510  1  0.561000  0.525200  0.620800  1.0  -0.3532
  S  S511  1  0.328400  0.640680  0.768220  1.0  -0.3519
  S  S512  1  0.245800  0.607830  0.685330  1.0  -0.3352
  S  S513  1  0.401100  0.614190  0.680990  1.0  -0.3813
  S  S514  1  0.317100  0.585190  0.595690  1.0  -0.3607
  S  S515  1  0.558200  0.621970  0.678690  1.0  -0.3786
  S  S516  1  0.468600  0.591780  0.593440  1.0  -0.3315
  S  S517  1  0.867200  0.349940  0.141100  1.0  -0.3551
  S  S518  1  0.863100  0.254670  0.088310  1.0  -0.38
  S  S519  1  0.940600  0.285150  0.178310  1.0  -0.4051
  S  S520  1  0.021300  0.252790  0.091910  1.0  -0.3823
  S  S521  1  0.582800  0.694080  0.113340  1.0  -0.3423
  S  S522  1  0.639500  0.781530  0.104230  1.0  -0.3527
  S  S523  1  0.543600  0.854430  0.108430  1.0  -0.3462
  S  S524  1  0.432200  0.681820  0.125260  1.0  -0.3444
  S  S525  1  0.332300  0.757470  0.128590  1.0  -0.3675
  S  S526  1  0.487900  0.646150  0.763990  1.0  -0.3776
  S  S527  1  0.833100  0.696270  0.190250  1.0  -0.3564
  S  S528  1  0.039000  0.516770  0.128850  1.0  -0.3678
  S  S529  1  0.778300  0.190250  0.119430  1.0  -0.3639
  S  S530  1  0.856100  0.219290  0.208270  1.0  -0.3336
  S  S531  1  0.784600  0.288800  0.173580  1.0  -0.3724
  S  S532  1  0.856500  0.157730  0.036830  1.0  -0.3468
  S  S533  1  0.935600  0.186850  0.123330  1.0  -0.3911
  S  S534  1  0.008900  0.214880  0.210540  1.0  -0.3343
  S  S535  1  0.941200  0.224430  0.004450  1.0  -0.3268
  S  S536  1  0.016400  0.156470  0.039550  1.0  -0.3493
  S  S537  1  0.093200  0.185290  0.124870  1.0  -0.3366
  S  S538  1  0.950300  0.318730  0.055890  1.0  -0.3438
  S  S539  1  0.097600  0.282720  0.180480  1.0  -0.339
  S  S540  1  0.027200  0.348510  0.145910  1.0  -0.3514
  S  S541  1  0.560700  0.152390  0.968070  1.0  -0.352
  S  S542  1  0.612800  0.157880  0.878180  1.0  -0.3409
  S  S543  1  0.562000  0.231210  0.045610  1.0  -0.3356
  S  S544  1  0.616600  0.238100  0.958760  1.0  -0.3983
  S  S545  1  0.460900  0.226350  0.971310  1.0  -0.3776
  S  S546  1  0.513300  0.231310  0.882090  1.0  -0.392
  S  S547  1  0.619200  0.320170  0.037250  1.0  -0.3691
  S  S548  1  0.670700  0.325520  0.952000  1.0  -0.3679
  S  S549  1  0.463400  0.308050  0.050130  1.0  -0.3608
  S  S550  1  0.517000  0.313780  0.962700  1.0  -0.3839
  S  S551  1  0.364400  0.301660  0.976440  1.0  -0.3383
  S  S552  1  0.118200  0.312720  0.725140  1.0  -0.3572
  S  S553  1  0.067100  0.401220  0.718580  1.0  -0.3299
  S  S554  1  0.961400  0.323960  0.710420  1.0  -0.3653
  S  S555  1  0.118900  0.392330  0.804630  1.0  -0.4012
  S  S556  1  0.064700  0.479170  0.796790  1.0  -0.3592
  S  S557  1  0.015200  0.315540  0.797420  1.0  -0.3962
  S  S558  1  0.963800  0.403990  0.790650  1.0  -0.3851
  S  S559  1  0.862300  0.328530  0.781790  1.0  -0.3433
  S  S560  1  0.170800  0.386510  0.891770  1.0  -0.3389
  S  S561  1  0.118200  0.471850  0.885730  1.0  -0.3481
  S  S562  1  0.067400  0.310030  0.886030  1.0  -0.3416
  S  S563  1  0.016400  0.396880  0.879040  1.0  -0.3846
  S  S564  1  0.917100  0.320530  0.871030  1.0  -0.3532
  S  S565  1  0.863100  0.409270  0.864610  1.0  -0.3624
  S  S566  1  0.578300  0.517700  0.254900  1.0  -0.3192
  S  S567  1  0.664800  0.550750  0.340730  1.0  -0.385
  S  S568  1  0.504500  0.543560  0.345120  1.0  -0.3852
  S  S569  1  0.581800  0.424790  0.202390  1.0  -0.358
  S  S570  1  0.667200  0.456660  0.286400  1.0  -0.4049
  S  S571  1  0.747100  0.489740  0.374640  1.0  -0.3435
  S  S572  1  0.507600  0.449770  0.290050  1.0  -0.4045
  S  S573  1  0.594710  0.481620  0.376260  1.0  -0.34
  S  S574  1  0.439000  0.474800  0.379200  1.0  -0.3524
  S  S575  1  0.671600  0.359320  0.231780  1.0  -0.3516
  S  S576  1  0.754200  0.392170  0.314670  1.0  -0.3356
  S  S577  1  0.598900  0.385810  0.319010  1.0  -0.3811
  S  S578  1  0.682900  0.414810  0.404310  1.0  -0.3615
  S  S579  1  0.441800  0.378030  0.321310  1.0  -0.3799
  S  S580  1  0.531400  0.408220  0.406560  1.0  -0.3306
  S  S581  1  0.132800  0.650060  0.858900  1.0  -0.3553
  S  S582  1  0.136900  0.745330  0.911690  1.0  -0.3806
  S  S583  1  0.059400  0.714850  0.821690  1.0  -0.4055
  S  S584  1  0.978700  0.747210  0.908090  1.0  -0.3824
  S  S585  1  0.417200  0.305920  0.886660  1.0  -0.3442
  S  S586  1  0.360500  0.218470  0.895770  1.0  -0.3547
  S  S587  1  0.456400  0.145570  0.891570  1.0  -0.3462
  S  S588  1  0.567800  0.318180  0.874740  1.0  -0.345
  S  S589  1  0.667700  0.242530  0.871410  1.0  -0.3702
  S  S590  1  0.512100  0.353850  0.236010  1.0  -0.3761
  S  S591  1  0.166900  0.303730  0.809750  1.0  -0.3568
  S  S592  1  0.961000  0.483230  0.871150  1.0  -0.3673
  S  S593  1  0.221700  0.809750  0.880570  1.0  -0.3648
  S  S594  1  0.143900  0.780710  0.791730  1.0  -0.3325
  S  S595  1  0.215400  0.711200  0.826420  1.0  -0.3717
  S  S596  1  0.143500  0.842270  0.963170  1.0  -0.3458
  S  S597  1  0.064400  0.813150  0.876670  1.0  -0.3933
  S  S598  1  0.991100  0.785120  0.789460  1.0  -0.3339
  S  S599  1  0.058800  0.775570  0.995550  1.0  -0.3263
  S  S600  1  0.983600  0.843530  0.960450  1.0  -0.3492
  S  S601  1  0.906800  0.814710  0.875130  1.0  -0.3364
  S  S602  1  0.049700  0.681270  0.944110  1.0  -0.3441
  S  S603  1  0.902400  0.717280  0.819520  1.0  -0.3389
  S  S604  1  0.972800  0.651490  0.854090  1.0  -0.3501
  S  S605  1  0.060700  0.968070  0.152390  1.0  -0.3536
  S  S606  1  0.112800  0.878180  0.157880  1.0  -0.3404
  S  S607  1  0.062000  0.045610  0.231210  1.0  -0.3347
  S  S608  1  0.116600  0.958760  0.238100  1.0  -0.3982
  S  S609  1  0.960900  0.971310  0.226350  1.0  -0.3787
  S  S610  1  0.013300  0.882090  0.231310  1.0  -0.3935
  S  S611  1  0.119200  0.037250  0.320170  1.0  -0.3698
  S  S612  1  0.170700  0.952000  0.325520  1.0  -0.3664
  S  S613  1  0.963400  0.050130  0.308050  1.0  -0.3609
  S  S614  1  0.017000  0.962700  0.313780  1.0  -0.3875
  S  S615  1  0.864400  0.976440  0.301660  1.0  -0.3408
  S  S616  1  0.618200  0.725140  0.312720  1.0  -0.3569
  S  S617  1  0.567100  0.718580  0.401220  1.0  -0.329
  S  S618  1  0.461400  0.710420  0.323960  1.0  -0.3655
  S  S619  1  0.618900  0.804630  0.392330  1.0  -0.4013
  S  S620  1  0.564700  0.796790  0.479170  1.0  -0.3589
  S  S621  1  0.515200  0.797420  0.315540  1.0  -0.3963
  S  S622  1  0.463800  0.790650  0.403990  1.0  -0.3856
  S  S623  1  0.362300  0.781790  0.328530  1.0  -0.3445
  S  S624  1  0.670800  0.891770  0.386510  1.0  -0.34
  S  S625  1  0.618200  0.885730  0.471850  1.0  -0.349
  S  S626  1  0.567400  0.886030  0.310030  1.0  -0.3419
  S  S627  1  0.516400  0.879040  0.396880  1.0  -0.3862
  S  S628  1  0.417100  0.871030  0.320530  1.0  -0.3518
  S  S629  1  0.363100  0.864610  0.409270  1.0  -0.3629
  S  S630  1  0.078300  0.254900  0.517700  1.0  -0.3202
  S  S631  1  0.164800  0.340730  0.550750  1.0  -0.3845
  S  S632  1  0.004500  0.345120  0.543560  1.0  -0.3765
  S  S633  1  0.081800  0.202390  0.424790  1.0  -0.3565
  S  S634  1  0.167200  0.286400  0.456660  1.0  -0.4052
  S  S635  1  0.247100  0.374640  0.489740  1.0  -0.3425
  S  S636  1  0.007600  0.290050  0.449770  1.0  -0.4048
  S  S637  1  0.094710  0.376260  0.481620  1.0  -0.3402
  S  S638  1  0.939000  0.379200  0.474800  1.0  -0.3535
  S  S639  1  0.171600  0.231780  0.359320  1.0  -0.3513
  S  S640  1  0.254200  0.314670  0.392170  1.0  -0.3364
  S  S641  1  0.098900  0.319010  0.385810  1.0  -0.3811
  S  S642  1  0.182900  0.404310  0.414810  1.0  -0.3626
  S  S643  1  0.941800  0.321310  0.378030  1.0  -0.3803
  S  S644  1  0.031400  0.406560  0.408220  1.0  -0.3321
  S  S645  1  0.632800  0.858900  0.650060  1.0  -0.3552
  S  S646  1  0.636900  0.911690  0.745330  1.0  -0.3821
  S  S647  1  0.559400  0.821690  0.714850  1.0  -0.4053
  S  S648  1  0.478700  0.908090  0.747210  1.0  -0.3831
  S  S649  1  0.917200  0.886660  0.305920  1.0  -0.3425
  S  S650  1  0.860500  0.895770  0.218470  1.0  -0.3546
  S  S651  1  0.956400  0.891570  0.145570  1.0  -0.3511
  S  S652  1  0.067800  0.874740  0.318180  1.0  -0.3454
  S  S653  1  0.167700  0.871410  0.242530  1.0  -0.3689
  S  S654  1  0.012100  0.236010  0.353850  1.0  -0.3768
  S  S655  1  0.666900  0.809750  0.303730  1.0  -0.3573
  S  S656  1  0.461000  0.871150  0.483230  1.0  -0.3691
  S  S657  1  0.721700  0.880570  0.809750  1.0  -0.3654
  S  S658  1  0.643900  0.791730  0.780710  1.0  -0.3326
  S  S659  1  0.715400  0.826420  0.711200  1.0  -0.3724
  S  S660  1  0.643500  0.963170  0.842270  1.0  -0.3457
  S  S661  1  0.564400  0.876670  0.813150  1.0  -0.3919
  S  S662  1  0.491100  0.789460  0.785120  1.0  -0.3344
  S  S663  1  0.558800  0.995550  0.775570  1.0  -0.3261
  S  S664  1  0.483600  0.960450  0.843530  1.0  -0.3507
  S  S665  1  0.406800  0.875130  0.814710  1.0  -0.3359
  S  S666  1  0.549700  0.944110  0.681270  1.0  -0.3449
  S  S667  1  0.402400  0.819520  0.717280  1.0  -0.3396
  S  S668  1  0.472800  0.854090  0.651490  1.0  -0.3493
  N  N669  1  0.104900  0.592900  0.595900  1.0  -0.5382
  N  N670  1  0.675400  0.610500  0.573300  1.0  -0.4598
  N  N671  1  0.914700  0.837600  0.665400  1.0  -0.4746
  N  N672  1  0.931800  0.890000  0.693400  1.0  -0.527
  N  N673  1  0.220700  0.093800  0.712200  1.0  -0.4065
  N  N674  1  0.292000  0.109100  0.694700  1.0  -0.4218
  N  N675  1  0.791300  0.131100  0.676700  1.0  -0.4138
  N  N676  1  0.718800  0.149400  0.662800  1.0  -0.3136
  N  N677  1  0.441000  0.122600  0.455600  1.0  -0.4378
  N  N678  1  0.445200  0.111000  0.402000  1.0  -0.5512
  N  N679  1  0.438600  0.347700  0.678900  1.0  -0.5582
  N  N680  1  0.928000  0.691100  0.401700  1.0  -0.5519
  N  N681  1  0.940700  0.106400  0.914400  1.0  -0.4043
  N  N682  1  0.437100  0.965000  0.135400  1.0  -0.4779
  N  N683  1  0.215600  0.198000  0.227400  1.0  -0.4589
  N  N684  1  0.181000  0.205900  0.204700  1.0  -0.1784
  N  N685  1  0.604900  0.595900  0.592900  1.0  -0.5399
  N  N686  1  0.175400  0.573300  0.610500  1.0  -0.4607
  N  N687  1  0.414700  0.665400  0.837600  1.0  -0.4703
  N  N688  1  0.431800  0.693400  0.890000  1.0  -0.5244
  N  N689  1  0.720700  0.712200  0.093800  1.0  -0.4067
  N  N690  1  0.792000  0.694700  0.109100  1.0  -0.4211
  N  N691  1  0.291300  0.676700  0.131100  1.0  -0.4147
  N  N692  1  0.218800  0.662800  0.149400  1.0  -0.3139
  N  N693  1  0.941000  0.455600  0.122600  1.0  -0.4426
  N  N694  1  0.945200  0.402000  0.111000  1.0  -0.5512
  N  N695  1  0.938600  0.678900  0.347700  1.0  -0.5596
  N  N696  1  0.428000  0.401700  0.691100  1.0  -0.5504
  N  N697  1  0.440700  0.914400  0.106400  1.0  -0.4014
  N  N698  1  0.937100  0.135400  0.965000  1.0  -0.4761
  N  N699  1  0.715600  0.227400  0.198000  1.0  -0.4593
  N  N700  1  0.681000  0.204700  0.205900  1.0  -0.1753
  N  N701  1  0.395100  0.404100  0.407100  1.0  -0.5399
  N  N702  1  0.824600  0.426700  0.389500  1.0  -0.4618
  N  N703  1  0.585300  0.334600  0.162400  1.0  -0.47
  N  N704  1  0.568200  0.306600  0.110000  1.0  -0.5283
  N  N705  1  0.279300  0.287800  0.906200  1.0  -0.406
  N  N706  1  0.208000  0.305300  0.890900  1.0  -0.4207
  N  N707  1  0.708700  0.323300  0.868900  1.0  -0.4166
  N  N708  1  0.781200  0.337200  0.850600  1.0  -0.3075
  N  N709  1  0.059000  0.544400  0.877400  1.0  -0.4429
  N  N710  1  0.054800  0.598000  0.889000  1.0  -0.5493
  N  N711  1  0.061400  0.321100  0.652300  1.0  -0.5554
  N  N712  1  0.572000  0.598300  0.308900  1.0  -0.5517
  N  N713  1  0.559300  0.085600  0.893600  1.0  -0.4032
  N  N714  1  0.062900  0.864600  0.035000  1.0  -0.4736
  N  N715  1  0.284400  0.772600  0.802000  1.0  -0.4596
  N  N716  1  0.319000  0.795300  0.794100  1.0  -0.1804
  N  N717  1  0.895100  0.407100  0.404100  1.0  -0.5387
  N  N718  1  0.324600  0.389500  0.426700  1.0  -0.4602
  N  N719  1  0.085300  0.162400  0.334600  1.0  -0.4721
  N  N720  1  0.068200  0.110000  0.306600  1.0  -0.5286
  N  N721  1  0.779300  0.906200  0.287800  1.0  -0.4089
  N  N722  1  0.708000  0.890900  0.305300  1.0  -0.4208
  N  N723  1  0.208700  0.868900  0.323300  1.0  -0.4131
  N  N724  1  0.281200  0.850600  0.337200  1.0  -0.3114
  N  N725  1  0.559000  0.877400  0.544400  1.0  -0.4434
  N  N726  1  0.554800  0.889000  0.598000  1.0  -0.5475
  N  N727  1  0.561400  0.652300  0.321100  1.0  -0.558
  N  N728  1  0.072000  0.308900  0.598300  1.0  -0.5495
  N  N729  1  0.059300  0.893600  0.085600  1.0  -0.404
  N  N730  1  0.562900  0.035000  0.864600  1.0  -0.4772
  N  N731  1  0.784400  0.802000  0.772600  1.0  -0.4581
  N  N732  1  0.819000  0.794100  0.795300  1.0  -0.1753
