# generated using pymatgen
data_Ni3P2H42W18C39(N3O25)2
_symmetry_space_group_name_H-M   'P 1'
_cell_length_a   29.55700000
_cell_length_b   29.55700000
_cell_length_c   29.55700000
_cell_angle_alpha   90.00000000
_cell_angle_beta   90.00000000
_cell_angle_gamma   90.00000000
_symmetry_Int_Tables_number   1
_chemical_formula_structural   Ni3P2H42W18C39(N3O25)2
_chemical_formula_sum   'Ni24 P16 H336 W144 C312 N48 O400'
_cell_volume   25821.47547169
_cell_formula_units_Z   8
loop_
 _symmetry_equiv_pos_site_id
 _symmetry_equiv_pos_as_xyz
  1  'x, y, z'
loop_
 _atom_site_type_symbol
 _atom_site_label
 _atom_site_symmetry_multiplicity
 _atom_site_fract_x
 _atom_site_fract_y
 _atom_site_fract_z
 _atom_site_occupancy
 _atom_site_charge
  Ni  Ni1  1  0.724100  0.000000  0.710430  1.0  0.7345
  Ni  Ni2  1  0.275900  0.000000  0.710430  1.0  0.7346
  Ni  Ni3  1  0.275900  0.000000  0.289570  1.0  0.7417
  Ni  Ni4  1  0.724100  0.000000  0.289570  1.0  0.7409
  Ni  Ni5  1  0.710430  0.724100  0.000000  1.0  0.7436
  Ni  Ni6  1  0.710430  0.275900  0.000000  1.0  0.7427
  Ni  Ni7  1  0.289570  0.275900  0.000000  1.0  0.7414
  Ni  Ni8  1  0.289570  0.724100  0.000000  1.0  0.7414
  Ni  Ni9  1  0.000000  0.710430  0.724100  1.0  0.7495
  Ni  Ni10  1  0.000000  0.710430  0.275900  1.0  0.7497
  Ni  Ni11  1  0.000000  0.289570  0.275900  1.0  0.7467
  Ni  Ni12  1  0.000000  0.289570  0.724100  1.0  0.7461
  Ni  Ni13  1  0.500000  0.224100  0.789570  1.0  0.7415
  Ni  Ni14  1  0.500000  0.775900  0.789570  1.0  0.7408
  Ni  Ni15  1  0.500000  0.775900  0.210430  1.0  0.7345
  Ni  Ni16  1  0.500000  0.224100  0.210430  1.0  0.7348
  Ni  Ni17  1  0.224100  0.210430  0.500000  1.0  0.7492
  Ni  Ni18  1  0.775900  0.210430  0.500000  1.0  0.7503
  Ni  Ni19  1  0.775900  0.789570  0.500000  1.0  0.7463
  Ni  Ni20  1  0.224100  0.789570  0.500000  1.0  0.7466
  Ni  Ni21  1  0.210430  0.500000  0.775900  1.0  0.7431
  Ni  Ni22  1  0.210430  0.500000  0.224100  1.0  0.743
  Ni  Ni23  1  0.789570  0.500000  0.224100  1.0  0.7417
  Ni  Ni24  1  0.789570  0.500000  0.775900  1.0  0.7416
  P  P25  1  0.789240  0.789240  0.789240  1.0  1.6022
  P  P26  1  0.210760  0.210760  0.789240  1.0  1.6036
  P  P27  1  0.210760  0.789240  0.210760  1.0  1.6022
  P  P28  1  0.789240  0.210760  0.210760  1.0  1.6028
  P  P29  1  0.289240  0.289240  0.710760  1.0  1.6018
  P  P30  1  0.710760  0.710760  0.710760  1.0  1.6032
  P  P31  1  0.289240  0.710760  0.289240  1.0  1.6032
  P  P32  1  0.710760  0.289240  0.289240  1.0  1.6026
  P  P33  1  0.210760  0.210760  0.210760  1.0  1.6032
  P  P34  1  0.789240  0.789240  0.210760  1.0  1.6018
  P  P35  1  0.789240  0.210760  0.789240  1.0  1.6032
  P  P36  1  0.210760  0.789240  0.789240  1.0  1.6026
  P  P37  1  0.710760  0.710760  0.289240  1.0  1.6036
  P  P38  1  0.289240  0.289240  0.289240  1.0  1.6022
  P  P39  1  0.710760  0.289240  0.710760  1.0  1.6022
  P  P40  1  0.289240  0.710760  0.710760  1.0  1.6028
  H  H41  1  0.657600  0.934200  0.670800  1.0  0.0889
  H  H42  1  0.595000  0.931300  0.624100  1.0  0.1301
  H  H43  1  0.543500  0.972900  0.569900  1.0  0.0925
  H  H44  1  0.768600  0.932800  0.645800  1.0  0.0851
  H  H45  1  0.821600  0.931700  0.588600  1.0  0.1069
  H  H46  1  0.880800  0.027300  0.543400  1.0  0.0743
  H  H47  1  0.342400  0.065800  0.670800  1.0  0.0893
  H  H48  1  0.405000  0.068700  0.624100  1.0  0.1304
  H  H49  1  0.456500  0.027100  0.569900  1.0  0.0925
  H  H50  1  0.231400  0.067200  0.645800  1.0  0.0851
  H  H51  1  0.178400  0.068300  0.588600  1.0  0.1071
  H  H52  1  0.119200  0.972700  0.543400  1.0  0.0761
  H  H53  1  0.342400  0.934200  0.329200  1.0  0.0885
  H  H54  1  0.405000  0.931300  0.375900  1.0  0.1303
  H  H55  1  0.456500  0.972900  0.430100  1.0  0.0929
  H  H56  1  0.231400  0.932800  0.354200  1.0  0.085
  H  H57  1  0.178400  0.931700  0.411400  1.0  0.107
  H  H58  1  0.119200  0.027300  0.456600  1.0  0.0756
  H  H59  1  0.657600  0.065800  0.329200  1.0  0.0889
  H  H60  1  0.595000  0.068700  0.375900  1.0  0.1302
  H  H61  1  0.543500  0.027100  0.430100  1.0  0.0918
  H  H62  1  0.768600  0.067200  0.354200  1.0  0.0851
  H  H63  1  0.821600  0.068300  0.411400  1.0  0.1073
  H  H64  1  0.880800  0.972700  0.456600  1.0  0.0759
  H  H65  1  0.670800  0.657600  0.934200  1.0  0.0904
  H  H66  1  0.624100  0.595000  0.931300  1.0  0.1313
  H  H67  1  0.569900  0.543500  0.972900  1.0  0.0926
  H  H68  1  0.645800  0.768600  0.932800  1.0  0.0856
  H  H69  1  0.588600  0.821600  0.931700  1.0  0.1055
  H  H70  1  0.543400  0.880800  0.027300  1.0  0.0766
  H  H71  1  0.670800  0.342400  0.065800  1.0  0.0896
  H  H72  1  0.624100  0.405000  0.068700  1.0  0.1305
  H  H73  1  0.569900  0.456500  0.027100  1.0  0.0933
  H  H74  1  0.645800  0.231400  0.067200  1.0  0.0862
  H  H75  1  0.588600  0.178400  0.068300  1.0  0.1046
  H  H76  1  0.543400  0.119200  0.972700  1.0  0.0768
  H  H77  1  0.329200  0.342400  0.934200  1.0  0.0902
  H  H78  1  0.375900  0.405000  0.931300  1.0  0.1314
  H  H79  1  0.430100  0.456500  0.972900  1.0  0.0926
  H  H80  1  0.354200  0.231400  0.932800  1.0  0.0854
  H  H81  1  0.411400  0.178400  0.931700  1.0  0.1056
  H  H82  1  0.456600  0.119200  0.027300  1.0  0.0778
  H  H83  1  0.329200  0.657600  0.065800  1.0  0.0895
  H  H84  1  0.375900  0.595000  0.068700  1.0  0.131
  H  H85  1  0.430100  0.543500  0.027100  1.0  0.0927
  H  H86  1  0.354200  0.768600  0.067200  1.0  0.0862
  H  H87  1  0.411400  0.821600  0.068300  1.0  0.1052
  H  H88  1  0.456600  0.880800  0.972700  1.0  0.0774
  H  H89  1  0.934200  0.670800  0.657600  1.0  0.0878
  H  H90  1  0.931300  0.624100  0.595000  1.0  0.1302
  H  H91  1  0.972900  0.569900  0.543500  1.0  0.0938
  H  H92  1  0.932800  0.645800  0.768600  1.0  0.0842
  H  H93  1  0.931700  0.588600  0.821600  1.0  0.1046
  H  H94  1  0.027300  0.543400  0.880800  1.0  0.0751
  H  H95  1  0.065800  0.670800  0.342400  1.0  0.089
  H  H96  1  0.068700  0.624100  0.405000  1.0  0.1301
  H  H97  1  0.027100  0.569900  0.456500  1.0  0.0933
  H  H98  1  0.067200  0.645800  0.231400  1.0  0.0839
  H  H99  1  0.068300  0.588600  0.178400  1.0  0.1052
  H  H100  1  0.972700  0.543400  0.119200  1.0  0.0752
  H  H101  1  0.934200  0.329200  0.342400  1.0  0.0878
  H  H102  1  0.931300  0.375900  0.405000  1.0  0.1306
  H  H103  1  0.972900  0.430100  0.456500  1.0  0.0942
  H  H104  1  0.932800  0.354200  0.231400  1.0  0.084
  H  H105  1  0.931700  0.411400  0.178400  1.0  0.1053
  H  H106  1  0.027300  0.456600  0.119200  1.0  0.0744
  H  H107  1  0.065800  0.329200  0.657600  1.0  0.0876
  H  H108  1  0.068700  0.375900  0.595000  1.0  0.1306
  H  H109  1  0.027100  0.430100  0.543500  1.0  0.0928
  H  H110  1  0.067200  0.354200  0.768600  1.0  0.0843
  H  H111  1  0.068300  0.411400  0.821600  1.0  0.106
  H  H112  1  0.972700  0.456600  0.880800  1.0  0.0747
  H  H113  1  0.434200  0.157600  0.829200  1.0  0.0876
  H  H114  1  0.431300  0.095000  0.875900  1.0  0.1306
  H  H115  1  0.472900  0.043500  0.930100  1.0  0.0941
  H  H116  1  0.432800  0.268600  0.854200  1.0  0.085
  H  H117  1  0.431700  0.321600  0.911400  1.0  0.1072
  H  H118  1  0.527300  0.380800  0.956600  1.0  0.0749
  H  H119  1  0.565800  0.842400  0.829200  1.0  0.0882
  H  H120  1  0.568700  0.905000  0.875900  1.0  0.1307
  H  H121  1  0.527100  0.956500  0.930100  1.0  0.0924
  H  H122  1  0.567200  0.731400  0.854200  1.0  0.085
  H  H123  1  0.568300  0.678400  0.911400  1.0  0.1079
  H  H124  1  0.472700  0.619200  0.956600  1.0  0.0751
  H  H125  1  0.434200  0.842400  0.170800  1.0  0.0878
  H  H126  1  0.431300  0.905000  0.124100  1.0  0.1311
  H  H127  1  0.472900  0.956500  0.069900  1.0  0.0947
  H  H128  1  0.432800  0.731400  0.145800  1.0  0.0847
  H  H129  1  0.431700  0.678400  0.088600  1.0  0.1073
  H  H130  1  0.527300  0.619200  0.043400  1.0  0.075
  H  H131  1  0.565800  0.157600  0.170800  1.0  0.0887
  H  H132  1  0.568700  0.095000  0.124100  1.0  0.131
  H  H133  1  0.527100  0.043500  0.069900  1.0  0.0932
  H  H134  1  0.567200  0.268600  0.145800  1.0  0.0849
  H  H135  1  0.568300  0.321600  0.088600  1.0  0.1076
  H  H136  1  0.472700  0.380800  0.043400  1.0  0.0743
  H  H137  1  0.157600  0.170800  0.565800  1.0  0.09
  H  H138  1  0.095000  0.124100  0.568700  1.0  0.1308
  H  H139  1  0.043500  0.069900  0.527100  1.0  0.0933
  H  H140  1  0.268600  0.145800  0.567200  1.0  0.0859
  H  H141  1  0.321600  0.088600  0.568300  1.0  0.1042
  H  H142  1  0.380800  0.043400  0.472700  1.0  0.076
  H  H143  1  0.842400  0.170800  0.434200  1.0  0.0906
  H  H144  1  0.905000  0.124100  0.431300  1.0  0.1315
  H  H145  1  0.956500  0.069900  0.472900  1.0  0.0926
  H  H146  1  0.731400  0.145800  0.432800  1.0  0.0853
  H  H147  1  0.678400  0.088600  0.431700  1.0  0.1045
  H  H148  1  0.619200  0.043400  0.527300  1.0  0.0757
  H  H149  1  0.842400  0.829200  0.565800  1.0  0.0898
  H  H150  1  0.905000  0.875900  0.568700  1.0  0.1302
  H  H151  1  0.956500  0.930100  0.527100  1.0  0.0923
  H  H152  1  0.731400  0.854200  0.567200  1.0  0.0865
  H  H153  1  0.678400  0.911400  0.568300  1.0  0.1045
  H  H154  1  0.619200  0.956600  0.472700  1.0  0.0754
  H  H155  1  0.157600  0.829200  0.434200  1.0  0.091
  H  H156  1  0.095000  0.875900  0.431300  1.0  0.131
  H  H157  1  0.043500  0.930100  0.472900  1.0  0.0923
  H  H158  1  0.268600  0.854200  0.432800  1.0  0.0852
  H  H159  1  0.321600  0.911400  0.431700  1.0  0.1052
  H  H160  1  0.380800  0.956600  0.527300  1.0  0.075
  H  H161  1  0.170800  0.434200  0.842400  1.0  0.0886
  H  H162  1  0.124100  0.431300  0.905000  1.0  0.1303
  H  H163  1  0.069900  0.472900  0.956500  1.0  0.0942
  H  H164  1  0.145800  0.432800  0.731400  1.0  0.0843
  H  H165  1  0.088600  0.431700  0.678400  1.0  0.1048
  H  H166  1  0.043400  0.527300  0.619200  1.0  0.0763
  H  H167  1  0.170800  0.565800  0.157600  1.0  0.0883
  H  H168  1  0.124100  0.568700  0.095000  1.0  0.131
  H  H169  1  0.069900  0.527100  0.043500  1.0  0.0936
  H  H170  1  0.145800  0.567200  0.268600  1.0  0.0845
  H  H171  1  0.088600  0.568300  0.321600  1.0  0.1047
  H  H172  1  0.043400  0.472700  0.380800  1.0  0.0776
  H  H173  1  0.829200  0.434200  0.157600  1.0  0.0878
  H  H174  1  0.875900  0.431300  0.095000  1.0  0.1309
  H  H175  1  0.930100  0.472900  0.043500  1.0  0.0932
  H  H176  1  0.854200  0.432800  0.268600  1.0  0.0842
  H  H177  1  0.911400  0.431700  0.321600  1.0  0.1051
  H  H178  1  0.956600  0.527300  0.380800  1.0  0.0771
  H  H179  1  0.829200  0.565800  0.842400  1.0  0.0888
  H  H180  1  0.875900  0.568700  0.905000  1.0  0.1307
  H  H181  1  0.930100  0.527100  0.956500  1.0  0.0925
  H  H182  1  0.854200  0.567200  0.731400  1.0  0.0844
  H  H183  1  0.911400  0.568300  0.678400  1.0  0.1055
  H  H184  1  0.956600  0.472700  0.619200  1.0  0.0773
  H  H185  1  0.342400  0.065800  0.329200  1.0  0.0888
  H  H186  1  0.405000  0.068700  0.375900  1.0  0.13
  H  H187  1  0.456500  0.027100  0.430100  1.0  0.0918
  H  H188  1  0.231400  0.067200  0.354200  1.0  0.0853
  H  H189  1  0.178400  0.068300  0.411400  1.0  0.1072
  H  H190  1  0.119200  0.972700  0.456600  1.0  0.0758
  H  H191  1  0.657600  0.934200  0.329200  1.0  0.0887
  H  H192  1  0.595000  0.931300  0.375900  1.0  0.1301
  H  H193  1  0.543500  0.972900  0.430100  1.0  0.0928
  H  H194  1  0.768600  0.932800  0.354200  1.0  0.0848
  H  H195  1  0.821600  0.931700  0.411400  1.0  0.1071
  H  H196  1  0.880800  0.027300  0.456600  1.0  0.075
  H  H197  1  0.657600  0.065800  0.670800  1.0  0.0891
  H  H198  1  0.595000  0.068700  0.624100  1.0  0.1304
  H  H199  1  0.543500  0.027100  0.569900  1.0  0.0925
  H  H200  1  0.768600  0.067200  0.645800  1.0  0.0848
  H  H201  1  0.821600  0.068300  0.588600  1.0  0.1068
  H  H202  1  0.880800  0.972700  0.543400  1.0  0.0756
  H  H203  1  0.342400  0.934200  0.670800  1.0  0.0889
  H  H204  1  0.405000  0.931300  0.624100  1.0  0.1306
  H  H205  1  0.456500  0.972900  0.569900  1.0  0.0928
  H  H206  1  0.231400  0.932800  0.645800  1.0  0.085
  H  H207  1  0.178400  0.931700  0.588600  1.0  0.1071
  H  H208  1  0.119200  0.027300  0.543400  1.0  0.0754
  H  H209  1  0.329200  0.342400  0.065800  1.0  0.0896
  H  H210  1  0.375900  0.405000  0.068700  1.0  0.1311
  H  H211  1  0.430100  0.456500  0.027100  1.0  0.0925
  H  H212  1  0.354200  0.231400  0.067200  1.0  0.086
  H  H213  1  0.411400  0.178400  0.068300  1.0  0.1053
  H  H214  1  0.456600  0.119200  0.972700  1.0  0.0774
  H  H215  1  0.329200  0.657600  0.934200  1.0  0.0903
  H  H216  1  0.375900  0.595000  0.931300  1.0  0.1315
  H  H217  1  0.430100  0.543500  0.972900  1.0  0.0923
  H  H218  1  0.354200  0.768600  0.932800  1.0  0.0853
  H  H219  1  0.411400  0.821600  0.931700  1.0  0.1055
  H  H220  1  0.456600  0.880800  0.027300  1.0  0.0772
  H  H221  1  0.670800  0.657600  0.065800  1.0  0.0897
  H  H222  1  0.624100  0.595000  0.068700  1.0  0.1303
  H  H223  1  0.569900  0.543500  0.027100  1.0  0.0933
  H  H224  1  0.645800  0.768600  0.067200  1.0  0.0858
  H  H225  1  0.588600  0.821600  0.068300  1.0  0.1048
  H  H226  1  0.543400  0.880800  0.972700  1.0  0.0769
  H  H227  1  0.670800  0.342400  0.934200  1.0  0.0905
  H  H228  1  0.624100  0.405000  0.931300  1.0  0.1313
  H  H229  1  0.569900  0.456500  0.972900  1.0  0.0931
  H  H230  1  0.645800  0.231400  0.932800  1.0  0.0851
  H  H231  1  0.588600  0.178400  0.931700  1.0  0.1054
  H  H232  1  0.543400  0.119200  0.027300  1.0  0.0768
  H  H233  1  0.065800  0.329200  0.342400  1.0  0.0883
  H  H234  1  0.068700  0.375900  0.405000  1.0  0.1301
  H  H235  1  0.027100  0.430100  0.456500  1.0  0.0927
  H  H236  1  0.067200  0.354200  0.231400  1.0  0.0838
  H  H237  1  0.068300  0.411400  0.178400  1.0  0.1057
  H  H238  1  0.972700  0.456600  0.119200  1.0  0.0747
  H  H239  1  0.934200  0.329200  0.657600  1.0  0.0876
  H  H240  1  0.931300  0.375900  0.595000  1.0  0.1306
  H  H241  1  0.972900  0.430100  0.543500  1.0  0.094
  H  H242  1  0.932800  0.354200  0.768600  1.0  0.0838
  H  H243  1  0.931700  0.411400  0.821600  1.0  0.1052
  H  H244  1  0.027300  0.456600  0.880800  1.0  0.0752
  H  H245  1  0.065800  0.670800  0.657600  1.0  0.0883
  H  H246  1  0.068700  0.624100  0.595000  1.0  0.1306
  H  H247  1  0.027100  0.569900  0.543500  1.0  0.0932
  H  H248  1  0.067200  0.645800  0.768600  1.0  0.0841
  H  H249  1  0.068300  0.588600  0.821600  1.0  0.1054
  H  H250  1  0.972700  0.543400  0.880800  1.0  0.0745
  H  H251  1  0.934200  0.670800  0.342400  1.0  0.0881
  H  H252  1  0.931300  0.624100  0.405000  1.0  0.1302
  H  H253  1  0.972900  0.569900  0.456500  1.0  0.0941
  H  H254  1  0.932800  0.645800  0.231400  1.0  0.0835
  H  H255  1  0.931700  0.588600  0.178400  1.0  0.1049
  H  H256  1  0.027300  0.543400  0.119200  1.0  0.0749
  H  H257  1  0.565800  0.842400  0.170800  1.0  0.0887
  H  H258  1  0.568700  0.905000  0.124100  1.0  0.1311
  H  H259  1  0.527100  0.956500  0.069900  1.0  0.0936
  H  H260  1  0.567200  0.731400  0.145800  1.0  0.0849
  H  H261  1  0.568300  0.678400  0.088600  1.0  0.1077
  H  H262  1  0.472700  0.619200  0.043400  1.0  0.0751
  H  H263  1  0.434200  0.157600  0.170800  1.0  0.0877
  H  H264  1  0.431300  0.095000  0.124100  1.0  0.131
  H  H265  1  0.472900  0.043500  0.069900  1.0  0.0943
  H  H266  1  0.432800  0.268600  0.145800  1.0  0.0846
  H  H267  1  0.431700  0.321600  0.088600  1.0  0.1074
  H  H268  1  0.527300  0.380800  0.043400  1.0  0.0747
  H  H269  1  0.565800  0.157600  0.829200  1.0  0.0882
  H  H270  1  0.568700  0.095000  0.875900  1.0  0.1303
  H  H271  1  0.527100  0.043500  0.930100  1.0  0.0923
  H  H272  1  0.567200  0.268600  0.854200  1.0  0.0849
  H  H273  1  0.568300  0.321600  0.911400  1.0  0.1078
  H  H274  1  0.472700  0.380800  0.956600  1.0  0.0752
  H  H275  1  0.434200  0.842400  0.829200  1.0  0.0878
  H  H276  1  0.431300  0.905000  0.875900  1.0  0.1308
  H  H277  1  0.472900  0.956500  0.930100  1.0  0.094
  H  H278  1  0.432800  0.731400  0.854200  1.0  0.0845
  H  H279  1  0.431700  0.678400  0.911400  1.0  0.1071
  H  H280  1  0.527300  0.619200  0.956600  1.0  0.0748
  H  H281  1  0.842400  0.829200  0.434200  1.0  0.0906
  H  H282  1  0.905000  0.875900  0.431300  1.0  0.1315
  H  H283  1  0.956500  0.930100  0.472900  1.0  0.0923
  H  H284  1  0.731400  0.854200  0.432800  1.0  0.0852
  H  H285  1  0.678400  0.911400  0.431700  1.0  0.1051
  H  H286  1  0.619200  0.956600  0.527300  1.0  0.0756
  H  H287  1  0.157600  0.829200  0.565800  1.0  0.0899
  H  H288  1  0.095000  0.875900  0.568700  1.0  0.1311
  H  H289  1  0.043500  0.930100  0.527100  1.0  0.0926
  H  H290  1  0.268600  0.854200  0.567200  1.0  0.0858
  H  H291  1  0.321600  0.911400  0.568300  1.0  0.1046
  H  H292  1  0.380800  0.956600  0.472700  1.0  0.0754
  H  H293  1  0.157600  0.170800  0.434200  1.0  0.0906
  H  H294  1  0.095000  0.124100  0.431300  1.0  0.131
  H  H295  1  0.043500  0.069900  0.472900  1.0  0.0923
  H  H296  1  0.268600  0.145800  0.432800  1.0  0.0851
  H  H297  1  0.321600  0.088600  0.431700  1.0  0.1044
  H  H298  1  0.380800  0.043400  0.527300  1.0  0.0754
  H  H299  1  0.842400  0.170800  0.565800  1.0  0.0903
  H  H300  1  0.905000  0.124100  0.568700  1.0  0.1301
  H  H301  1  0.956500  0.069900  0.527100  1.0  0.0932
  H  H302  1  0.731400  0.145800  0.567200  1.0  0.0857
  H  H303  1  0.678400  0.088600  0.568300  1.0  0.1044
  H  H304  1  0.619200  0.043400  0.472700  1.0  0.0758
  H  H305  1  0.829200  0.565800  0.157600  1.0  0.0884
  H  H306  1  0.875900  0.568700  0.095000  1.0  0.1314
  H  H307  1  0.930100  0.527100  0.043500  1.0  0.0925
  H  H308  1  0.854200  0.567200  0.268600  1.0  0.0844
  H  H309  1  0.911400  0.568300  0.321600  1.0  0.1051
  H  H310  1  0.956600  0.472700  0.380800  1.0  0.0782
  H  H311  1  0.829200  0.434200  0.842400  1.0  0.0885
  H  H312  1  0.875900  0.431300  0.905000  1.0  0.1305
  H  H313  1  0.930100  0.472900  0.956500  1.0  0.0933
  H  H314  1  0.854200  0.432800  0.731400  1.0  0.0838
  H  H315  1  0.911400  0.431700  0.678400  1.0  0.1051
  H  H316  1  0.956600  0.527300  0.619200  1.0  0.0771
  H  H317  1  0.170800  0.565800  0.842400  1.0  0.0888
  H  H318  1  0.124100  0.568700  0.905000  1.0  0.1302
  H  H319  1  0.069900  0.527100  0.956500  1.0  0.0939
  H  H320  1  0.145800  0.567200  0.731400  1.0  0.0841
  H  H321  1  0.088600  0.568300  0.678400  1.0  0.1053
  H  H322  1  0.043400  0.472700  0.619200  1.0  0.0771
  H  H323  1  0.170800  0.434200  0.157600  1.0  0.0877
  H  H324  1  0.124100  0.431300  0.095000  1.0  0.1307
  H  H325  1  0.069900  0.472900  0.043500  1.0  0.0939
  H  H326  1  0.145800  0.432800  0.268600  1.0  0.0842
  H  H327  1  0.088600  0.431700  0.321600  1.0  0.1047
  H  H328  1  0.043400  0.527300  0.380800  1.0  0.0764
  H  H329  1  0.500000  0.972900  0.638700  1.0  0.1019
  H  H330  1  0.500000  0.027100  0.638700  1.0  0.1012
  H  H331  1  0.500000  0.972900  0.361300  1.0  0.1009
  H  H332  1  0.500000  0.027100  0.361300  1.0  0.101
  H  H333  1  0.638700  0.500000  0.972900  1.0  0.1004
  H  H334  1  0.638700  0.500000  0.027100  1.0  0.0999
  H  H335  1  0.361300  0.500000  0.972900  1.0  0.1005
  H  H336  1  0.361300  0.500000  0.027100  1.0  0.1011
  H  H337  1  0.972900  0.638700  0.500000  1.0  0.1014
  H  H338  1  0.027100  0.638700  0.500000  1.0  0.101
  H  H339  1  0.972900  0.361300  0.500000  1.0  0.1008
  H  H340  1  0.027100  0.361300  0.500000  1.0  0.1007
  H  H341  1  0.472900  0.000000  0.861300  1.0  0.101
  H  H342  1  0.527100  0.000000  0.861300  1.0  0.1009
  H  H343  1  0.472900  0.000000  0.138700  1.0  0.101
  H  H344  1  0.527100  0.000000  0.138700  1.0  0.0994
  H  H345  1  0.000000  0.138700  0.527100  1.0  0.0999
  H  H346  1  0.000000  0.138700  0.472900  1.0  0.0995
  H  H347  1  0.000000  0.861300  0.527100  1.0  0.1002
  H  H348  1  0.000000  0.861300  0.472900  1.0  0.0993
  H  H349  1  0.138700  0.472900  0.000000  1.0  0.1023
  H  H350  1  0.138700  0.527100  0.000000  1.0  0.1021
  H  H351  1  0.861300  0.472900  0.000000  1.0  0.1026
  H  H352  1  0.861300  0.527100  0.000000  1.0  0.1026
  H  H353  1  0.812800  0.027100  0.500000  1.0  0.082
  H  H354  1  0.187200  0.972900  0.500000  1.0  0.0821
  H  H355  1  0.187200  0.027100  0.500000  1.0  0.0821
  H  H356  1  0.812800  0.972900  0.500000  1.0  0.0818
  H  H357  1  0.500000  0.812800  0.027100  1.0  0.0825
  H  H358  1  0.500000  0.187200  0.972900  1.0  0.0822
  H  H359  1  0.500000  0.187200  0.027100  1.0  0.0816
  H  H360  1  0.500000  0.812800  0.972900  1.0  0.0821
  H  H361  1  0.027100  0.500000  0.812800  1.0  0.0823
  H  H362  1  0.972900  0.500000  0.187200  1.0  0.0801
  H  H363  1  0.027100  0.500000  0.187200  1.0  0.0815
  H  H364  1  0.972900  0.500000  0.812800  1.0  0.0807
  H  H365  1  0.527100  0.312800  0.000000  1.0  0.0826
  H  H366  1  0.472900  0.687200  0.000000  1.0  0.0815
  H  H367  1  0.527100  0.687200  0.000000  1.0  0.083
  H  H368  1  0.472900  0.312800  0.000000  1.0  0.0814
  H  H369  1  0.312800  0.000000  0.472900  1.0  0.0803
  H  H370  1  0.687200  0.000000  0.527100  1.0  0.0809
  H  H371  1  0.687200  0.000000  0.472900  1.0  0.0811
  H  H372  1  0.312800  0.000000  0.527100  1.0  0.0814
  H  H373  1  0.000000  0.527100  0.687200  1.0  0.0816
  H  H374  1  0.000000  0.472900  0.312800  1.0  0.0825
  H  H375  1  0.000000  0.527100  0.312800  1.0  0.0826
  H  H376  1  0.000000  0.472900  0.687200  1.0  0.0826
  W  W377  1  0.690270  0.838910  0.834190  1.0  1.2953
  W  W378  1  0.735840  0.880810  0.740190  1.0  2.3907
  W  W379  1  0.845010  0.892710  0.800200  1.0  1.4687
  W  W380  1  0.309730  0.161090  0.834190  1.0  1.2951
  W  W381  1  0.264160  0.119190  0.740190  1.0  2.3912
  W  W382  1  0.154990  0.107290  0.800200  1.0  1.4666
  W  W383  1  0.309730  0.838910  0.165810  1.0  1.2968
  W  W384  1  0.264160  0.880810  0.259810  1.0  2.3893
  W  W385  1  0.154990  0.892710  0.199800  1.0  1.4698
  W  W386  1  0.690270  0.161090  0.165810  1.0  1.2943
  W  W387  1  0.735840  0.119190  0.259810  1.0  2.3902
  W  W388  1  0.845010  0.107290  0.199800  1.0  1.4652
  W  W389  1  0.834190  0.690270  0.838910  1.0  1.2891
  W  W390  1  0.740190  0.735840  0.880810  1.0  2.3859
  W  W391  1  0.800200  0.845010  0.892710  1.0  1.457
  W  W392  1  0.834190  0.309730  0.161090  1.0  1.285
  W  W393  1  0.740190  0.264160  0.119190  1.0  2.3855
  W  W394  1  0.800200  0.154990  0.107290  1.0  1.4523
  W  W395  1  0.165810  0.309730  0.838910  1.0  1.2843
  W  W396  1  0.259810  0.264160  0.880810  1.0  2.3867
  W  W397  1  0.199800  0.154990  0.892710  1.0  1.4527
  W  W398  1  0.165810  0.690270  0.161090  1.0  1.2866
  W  W399  1  0.259810  0.735840  0.119190  1.0  2.3871
  W  W400  1  0.199800  0.845010  0.107290  1.0  1.4511
  W  W401  1  0.838910  0.834190  0.690270  1.0  1.2908
  W  W402  1  0.880810  0.740190  0.735840  1.0  2.3897
  W  W403  1  0.892710  0.800200  0.845010  1.0  1.4552
  W  W404  1  0.161090  0.834190  0.309730  1.0  1.2891
  W  W405  1  0.119190  0.740190  0.264160  1.0  2.3889
  W  W406  1  0.107290  0.800200  0.154990  1.0  1.4552
  W  W407  1  0.838910  0.165810  0.309730  1.0  1.2896
  W  W408  1  0.880810  0.259810  0.264160  1.0  2.3912
  W  W409  1  0.892710  0.199800  0.154990  1.0  1.4544
  W  W410  1  0.161090  0.165810  0.690270  1.0  1.2884
  W  W411  1  0.119190  0.259810  0.735840  1.0  2.3893
  W  W412  1  0.107290  0.199800  0.845010  1.0  1.456
  W  W413  1  0.338910  0.190270  0.665810  1.0  1.2922
  W  W414  1  0.380810  0.235840  0.759810  1.0  2.3899
  W  W415  1  0.392710  0.345010  0.699800  1.0  1.4637
  W  W416  1  0.661090  0.809730  0.665810  1.0  1.2942
  W  W417  1  0.619190  0.764160  0.759810  1.0  2.3888
  W  W418  1  0.607290  0.654990  0.699800  1.0  1.4604
  W  W419  1  0.338910  0.809730  0.334190  1.0  1.2926
  W  W420  1  0.380810  0.764160  0.240190  1.0  2.3916
  W  W421  1  0.392710  0.654990  0.300200  1.0  1.4581
  W  W422  1  0.661090  0.190270  0.334190  1.0  1.2939
  W  W423  1  0.619190  0.235840  0.240190  1.0  2.3905
  W  W424  1  0.607290  0.345010  0.300200  1.0  1.4617
  W  W425  1  0.190270  0.334190  0.661090  1.0  1.2881
  W  W426  1  0.235840  0.240190  0.619190  1.0  2.3858
  W  W427  1  0.345010  0.300200  0.607290  1.0  1.4478
  W  W428  1  0.809730  0.334190  0.338910  1.0  1.288
  W  W429  1  0.764160  0.240190  0.380810  1.0  2.3851
  W  W430  1  0.654990  0.300200  0.392710  1.0  1.4534
  W  W431  1  0.809730  0.665810  0.661090  1.0  1.2833
  W  W432  1  0.764160  0.759810  0.619190  1.0  2.3859
  W  W433  1  0.654990  0.699800  0.607290  1.0  1.4517
  W  W434  1  0.190270  0.665810  0.338910  1.0  1.2867
  W  W435  1  0.235840  0.759810  0.380810  1.0  2.3865
  W  W436  1  0.345010  0.699800  0.392710  1.0  1.4516
  W  W437  1  0.334190  0.338910  0.809730  1.0  1.2944
  W  W438  1  0.240190  0.380810  0.764160  1.0  2.39
  W  W439  1  0.300200  0.392710  0.654990  1.0  1.4651
  W  W440  1  0.334190  0.661090  0.190270  1.0  1.2916
  W  W441  1  0.240190  0.619190  0.235840  1.0  2.3903
  W  W442  1  0.300200  0.607290  0.345010  1.0  1.463
  W  W443  1  0.665810  0.338910  0.190270  1.0  1.2942
  W  W444  1  0.759810  0.380810  0.235840  1.0  2.3897
  W  W445  1  0.699800  0.392710  0.345010  1.0  1.4646
  W  W446  1  0.665810  0.661090  0.809730  1.0  1.294
  W  W447  1  0.759810  0.619190  0.764160  1.0  2.3918
  W  W448  1  0.699800  0.607290  0.654990  1.0  1.4627
  W  W449  1  0.309730  0.161090  0.165810  1.0  1.2936
  W  W450  1  0.264160  0.119190  0.259810  1.0  2.3903
  W  W451  1  0.154990  0.107290  0.199800  1.0  1.4672
  W  W452  1  0.690270  0.838910  0.165810  1.0  1.2967
  W  W453  1  0.735840  0.880810  0.259810  1.0  2.3894
  W  W454  1  0.845010  0.892710  0.199800  1.0  1.4688
  W  W455  1  0.690270  0.161090  0.834190  1.0  1.2952
  W  W456  1  0.735840  0.119190  0.740190  1.0  2.3914
  W  W457  1  0.845010  0.107290  0.800200  1.0  1.4652
  W  W458  1  0.309730  0.838910  0.834190  1.0  1.2957
  W  W459  1  0.264160  0.880810  0.740190  1.0  2.3904
  W  W460  1  0.154990  0.892710  0.800200  1.0  1.4697
  W  W461  1  0.165810  0.309730  0.161090  1.0  1.2875
  W  W462  1  0.259810  0.264160  0.119190  1.0  2.387
  W  W463  1  0.199800  0.154990  0.107290  1.0  1.4518
  W  W464  1  0.165810  0.690270  0.838910  1.0  1.2864
  W  W465  1  0.259810  0.735840  0.880810  1.0  2.3867
  W  W466  1  0.199800  0.845010  0.892710  1.0  1.4554
  W  W467  1  0.834190  0.690270  0.161090  1.0  1.2832
  W  W468  1  0.740190  0.735840  0.119190  1.0  2.3852
  W  W469  1  0.800200  0.845010  0.107290  1.0  1.4517
  W  W470  1  0.834190  0.309730  0.838910  1.0  1.2873
  W  W471  1  0.740190  0.264160  0.880810  1.0  2.3863
  W  W472  1  0.800200  0.154990  0.892710  1.0  1.4531
  W  W473  1  0.161090  0.165810  0.309730  1.0  1.29
  W  W474  1  0.119190  0.259810  0.264160  1.0  2.3898
  W  W475  1  0.107290  0.199800  0.154990  1.0  1.456
  W  W476  1  0.838910  0.165810  0.690270  1.0  1.288
  W  W477  1  0.880810  0.259810  0.735840  1.0  2.3907
  W  W478  1  0.892710  0.199800  0.845010  1.0  1.4551
  W  W479  1  0.161090  0.834190  0.690270  1.0  1.29
  W  W480  1  0.119190  0.740190  0.735840  1.0  2.3885
  W  W481  1  0.107290  0.800200  0.845010  1.0  1.4553
  W  W482  1  0.838910  0.834190  0.309730  1.0  1.2894
  W  W483  1  0.880810  0.740190  0.264160  1.0  2.3899
  W  W484  1  0.892710  0.800200  0.154990  1.0  1.4542
  W  W485  1  0.661090  0.809730  0.334190  1.0  1.2921
  W  W486  1  0.619190  0.764160  0.240190  1.0  2.3902
  W  W487  1  0.607290  0.654990  0.300200  1.0  1.4599
  W  W488  1  0.338910  0.190270  0.334190  1.0  1.2933
  W  W489  1  0.380810  0.235840  0.240190  1.0  2.3913
  W  W490  1  0.392710  0.345010  0.300200  1.0  1.4628
  W  W491  1  0.661090  0.190270  0.665810  1.0  1.2928
  W  W492  1  0.619190  0.235840  0.759810  1.0  2.3892
  W  W493  1  0.607290  0.345010  0.699800  1.0  1.4619
  W  W494  1  0.338910  0.809730  0.665810  1.0  1.2951
  W  W495  1  0.380810  0.764160  0.759810  1.0  2.3898
  W  W496  1  0.392710  0.654990  0.699800  1.0  1.459
  W  W497  1  0.809730  0.665810  0.338910  1.0  1.2883
  W  W498  1  0.764160  0.759810  0.380810  1.0  2.3863
  W  W499  1  0.654990  0.699800  0.392710  1.0  1.4541
  W  W500  1  0.190270  0.665810  0.661090  1.0  1.2858
  W  W501  1  0.235840  0.759810  0.619190  1.0  2.3863
  W  W502  1  0.345010  0.699800  0.607290  1.0  1.4484
  W  W503  1  0.190270  0.334190  0.338910  1.0  1.2859
  W  W504  1  0.235840  0.240190  0.380810  1.0  2.3851
  W  W505  1  0.345010  0.300200  0.392710  1.0  1.4513
  W  W506  1  0.809730  0.334190  0.661090  1.0  1.286
  W  W507  1  0.764160  0.240190  0.619190  1.0  2.3853
  W  W508  1  0.654990  0.300200  0.607290  1.0  1.451
  W  W509  1  0.665810  0.661090  0.190270  1.0  1.2925
  W  W510  1  0.759810  0.619190  0.235840  1.0  2.3913
  W  W511  1  0.699800  0.607290  0.345010  1.0  1.4609
  W  W512  1  0.665810  0.338910  0.809730  1.0  1.2936
  W  W513  1  0.759810  0.380810  0.764160  1.0  2.3903
  W  W514  1  0.699800  0.392710  0.654990  1.0  1.4645
  W  W515  1  0.334190  0.661090  0.809730  1.0  1.2939
  W  W516  1  0.240190  0.619190  0.764160  1.0  2.3907
  W  W517  1  0.300200  0.607290  0.654990  1.0  1.4636
  W  W518  1  0.334190  0.338910  0.190270  1.0  1.2945
  W  W519  1  0.240190  0.380810  0.235840  1.0  2.3895
  W  W520  1  0.300200  0.392710  0.345010  1.0  1.4661
  C  C521  1  0.645200  0.961700  0.659600  1.0  0.1633
  C  C522  1  0.607200  0.959700  0.633000  1.0  -0.2051
  C  C523  1  0.780200  0.960900  0.635400  1.0  0.1576
  C  C524  1  0.811200  0.960000  0.599700  1.0  -0.186
  C  C525  1  0.354800  0.038300  0.659600  1.0  0.1616
  C  C526  1  0.392800  0.040300  0.633000  1.0  -0.2028
  C  C527  1  0.219800  0.039100  0.635400  1.0  0.1564
  C  C528  1  0.188800  0.040000  0.599700  1.0  -0.188
  C  C529  1  0.354800  0.961700  0.340400  1.0  0.1613
  C  C530  1  0.392800  0.959700  0.367000  1.0  -0.2052
  C  C531  1  0.219800  0.960900  0.364600  1.0  0.1572
  C  C532  1  0.188800  0.960000  0.400300  1.0  -0.1864
  C  C533  1  0.645200  0.038300  0.340400  1.0  0.1623
  C  C534  1  0.607200  0.040300  0.367000  1.0  -0.202
  C  C535  1  0.780200  0.039100  0.364600  1.0  0.157
  C  C536  1  0.811200  0.040000  0.400300  1.0  -0.1853
  C  C537  1  0.659600  0.645200  0.961700  1.0  0.1644
  C  C538  1  0.633000  0.607200  0.959700  1.0  -0.194
  C  C539  1  0.635400  0.780200  0.960900  1.0  0.1562
  C  C540  1  0.599700  0.811200  0.960000  1.0  -0.1816
  C  C541  1  0.659600  0.354800  0.038300  1.0  0.1648
  C  C542  1  0.633000  0.392800  0.040300  1.0  -0.1947
  C  C543  1  0.635400  0.219800  0.039100  1.0  0.1565
  C  C544  1  0.599700  0.188800  0.040000  1.0  -0.1814
  C  C545  1  0.340400  0.354800  0.961700  1.0  0.1634
  C  C546  1  0.367000  0.392800  0.959700  1.0  -0.1955
  C  C547  1  0.364600  0.219800  0.960900  1.0  0.1562
  C  C548  1  0.400300  0.188800  0.960000  1.0  -0.1826
  C  C549  1  0.340400  0.645200  0.038300  1.0  0.1635
  C  C550  1  0.367000  0.607200  0.040300  1.0  -0.1945
  C  C551  1  0.364600  0.780200  0.039100  1.0  0.1554
  C  C552  1  0.400300  0.811200  0.040000  1.0  -0.1831
  C  C553  1  0.961700  0.659600  0.645200  1.0  0.1649
  C  C554  1  0.959700  0.633000  0.607200  1.0  -0.1987
  C  C555  1  0.960900  0.635400  0.780200  1.0  0.1588
  C  C556  1  0.960000  0.599700  0.811200  1.0  -0.186
  C  C557  1  0.038300  0.659600  0.354800  1.0  0.1663
  C  C558  1  0.040300  0.633000  0.392800  1.0  -0.1989
  C  C559  1  0.039100  0.635400  0.219800  1.0  0.1588
  C  C560  1  0.040000  0.599700  0.188800  1.0  -0.1824
  C  C561  1  0.961700  0.340400  0.354800  1.0  0.1658
  C  C562  1  0.959700  0.367000  0.392800  1.0  -0.1974
  C  C563  1  0.960900  0.364600  0.219800  1.0  0.1584
  C  C564  1  0.960000  0.400300  0.188800  1.0  -0.1844
  C  C565  1  0.038300  0.340400  0.645200  1.0  0.1653
  C  C566  1  0.040300  0.367000  0.607200  1.0  -0.199
  C  C567  1  0.039100  0.364600  0.780200  1.0  0.1582
  C  C568  1  0.040000  0.400300  0.811200  1.0  -0.1832
  C  C569  1  0.461700  0.145200  0.840400  1.0  0.1646
  C  C570  1  0.459700  0.107200  0.867000  1.0  -0.1992
  C  C571  1  0.460900  0.280200  0.864600  1.0  0.157
  C  C572  1  0.460000  0.311200  0.900300  1.0  -0.1858
  C  C573  1  0.538300  0.854800  0.840400  1.0  0.165
  C  C574  1  0.540300  0.892800  0.867000  1.0  -0.1995
  C  C575  1  0.539100  0.719800  0.864600  1.0  0.1575
  C  C576  1  0.540000  0.688800  0.900300  1.0  -0.1834
  C  C577  1  0.461700  0.854800  0.159600  1.0  0.1646
  C  C578  1  0.459700  0.892800  0.133000  1.0  -0.2004
  C  C579  1  0.460900  0.719800  0.135400  1.0  0.1583
  C  C580  1  0.460000  0.688800  0.099700  1.0  -0.1864
  C  C581  1  0.538300  0.145200  0.159600  1.0  0.1661
  C  C582  1  0.540300  0.107200  0.133000  1.0  -0.2013
  C  C583  1  0.539100  0.280200  0.135400  1.0  0.1578
  C  C584  1  0.540000  0.311200  0.099700  1.0  -0.1846
  C  C585  1  0.145200  0.159600  0.538300  1.0  0.161
  C  C586  1  0.107200  0.133000  0.540300  1.0  -0.1981
  C  C587  1  0.280200  0.135400  0.539100  1.0  0.1555
  C  C588  1  0.311200  0.099700  0.540000  1.0  -0.1845
  C  C589  1  0.854800  0.159600  0.461700  1.0  0.1599
  C  C590  1  0.892800  0.133000  0.459700  1.0  -0.1969
  C  C591  1  0.719800  0.135400  0.460900  1.0  0.1561
  C  C592  1  0.688800  0.099700  0.460000  1.0  -0.1856
  C  C593  1  0.854800  0.840400  0.538300  1.0  0.1604
  C  C594  1  0.892800  0.867000  0.540300  1.0  -0.1967
  C  C595  1  0.719800  0.864600  0.539100  1.0  0.1554
  C  C596  1  0.688800  0.900300  0.540000  1.0  -0.185
  C  C597  1  0.145200  0.840400  0.461700  1.0  0.1608
  C  C598  1  0.107200  0.867000  0.459700  1.0  -0.1971
  C  C599  1  0.280200  0.864600  0.460900  1.0  0.155
  C  C600  1  0.311200  0.900300  0.460000  1.0  -0.1843
  C  C601  1  0.159600  0.461700  0.854800  1.0  0.1666
  C  C602  1  0.133000  0.459700  0.892800  1.0  -0.1996
  C  C603  1  0.135400  0.460900  0.719800  1.0  0.1592
  C  C604  1  0.099700  0.460000  0.688800  1.0  -0.1808
  C  C605  1  0.159600  0.538300  0.145200  1.0  0.1669
  C  C606  1  0.133000  0.540300  0.107200  1.0  -0.1986
  C  C607  1  0.135400  0.539100  0.280200  1.0  0.1581
  C  C608  1  0.099700  0.540000  0.311200  1.0  -0.1837
  C  C609  1  0.840400  0.461700  0.145200  1.0  0.1664
  C  C610  1  0.867000  0.459700  0.107200  1.0  -0.2013
  C  C611  1  0.864600  0.460900  0.280200  1.0  0.1581
  C  C612  1  0.900300  0.460000  0.311200  1.0  -0.1841
  C  C613  1  0.840400  0.538300  0.854800  1.0  0.1654
  C  C614  1  0.867000  0.540300  0.892800  1.0  -0.1988
  C  C615  1  0.864600  0.539100  0.719800  1.0  0.1577
  C  C616  1  0.900300  0.540000  0.688800  1.0  -0.1828
  C  C617  1  0.354800  0.038300  0.340400  1.0  0.162
  C  C618  1  0.392800  0.040300  0.367000  1.0  -0.2012
  C  C619  1  0.219800  0.039100  0.364600  1.0  0.1558
  C  C620  1  0.188800  0.040000  0.400300  1.0  -0.1808
  C  C621  1  0.645200  0.961700  0.340400  1.0  0.1625
  C  C622  1  0.607200  0.959700  0.367000  1.0  -0.205
  C  C623  1  0.780200  0.960900  0.364600  1.0  0.1573
  C  C624  1  0.811200  0.960000  0.400300  1.0  -0.1804
  C  C625  1  0.645200  0.038300  0.659600  1.0  0.1618
  C  C626  1  0.607200  0.040300  0.633000  1.0  -0.2045
  C  C627  1  0.780200  0.039100  0.635400  1.0  0.1575
  C  C628  1  0.811200  0.040000  0.599700  1.0  -0.181
  C  C629  1  0.354800  0.961700  0.659600  1.0  0.1624
  C  C630  1  0.392800  0.959700  0.633000  1.0  -0.2044
  C  C631  1  0.219800  0.960900  0.635400  1.0  0.1574
  C  C632  1  0.188800  0.960000  0.599700  1.0  -0.1822
  C  C633  1  0.340400  0.354800  0.038300  1.0  0.1633
  C  C634  1  0.367000  0.392800  0.040300  1.0  -0.1951
  C  C635  1  0.364600  0.219800  0.039100  1.0  0.156
  C  C636  1  0.400300  0.188800  0.040000  1.0  -0.1771
  C  C637  1  0.340400  0.645200  0.961700  1.0  0.1633
  C  C638  1  0.367000  0.607200  0.959700  1.0  -0.1953
  C  C639  1  0.364600  0.780200  0.960900  1.0  0.1557
  C  C640  1  0.400300  0.811200  0.960000  1.0  -0.178
  C  C641  1  0.659600  0.645200  0.038300  1.0  0.1651
  C  C642  1  0.633000  0.607200  0.040300  1.0  -0.1945
  C  C643  1  0.635400  0.780200  0.039100  1.0  0.156
  C  C644  1  0.599700  0.811200  0.040000  1.0  -0.1773
  C  C645  1  0.659600  0.354800  0.961700  1.0  0.1643
  C  C646  1  0.633000  0.392800  0.959700  1.0  -0.1938
  C  C647  1  0.635400  0.219800  0.960900  1.0  0.1564
  C  C648  1  0.599700  0.188800  0.960000  1.0  -0.1761
  C  C649  1  0.038300  0.340400  0.354800  1.0  0.1658
  C  C650  1  0.040300  0.367000  0.392800  1.0  -0.1985
  C  C651  1  0.039100  0.364600  0.219800  1.0  0.1578
  C  C652  1  0.040000  0.400300  0.188800  1.0  -0.1771
  C  C653  1  0.961700  0.340400  0.645200  1.0  0.1656
  C  C654  1  0.959700  0.367000  0.607200  1.0  -0.1974
  C  C655  1  0.960900  0.364600  0.780200  1.0  0.1587
  C  C656  1  0.960000  0.400300  0.811200  1.0  -0.18
  C  C657  1  0.038300  0.659600  0.645200  1.0  0.1655
  C  C658  1  0.040300  0.633000  0.607200  1.0  -0.1997
  C  C659  1  0.039100  0.635400  0.780200  1.0  0.159
  C  C660  1  0.040000  0.599700  0.811200  1.0  -0.1779
  C  C661  1  0.961700  0.659600  0.354800  1.0  0.1657
  C  C662  1  0.959700  0.633000  0.392800  1.0  -0.1987
  C  C663  1  0.960900  0.635400  0.219800  1.0  0.1586
  C  C664  1  0.960000  0.599700  0.188800  1.0  -0.18
  C  C665  1  0.538300  0.854800  0.159600  1.0  0.166
  C  C666  1  0.540300  0.892800  0.133000  1.0  -0.2013
  C  C667  1  0.539100  0.719800  0.135400  1.0  0.1581
  C  C668  1  0.540000  0.688800  0.099700  1.0  -0.1786
  C  C669  1  0.461700  0.145200  0.159600  1.0  0.1646
  C  C670  1  0.459700  0.107200  0.133000  1.0  -0.2002
  C  C671  1  0.460900  0.280200  0.135400  1.0  0.1579
  C  C672  1  0.460000  0.311200  0.099700  1.0  -0.1817
  C  C673  1  0.538300  0.145200  0.840400  1.0  0.1649
  C  C674  1  0.540300  0.107200  0.867000  1.0  -0.1998
  C  C675  1  0.539100  0.280200  0.864600  1.0  0.1572
  C  C676  1  0.540000  0.311200  0.900300  1.0  -0.1784
  C  C677  1  0.461700  0.854800  0.840400  1.0  0.1649
  C  C678  1  0.459700  0.892800  0.867000  1.0  -0.199
  C  C679  1  0.460900  0.719800  0.864600  1.0  0.1575
  C  C680  1  0.460000  0.688800  0.900300  1.0  -0.1802
  C  C681  1  0.854800  0.840400  0.461700  1.0  0.1598
  C  C682  1  0.892800  0.867000  0.459700  1.0  -0.1969
  C  C683  1  0.719800  0.864600  0.460900  1.0  0.155
  C  C684  1  0.688800  0.900300  0.460000  1.0  -0.1803
  C  C685  1  0.145200  0.840400  0.538300  1.0  0.1612
  C  C686  1  0.107200  0.867000  0.540300  1.0  -0.1981
  C  C687  1  0.280200  0.864600  0.539100  1.0  0.155
  C  C688  1  0.311200  0.900300  0.540000  1.0  -0.1793
  C  C689  1  0.145200  0.159600  0.461700  1.0  0.1611
  C  C690  1  0.107200  0.133000  0.459700  1.0  -0.1974
  C  C691  1  0.280200  0.135400  0.460900  1.0  0.1561
  C  C692  1  0.311200  0.099700  0.460000  1.0  -0.1796
  C  C693  1  0.854800  0.159600  0.538300  1.0  0.1601
  C  C694  1  0.892800  0.133000  0.540300  1.0  -0.1966
  C  C695  1  0.719800  0.135400  0.539100  1.0  0.1558
  C  C696  1  0.688800  0.099700  0.540000  1.0  -0.1804
  C  C697  1  0.840400  0.538300  0.145200  1.0  0.1647
  C  C698  1  0.867000  0.540300  0.107200  1.0  -0.199
  C  C699  1  0.864600  0.539100  0.280200  1.0  0.1579
  C  C700  1  0.900300  0.540000  0.311200  1.0  -0.1792
  C  C701  1  0.840400  0.461700  0.854800  1.0  0.1666
  C  C702  1  0.867000  0.459700  0.892800  1.0  -0.201
  C  C703  1  0.864600  0.460900  0.719800  1.0  0.1582
  C  C704  1  0.900300  0.460000  0.688800  1.0  -0.1777
  C  C705  1  0.159600  0.538300  0.854800  1.0  0.1667
  C  C706  1  0.133000  0.540300  0.892800  1.0  -0.1984
  C  C707  1  0.135400  0.539100  0.719800  1.0  0.1581
  C  C708  1  0.099700  0.540000  0.688800  1.0  -0.1769
  C  C709  1  0.159600  0.461700  0.145200  1.0  0.1669
  C  C710  1  0.133000  0.459700  0.107200  1.0  -0.1998
  C  C711  1  0.135400  0.460900  0.280200  1.0  0.1594
  C  C712  1  0.099700  0.460000  0.311200  1.0  -0.1772
  C  C713  1  0.586900  0.000000  0.619200  1.0  0.1247
  C  C714  1  0.543500  0.000000  0.589600  1.0  -0.2659
  C  C715  1  0.827200  0.000000  0.580100  1.0  0.0932
  C  C716  1  0.861400  0.000000  0.542200  1.0  -0.1798
  C  C717  1  0.413100  0.000000  0.619200  1.0  0.1257
  C  C718  1  0.456500  0.000000  0.589600  1.0  -0.267
  C  C719  1  0.172800  0.000000  0.580100  1.0  0.0923
  C  C720  1  0.138600  0.000000  0.542200  1.0  -0.1802
  C  C721  1  0.413100  0.000000  0.380800  1.0  0.1252
  C  C722  1  0.456500  0.000000  0.410400  1.0  -0.2678
  C  C723  1  0.172800  0.000000  0.419900  1.0  0.0902
  C  C724  1  0.138600  0.000000  0.457800  1.0  -0.1794
  C  C725  1  0.586900  0.000000  0.380800  1.0  0.1242
  C  C726  1  0.543500  0.000000  0.410400  1.0  -0.2681
  C  C727  1  0.827200  0.000000  0.419900  1.0  0.0906
  C  C728  1  0.861400  0.000000  0.457800  1.0  -0.1796
  C  C729  1  0.619200  0.586900  0.000000  1.0  0.1273
  C  C730  1  0.589600  0.543500  0.000000  1.0  -0.2623
  C  C731  1  0.580100  0.827200  0.000000  1.0  0.088
  C  C732  1  0.542200  0.861400  0.000000  1.0  -0.1802
  C  C733  1  0.619200  0.413100  0.000000  1.0  0.1267
  C  C734  1  0.589600  0.456500  0.000000  1.0  -0.2625
  C  C735  1  0.580100  0.172800  0.000000  1.0  0.088
  C  C736  1  0.542200  0.138600  0.000000  1.0  -0.1799
  C  C737  1  0.380800  0.413100  0.000000  1.0  0.1258
  C  C738  1  0.410400  0.456500  0.000000  1.0  -0.2619
  C  C739  1  0.419900  0.172800  0.000000  1.0  0.0872
  C  C740  1  0.457800  0.138600  0.000000  1.0  -0.1791
  C  C741  1  0.380800  0.586900  0.000000  1.0  0.1264
  C  C742  1  0.410400  0.543500  0.000000  1.0  -0.2616
  C  C743  1  0.419900  0.827200  0.000000  1.0  0.087
  C  C744  1  0.457800  0.861400  0.000000  1.0  -0.1794
  C  C745  1  0.000000  0.619200  0.586900  1.0  0.1292
  C  C746  1  0.000000  0.589600  0.543500  1.0  -0.2654
  C  C747  1  0.000000  0.580100  0.827200  1.0  0.0886
  C  C748  1  0.000000  0.542200  0.861400  1.0  -0.1822
  C  C749  1  0.000000  0.619200  0.413100  1.0  0.1292
  C  C750  1  0.000000  0.589600  0.456500  1.0  -0.2643
  C  C751  1  0.000000  0.580100  0.172800  1.0  0.0889
  C  C752  1  0.000000  0.542200  0.138600  1.0  -0.1804
  C  C753  1  0.000000  0.380800  0.413100  1.0  0.1286
  C  C754  1  0.000000  0.410400  0.456500  1.0  -0.2636
  C  C755  1  0.000000  0.419900  0.172800  1.0  0.0883
  C  C756  1  0.000000  0.457800  0.138600  1.0  -0.1808
  C  C757  1  0.000000  0.380800  0.586900  1.0  0.1286
  C  C758  1  0.000000  0.410400  0.543500  1.0  -0.2641
  C  C759  1  0.000000  0.419900  0.827200  1.0  0.0887
  C  C760  1  0.000000  0.457800  0.861400  1.0  -0.1811
  C  C761  1  0.500000  0.086900  0.880800  1.0  0.1276
  C  C762  1  0.500000  0.043500  0.910400  1.0  -0.269
  C  C763  1  0.500000  0.327200  0.919900  1.0  0.0915
  C  C764  1  0.500000  0.361400  0.957800  1.0  -0.1833
  C  C765  1  0.500000  0.913100  0.880800  1.0  0.127
  C  C766  1  0.500000  0.956500  0.910400  1.0  -0.2692
  C  C767  1  0.500000  0.672800  0.919900  1.0  0.091
  C  C768  1  0.500000  0.638600  0.957800  1.0  -0.1842
  C  C769  1  0.500000  0.913100  0.119200  1.0  0.1271
  C  C770  1  0.500000  0.956500  0.089600  1.0  -0.2691
  C  C771  1  0.500000  0.672800  0.080100  1.0  0.0936
  C  C772  1  0.500000  0.638600  0.042200  1.0  -0.1837
  C  C773  1  0.500000  0.086900  0.119200  1.0  0.1281
  C  C774  1  0.500000  0.043500  0.089600  1.0  -0.2683
  C  C775  1  0.500000  0.327200  0.080100  1.0  0.0936
  C  C776  1  0.500000  0.361400  0.042200  1.0  -0.1851
  C  C777  1  0.086900  0.119200  0.500000  1.0  0.126
  C  C778  1  0.043500  0.089600  0.500000  1.0  -0.2636
  C  C779  1  0.327200  0.080100  0.500000  1.0  0.088
  C  C780  1  0.361400  0.042200  0.500000  1.0  -0.1778
  C  C781  1  0.913100  0.119200  0.500000  1.0  0.1273
  C  C782  1  0.956500  0.089600  0.500000  1.0  -0.2636
  C  C783  1  0.672800  0.080100  0.500000  1.0  0.0875
  C  C784  1  0.638600  0.042200  0.500000  1.0  -0.1781
  C  C785  1  0.913100  0.880800  0.500000  1.0  0.1267
  C  C786  1  0.956500  0.910400  0.500000  1.0  -0.263
  C  C787  1  0.672800  0.919900  0.500000  1.0  0.0871
  C  C788  1  0.638600  0.957800  0.500000  1.0  -0.1775
  C  C789  1  0.086900  0.880800  0.500000  1.0  0.1255
  C  C790  1  0.043500  0.910400  0.500000  1.0  -0.2627
  C  C791  1  0.327200  0.919900  0.500000  1.0  0.0879
  C  C792  1  0.361400  0.957800  0.500000  1.0  -0.1787
  C  C793  1  0.119200  0.500000  0.913100  1.0  0.1267
  C  C794  1  0.089600  0.500000  0.956500  1.0  -0.2613
  C  C795  1  0.080100  0.500000  0.672800  1.0  0.0889
  C  C796  1  0.042200  0.500000  0.638600  1.0  -0.178
  C  C797  1  0.119200  0.500000  0.086900  1.0  0.1272
  C  C798  1  0.089600  0.500000  0.043500  1.0  -0.262
  C  C799  1  0.080100  0.500000  0.327200  1.0  0.0886
  C  C800  1  0.042200  0.500000  0.361400  1.0  -0.1788
  C  C801  1  0.880800  0.500000  0.086900  1.0  0.1263
  C  C802  1  0.910400  0.500000  0.043500  1.0  -0.2618
  C  C803  1  0.919900  0.500000  0.327200  1.0  0.0877
  C  C804  1  0.957800  0.500000  0.361400  1.0  -0.1783
  C  C805  1  0.880800  0.500000  0.913100  1.0  0.1265
  C  C806  1  0.910400  0.500000  0.956500  1.0  -0.2608
  C  C807  1  0.919900  0.500000  0.672800  1.0  0.0876
  C  C808  1  0.957800  0.500000  0.638600  1.0  -0.1765
  C  C809  1  0.500000  0.000000  0.619000  1.0  -0.1345
  C  C810  1  0.500000  0.000000  0.381000  1.0  -0.132
  C  C811  1  0.619000  0.500000  0.000000  1.0  -0.1282
  C  C812  1  0.381000  0.500000  0.000000  1.0  -0.1277
  C  C813  1  0.000000  0.619000  0.500000  1.0  -0.1333
  C  C814  1  0.000000  0.381000  0.500000  1.0  -0.1314
  C  C815  1  0.500000  0.000000  0.881000  1.0  -0.132
  C  C816  1  0.500000  0.000000  0.119000  1.0  -0.1345
  C  C817  1  0.000000  0.119000  0.500000  1.0  -0.1333
  C  C818  1  0.000000  0.881000  0.500000  1.0  -0.1314
  C  C819  1  0.119000  0.500000  0.000000  1.0  -0.1282
  C  C820  1  0.881000  0.500000  0.000000  1.0  -0.1277
  C  C821  1  0.832000  0.000000  0.500000  1.0  -0.1122
  C  C822  1  0.168000  0.000000  0.500000  1.0  -0.1127
  C  C823  1  0.500000  0.832000  0.000000  1.0  -0.1148
  C  C824  1  0.500000  0.168000  0.000000  1.0  -0.1129
  C  C825  1  0.000000  0.500000  0.832000  1.0  -0.1151
  C  C826  1  0.000000  0.500000  0.168000  1.0  -0.1152
  C  C827  1  0.500000  0.332000  0.000000  1.0  -0.1148
  C  C828  1  0.500000  0.668000  0.000000  1.0  -0.1129
  C  C829  1  0.332000  0.000000  0.500000  1.0  -0.1122
  C  C830  1  0.668000  0.000000  0.500000  1.0  -0.1127
  C  C831  1  0.000000  0.500000  0.668000  1.0  -0.1152
  C  C832  1  0.000000  0.500000  0.332000  1.0  -0.1151
  N  N833  1  0.665200  0.000000  0.670100  1.0  -0.3237
  N  N834  1  0.765100  0.000000  0.656800  1.0  -0.339
  N  N835  1  0.334800  0.000000  0.670100  1.0  -0.3237
  N  N836  1  0.234900  0.000000  0.656800  1.0  -0.3406
  N  N837  1  0.334800  0.000000  0.329900  1.0  -0.3231
  N  N838  1  0.234900  0.000000  0.343200  1.0  -0.3409
  N  N839  1  0.665200  0.000000  0.329900  1.0  -0.3234
  N  N840  1  0.765100  0.000000  0.343200  1.0  -0.3405
  N  N841  1  0.670100  0.665200  0.000000  1.0  -0.3191
  N  N842  1  0.656800  0.765100  0.000000  1.0  -0.3382
  N  N843  1  0.670100  0.334800  0.000000  1.0  -0.3191
  N  N844  1  0.656800  0.234900  0.000000  1.0  -0.3383
  N  N845  1  0.329900  0.334800  0.000000  1.0  -0.322
  N  N846  1  0.343200  0.234900  0.000000  1.0  -0.3387
  N  N847  1  0.329900  0.665200  0.000000  1.0  -0.3212
  N  N848  1  0.343200  0.765100  0.000000  1.0  -0.3397
  N  N849  1  0.000000  0.670100  0.665200  1.0  -0.3253
  N  N850  1  0.000000  0.656800  0.765100  1.0  -0.3385
  N  N851  1  0.000000  0.670100  0.334800  1.0  -0.3253
  N  N852  1  0.000000  0.656800  0.234900  1.0  -0.3379
  N  N853  1  0.000000  0.329900  0.334800  1.0  -0.3262
  N  N854  1  0.000000  0.343200  0.234900  1.0  -0.3379
  N  N855  1  0.000000  0.329900  0.665200  1.0  -0.3257
  N  N856  1  0.000000  0.343200  0.765100  1.0  -0.338
  N  N857  1  0.500000  0.165200  0.829900  1.0  -0.326
  N  N858  1  0.500000  0.265100  0.843200  1.0  -0.3409
  N  N859  1  0.500000  0.834800  0.829900  1.0  -0.3272
  N  N860  1  0.500000  0.734900  0.843200  1.0  -0.3404
  N  N861  1  0.500000  0.834800  0.170100  1.0  -0.3265
  N  N862  1  0.500000  0.734900  0.156800  1.0  -0.3403
  N  N863  1  0.500000  0.165200  0.170100  1.0  -0.3267
  N  N864  1  0.500000  0.265100  0.156800  1.0  -0.34
  N  N865  1  0.165200  0.170100  0.500000  1.0  -0.3225
  N  N866  1  0.265100  0.156800  0.500000  1.0  -0.3368
  N  N867  1  0.834800  0.170100  0.500000  1.0  -0.3232
  N  N868  1  0.734900  0.156800  0.500000  1.0  -0.3375
  N  N869  1  0.834800  0.829900  0.500000  1.0  -0.3231
  N  N870  1  0.734900  0.843200  0.500000  1.0  -0.3377
  N  N871  1  0.165200  0.829900  0.500000  1.0  -0.3222
  N  N872  1  0.265100  0.843200  0.500000  1.0  -0.337
  N  N873  1  0.170100  0.500000  0.834800  1.0  -0.3187
  N  N874  1  0.156800  0.500000  0.734900  1.0  -0.3382
  N  N875  1  0.170100  0.500000  0.165200  1.0  -0.3188
  N  N876  1  0.156800  0.500000  0.265100  1.0  -0.3388
  N  N877  1  0.829900  0.500000  0.165200  1.0  -0.3208
  N  N878  1  0.843200  0.500000  0.265100  1.0  -0.3397
  N  N879  1  0.829900  0.500000  0.834800  1.0  -0.3201
  N  N880  1  0.843200  0.500000  0.734900  1.0  -0.3389
  O  O881  1  0.745500  0.815600  0.779100  1.0  -0.8074
  O  O882  1  0.780100  0.858300  0.700300  1.0  -0.689
  O  O883  1  0.691200  0.848900  0.709500  1.0  -0.7094
  O  O884  1  0.743600  0.857200  0.865500  1.0  -0.7317
  O  O885  1  0.725500  0.932600  0.715400  1.0  -0.8104
  O  O886  1  0.897000  0.861000  0.822100  1.0  -0.7061
  O  O887  1  0.696600  0.886000  0.791800  1.0  -0.6899
  O  O888  1  0.785800  0.901300  0.777500  1.0  -0.7567
  O  O889  1  0.254500  0.184400  0.779100  1.0  -0.809
  O  O890  1  0.219900  0.141700  0.700300  1.0  -0.6895
  O  O891  1  0.308800  0.151100  0.709500  1.0  -0.7071
  O  O892  1  0.256400  0.142800  0.865500  1.0  -0.7383
  O  O893  1  0.274500  0.067400  0.715400  1.0  -0.8106
  O  O894  1  0.103000  0.139000  0.822100  1.0  -0.7065
  O  O895  1  0.303400  0.114000  0.791800  1.0  -0.692
  O  O896  1  0.214200  0.098700  0.777500  1.0  -0.7622
  O  O897  1  0.254500  0.815600  0.220900  1.0  -0.8081
  O  O898  1  0.219900  0.858300  0.299700  1.0  -0.6895
  O  O899  1  0.308800  0.848900  0.290500  1.0  -0.7075
  O  O900  1  0.256400  0.857200  0.134500  1.0  -0.732
  O  O901  1  0.274500  0.932600  0.284600  1.0  -0.8097
  O  O902  1  0.103000  0.861000  0.177900  1.0  -0.7051
  O  O903  1  0.303400  0.886000  0.208200  1.0  -0.6906
  O  O904  1  0.214200  0.901300  0.222500  1.0  -0.7586
  O  O905  1  0.745500  0.184400  0.220900  1.0  -0.8077
  O  O906  1  0.780100  0.141700  0.299700  1.0  -0.6886
  O  O907  1  0.691200  0.151100  0.290500  1.0  -0.7092
  O  O908  1  0.743600  0.142800  0.134500  1.0  -0.7298
  O  O909  1  0.725500  0.067400  0.284600  1.0  -0.8103
  O  O910  1  0.897000  0.139000  0.177900  1.0  -0.707
  O  O911  1  0.696600  0.114000  0.208200  1.0  -0.6903
  O  O912  1  0.785800  0.098700  0.222500  1.0  -0.7619
  O  O913  1  0.779100  0.745500  0.815600  1.0  -0.8069
  O  O914  1  0.700300  0.780100  0.858300  1.0  -0.688
  O  O915  1  0.709500  0.691200  0.848900  1.0  -0.7122
  O  O916  1  0.865500  0.743600  0.857200  1.0  -0.7328
  O  O917  1  0.715400  0.725500  0.932600  1.0  -0.8087
  O  O918  1  0.822100  0.897000  0.861000  1.0  -0.6952
  O  O919  1  0.791800  0.696600  0.886000  1.0  -0.6909
  O  O920  1  0.777500  0.785800  0.901300  1.0  -0.7505
  O  O921  1  0.779100  0.254500  0.184400  1.0  -0.8065
  O  O922  1  0.700300  0.219900  0.141700  1.0  -0.6874
  O  O923  1  0.709500  0.308800  0.151100  1.0  -0.7135
  O  O924  1  0.865500  0.256400  0.142800  1.0  -0.7311
  O  O925  1  0.715400  0.274500  0.067400  1.0  -0.8078
  O  O926  1  0.822100  0.103000  0.139000  1.0  -0.7028
  O  O927  1  0.791800  0.303400  0.114000  1.0  -0.6904
  O  O928  1  0.777500  0.214200  0.098700  1.0  -0.7628
  O  O929  1  0.220900  0.254500  0.815600  1.0  -0.8069
  O  O930  1  0.299700  0.219900  0.858300  1.0  -0.6866
  O  O931  1  0.290500  0.308800  0.848900  1.0  -0.7128
  O  O932  1  0.134500  0.256400  0.857200  1.0  -0.7275
  O  O933  1  0.284600  0.274500  0.932600  1.0  -0.8096
  O  O934  1  0.177900  0.103000  0.861000  1.0  -0.7093
  O  O935  1  0.208200  0.303400  0.886000  1.0  -0.6908
  O  O936  1  0.222500  0.214200  0.901300  1.0  -0.7525
  O  O937  1  0.220900  0.745500  0.184400  1.0  -0.8085
  O  O938  1  0.299700  0.780100  0.141700  1.0  -0.687
  O  O939  1  0.290500  0.691200  0.151100  1.0  -0.712
  O  O940  1  0.134500  0.743600  0.142800  1.0  -0.7302
  O  O941  1  0.284600  0.725500  0.067400  1.0  -0.8096
  O  O942  1  0.177900  0.897000  0.139000  1.0  -0.7001
  O  O943  1  0.208200  0.696600  0.114000  1.0  -0.6893
  O  O944  1  0.222500  0.785800  0.098700  1.0  -0.765
  O  O945  1  0.815600  0.779100  0.745500  1.0  -0.8077
  O  O946  1  0.858300  0.700300  0.780100  1.0  -0.6878
  O  O947  1  0.848900  0.709500  0.691200  1.0  -0.7093
  O  O948  1  0.857200  0.865500  0.743600  1.0  -0.7262
  O  O949  1  0.932600  0.715400  0.725500  1.0  -0.81
  O  O950  1  0.861000  0.822100  0.897000  1.0  -0.6881
  O  O951  1  0.886000  0.791800  0.696600  1.0  -0.6917
  O  O952  1  0.901300  0.777500  0.785800  1.0  -0.7529
  O  O953  1  0.184400  0.779100  0.254500  1.0  -0.8075
  O  O954  1  0.141700  0.700300  0.219900  1.0  -0.6888
  O  O955  1  0.151100  0.709500  0.308800  1.0  -0.7122
  O  O956  1  0.142800  0.865500  0.256400  1.0  -0.727
  O  O957  1  0.067400  0.715400  0.274500  1.0  -0.8105
  O  O958  1  0.139000  0.822100  0.103000  1.0  -0.6967
  O  O959  1  0.114000  0.791800  0.303400  1.0  -0.6885
  O  O960  1  0.098700  0.777500  0.214200  1.0  -0.7583
  O  O961  1  0.815600  0.220900  0.254500  1.0  -0.8074
  O  O962  1  0.858300  0.299700  0.219900  1.0  -0.6888
  O  O963  1  0.848900  0.290500  0.308800  1.0  -0.71
  O  O964  1  0.857200  0.134500  0.256400  1.0  -0.7297
  O  O965  1  0.932600  0.284600  0.274500  1.0  -0.8092
  O  O966  1  0.861000  0.177900  0.103000  1.0  -0.6966
  O  O967  1  0.886000  0.208200  0.303400  1.0  -0.6919
  O  O968  1  0.901300  0.222500  0.214200  1.0  -0.7534
  O  O969  1  0.184400  0.220900  0.745500  1.0  -0.8082
  O  O970  1  0.141700  0.299700  0.780100  1.0  -0.6898
  O  O971  1  0.151100  0.290500  0.691200  1.0  -0.7113
  O  O972  1  0.142800  0.134500  0.743600  1.0  -0.728
  O  O973  1  0.067400  0.284600  0.725500  1.0  -0.8089
  O  O974  1  0.139000  0.177900  0.897000  1.0  -0.6879
  O  O975  1  0.114000  0.208200  0.696600  1.0  -0.6892
  O  O976  1  0.098700  0.222500  0.785800  1.0  -0.7569
  O  O977  1  0.315600  0.245500  0.720900  1.0  -0.8079
  O  O978  1  0.358300  0.280100  0.799700  1.0  -0.6882
  O  O979  1  0.348900  0.191200  0.790500  1.0  -0.7092
  O  O980  1  0.357200  0.243600  0.634500  1.0  -0.7249
  O  O981  1  0.432600  0.225500  0.784600  1.0  -0.8109
  O  O982  1  0.361000  0.397000  0.677900  1.0  -0.6996
  O  O983  1  0.386000  0.196600  0.708200  1.0  -0.689
  O  O984  1  0.401300  0.285800  0.722500  1.0  -0.7535
  O  O985  1  0.684400  0.754500  0.720900  1.0  -0.8073
  O  O986  1  0.641700  0.719900  0.799700  1.0  -0.6891
  O  O987  1  0.651100  0.808800  0.790500  1.0  -0.7118
  O  O988  1  0.642800  0.756400  0.634500  1.0  -0.7244
  O  O989  1  0.567400  0.774500  0.784600  1.0  -0.8103
  O  O990  1  0.639000  0.603000  0.677900  1.0  -0.7082
  O  O991  1  0.614000  0.803400  0.708200  1.0  -0.6885
  O  O992  1  0.598700  0.714200  0.722500  1.0  -0.758
  O  O993  1  0.315600  0.754500  0.279100  1.0  -0.8075
  O  O994  1  0.358300  0.719900  0.200300  1.0  -0.6878
  O  O995  1  0.348900  0.808800  0.209500  1.0  -0.71
  O  O996  1  0.357200  0.756400  0.365500  1.0  -0.7283
  O  O997  1  0.432600  0.774500  0.215400  1.0  -0.8108
  O  O998  1  0.361000  0.603000  0.322100  1.0  -0.7057
  O  O999  1  0.386000  0.803400  0.291800  1.0  -0.6907
  O  O1000  1  0.401300  0.714200  0.277500  1.0  -0.7527
  O  O1001  1  0.684400  0.245500  0.279100  1.0  -0.8085
  O  O1002  1  0.641700  0.280100  0.200300  1.0  -0.6899
  O  O1003  1  0.651100  0.191200  0.209500  1.0  -0.7108
  O  O1004  1  0.642800  0.243600  0.365500  1.0  -0.728
  O  O1005  1  0.567400  0.225500  0.215400  1.0  -0.8123
  O  O1006  1  0.639000  0.397000  0.322100  1.0  -0.699
  O  O1007  1  0.614000  0.196600  0.291800  1.0  -0.6895
  O  O1008  1  0.598700  0.285800  0.277500  1.0  -0.7568
  O  O1009  1  0.245500  0.279100  0.684400  1.0  -0.8065
  O  O1010  1  0.280100  0.200300  0.641700  1.0  -0.6887
  O  O1011  1  0.191200  0.209500  0.651100  1.0  -0.7103
  O  O1012  1  0.243600  0.365500  0.642800  1.0  -0.7318
  O  O1013  1  0.225500  0.215400  0.567400  1.0  -0.81
  O  O1014  1  0.397000  0.322100  0.639000  1.0  -0.7043
  O  O1015  1  0.196600  0.291800  0.614000  1.0  -0.6918
  O  O1016  1  0.285800  0.277500  0.598700  1.0  -0.7642
  O  O1017  1  0.754500  0.279100  0.315600  1.0  -0.8069
  O  O1018  1  0.719900  0.200300  0.358300  1.0  -0.6889
  O  O1019  1  0.808800  0.209500  0.348900  1.0  -0.7079
  O  O1020  1  0.756400  0.365500  0.357200  1.0  -0.7292
  O  O1021  1  0.774500  0.215400  0.432600  1.0  -0.8094
  O  O1022  1  0.603000  0.322100  0.361000  1.0  -0.7022
  O  O1023  1  0.803400  0.291800  0.386000  1.0  -0.6896
  O  O1024  1  0.714200  0.277500  0.401300  1.0  -0.7525
  O  O1025  1  0.754500  0.720900  0.684400  1.0  -0.8075
  O  O1026  1  0.719900  0.799700  0.641700  1.0  -0.69
  O  O1027  1  0.808800  0.790500  0.651100  1.0  -0.7078
  O  O1028  1  0.756400  0.634500  0.642800  1.0  -0.7292
  O  O1029  1  0.774500  0.784600  0.567400  1.0  -0.8089
  O  O1030  1  0.603000  0.677900  0.639000  1.0  -0.7027
  O  O1031  1  0.803400  0.708200  0.614000  1.0  -0.6896
  O  O1032  1  0.714200  0.722500  0.598700  1.0  -0.7647
  O  O1033  1  0.245500  0.720900  0.315600  1.0  -0.806
  O  O1034  1  0.280100  0.799700  0.358300  1.0  -0.6897
  O  O1035  1  0.191200  0.790500  0.348900  1.0  -0.7101
  O  O1036  1  0.243600  0.634500  0.357200  1.0  -0.7353
  O  O1037  1  0.225500  0.784600  0.432600  1.0  -0.8092
  O  O1038  1  0.397000  0.677900  0.361000  1.0  -0.7045
  O  O1039  1  0.196600  0.708200  0.386000  1.0  -0.6929
  O  O1040  1  0.285800  0.722500  0.401300  1.0  -0.7515
  O  O1041  1  0.279100  0.315600  0.754500  1.0  -0.8074
  O  O1042  1  0.200300  0.358300  0.719900  1.0  -0.6879
  O  O1043  1  0.209500  0.348900  0.808800  1.0  -0.7127
  O  O1044  1  0.365500  0.357200  0.756400  1.0  -0.7314
  O  O1045  1  0.215400  0.432600  0.774500  1.0  -0.8081
  O  O1046  1  0.322100  0.361000  0.603000  1.0  -0.6986
  O  O1047  1  0.291800  0.386000  0.803400  1.0  -0.6881
  O  O1048  1  0.277500  0.401300  0.714200  1.0  -0.7563
  O  O1049  1  0.279100  0.684400  0.245500  1.0  -0.8087
  O  O1050  1  0.200300  0.641700  0.280100  1.0  -0.6876
  O  O1051  1  0.209500  0.651100  0.191200  1.0  -0.7118
  O  O1052  1  0.365500  0.642800  0.243600  1.0  -0.7327
  O  O1053  1  0.215400  0.567400  0.225500  1.0  -0.8076
  O  O1054  1  0.322100  0.639000  0.397000  1.0  -0.6918
  O  O1055  1  0.291800  0.614000  0.196600  1.0  -0.69
  O  O1056  1  0.277500  0.598700  0.285800  1.0  -0.7621
  O  O1057  1  0.720900  0.315600  0.245500  1.0  -0.8087
  O  O1058  1  0.799700  0.358300  0.280100  1.0  -0.6871
  O  O1059  1  0.790500  0.348900  0.191200  1.0  -0.7117
  O  O1060  1  0.634500  0.357200  0.243600  1.0  -0.7302
  O  O1061  1  0.784600  0.432600  0.225500  1.0  -0.8088
  O  O1062  1  0.677900  0.361000  0.397000  1.0  -0.6866
  O  O1063  1  0.708200  0.386000  0.196600  1.0  -0.6913
  O  O1064  1  0.722500  0.401300  0.285800  1.0  -0.7579
  O  O1065  1  0.720900  0.684400  0.754500  1.0  -0.8086
  O  O1066  1  0.799700  0.641700  0.719900  1.0  -0.6863
  O  O1067  1  0.790500  0.651100  0.808800  1.0  -0.7124
  O  O1068  1  0.634500  0.642800  0.756400  1.0  -0.7318
  O  O1069  1  0.784600  0.567400  0.774500  1.0  -0.8088
  O  O1070  1  0.677900  0.639000  0.603000  1.0  -0.6935
  O  O1071  1  0.708200  0.614000  0.803400  1.0  -0.6921
  O  O1072  1  0.722500  0.598700  0.714200  1.0  -0.7626
  O  O1073  1  0.254500  0.184400  0.220900  1.0  -0.8088
  O  O1074  1  0.219900  0.141700  0.299700  1.0  -0.6891
  O  O1075  1  0.308800  0.151100  0.290500  1.0  -0.7071
  O  O1076  1  0.256400  0.142800  0.134500  1.0  -0.7293
  O  O1077  1  0.274500  0.067400  0.284600  1.0  -0.8101
  O  O1078  1  0.103000  0.139000  0.177900  1.0  -0.707
  O  O1079  1  0.303400  0.114000  0.208200  1.0  -0.6893
  O  O1080  1  0.214200  0.098700  0.222500  1.0  -0.7623
  O  O1081  1  0.745500  0.815600  0.220900  1.0  -0.8071
  O  O1082  1  0.780100  0.858300  0.299700  1.0  -0.6889
  O  O1083  1  0.691200  0.848900  0.290500  1.0  -0.7093
  O  O1084  1  0.743600  0.857200  0.134500  1.0  -0.7314
  O  O1085  1  0.725500  0.932600  0.284600  1.0  -0.8102
  O  O1086  1  0.897000  0.861000  0.177900  1.0  -0.7064
  O  O1087  1  0.696600  0.886000  0.208200  1.0  -0.691
  O  O1088  1  0.785800  0.901300  0.222500  1.0  -0.7574
  O  O1089  1  0.745500  0.184400  0.779100  1.0  -0.808
  O  O1090  1  0.780100  0.141700  0.700300  1.0  -0.6886
  O  O1091  1  0.691200  0.151100  0.709500  1.0  -0.7094
  O  O1092  1  0.743600  0.142800  0.865500  1.0  -0.7387
  O  O1093  1  0.725500  0.067400  0.715400  1.0  -0.8111
  O  O1094  1  0.897000  0.139000  0.822100  1.0  -0.7071
  O  O1095  1  0.696600  0.114000  0.791800  1.0  -0.6931
  O  O1096  1  0.785800  0.098700  0.777500  1.0  -0.7622
  O  O1097  1  0.254500  0.815600  0.779100  1.0  -0.8083
  O  O1098  1  0.219900  0.858300  0.700300  1.0  -0.6899
  O  O1099  1  0.308800  0.848900  0.709500  1.0  -0.7074
  O  O1100  1  0.256400  0.857200  0.865500  1.0  -0.7316
  O  O1101  1  0.274500  0.932600  0.715400  1.0  -0.8095
  O  O1102  1  0.103000  0.861000  0.822100  1.0  -0.7046
  O  O1103  1  0.303400  0.886000  0.791800  1.0  -0.6889
  O  O1104  1  0.214200  0.901300  0.777500  1.0  -0.7576
  O  O1105  1  0.220900  0.254500  0.184400  1.0  -0.8075
  O  O1106  1  0.299700  0.219900  0.141700  1.0  -0.6865
  O  O1107  1  0.290500  0.308800  0.151100  1.0  -0.7132
  O  O1108  1  0.134500  0.256400  0.142800  1.0  -0.7294
  O  O1109  1  0.284600  0.274500  0.067400  1.0  -0.8094
  O  O1110  1  0.177900  0.103000  0.139000  1.0  -0.7032
  O  O1111  1  0.208200  0.303400  0.114000  1.0  -0.6912
  O  O1112  1  0.222500  0.214200  0.098700  1.0  -0.7648
  O  O1113  1  0.220900  0.745500  0.815600  1.0  -0.8078
  O  O1114  1  0.299700  0.780100  0.858300  1.0  -0.6871
  O  O1115  1  0.290500  0.691200  0.848900  1.0  -0.7121
  O  O1116  1  0.134500  0.743600  0.857200  1.0  -0.7299
  O  O1117  1  0.284600  0.725500  0.932600  1.0  -0.8098
  O  O1118  1  0.177900  0.897000  0.861000  1.0  -0.6958
  O  O1119  1  0.208200  0.696600  0.886000  1.0  -0.692
  O  O1120  1  0.222500  0.785800  0.901300  1.0  -0.7526
  O  O1121  1  0.779100  0.745500  0.184400  1.0  -0.8077
  O  O1122  1  0.700300  0.780100  0.141700  1.0  -0.6879
  O  O1123  1  0.709500  0.691200  0.151100  1.0  -0.7122
  O  O1124  1  0.865500  0.743600  0.142800  1.0  -0.7311
  O  O1125  1  0.715400  0.725500  0.067400  1.0  -0.808
  O  O1126  1  0.822100  0.897000  0.139000  1.0  -0.7002
  O  O1127  1  0.791800  0.696600  0.114000  1.0  -0.689
  O  O1128  1  0.777500  0.785800  0.098700  1.0  -0.7632
  O  O1129  1  0.779100  0.254500  0.815600  1.0  -0.8058
  O  O1130  1  0.700300  0.219900  0.858300  1.0  -0.6877
  O  O1131  1  0.709500  0.308800  0.848900  1.0  -0.713
  O  O1132  1  0.865500  0.256400  0.857200  1.0  -0.7305
  O  O1133  1  0.715400  0.274500  0.932600  1.0  -0.8086
  O  O1134  1  0.822100  0.103000  0.861000  1.0  -0.7086
  O  O1135  1  0.791800  0.303400  0.886000  1.0  -0.6886
  O  O1136  1  0.777500  0.214200  0.901300  1.0  -0.7503
  O  O1137  1  0.184400  0.220900  0.254500  1.0  -0.8076
  O  O1138  1  0.141700  0.299700  0.219900  1.0  -0.6899
  O  O1139  1  0.151100  0.290500  0.308800  1.0  -0.7119
  O  O1140  1  0.142800  0.134500  0.256400  1.0  -0.7294
  O  O1141  1  0.067400  0.284600  0.274500  1.0  -0.8091
  O  O1142  1  0.139000  0.177900  0.103000  1.0  -0.697
  O  O1143  1  0.114000  0.208200  0.303400  1.0  -0.6887
  O  O1144  1  0.098700  0.222500  0.214200  1.0  -0.7577
  O  O1145  1  0.815600  0.220900  0.745500  1.0  -0.8081
  O  O1146  1  0.858300  0.299700  0.780100  1.0  -0.689
  O  O1147  1  0.848900  0.290500  0.691200  1.0  -0.7091
  O  O1148  1  0.857200  0.134500  0.743600  1.0  -0.7283
  O  O1149  1  0.932600  0.284600  0.725500  1.0  -0.8092
  O  O1150  1  0.861000  0.177900  0.897000  1.0  -0.6879
  O  O1151  1  0.886000  0.208200  0.696600  1.0  -0.6901
  O  O1152  1  0.901300  0.222500  0.785800  1.0  -0.7528
  O  O1153  1  0.184400  0.779100  0.745500  1.0  -0.808
  O  O1154  1  0.141700  0.700300  0.780100  1.0  -0.689
  O  O1155  1  0.151100  0.709500  0.691200  1.0  -0.7116
  O  O1156  1  0.142800  0.865500  0.743600  1.0  -0.7268
  O  O1157  1  0.067400  0.715400  0.725500  1.0  -0.8104
  O  O1158  1  0.139000  0.822100  0.897000  1.0  -0.6886
  O  O1159  1  0.114000  0.791800  0.696600  1.0  -0.6903
  O  O1160  1  0.098700  0.777500  0.785800  1.0  -0.7576
  O  O1161  1  0.815600  0.779100  0.254500  1.0  -0.8073
  O  O1162  1  0.858300  0.700300  0.219900  1.0  -0.6876
  O  O1163  1  0.848900  0.709500  0.308800  1.0  -0.7101
  O  O1164  1  0.857200  0.865500  0.256400  1.0  -0.727
  O  O1165  1  0.932600  0.715400  0.274500  1.0  -0.81
  O  O1166  1  0.861000  0.822100  0.103000  1.0  -0.6961
  O  O1167  1  0.886000  0.791800  0.303400  1.0  -0.6918
  O  O1168  1  0.901300  0.777500  0.214200  1.0  -0.7531
  O  O1169  1  0.684400  0.754500  0.279100  1.0  -0.8076
  O  O1170  1  0.641700  0.719900  0.200300  1.0  -0.6895
  O  O1171  1  0.651100  0.808800  0.209500  1.0  -0.7119
  O  O1172  1  0.642800  0.756400  0.365500  1.0  -0.7259
  O  O1173  1  0.567400  0.774500  0.215400  1.0  -0.8121
  O  O1174  1  0.639000  0.603000  0.322100  1.0  -0.7081
  O  O1175  1  0.614000  0.803400  0.291800  1.0  -0.6883
  O  O1176  1  0.598700  0.714200  0.277500  1.0  -0.7567
  O  O1177  1  0.315600  0.245500  0.279100  1.0  -0.8083
  O  O1178  1  0.358300  0.280100  0.200300  1.0  -0.6881
  O  O1179  1  0.348900  0.191200  0.209500  1.0  -0.7091
  O  O1180  1  0.357200  0.243600  0.365500  1.0  -0.7299
  O  O1181  1  0.432600  0.225500  0.215400  1.0  -0.8111
  O  O1182  1  0.361000  0.397000  0.322100  1.0  -0.6995
  O  O1183  1  0.386000  0.196600  0.291800  1.0  -0.6915
  O  O1184  1  0.401300  0.285800  0.277500  1.0  -0.7532
  O  O1185  1  0.684400  0.245500  0.720900  1.0  -0.8083
  O  O1186  1  0.641700  0.280100  0.799700  1.0  -0.6894
  O  O1187  1  0.651100  0.191200  0.790500  1.0  -0.7108
  O  O1188  1  0.642800  0.243600  0.634500  1.0  -0.7261
  O  O1189  1  0.567400  0.225500  0.784600  1.0  -0.8105
  O  O1190  1  0.639000  0.397000  0.677900  1.0  -0.6997
  O  O1191  1  0.614000  0.196600  0.708200  1.0  -0.6883
  O  O1192  1  0.598700  0.285800  0.722500  1.0  -0.7583
  O  O1193  1  0.315600  0.754500  0.720900  1.0  -0.8071
  O  O1194  1  0.358300  0.719900  0.799700  1.0  -0.688
  O  O1195  1  0.348900  0.808800  0.790500  1.0  -0.7101
  O  O1196  1  0.357200  0.756400  0.634500  1.0  -0.7244
  O  O1197  1  0.432600  0.774500  0.784600  1.0  -0.8107
  O  O1198  1  0.361000  0.603000  0.677900  1.0  -0.7058
  O  O1199  1  0.386000  0.803400  0.708200  1.0  -0.6902
  O  O1200  1  0.401300  0.714200  0.722500  1.0  -0.753
  O  O1201  1  0.754500  0.720900  0.315600  1.0  -0.8069
  O  O1202  1  0.719900  0.799700  0.358300  1.0  -0.6898
  O  O1203  1  0.808800  0.790500  0.348900  1.0  -0.7078
  O  O1204  1  0.756400  0.634500  0.357200  1.0  -0.7353
  O  O1205  1  0.774500  0.784600  0.432600  1.0  -0.8086
  O  O1206  1  0.603000  0.677900  0.361000  1.0  -0.7024
  O  O1207  1  0.803400  0.708200  0.386000  1.0  -0.6905
  O  O1208  1  0.714200  0.722500  0.401300  1.0  -0.7525
  O  O1209  1  0.245500  0.720900  0.684400  1.0  -0.8067
  O  O1210  1  0.280100  0.799700  0.641700  1.0  -0.6898
  O  O1211  1  0.191200  0.790500  0.651100  1.0  -0.71
  O  O1212  1  0.243600  0.634500  0.642800  1.0  -0.729
  O  O1213  1  0.225500  0.784600  0.567400  1.0  -0.8095
  O  O1214  1  0.397000  0.677900  0.639000  1.0  -0.704
  O  O1215  1  0.196600  0.708200  0.614000  1.0  -0.6898
  O  O1216  1  0.285800  0.722500  0.598700  1.0  -0.7636
  O  O1217  1  0.245500  0.279100  0.315600  1.0  -0.8059
  O  O1218  1  0.280100  0.200300  0.358300  1.0  -0.6888
  O  O1219  1  0.191200  0.209500  0.348900  1.0  -0.7104
  O  O1220  1  0.243600  0.365500  0.357200  1.0  -0.7297
  O  O1221  1  0.225500  0.215400  0.432600  1.0  -0.8102
  O  O1222  1  0.397000  0.322100  0.361000  1.0  -0.7044
  O  O1223  1  0.196600  0.291800  0.386000  1.0  -0.6927
  O  O1224  1  0.285800  0.277500  0.401300  1.0  -0.751
  O  O1225  1  0.754500  0.279100  0.684400  1.0  -0.8073
  O  O1226  1  0.719900  0.200300  0.641700  1.0  -0.689
  O  O1227  1  0.808800  0.209500  0.651100  1.0  -0.7078
  O  O1228  1  0.756400  0.365500  0.642800  1.0  -0.7324
  O  O1229  1  0.774500  0.215400  0.567400  1.0  -0.8092
  O  O1230  1  0.603000  0.322100  0.639000  1.0  -0.703
  O  O1231  1  0.803400  0.291800  0.614000  1.0  -0.6912
  O  O1232  1  0.714200  0.277500  0.598700  1.0  -0.7654
  O  O1233  1  0.720900  0.684400  0.245500  1.0  -0.8094
  O  O1234  1  0.799700  0.641700  0.280100  1.0  -0.6864
  O  O1235  1  0.790500  0.651100  0.191200  1.0  -0.7114
  O  O1236  1  0.634500  0.642800  0.243600  1.0  -0.7302
  O  O1237  1  0.784600  0.567400  0.225500  1.0  -0.8089
  O  O1238  1  0.677900  0.639000  0.397000  1.0  -0.6926
  O  O1239  1  0.708200  0.614000  0.196600  1.0  -0.6903
  O  O1240  1  0.722500  0.598700  0.285800  1.0  -0.7626
  O  O1241  1  0.720900  0.315600  0.754500  1.0  -0.8084
  O  O1242  1  0.799700  0.358300  0.719900  1.0  -0.687
  O  O1243  1  0.790500  0.348900  0.808800  1.0  -0.7125
  O  O1244  1  0.634500  0.357200  0.756400  1.0  -0.7299
  O  O1245  1  0.784600  0.432600  0.774500  1.0  -0.8088
  O  O1246  1  0.677900  0.361000  0.603000  1.0  -0.6982
  O  O1247  1  0.708200  0.386000  0.803400  1.0  -0.6892
  O  O1248  1  0.722500  0.401300  0.714200  1.0  -0.7583
  O  O1249  1  0.279100  0.684400  0.754500  1.0  -0.8077
  O  O1250  1  0.200300  0.641700  0.719900  1.0  -0.6873
  O  O1251  1  0.209500  0.651100  0.808800  1.0  -0.7127
  O  O1252  1  0.365500  0.642800  0.756400  1.0  -0.7343
  O  O1253  1  0.215400  0.567400  0.774500  1.0  -0.808
  O  O1254  1  0.322100  0.639000  0.603000  1.0  -0.6941
  O  O1255  1  0.291800  0.614000  0.803400  1.0  -0.6916
  O  O1256  1  0.277500  0.598700  0.714200  1.0  -0.7619
  O  O1257  1  0.279100  0.315600  0.245500  1.0  -0.8077
  O  O1258  1  0.200300  0.358300  0.280100  1.0  -0.688
  O  O1259  1  0.209500  0.348900  0.191200  1.0  -0.712
  O  O1260  1  0.365500  0.357200  0.243600  1.0  -0.7309
  O  O1261  1  0.215400  0.432600  0.225500  1.0  -0.8077
  O  O1262  1  0.322100  0.361000  0.397000  1.0  -0.685
  O  O1263  1  0.291800  0.386000  0.196600  1.0  -0.6911
  O  O1264  1  0.277500  0.401300  0.285800  1.0  -0.7564
  O  O1265  1  0.820000  0.820000  0.820000  1.0  -0.7628
  O  O1266  1  0.180000  0.180000  0.820000  1.0  -0.7621
  O  O1267  1  0.180000  0.820000  0.180000  1.0  -0.7617
  O  O1268  1  0.820000  0.180000  0.180000  1.0  -0.7624
  O  O1269  1  0.320000  0.320000  0.680000  1.0  -0.7621
  O  O1270  1  0.680000  0.680000  0.680000  1.0  -0.7623
  O  O1271  1  0.320000  0.680000  0.320000  1.0  -0.7629
  O  O1272  1  0.680000  0.320000  0.320000  1.0  -0.7619
  O  O1273  1  0.180000  0.180000  0.180000  1.0  -0.7623
  O  O1274  1  0.820000  0.820000  0.180000  1.0  -0.7621
  O  O1275  1  0.820000  0.180000  0.820000  1.0  -0.7629
  O  O1276  1  0.180000  0.820000  0.820000  1.0  -0.7619
  O  O1277  1  0.680000  0.680000  0.320000  1.0  -0.7621
  O  O1278  1  0.320000  0.320000  0.320000  1.0  -0.7628
  O  O1279  1  0.680000  0.320000  0.680000  1.0  -0.7617
  O  O1280  1  0.320000  0.680000  0.680000  1.0  -0.7624
