# generated using pymatgen
data_CuH16C16(N6O)2
_symmetry_space_group_name_H-M   'P 1'
_cell_length_a   26.98290000
_cell_length_b   37.60590000
_cell_length_c   19.33140000
_cell_angle_alpha   90.00000000
_cell_angle_beta   90.00000000
_cell_angle_gamma   90.00000000
_symmetry_Int_Tables_number   1
_chemical_formula_structural   CuH16C16(N6O)2
_chemical_formula_sum   'Cu16 H256 C256 N192 O32'
_cell_volume   19615.88550473
_cell_formula_units_Z   16
loop_
 _symmetry_equiv_pos_site_id
 _symmetry_equiv_pos_as_xyz
  1  'x, y, z'
loop_
 _atom_site_type_symbol
 _atom_site_label
 _atom_site_symmetry_multiplicity
 _atom_site_fract_x
 _atom_site_fract_y
 _atom_site_fract_z
 _atom_site_occupancy
 _atom_site_charge
  Cu  Cu1  1  0.500000  0.486160  0.804910  1.0  0.408
  Cu  Cu2  1  0.000000  0.513840  0.304910  1.0  0.4088
  Cu  Cu3  1  0.500000  0.986160  0.695090  1.0  0.4079
  Cu  Cu4  1  0.000000  0.013840  0.195090  1.0  0.4086
  Cu  Cu5  1  0.250000  0.250000  0.500000  1.0  0.2845
  Cu  Cu6  1  0.750000  0.750000  0.000000  1.0  0.2845
  Cu  Cu7  1  0.250000  0.750000  0.000000  1.0  0.2845
  Cu  Cu8  1  0.750000  0.250000  0.500000  1.0  0.2845
  Cu  Cu9  1  0.000000  0.986160  0.804910  1.0  0.408
  Cu  Cu10  1  0.500000  0.013840  0.304910  1.0  0.4088
  Cu  Cu11  1  0.000000  0.486160  0.695090  1.0  0.4079
  Cu  Cu12  1  0.500000  0.513840  0.195090  1.0  0.4086
  Cu  Cu13  1  0.750000  0.250000  0.000000  1.0  0.2845
  Cu  Cu14  1  0.250000  0.750000  0.500000  1.0  0.2845
  Cu  Cu15  1  0.750000  0.750000  0.500000  1.0  0.2845
  Cu  Cu16  1  0.250000  0.250000  0.000000  1.0  0.2845
  H  H17  1  0.283000  0.299800  0.610200  1.0  0.0866
  H  H18  1  0.353500  0.263100  0.450000  1.0  0.0784
  H  H19  1  0.421500  0.298000  0.474400  1.0  0.101
  H  H20  1  0.420000  0.335200  0.571300  1.0  0.1085
  H  H21  1  0.321800  0.334400  0.689200  1.0  0.2407
  H  H22  1  0.324400  0.399800  0.739900  1.0  0.1041
  H  H23  1  0.344000  0.366500  0.780900  1.0  0.0925
  H  H24  1  0.580600  0.585300  0.957700  1.0  0.2332
  H  H25  1  0.410400  0.447100  0.713600  1.0  0.0963
  H  H26  1  0.541000  0.542400  0.898900  1.0  0.0791
  H  H27  1  0.584700  0.510700  0.716500  1.0  0.075
  H  H28  1  0.653300  0.546500  0.723000  1.0  0.105
  H  H29  1  0.663400  0.584400  0.816800  1.0  0.1148
  H  H30  1  0.584300  0.652300  0.990600  1.0  0.085
  H  H31  1  0.609300  0.624100  0.039300  1.0  0.0868
  H  H32  1  0.650800  0.658700  0.124700  1.0  0.0949
  H  H33  1  0.217000  0.700200  0.110200  1.0  0.0867
  H  H34  1  0.146500  0.736900  0.950000  1.0  0.0782
  H  H35  1  0.078500  0.702000  0.974400  1.0  0.1006
  H  H36  1  0.080000  0.664800  0.071300  1.0  0.1078
  H  H37  1  0.178200  0.665600  0.189200  1.0  0.2408
  H  H38  1  0.175600  0.600200  0.239900  1.0  0.1045
  H  H39  1  0.156000  0.633500  0.280900  1.0  0.0915
  H  H40  1  0.919400  0.414700  0.457700  1.0  0.232
  H  H41  1  0.089600  0.552900  0.213600  1.0  0.0968
  H  H42  1  0.959000  0.457600  0.398900  1.0  0.0794
  H  H43  1  0.915300  0.489300  0.216500  1.0  0.0753
  H  H44  1  0.846700  0.453500  0.223000  1.0  0.1038
  H  H45  1  0.836600  0.415600  0.316800  1.0  0.1139
  H  H46  1  0.915700  0.347700  0.490600  1.0  0.0862
  H  H47  1  0.890700  0.375900  0.539300  1.0  0.087
  H  H48  1  0.849200  0.341300  0.624700  1.0  0.0948
  H  H49  1  0.717000  0.799800  0.889800  1.0  0.0864
  H  H50  1  0.646500  0.763100  0.050000  1.0  0.079
  H  H51  1  0.578500  0.798000  0.025600  1.0  0.1004
  H  H52  1  0.580000  0.835200  0.928700  1.0  0.1083
  H  H53  1  0.678200  0.834400  0.810800  1.0  0.2388
  H  H54  1  0.675600  0.899800  0.760100  1.0  0.1056
  H  H55  1  0.656000  0.866500  0.719100  1.0  0.0925
  H  H56  1  0.419400  0.085300  0.542300  1.0  0.2317
  H  H57  1  0.589600  0.947100  0.786400  1.0  0.0961
  H  H58  1  0.459000  0.042400  0.601100  1.0  0.0788
  H  H59  1  0.415300  0.010700  0.783500  1.0  0.0761
  H  H60  1  0.346700  0.046500  0.777000  1.0  0.1054
  H  H61  1  0.336600  0.084400  0.683200  1.0  0.1138
  H  H62  1  0.415700  0.152300  0.509400  1.0  0.0875
  H  H63  1  0.390700  0.124100  0.460700  1.0  0.086
  H  H64  1  0.349200  0.158700  0.375300  1.0  0.094
  H  H65  1  0.783000  0.200200  0.389800  1.0  0.0863
  H  H66  1  0.853500  0.236900  0.550000  1.0  0.0788
  H  H67  1  0.921500  0.202000  0.525600  1.0  0.1001
  H  H68  1  0.920000  0.164800  0.428700  1.0  0.1082
  H  H69  1  0.821800  0.165600  0.310800  1.0  0.2402
  H  H70  1  0.824400  0.100200  0.260100  1.0  0.1034
  H  H71  1  0.844000  0.133500  0.219100  1.0  0.0928
  H  H72  1  0.080600  0.914700  0.042300  1.0  0.2308
  H  H73  1  0.910400  0.052900  0.286400  1.0  0.0969
  H  H74  1  0.041000  0.957600  0.101100  1.0  0.0793
  H  H75  1  0.084700  0.989300  0.283500  1.0  0.0751
  H  H76  1  0.153300  0.953500  0.277000  1.0  0.1047
  H  H77  1  0.163400  0.915600  0.183200  1.0  0.1138
  H  H78  1  0.084300  0.847700  0.009400  1.0  0.0855
  H  H79  1  0.109300  0.875900  0.960700  1.0  0.0853
  H  H80  1  0.150800  0.841300  0.875300  1.0  0.0948
  H  H81  1  0.217000  0.200200  0.389800  1.0  0.0858
  H  H82  1  0.146500  0.236900  0.550000  1.0  0.079
  H  H83  1  0.078500  0.202000  0.525600  1.0  0.1004
  H  H84  1  0.080000  0.164800  0.428700  1.0  0.1082
  H  H85  1  0.178200  0.165600  0.310800  1.0  0.2397
  H  H86  1  0.175600  0.100200  0.260100  1.0  0.1042
  H  H87  1  0.156000  0.133500  0.219100  1.0  0.0926
  H  H88  1  0.919400  0.914700  0.042300  1.0  0.2306
  H  H89  1  0.089600  0.052900  0.286400  1.0  0.0964
  H  H90  1  0.959000  0.957600  0.101100  1.0  0.0791
  H  H91  1  0.915300  0.989300  0.283500  1.0  0.0758
  H  H92  1  0.846700  0.953500  0.277000  1.0  0.1052
  H  H93  1  0.836600  0.915600  0.183200  1.0  0.1141
  H  H94  1  0.915700  0.847700  0.009400  1.0  0.0869
  H  H95  1  0.890700  0.875900  0.960700  1.0  0.0861
  H  H96  1  0.849200  0.841300  0.875300  1.0  0.0942
  H  H97  1  0.283000  0.799800  0.889800  1.0  0.0857
  H  H98  1  0.353500  0.763100  0.050000  1.0  0.0785
  H  H99  1  0.421500  0.798000  0.025600  1.0  0.1001
  H  H100  1  0.420000  0.835200  0.928700  1.0  0.1085
  H  H101  1  0.321800  0.834400  0.810800  1.0  0.2395
  H  H102  1  0.324400  0.899800  0.760100  1.0  0.1038
  H  H103  1  0.344000  0.866500  0.719100  1.0  0.0925
  H  H104  1  0.580600  0.085300  0.542300  1.0  0.2318
  H  H105  1  0.410400  0.947100  0.786400  1.0  0.0962
  H  H106  1  0.541000  0.042400  0.601100  1.0  0.0786
  H  H107  1  0.584700  0.010700  0.783500  1.0  0.0755
  H  H108  1  0.653300  0.046500  0.777000  1.0  0.1048
  H  H109  1  0.663400  0.084400  0.683200  1.0  0.1145
  H  H110  1  0.584300  0.152300  0.509400  1.0  0.0857
  H  H111  1  0.609300  0.124100  0.460700  1.0  0.0856
  H  H112  1  0.650800  0.158700  0.375300  1.0  0.0945
  H  H113  1  0.783000  0.700200  0.110200  1.0  0.0859
  H  H114  1  0.853500  0.736900  0.950000  1.0  0.0784
  H  H115  1  0.921500  0.702000  0.974400  1.0  0.1009
  H  H116  1  0.920000  0.664800  0.071300  1.0  0.1078
  H  H117  1  0.821800  0.665600  0.189200  1.0  0.241
  H  H118  1  0.824400  0.600200  0.239900  1.0  0.1038
  H  H119  1  0.844000  0.633500  0.280900  1.0  0.0914
  H  H120  1  0.080600  0.414700  0.457700  1.0  0.2317
  H  H121  1  0.910400  0.552900  0.213600  1.0  0.0968
  H  H122  1  0.041000  0.457600  0.398900  1.0  0.0793
  H  H123  1  0.084700  0.489300  0.216500  1.0  0.0747
  H  H124  1  0.153300  0.453500  0.223000  1.0  0.1047
  H  H125  1  0.163400  0.415600  0.316800  1.0  0.1135
  H  H126  1  0.084300  0.347700  0.490600  1.0  0.0845
  H  H127  1  0.109300  0.375900  0.539300  1.0  0.0861
  H  H128  1  0.150800  0.341300  0.624700  1.0  0.0954
  H  H129  1  0.717000  0.299800  0.610200  1.0  0.0866
  H  H130  1  0.646500  0.263100  0.450000  1.0  0.0783
  H  H131  1  0.578500  0.298000  0.474400  1.0  0.1006
  H  H132  1  0.580000  0.335200  0.571300  1.0  0.1082
  H  H133  1  0.678200  0.334400  0.689200  1.0  0.2404
  H  H134  1  0.675600  0.399800  0.739900  1.0  0.106
  H  H135  1  0.656000  0.366500  0.780900  1.0  0.0925
  H  H136  1  0.419400  0.585300  0.957700  1.0  0.2336
  H  H137  1  0.589600  0.447100  0.713600  1.0  0.0969
  H  H138  1  0.459000  0.542400  0.898900  1.0  0.0792
  H  H139  1  0.415300  0.510700  0.716500  1.0  0.0755
  H  H140  1  0.346700  0.546500  0.723000  1.0  0.1041
  H  H141  1  0.336600  0.584400  0.816800  1.0  0.1141
  H  H142  1  0.415700  0.652300  0.990600  1.0  0.0872
  H  H143  1  0.390700  0.624100  0.039300  1.0  0.0873
  H  H144  1  0.349200  0.658700  0.124700  1.0  0.0943
  H  H145  1  0.783000  0.799800  0.610200  1.0  0.0866
  H  H146  1  0.853500  0.763100  0.450000  1.0  0.0784
  H  H147  1  0.921500  0.798000  0.474400  1.0  0.101
  H  H148  1  0.920000  0.835200  0.571300  1.0  0.1085
  H  H149  1  0.821800  0.834400  0.689200  1.0  0.2407
  H  H150  1  0.824400  0.899800  0.739900  1.0  0.1041
  H  H151  1  0.844000  0.866500  0.780900  1.0  0.0925
  H  H152  1  0.080600  0.085300  0.957700  1.0  0.2332
  H  H153  1  0.910400  0.947100  0.713600  1.0  0.0963
  H  H154  1  0.041000  0.042400  0.898900  1.0  0.0791
  H  H155  1  0.084700  0.010700  0.716500  1.0  0.075
  H  H156  1  0.153300  0.046500  0.723000  1.0  0.105
  H  H157  1  0.163400  0.084400  0.816800  1.0  0.1148
  H  H158  1  0.084300  0.152300  0.990600  1.0  0.085
  H  H159  1  0.109300  0.124100  0.039300  1.0  0.0868
  H  H160  1  0.150800  0.158700  0.124700  1.0  0.0949
  H  H161  1  0.717000  0.200200  0.110200  1.0  0.0867
  H  H162  1  0.646500  0.236900  0.950000  1.0  0.0782
  H  H163  1  0.578500  0.202000  0.974400  1.0  0.1006
  H  H164  1  0.580000  0.164800  0.071300  1.0  0.1078
  H  H165  1  0.678200  0.165600  0.189200  1.0  0.2408
  H  H166  1  0.675600  0.100200  0.239900  1.0  0.1045
  H  H167  1  0.656000  0.133500  0.280900  1.0  0.0915
  H  H168  1  0.419400  0.914700  0.457700  1.0  0.232
  H  H169  1  0.589600  0.052900  0.213600  1.0  0.0968
  H  H170  1  0.459000  0.957600  0.398900  1.0  0.0794
  H  H171  1  0.415300  0.989300  0.216500  1.0  0.0753
  H  H172  1  0.346700  0.953500  0.223000  1.0  0.1038
  H  H173  1  0.336600  0.915600  0.316800  1.0  0.1139
  H  H174  1  0.415700  0.847700  0.490600  1.0  0.0862
  H  H175  1  0.390700  0.875900  0.539300  1.0  0.087
  H  H176  1  0.349200  0.841300  0.624700  1.0  0.0948
  H  H177  1  0.217000  0.299800  0.889800  1.0  0.0864
  H  H178  1  0.146500  0.263100  0.050000  1.0  0.079
  H  H179  1  0.078500  0.298000  0.025600  1.0  0.1004
  H  H180  1  0.080000  0.335200  0.928700  1.0  0.1083
  H  H181  1  0.178200  0.334400  0.810800  1.0  0.2388
  H  H182  1  0.175600  0.399800  0.760100  1.0  0.1056
  H  H183  1  0.156000  0.366500  0.719100  1.0  0.0925
  H  H184  1  0.919400  0.585300  0.542300  1.0  0.2317
  H  H185  1  0.089600  0.447100  0.786400  1.0  0.0961
  H  H186  1  0.959000  0.542400  0.601100  1.0  0.0788
  H  H187  1  0.915300  0.510700  0.783500  1.0  0.0761
  H  H188  1  0.846700  0.546500  0.777000  1.0  0.1054
  H  H189  1  0.836600  0.584400  0.683200  1.0  0.1138
  H  H190  1  0.915700  0.652300  0.509400  1.0  0.0875
  H  H191  1  0.890700  0.624100  0.460700  1.0  0.086
  H  H192  1  0.849200  0.658700  0.375300  1.0  0.094
  H  H193  1  0.283000  0.700200  0.389800  1.0  0.0863
  H  H194  1  0.353500  0.736900  0.550000  1.0  0.0788
  H  H195  1  0.421500  0.702000  0.525600  1.0  0.1001
  H  H196  1  0.420000  0.664800  0.428700  1.0  0.1082
  H  H197  1  0.321800  0.665600  0.310800  1.0  0.2402
  H  H198  1  0.324400  0.600200  0.260100  1.0  0.1034
  H  H199  1  0.344000  0.633500  0.219100  1.0  0.0928
  H  H200  1  0.580600  0.414700  0.042300  1.0  0.2308
  H  H201  1  0.410400  0.552900  0.286400  1.0  0.0969
  H  H202  1  0.541000  0.457600  0.101100  1.0  0.0793
  H  H203  1  0.584700  0.489300  0.283500  1.0  0.0751
  H  H204  1  0.653300  0.453500  0.277000  1.0  0.1047
  H  H205  1  0.663400  0.415600  0.183200  1.0  0.1138
  H  H206  1  0.584300  0.347700  0.009400  1.0  0.0855
  H  H207  1  0.609300  0.375900  0.960700  1.0  0.0853
  H  H208  1  0.650800  0.341300  0.875300  1.0  0.0948
  H  H209  1  0.717000  0.700200  0.389800  1.0  0.0858
  H  H210  1  0.646500  0.736900  0.550000  1.0  0.079
  H  H211  1  0.578500  0.702000  0.525600  1.0  0.1004
  H  H212  1  0.580000  0.664800  0.428700  1.0  0.1082
  H  H213  1  0.678200  0.665600  0.310800  1.0  0.2397
  H  H214  1  0.675600  0.600200  0.260100  1.0  0.1042
  H  H215  1  0.656000  0.633500  0.219100  1.0  0.0926
  H  H216  1  0.419400  0.414700  0.042300  1.0  0.2306
  H  H217  1  0.589600  0.552900  0.286400  1.0  0.0964
  H  H218  1  0.459000  0.457600  0.101100  1.0  0.0791
  H  H219  1  0.415300  0.489300  0.283500  1.0  0.0758
  H  H220  1  0.346700  0.453500  0.277000  1.0  0.1052
  H  H221  1  0.336600  0.415600  0.183200  1.0  0.1141
  H  H222  1  0.415700  0.347700  0.009400  1.0  0.0869
  H  H223  1  0.390700  0.375900  0.960700  1.0  0.0861
  H  H224  1  0.349200  0.341300  0.875300  1.0  0.0942
  H  H225  1  0.783000  0.299800  0.889800  1.0  0.0857
  H  H226  1  0.853500  0.263100  0.050000  1.0  0.0785
  H  H227  1  0.921500  0.298000  0.025600  1.0  0.1001
  H  H228  1  0.920000  0.335200  0.928700  1.0  0.1085
  H  H229  1  0.821800  0.334400  0.810800  1.0  0.2395
  H  H230  1  0.824400  0.399800  0.760100  1.0  0.1038
  H  H231  1  0.844000  0.366500  0.719100  1.0  0.0925
  H  H232  1  0.080600  0.585300  0.542300  1.0  0.2318
  H  H233  1  0.910400  0.447100  0.786400  1.0  0.0962
  H  H234  1  0.041000  0.542400  0.601100  1.0  0.0786
  H  H235  1  0.084700  0.510700  0.783500  1.0  0.0755
  H  H236  1  0.153300  0.546500  0.777000  1.0  0.1048
  H  H237  1  0.163400  0.584400  0.683200  1.0  0.1145
  H  H238  1  0.084300  0.652300  0.509400  1.0  0.0857
  H  H239  1  0.109300  0.624100  0.460700  1.0  0.0856
  H  H240  1  0.150800  0.658700  0.375300  1.0  0.0946
  H  H241  1  0.283000  0.200200  0.110200  1.0  0.0859
  H  H242  1  0.353500  0.236900  0.950000  1.0  0.0784
  H  H243  1  0.421500  0.202000  0.974400  1.0  0.1009
  H  H244  1  0.420000  0.164800  0.071300  1.0  0.1078
  H  H245  1  0.321800  0.165600  0.189200  1.0  0.241
  H  H246  1  0.324400  0.100200  0.239900  1.0  0.1038
  H  H247  1  0.344000  0.133500  0.280900  1.0  0.0914
  H  H248  1  0.580600  0.914700  0.457700  1.0  0.2317
  H  H249  1  0.410400  0.052900  0.213600  1.0  0.0968
  H  H250  1  0.541000  0.957600  0.398900  1.0  0.0793
  H  H251  1  0.584700  0.989300  0.216500  1.0  0.0747
  H  H252  1  0.653300  0.953500  0.223000  1.0  0.1047
  H  H253  1  0.663400  0.915600  0.316800  1.0  0.1135
  H  H254  1  0.584300  0.847700  0.490600  1.0  0.0845
  H  H255  1  0.609300  0.875900  0.539300  1.0  0.0861
  H  H256  1  0.650800  0.841300  0.624700  1.0  0.0954
  H  H257  1  0.217000  0.799800  0.610200  1.0  0.0866
  H  H258  1  0.146500  0.763100  0.450000  1.0  0.0783
  H  H259  1  0.078500  0.798000  0.474400  1.0  0.1006
  H  H260  1  0.080000  0.835200  0.571300  1.0  0.1082
  H  H261  1  0.178200  0.834400  0.689200  1.0  0.2404
  H  H262  1  0.175600  0.899800  0.739900  1.0  0.106
  H  H263  1  0.156000  0.866500  0.780900  1.0  0.0925
  H  H264  1  0.919400  0.085300  0.957700  1.0  0.2336
  H  H265  1  0.089600  0.947100  0.713600  1.0  0.0969
  H  H266  1  0.959000  0.042400  0.898900  1.0  0.0792
  H  H267  1  0.915300  0.010700  0.716500  1.0  0.0755
  H  H268  1  0.846700  0.046500  0.723000  1.0  0.1041
  H  H269  1  0.836600  0.084400  0.816800  1.0  0.1141
  H  H270  1  0.915700  0.152300  0.990600  1.0  0.0872
  H  H271  1  0.890700  0.124100  0.039300  1.0  0.0873
  H  H272  1  0.849200  0.158700  0.124700  1.0  0.0942
  C  C273  1  0.311400  0.299160  0.582900  1.0  0.0802
  C  C274  1  0.352700  0.277820  0.488600  1.0  0.1549
  C  C275  1  0.393800  0.298700  0.503100  1.0  -0.127
  C  C276  1  0.393200  0.320700  0.560600  1.0  -0.1079
  C  C277  1  0.351700  0.320380  0.600900  1.0  0.2025
  C  C278  1  0.373000  0.369430  0.682100  1.0  0.3592
  C  C279  1  0.353500  0.385400  0.749300  1.0  -0.1099
  C  C280  1  0.416000  0.436470  0.756300  1.0  0.1209
  C  C281  1  0.563000  0.544200  0.862000  1.0  0.0841
  C  C282  1  0.589200  0.524900  0.755500  1.0  0.1416
  C  C283  1  0.630000  0.546700  0.758500  1.0  -0.1297
  C  C284  1  0.636300  0.569100  0.814500  1.0  -0.1129
  C  C285  1  0.615200  0.640100  0.000800  1.0  -0.1071
  C  C286  1  0.663700  0.671210  0.087300  1.0  0.1031
  C  C287  1  0.631600  0.618560  0.937000  1.0  0.3103
  C  C288  1  0.601500  0.568360  0.867400  1.0  0.2042
  C  C289  1  0.188600  0.700840  0.082900  1.0  0.0811
  C  C290  1  0.147300  0.722180  0.988600  1.0  0.1548
  C  C291  1  0.106200  0.701300  0.003100  1.0  -0.1284
  C  C292  1  0.106800  0.679300  0.060600  1.0  -0.109
  C  C293  1  0.148300  0.679620  0.100900  1.0  0.2026
  C  C294  1  0.127000  0.630570  0.182100  1.0  0.3574
  C  C295  1  0.146500  0.614600  0.249300  1.0  -0.1097
  C  C296  1  0.084000  0.563530  0.256300  1.0  0.1207
  C  C297  1  0.937000  0.455800  0.362000  1.0  0.0841
  C  C298  1  0.910800  0.475100  0.255500  1.0  0.1422
  C  C299  1  0.870000  0.453300  0.258500  1.0  -0.131
  C  C300  1  0.863700  0.430900  0.314500  1.0  -0.113
  C  C301  1  0.884800  0.359900  0.500800  1.0  -0.108
  C  C302  1  0.836300  0.328790  0.587300  1.0  0.1027
  C  C303  1  0.868400  0.381440  0.437000  1.0  0.3102
  C  C304  1  0.898500  0.431640  0.367400  1.0  0.2037
  C  C305  1  0.688600  0.799160  0.917100  1.0  0.0807
  C  C306  1  0.647300  0.777820  0.011400  1.0  0.1548
  C  C307  1  0.606200  0.798700  0.996900  1.0  -0.1292
  C  C308  1  0.606800  0.820700  0.939400  1.0  -0.1087
  C  C309  1  0.648300  0.820380  0.899100  1.0  0.2027
  C  C310  1  0.627000  0.869430  0.817900  1.0  0.3586
  C  C311  1  0.646500  0.885400  0.750700  1.0  -0.1106
  C  C312  1  0.584000  0.936470  0.743700  1.0  0.1202
  C  C313  1  0.437000  0.044200  0.638000  1.0  0.085
  C  C314  1  0.410800  0.024900  0.744500  1.0  0.1443
  C  C315  1  0.370000  0.046700  0.741500  1.0  -0.1324
  C  C316  1  0.363700  0.069100  0.685500  1.0  -0.1137
  C  C317  1  0.384800  0.140100  0.499200  1.0  -0.1096
  C  C318  1  0.336300  0.171210  0.412700  1.0  0.1031
  C  C319  1  0.368400  0.118560  0.563000  1.0  0.3111
  C  C320  1  0.398500  0.068360  0.632600  1.0  0.204
  C  C321  1  0.811400  0.200840  0.417100  1.0  0.0805
  C  C322  1  0.852700  0.222180  0.511400  1.0  0.1548
  C  C323  1  0.893800  0.201300  0.496900  1.0  -0.1263
  C  C324  1  0.893200  0.179300  0.439400  1.0  -0.107
  C  C325  1  0.851700  0.179620  0.399100  1.0  0.2025
  C  C326  1  0.873000  0.130570  0.317900  1.0  0.3596
  C  C327  1  0.853500  0.114600  0.250700  1.0  -0.1092
  C  C328  1  0.916000  0.063530  0.243700  1.0  0.1202
  C  C329  1  0.063000  0.955800  0.138000  1.0  0.0843
  C  C330  1  0.089200  0.975100  0.244500  1.0  0.1436
  C  C331  1  0.130000  0.953300  0.241500  1.0  -0.1301
  C  C332  1  0.136300  0.930900  0.185500  1.0  -0.1124
  C  C333  1  0.115200  0.859900  0.999200  1.0  -0.1072
  C  C334  1  0.163700  0.828790  0.912700  1.0  0.1046
  C  C335  1  0.131600  0.881440  0.063000  1.0  0.3115
  C  C336  1  0.101500  0.931640  0.132600  1.0  0.2044
  C  C337  1  0.188600  0.200840  0.417100  1.0  0.0816
  C  C338  1  0.147300  0.222180  0.511400  1.0  0.1538
  C  C339  1  0.106200  0.201300  0.496900  1.0  -0.1291
  C  C340  1  0.106800  0.179300  0.439400  1.0  -0.1081
  C  C341  1  0.148300  0.179620  0.399100  1.0  0.2025
  C  C342  1  0.127000  0.130570  0.317900  1.0  0.3583
  C  C343  1  0.146500  0.114600  0.250700  1.0  -0.1102
  C  C344  1  0.084000  0.063530  0.243700  1.0  0.1177
  C  C345  1  0.937000  0.955800  0.138000  1.0  0.0855
  C  C346  1  0.910800  0.975100  0.244500  1.0  0.1437
  C  C347  1  0.870000  0.953300  0.241500  1.0  -0.1319
  C  C348  1  0.863700  0.930900  0.185500  1.0  -0.113
  C  C349  1  0.884800  0.859900  0.999200  1.0  -0.1092
  C  C350  1  0.836300  0.828790  0.912700  1.0  0.1034
  C  C351  1  0.868400  0.881440  0.063000  1.0  0.3115
  C  C352  1  0.898500  0.931640  0.132600  1.0  0.204
  C  C353  1  0.311400  0.799160  0.917100  1.0  0.0802
  C  C354  1  0.352700  0.777820  0.011400  1.0  0.1557
  C  C355  1  0.393800  0.798700  0.996900  1.0  -0.126
  C  C356  1  0.393200  0.820700  0.939400  1.0  -0.1067
  C  C357  1  0.351700  0.820380  0.899100  1.0  0.2026
  C  C358  1  0.373000  0.869430  0.817900  1.0  0.3596
  C  C359  1  0.353500  0.885400  0.750700  1.0  -0.11
  C  C360  1  0.416000  0.936470  0.743700  1.0  0.1171
  C  C361  1  0.563000  0.044200  0.638000  1.0  0.0841
  C  C362  1  0.589200  0.024900  0.744500  1.0  0.1441
  C  C363  1  0.630000  0.046700  0.741500  1.0  -0.1305
  C  C364  1  0.636300  0.069100  0.685500  1.0  -0.1128
  C  C365  1  0.615200  0.140100  0.499200  1.0  -0.1079
  C  C366  1  0.663700  0.171210  0.412700  1.0  0.1043
  C  C367  1  0.631600  0.118560  0.563000  1.0  0.3107
  C  C368  1  0.601500  0.068360  0.632600  1.0  0.2044
  C  C369  1  0.811400  0.700840  0.082900  1.0  0.0802
  C  C370  1  0.852700  0.722180  0.988600  1.0  0.1545
  C  C371  1  0.893800  0.701300  0.003100  1.0  -0.127
  C  C372  1  0.893200  0.679300  0.060600  1.0  -0.1079
  C  C373  1  0.851700  0.679620  0.100900  1.0  0.2025
  C  C374  1  0.873000  0.630570  0.182100  1.0  0.3591
  C  C375  1  0.853500  0.614600  0.249300  1.0  -0.109
  C  C376  1  0.916000  0.563530  0.256300  1.0  0.1177
  C  C377  1  0.063000  0.455800  0.362000  1.0  0.0836
  C  C378  1  0.089200  0.475100  0.255500  1.0  0.1413
  C  C379  1  0.130000  0.453300  0.258500  1.0  -0.1297
  C  C380  1  0.136300  0.430900  0.314500  1.0  -0.1125
  C  C381  1  0.115200  0.359900  0.500800  1.0  -0.1067
  C  C382  1  0.163700  0.328790  0.587300  1.0  0.1039
  C  C383  1  0.131600  0.381440  0.437000  1.0  0.3105
  C  C384  1  0.101500  0.431640  0.367400  1.0  0.2041
  C  C385  1  0.688600  0.299160  0.582900  1.0  0.0807
  C  C386  1  0.647300  0.277820  0.488600  1.0  0.1555
  C  C387  1  0.606200  0.298700  0.503100  1.0  -0.1287
  C  C388  1  0.606800  0.320700  0.560600  1.0  -0.1099
  C  C389  1  0.648300  0.320380  0.600900  1.0  0.2027
  C  C390  1  0.627000  0.369430  0.682100  1.0  0.3581
  C  C391  1  0.646500  0.385400  0.749300  1.0  -0.1099
  C  C392  1  0.584000  0.436470  0.756300  1.0  0.1183
  C  C393  1  0.437000  0.544200  0.862000  1.0  0.0844
  C  C394  1  0.410800  0.524900  0.755500  1.0  0.1424
  C  C395  1  0.370000  0.546700  0.758500  1.0  -0.131
  C  C396  1  0.363700  0.569100  0.814500  1.0  -0.1141
  C  C397  1  0.384800  0.640100  0.000800  1.0  -0.1083
  C  C398  1  0.336300  0.671210  0.087300  1.0  0.1018
  C  C399  1  0.368400  0.618560  0.937000  1.0  0.3106
  C  C400  1  0.398500  0.568360  0.867400  1.0  0.2038
  C  C401  1  0.811400  0.799160  0.582900  1.0  0.0802
  C  C402  1  0.852700  0.777820  0.488600  1.0  0.1549
  C  C403  1  0.893800  0.798700  0.503100  1.0  -0.127
  C  C404  1  0.893200  0.820700  0.560600  1.0  -0.1079
  C  C405  1  0.851700  0.820380  0.600900  1.0  0.2025
  C  C406  1  0.873000  0.869430  0.682100  1.0  0.3592
  C  C407  1  0.853500  0.885400  0.749300  1.0  -0.1099
  C  C408  1  0.916000  0.936470  0.756300  1.0  0.1209
  C  C409  1  0.063000  0.044200  0.862000  1.0  0.0841
  C  C410  1  0.089200  0.024900  0.755500  1.0  0.1416
  C  C411  1  0.130000  0.046700  0.758500  1.0  -0.1297
  C  C412  1  0.136300  0.069100  0.814500  1.0  -0.1129
  C  C413  1  0.115200  0.140100  0.000800  1.0  -0.1071
  C  C414  1  0.163700  0.171210  0.087300  1.0  0.1031
  C  C415  1  0.131600  0.118560  0.937000  1.0  0.3103
  C  C416  1  0.101500  0.068360  0.867400  1.0  0.2042
  C  C417  1  0.688600  0.200840  0.082900  1.0  0.0811
  C  C418  1  0.647300  0.222180  0.988600  1.0  0.1548
  C  C419  1  0.606200  0.201300  0.003100  1.0  -0.1284
  C  C420  1  0.606800  0.179300  0.060600  1.0  -0.109
  C  C421  1  0.648300  0.179620  0.100900  1.0  0.2026
  C  C422  1  0.627000  0.130570  0.182100  1.0  0.3574
  C  C423  1  0.646500  0.114600  0.249300  1.0  -0.1097
  C  C424  1  0.584000  0.063530  0.256300  1.0  0.1207
  C  C425  1  0.437000  0.955800  0.362000  1.0  0.0841
  C  C426  1  0.410800  0.975100  0.255500  1.0  0.1422
  C  C427  1  0.370000  0.953300  0.258500  1.0  -0.131
  C  C428  1  0.363700  0.930900  0.314500  1.0  -0.113
  C  C429  1  0.384800  0.859900  0.500800  1.0  -0.108
  C  C430  1  0.336300  0.828790  0.587300  1.0  0.1027
  C  C431  1  0.368400  0.881440  0.437000  1.0  0.3102
  C  C432  1  0.398500  0.931640  0.367400  1.0  0.2037
  C  C433  1  0.188600  0.299160  0.917100  1.0  0.0807
  C  C434  1  0.147300  0.277820  0.011400  1.0  0.1548
  C  C435  1  0.106200  0.298700  0.996900  1.0  -0.1292
  C  C436  1  0.106800  0.320700  0.939400  1.0  -0.1087
  C  C437  1  0.148300  0.320380  0.899100  1.0  0.2027
  C  C438  1  0.127000  0.369430  0.817900  1.0  0.3586
  C  C439  1  0.146500  0.385400  0.750700  1.0  -0.1106
  C  C440  1  0.084000  0.436470  0.743700  1.0  0.1202
  C  C441  1  0.937000  0.544200  0.638000  1.0  0.085
  C  C442  1  0.910800  0.524900  0.744500  1.0  0.1443
  C  C443  1  0.870000  0.546700  0.741500  1.0  -0.1324
  C  C444  1  0.863700  0.569100  0.685500  1.0  -0.1137
  C  C445  1  0.884800  0.640100  0.499200  1.0  -0.1096
  C  C446  1  0.836300  0.671210  0.412700  1.0  0.1031
  C  C447  1  0.868400  0.618560  0.563000  1.0  0.3111
  C  C448  1  0.898500  0.568360  0.632600  1.0  0.204
  C  C449  1  0.311400  0.700840  0.417100  1.0  0.0805
  C  C450  1  0.352700  0.722180  0.511400  1.0  0.1548
  C  C451  1  0.393800  0.701300  0.496900  1.0  -0.1263
  C  C452  1  0.393200  0.679300  0.439400  1.0  -0.107
  C  C453  1  0.351700  0.679620  0.399100  1.0  0.2025
  C  C454  1  0.373000  0.630570  0.317900  1.0  0.3596
  C  C455  1  0.353500  0.614600  0.250700  1.0  -0.1092
  C  C456  1  0.416000  0.563530  0.243700  1.0  0.1202
  C  C457  1  0.563000  0.455800  0.138000  1.0  0.0843
  C  C458  1  0.589200  0.475100  0.244500  1.0  0.1436
  C  C459  1  0.630000  0.453300  0.241500  1.0  -0.1301
  C  C460  1  0.636300  0.430900  0.185500  1.0  -0.1124
  C  C461  1  0.615200  0.359900  0.999200  1.0  -0.1072
  C  C462  1  0.663700  0.328790  0.912700  1.0  0.1046
  C  C463  1  0.631600  0.381440  0.063000  1.0  0.3115
  C  C464  1  0.601500  0.431640  0.132600  1.0  0.2044
  C  C465  1  0.688600  0.700840  0.417100  1.0  0.0816
  C  C466  1  0.647300  0.722180  0.511400  1.0  0.1538
  C  C467  1  0.606200  0.701300  0.496900  1.0  -0.1291
  C  C468  1  0.606800  0.679300  0.439400  1.0  -0.1081
  C  C469  1  0.648300  0.679620  0.399100  1.0  0.2025
  C  C470  1  0.627000  0.630570  0.317900  1.0  0.3583
  C  C471  1  0.646500  0.614600  0.250700  1.0  -0.1102
  C  C472  1  0.584000  0.563530  0.243700  1.0  0.1177
  C  C473  1  0.437000  0.455800  0.138000  1.0  0.0855
  C  C474  1  0.410800  0.475100  0.244500  1.0  0.1437
  C  C475  1  0.370000  0.453300  0.241500  1.0  -0.1319
  C  C476  1  0.363700  0.430900  0.185500  1.0  -0.113
  C  C477  1  0.384800  0.359900  0.999200  1.0  -0.1092
  C  C478  1  0.336300  0.328790  0.912700  1.0  0.1034
  C  C479  1  0.368400  0.381440  0.063000  1.0  0.3115
  C  C480  1  0.398500  0.431640  0.132600  1.0  0.204
  C  C481  1  0.811400  0.299160  0.917100  1.0  0.0802
  C  C482  1  0.852700  0.277820  0.011400  1.0  0.1557
  C  C483  1  0.893800  0.298700  0.996900  1.0  -0.126
  C  C484  1  0.893200  0.320700  0.939400  1.0  -0.1067
  C  C485  1  0.851700  0.320380  0.899100  1.0  0.2026
  C  C486  1  0.873000  0.369430  0.817900  1.0  0.3596
  C  C487  1  0.853500  0.385400  0.750700  1.0  -0.11
  C  C488  1  0.916000  0.436470  0.743700  1.0  0.1171
  C  C489  1  0.063000  0.544200  0.638000  1.0  0.0841
  C  C490  1  0.089200  0.524900  0.744500  1.0  0.1441
  C  C491  1  0.130000  0.546700  0.741500  1.0  -0.1305
  C  C492  1  0.136300  0.569100  0.685500  1.0  -0.1128
  C  C493  1  0.115200  0.640100  0.499200  1.0  -0.1079
  C  C494  1  0.163700  0.671210  0.412700  1.0  0.1043
  C  C495  1  0.131600  0.618560  0.563000  1.0  0.3107
  C  C496  1  0.101500  0.568360  0.632600  1.0  0.2044
  C  C497  1  0.311400  0.200840  0.082900  1.0  0.0802
  C  C498  1  0.352700  0.222180  0.988600  1.0  0.1545
  C  C499  1  0.393800  0.201300  0.003100  1.0  -0.127
  C  C500  1  0.393200  0.179300  0.060600  1.0  -0.1079
  C  C501  1  0.351700  0.179620  0.100900  1.0  0.2025
  C  C502  1  0.373000  0.130570  0.182100  1.0  0.3591
  C  C503  1  0.353500  0.114600  0.249300  1.0  -0.109
  C  C504  1  0.416000  0.063530  0.256300  1.0  0.1177
  C  C505  1  0.563000  0.955800  0.362000  1.0  0.0836
  C  C506  1  0.589200  0.975100  0.255500  1.0  0.1413
  C  C507  1  0.630000  0.953300  0.258500  1.0  -0.1297
  C  C508  1  0.636300  0.930900  0.314500  1.0  -0.1125
  C  C509  1  0.615200  0.859900  0.500800  1.0  -0.1067
  C  C510  1  0.663700  0.828790  0.587300  1.0  0.1039
  C  C511  1  0.631600  0.881440  0.437000  1.0  0.3105
  C  C512  1  0.601500  0.931640  0.367400  1.0  0.2041
  C  C513  1  0.188600  0.799160  0.582900  1.0  0.0807
  C  C514  1  0.147300  0.777820  0.488600  1.0  0.1555
  C  C515  1  0.106200  0.798700  0.503100  1.0  -0.1287
  C  C516  1  0.106800  0.820700  0.560600  1.0  -0.1099
  C  C517  1  0.148300  0.820380  0.600900  1.0  0.2027
  C  C518  1  0.127000  0.869430  0.682100  1.0  0.3581
  C  C519  1  0.146500  0.885400  0.749300  1.0  -0.1099
  C  C520  1  0.084000  0.936470  0.756300  1.0  0.1183
  C  C521  1  0.937000  0.044200  0.862000  1.0  0.0844
  C  C522  1  0.910800  0.024900  0.755500  1.0  0.1424
  C  C523  1  0.870000  0.046700  0.758500  1.0  -0.131
  C  C524  1  0.863700  0.069100  0.814500  1.0  -0.1141
  C  C525  1  0.884800  0.140100  0.000800  1.0  -0.1083
  C  C526  1  0.836300  0.171210  0.087300  1.0  0.1018
  C  C527  1  0.868400  0.118560  0.937000  1.0  0.3106
  C  C528  1  0.898500  0.068360  0.867400  1.0  0.2038
  N  N529  1  0.312400  0.277910  0.527300  1.0  -0.3179
  N  N530  1  0.555200  0.523020  0.806700  1.0  -0.3438
  N  N531  1  0.447900  0.446990  0.803000  1.0  -0.2509
  N  N532  1  0.345400  0.340750  0.662000  1.0  -0.3552
  N  N533  1  0.392500  0.407520  0.781100  1.0  0.1617
  N  N534  1  0.410100  0.400510  0.844900  1.0  -0.2834
  N  N535  1  0.443800  0.423910  0.857600  1.0  -0.1285
  N  N536  1  0.601600  0.590270  0.925700  1.0  -0.341
  N  N537  1  0.652400  0.665880  0.020100  1.0  0.1735
  N  N538  1  0.676900  0.689380  0.982300  1.0  -0.1544
  N  N539  1  0.705400  0.708550  0.024300  1.0  -0.2606
  N  N540  1  0.695200  0.696390  0.090300  1.0  -0.2065
  N  N541  1  0.187600  0.722090  0.027300  1.0  -0.3203
  N  N542  1  0.944800  0.476980  0.306700  1.0  -0.3448
  N  N543  1  0.052100  0.553010  0.303000  1.0  -0.2503
  N  N544  1  0.154600  0.659250  0.162000  1.0  -0.3546
  N  N545  1  0.107500  0.592480  0.281100  1.0  0.1622
  N  N546  1  0.089900  0.599490  0.344900  1.0  -0.2829
  N  N547  1  0.056200  0.576090  0.357600  1.0  -0.1298
  N  N548  1  0.898400  0.409730  0.425700  1.0  -0.3421
  N  N549  1  0.847600  0.334120  0.520100  1.0  0.1734
  N  N550  1  0.823100  0.310620  0.482300  1.0  -0.1541
  N  N551  1  0.794600  0.291450  0.524300  1.0  -0.2611
  N  N552  1  0.804800  0.303610  0.590300  1.0  -0.2046
  N  N553  1  0.687600  0.777910  0.972700  1.0  -0.32
  N  N554  1  0.444800  0.023020  0.693300  1.0  -0.3447
  N  N555  1  0.552100  0.946990  0.697000  1.0  -0.251
  N  N556  1  0.654600  0.840750  0.838000  1.0  -0.3542
  N  N557  1  0.607500  0.907520  0.718900  1.0  0.1616
  N  N558  1  0.589900  0.900510  0.655100  1.0  -0.2818
  N  N559  1  0.556200  0.923910  0.642400  1.0  -0.129
  N  N560  1  0.398400  0.090270  0.574300  1.0  -0.3421
  N  N561  1  0.347600  0.165880  0.479900  1.0  0.1736
  N  N562  1  0.323100  0.189380  0.517700  1.0  -0.158
  N  N563  1  0.294600  0.208550  0.475700  1.0  -0.2609
  N  N564  1  0.304800  0.196390  0.409700  1.0  -0.2043
  N  N565  1  0.812400  0.222090  0.472700  1.0  -0.3185
  N  N566  1  0.055200  0.976980  0.193300  1.0  -0.3424
  N  N567  1  0.947900  0.053010  0.197000  1.0  -0.2511
  N  N568  1  0.845400  0.159250  0.338000  1.0  -0.3546
  N  N569  1  0.892500  0.092480  0.218900  1.0  0.1627
  N  N570  1  0.910100  0.099490  0.155100  1.0  -0.2811
  N  N571  1  0.943800  0.076090  0.142400  1.0  -0.1302
  N  N572  1  0.101600  0.909730  0.074300  1.0  -0.3415
  N  N573  1  0.152400  0.834120  0.979900  1.0  0.1736
  N  N574  1  0.176900  0.810620  0.017700  1.0  -0.1575
  N  N575  1  0.205400  0.791450  0.975700  1.0  -0.2608
  N  N576  1  0.195200  0.803610  0.909700  1.0  -0.2063
  N  N577  1  0.187600  0.222090  0.472700  1.0  -0.3205
  N  N578  1  0.944800  0.976980  0.193300  1.0  -0.3447
  N  N579  1  0.052100  0.053010  0.197000  1.0  -0.251
  N  N580  1  0.154600  0.159250  0.338000  1.0  -0.3539
  N  N581  1  0.107500  0.092480  0.218900  1.0  0.1624
  N  N582  1  0.089900  0.099490  0.155100  1.0  -0.2809
  N  N583  1  0.056200  0.076090  0.142400  1.0  -0.1298
  N  N584  1  0.898400  0.909730  0.074300  1.0  -0.3422
  N  N585  1  0.847600  0.834120  0.979900  1.0  0.1737
  N  N586  1  0.823100  0.810620  0.017700  1.0  -0.1575
  N  N587  1  0.794600  0.791450  0.975700  1.0  -0.2612
  N  N588  1  0.804800  0.803610  0.909700  1.0  -0.2052
  N  N589  1  0.312400  0.777910  0.972700  1.0  -0.3179
  N  N590  1  0.555200  0.023020  0.693300  1.0  -0.343
  N  N591  1  0.447900  0.946990  0.697000  1.0  -0.2514
  N  N592  1  0.345400  0.840750  0.838000  1.0  -0.3549
  N  N593  1  0.392500  0.907520  0.718900  1.0  0.1618
  N  N594  1  0.410100  0.900510  0.655100  1.0  -0.2819
  N  N595  1  0.443800  0.923910  0.642400  1.0  -0.1292
  N  N596  1  0.601600  0.090270  0.574300  1.0  -0.3414
  N  N597  1  0.652400  0.165880  0.479900  1.0  0.1736
  N  N598  1  0.676900  0.189380  0.517700  1.0  -0.1581
  N  N599  1  0.705400  0.208550  0.475700  1.0  -0.2606
  N  N600  1  0.695200  0.196390  0.409700  1.0  -0.2058
  N  N601  1  0.812400  0.722090  0.027300  1.0  -0.3184
  N  N602  1  0.055200  0.476980  0.306700  1.0  -0.3429
  N  N603  1  0.947900  0.553010  0.303000  1.0  -0.2504
  N  N604  1  0.845400  0.659250  0.162000  1.0  -0.3552
  N  N605  1  0.892500  0.592480  0.281100  1.0  0.1625
  N  N606  1  0.910100  0.599490  0.344900  1.0  -0.2828
  N  N607  1  0.943800  0.576090  0.357600  1.0  -0.1288
  N  N608  1  0.101600  0.409730  0.425700  1.0  -0.3412
  N  N609  1  0.152400  0.334120  0.520100  1.0  0.1736
  N  N610  1  0.176900  0.310620  0.482300  1.0  -0.1544
  N  N611  1  0.205400  0.291450  0.524300  1.0  -0.2603
  N  N612  1  0.195200  0.303610  0.590300  1.0  -0.2055
  N  N613  1  0.687600  0.277910  0.527300  1.0  -0.3199
  N  N614  1  0.444800  0.523020  0.806700  1.0  -0.345
  N  N615  1  0.552100  0.446990  0.803000  1.0  -0.2509
  N  N616  1  0.654600  0.340750  0.662000  1.0  -0.3545
  N  N617  1  0.607500  0.407520  0.781100  1.0  0.1614
  N  N618  1  0.589900  0.400510  0.844900  1.0  -0.2836
  N  N619  1  0.556200  0.423910  0.857600  1.0  -0.1296
  N  N620  1  0.398400  0.590270  0.925700  1.0  -0.3418
  N  N621  1  0.347600  0.665880  0.020100  1.0  0.1733
  N  N622  1  0.323100  0.689380  0.982300  1.0  -0.1539
  N  N623  1  0.294600  0.708550  0.024300  1.0  -0.2599
  N  N624  1  0.304800  0.696390  0.090300  1.0  -0.2056
  N  N625  1  0.812400  0.777910  0.527300  1.0  -0.3179
  N  N626  1  0.055200  0.023020  0.806700  1.0  -0.3438
  N  N627  1  0.947900  0.946990  0.803000  1.0  -0.2509
  N  N628  1  0.845400  0.840750  0.662000  1.0  -0.3552
  N  N629  1  0.892500  0.907520  0.781100  1.0  0.1617
  N  N630  1  0.910100  0.900510  0.844900  1.0  -0.2834
  N  N631  1  0.943800  0.923910  0.857600  1.0  -0.1285
  N  N632  1  0.101600  0.090270  0.925700  1.0  -0.341
  N  N633  1  0.152400  0.165880  0.020100  1.0  0.1735
  N  N634  1  0.176900  0.189380  0.982300  1.0  -0.1544
  N  N635  1  0.205400  0.208550  0.024300  1.0  -0.2606
  N  N636  1  0.195200  0.196390  0.090300  1.0  -0.2065
  N  N637  1  0.687600  0.222090  0.027300  1.0  -0.3203
  N  N638  1  0.444800  0.976980  0.306700  1.0  -0.3448
  N  N639  1  0.552100  0.053010  0.303000  1.0  -0.2503
  N  N640  1  0.654600  0.159250  0.162000  1.0  -0.3546
  N  N641  1  0.607500  0.092480  0.281100  1.0  0.1622
  N  N642  1  0.589900  0.099490  0.344900  1.0  -0.2829
  N  N643  1  0.556200  0.076090  0.357600  1.0  -0.1298
  N  N644  1  0.398400  0.909730  0.425700  1.0  -0.3421
  N  N645  1  0.347600  0.834120  0.520100  1.0  0.1734
  N  N646  1  0.323100  0.810620  0.482300  1.0  -0.1541
  N  N647  1  0.294600  0.791450  0.524300  1.0  -0.2611
  N  N648  1  0.304800  0.803610  0.590300  1.0  -0.2046
  N  N649  1  0.187600  0.277910  0.972700  1.0  -0.32
  N  N650  1  0.944800  0.523020  0.693300  1.0  -0.3447
  N  N651  1  0.052100  0.446990  0.697000  1.0  -0.251
  N  N652  1  0.154600  0.340750  0.838000  1.0  -0.3542
  N  N653  1  0.107500  0.407520  0.718900  1.0  0.1616
  N  N654  1  0.089900  0.400510  0.655100  1.0  -0.2818
  N  N655  1  0.056200  0.423910  0.642400  1.0  -0.129
  N  N656  1  0.898400  0.590270  0.574300  1.0  -0.3421
  N  N657  1  0.847600  0.665880  0.479900  1.0  0.1736
  N  N658  1  0.823100  0.689380  0.517700  1.0  -0.158
  N  N659  1  0.794600  0.708550  0.475700  1.0  -0.2609
  N  N660  1  0.804800  0.696390  0.409700  1.0  -0.2043
  N  N661  1  0.312400  0.722090  0.472700  1.0  -0.3185
  N  N662  1  0.555200  0.476980  0.193300  1.0  -0.3424
  N  N663  1  0.447900  0.553010  0.197000  1.0  -0.2511
  N  N664  1  0.345400  0.659250  0.338000  1.0  -0.3546
  N  N665  1  0.392500  0.592480  0.218900  1.0  0.1627
  N  N666  1  0.410100  0.599490  0.155100  1.0  -0.2811
  N  N667  1  0.443800  0.576090  0.142400  1.0  -0.1302
  N  N668  1  0.601600  0.409730  0.074300  1.0  -0.3415
  N  N669  1  0.652400  0.334120  0.979900  1.0  0.1736
  N  N670  1  0.676900  0.310620  0.017700  1.0  -0.1575
  N  N671  1  0.705400  0.291450  0.975700  1.0  -0.2608
  N  N672  1  0.695200  0.303610  0.909700  1.0  -0.2063
  N  N673  1  0.687600  0.722090  0.472700  1.0  -0.3205
  N  N674  1  0.444800  0.476980  0.193300  1.0  -0.3447
  N  N675  1  0.552100  0.553010  0.197000  1.0  -0.251
  N  N676  1  0.654600  0.659250  0.338000  1.0  -0.3539
  N  N677  1  0.607500  0.592480  0.218900  1.0  0.1624
  N  N678  1  0.589900  0.599490  0.155100  1.0  -0.2809
  N  N679  1  0.556200  0.576090  0.142400  1.0  -0.1298
  N  N680  1  0.398400  0.409730  0.074300  1.0  -0.3422
  N  N681  1  0.347600  0.334120  0.979900  1.0  0.1737
  N  N682  1  0.323100  0.310620  0.017700  1.0  -0.1575
  N  N683  1  0.294600  0.291450  0.975700  1.0  -0.2612
  N  N684  1  0.304800  0.303610  0.909700  1.0  -0.2052
  N  N685  1  0.812400  0.277910  0.972700  1.0  -0.3179
  N  N686  1  0.055200  0.523020  0.693300  1.0  -0.343
  N  N687  1  0.947900  0.446990  0.697000  1.0  -0.2514
  N  N688  1  0.845400  0.340750  0.838000  1.0  -0.3549
  N  N689  1  0.892500  0.407520  0.718900  1.0  0.1618
  N  N690  1  0.910100  0.400510  0.655100  1.0  -0.2819
  N  N691  1  0.943800  0.423910  0.642400  1.0  -0.1292
  N  N692  1  0.101600  0.590270  0.574300  1.0  -0.3414
  N  N693  1  0.152400  0.665880  0.479900  1.0  0.1736
  N  N694  1  0.176900  0.689380  0.517700  1.0  -0.1581
  N  N695  1  0.205400  0.708550  0.475700  1.0  -0.2606
  N  N696  1  0.195200  0.696390  0.409700  1.0  -0.2058
  N  N697  1  0.312400  0.222090  0.027300  1.0  -0.3184
  N  N698  1  0.555200  0.976980  0.306700  1.0  -0.3429
  N  N699  1  0.447900  0.053010  0.303000  1.0  -0.2504
  N  N700  1  0.345400  0.159250  0.162000  1.0  -0.3552
  N  N701  1  0.392500  0.092480  0.281100  1.0  0.1625
  N  N702  1  0.410100  0.099490  0.344900  1.0  -0.2828
  N  N703  1  0.443800  0.076090  0.357600  1.0  -0.1288
  N  N704  1  0.601600  0.909730  0.425700  1.0  -0.3412
  N  N705  1  0.652400  0.834120  0.520100  1.0  0.1736
  N  N706  1  0.676900  0.810620  0.482300  1.0  -0.1544
  N  N707  1  0.705400  0.791450  0.524300  1.0  -0.2603
  N  N708  1  0.695200  0.803610  0.590300  1.0  -0.2055
  N  N709  1  0.187600  0.777910  0.527300  1.0  -0.3199
  N  N710  1  0.944800  0.023020  0.806700  1.0  -0.345
  N  N711  1  0.052100  0.946990  0.803000  1.0  -0.2509
  N  N712  1  0.154600  0.840750  0.662000  1.0  -0.3545
  N  N713  1  0.107500  0.907520  0.781100  1.0  0.1614
  N  N714  1  0.089900  0.900510  0.844900  1.0  -0.2836
  N  N715  1  0.056200  0.923910  0.857600  1.0  -0.1296
  N  N716  1  0.898400  0.090270  0.925700  1.0  -0.3418
  N  N717  1  0.847600  0.165880  0.020100  1.0  0.1733
  N  N718  1  0.823100  0.189380  0.982300  1.0  -0.1539
  N  N719  1  0.794600  0.208550  0.024300  1.0  -0.2599
  N  N720  1  0.804800  0.196390  0.090300  1.0  -0.2056
  O  O721  1  0.666400  0.627150  0.901100  1.0  -0.4296
  O  O722  1  0.407100  0.381880  0.648900  1.0  -0.4526
  O  O723  1  0.833600  0.372850  0.401100  1.0  -0.4299
  O  O724  1  0.092900  0.618120  0.148900  1.0  -0.4512
  O  O725  1  0.333600  0.127150  0.598900  1.0  -0.4289
  O  O726  1  0.592900  0.881880  0.851100  1.0  -0.4504
  O  O727  1  0.166400  0.872850  0.098900  1.0  -0.4295
  O  O728  1  0.907100  0.118120  0.351100  1.0  -0.4522
  O  O729  1  0.833600  0.872850  0.098900  1.0  -0.4292
  O  O730  1  0.092900  0.118120  0.351100  1.0  -0.4512
  O  O731  1  0.666400  0.127150  0.598900  1.0  -0.429
  O  O732  1  0.407100  0.881880  0.851100  1.0  -0.4514
  O  O733  1  0.166400  0.372850  0.401100  1.0  -0.4293
  O  O734  1  0.907100  0.618120  0.148900  1.0  -0.4523
  O  O735  1  0.333600  0.627150  0.901100  1.0  -0.4296
  O  O736  1  0.592900  0.381880  0.648900  1.0  -0.4513
  O  O737  1  0.166400  0.127150  0.901100  1.0  -0.4296
  O  O738  1  0.907100  0.881880  0.648900  1.0  -0.4526
  O  O739  1  0.333600  0.872850  0.401100  1.0  -0.4299
  O  O740  1  0.592900  0.118120  0.148900  1.0  -0.4512
  O  O741  1  0.833600  0.627150  0.598900  1.0  -0.4289
  O  O742  1  0.092900  0.381880  0.851100  1.0  -0.4504
  O  O743  1  0.666400  0.372850  0.098900  1.0  -0.4295
  O  O744  1  0.407100  0.618120  0.351100  1.0  -0.4522
  O  O745  1  0.333600  0.372850  0.098900  1.0  -0.4292
  O  O746  1  0.592900  0.618120  0.351100  1.0  -0.4512
  O  O747  1  0.166400  0.627150  0.598900  1.0  -0.429
  O  O748  1  0.907100  0.381880  0.851100  1.0  -0.4514
  O  O749  1  0.666400  0.872850  0.401100  1.0  -0.4293
  O  O750  1  0.407100  0.118120  0.148900  1.0  -0.4523
  O  O751  1  0.833600  0.127150  0.901100  1.0  -0.4296
  O  O752  1  0.092900  0.881880  0.648900  1.0  -0.4513
