# generated using pymatgen
data_CoH16C16(N6O)2
_symmetry_space_group_name_H-M   'P 1'
_cell_length_a   27.09000000
_cell_length_b   38.27600000
_cell_length_c   19.10700000
_cell_angle_alpha   90.00000000
_cell_angle_beta   90.00000000
_cell_angle_gamma   90.00000000
_symmetry_Int_Tables_number   1
_chemical_formula_structural   CoH16C16(N6O)2
_chemical_formula_sum   'Co16 H256 C256 N192 O32'
_cell_volume   19811.98792188
_cell_formula_units_Z   16
loop_
 _symmetry_equiv_pos_site_id
 _symmetry_equiv_pos_as_xyz
  1  'x, y, z'
loop_
 _atom_site_type_symbol
 _atom_site_label
 _atom_site_symmetry_multiplicity
 _atom_site_fract_x
 _atom_site_fract_y
 _atom_site_fract_z
 _atom_site_occupancy
 _atom_site_charge
  Co  Co1  1  0.500000  0.487890  0.302380  1.0  0.7244
  Co  Co2  1  0.000000  0.512110  0.802380  1.0  0.7242
  Co  Co3  1  0.500000  0.987890  0.197620  1.0  0.7241
  Co  Co4  1  0.000000  0.012110  0.697620  1.0  0.724
  Co  Co5  1  0.750000  0.750000  0.500000  1.0  0.7074
  Co  Co6  1  0.250000  0.250000  0.000000  1.0  0.7074
  Co  Co7  1  0.750000  0.250000  0.000000  1.0  0.7074
  Co  Co8  1  0.250000  0.750000  0.500000  1.0  0.7074
  Co  Co9  1  0.000000  0.987890  0.302380  1.0  0.7244
  Co  Co10  1  0.500000  0.012110  0.802380  1.0  0.7242
  Co  Co11  1  0.000000  0.487890  0.197620  1.0  0.7241
  Co  Co12  1  0.500000  0.512110  0.697620  1.0  0.724
  Co  Co13  1  0.250000  0.750000  0.000000  1.0  0.7074
  Co  Co14  1  0.750000  0.250000  0.500000  1.0  0.7074
  Co  Co15  1  0.250000  0.250000  0.500000  1.0  0.7074
  Co  Co16  1  0.750000  0.750000  0.000000  1.0  0.7074
  H  H17  1  0.286000  0.301200  0.107800  1.0  0.0745
  H  H18  1  0.357700  0.263500  0.948900  1.0  0.0754
  H  H19  1  0.424400  0.298600  0.973000  1.0  0.0953
  H  H20  1  0.321800  0.337500  0.185700  1.0  0.2412
  H  H21  1  0.578300  0.588100  0.457000  1.0  0.2228
  H  H22  1  0.421600  0.336500  0.067200  1.0  0.1053
  H  H23  1  0.324400  0.399100  0.239300  1.0  0.1104
  H  H24  1  0.345500  0.366600  0.279500  1.0  0.0879
  H  H25  1  0.407200  0.447300  0.213200  1.0  0.0865
  H  H26  1  0.590400  0.512600  0.217700  1.0  0.0692
  H  H27  1  0.658800  0.547200  0.227300  1.0  0.0927
  H  H28  1  0.665900  0.586000  0.319700  1.0  0.108
  H  H29  1  0.540800  0.546100  0.396500  1.0  0.0728
  H  H30  1  0.583000  0.652600  0.494500  1.0  0.074
  H  H31  1  0.608200  0.624500  0.542600  1.0  0.074
  H  H32  1  0.671700  0.693400  0.439400  1.0  0.0901
  H  H33  1  0.214000  0.698800  0.607800  1.0  0.0739
  H  H34  1  0.142300  0.736500  0.448900  1.0  0.0749
  H  H35  1  0.075600  0.701400  0.473000  1.0  0.0953
  H  H36  1  0.178200  0.662500  0.685700  1.0  0.2409
  H  H37  1  0.921700  0.411900  0.957000  1.0  0.2219
  H  H38  1  0.078400  0.663500  0.567200  1.0  0.1047
  H  H39  1  0.175600  0.600900  0.739300  1.0  0.1101
  H  H40  1  0.154500  0.633400  0.779500  1.0  0.0877
  H  H41  1  0.092800  0.552700  0.713200  1.0  0.0866
  H  H42  1  0.909600  0.487400  0.717700  1.0  0.0687
  H  H43  1  0.841200  0.452800  0.727300  1.0  0.0923
  H  H44  1  0.834100  0.414000  0.819700  1.0  0.1076
  H  H45  1  0.959200  0.453900  0.896500  1.0  0.0732
  H  H46  1  0.917000  0.347400  0.994500  1.0  0.077
  H  H47  1  0.891800  0.375500  0.042600  1.0  0.0736
  H  H48  1  0.828300  0.306600  0.939400  1.0  0.0899
  H  H49  1  0.714000  0.801200  0.392200  1.0  0.0743
  H  H50  1  0.642300  0.763500  0.551100  1.0  0.0761
  H  H51  1  0.575600  0.798600  0.527000  1.0  0.0953
  H  H52  1  0.678200  0.837500  0.314300  1.0  0.2406
  H  H53  1  0.421700  0.088100  0.043000  1.0  0.2224
  H  H54  1  0.578400  0.836500  0.432800  1.0  0.1051
  H  H55  1  0.675600  0.899100  0.260700  1.0  0.1111
  H  H56  1  0.654500  0.866600  0.220500  1.0  0.087
  H  H57  1  0.592800  0.947300  0.286800  1.0  0.0857
  H  H58  1  0.409600  0.012600  0.282300  1.0  0.0687
  H  H59  1  0.341200  0.047200  0.272700  1.0  0.0928
  H  H60  1  0.334100  0.086000  0.180300  1.0  0.108
  H  H61  1  0.459200  0.046100  0.103500  1.0  0.0729
  H  H62  1  0.417000  0.152600  0.005500  1.0  0.0771
  H  H63  1  0.391800  0.124500  0.957400  1.0  0.073
  H  H64  1  0.328300  0.193400  0.060600  1.0  0.0899
  H  H65  1  0.786000  0.198800  0.892200  1.0  0.0748
  H  H66  1  0.857700  0.236500  0.051100  1.0  0.0762
  H  H67  1  0.924400  0.201400  0.027000  1.0  0.095
  H  H68  1  0.821800  0.162500  0.814300  1.0  0.2401
  H  H69  1  0.078300  0.911900  0.543000  1.0  0.2218
  H  H70  1  0.921600  0.163500  0.932800  1.0  0.1053
  H  H71  1  0.824400  0.100900  0.760700  1.0  0.1098
  H  H72  1  0.845500  0.133400  0.720500  1.0  0.0878
  H  H73  1  0.907200  0.052700  0.786800  1.0  0.0869
  H  H74  1  0.090400  0.987400  0.782300  1.0  0.0681
  H  H75  1  0.158800  0.952800  0.772700  1.0  0.0926
  H  H76  1  0.165900  0.914000  0.680300  1.0  0.1071
  H  H77  1  0.040800  0.953900  0.603500  1.0  0.0727
  H  H78  1  0.083000  0.847400  0.505500  1.0  0.0733
  H  H79  1  0.108200  0.875500  0.457400  1.0  0.0733
  H  H80  1  0.171700  0.806600  0.560600  1.0  0.0901
  H  H81  1  0.214000  0.198800  0.892200  1.0  0.0741
  H  H82  1  0.142300  0.236500  0.051100  1.0  0.0756
  H  H83  1  0.075600  0.201400  0.027000  1.0  0.0953
  H  H84  1  0.178200  0.162500  0.814300  1.0  0.2404
  H  H85  1  0.921700  0.911900  0.543000  1.0  0.2213
  H  H86  1  0.078400  0.163500  0.932800  1.0  0.1051
  H  H87  1  0.175600  0.100900  0.760700  1.0  0.1101
  H  H88  1  0.154500  0.133400  0.720500  1.0  0.0877
  H  H89  1  0.092800  0.052700  0.786800  1.0  0.0859
  H  H90  1  0.909600  0.987400  0.782300  1.0  0.0686
  H  H91  1  0.841200  0.952800  0.772700  1.0  0.0928
  H  H92  1  0.834100  0.914000  0.680300  1.0  0.1079
  H  H93  1  0.959200  0.953900  0.603500  1.0  0.0732
  H  H94  1  0.917000  0.847400  0.505500  1.0  0.0766
  H  H95  1  0.891800  0.875500  0.457400  1.0  0.0733
  H  H96  1  0.828300  0.806600  0.560600  1.0  0.0897
  H  H97  1  0.286000  0.801200  0.392200  1.0  0.0748
  H  H98  1  0.357700  0.763500  0.551100  1.0  0.0761
  H  H99  1  0.424400  0.798600  0.527000  1.0  0.0949
  H  H100  1  0.321800  0.837500  0.314300  1.0  0.2403
  H  H101  1  0.578300  0.088100  0.043000  1.0  0.2227
  H  H102  1  0.421600  0.836500  0.432800  1.0  0.1056
  H  H103  1  0.324400  0.899100  0.260700  1.0  0.1103
  H  H104  1  0.345500  0.866600  0.220500  1.0  0.0873
  H  H105  1  0.407200  0.947300  0.286800  1.0  0.0862
  H  H106  1  0.590400  0.012600  0.282300  1.0  0.0684
  H  H107  1  0.658800  0.047200  0.272700  1.0  0.0926
  H  H108  1  0.665900  0.086000  0.180300  1.0  0.1079
  H  H109  1  0.540800  0.046100  0.103500  1.0  0.0723
  H  H110  1  0.583000  0.152600  0.005500  1.0  0.0739
  H  H111  1  0.608200  0.124500  0.957400  1.0  0.0731
  H  H112  1  0.671700  0.193400  0.060600  1.0  0.0902
  H  H113  1  0.786000  0.698800  0.607800  1.0  0.0743
  H  H114  1  0.857700  0.736500  0.448900  1.0  0.0757
  H  H115  1  0.924400  0.701400  0.473000  1.0  0.0954
  H  H116  1  0.821800  0.662500  0.685700  1.0  0.2404
  H  H117  1  0.078300  0.411900  0.957000  1.0  0.2216
  H  H118  1  0.921600  0.663500  0.567200  1.0  0.1049
  H  H119  1  0.824400  0.600900  0.739300  1.0  0.1097
  H  H120  1  0.845500  0.633400  0.779500  1.0  0.0876
  H  H121  1  0.907200  0.552700  0.713200  1.0  0.0871
  H  H122  1  0.090400  0.487400  0.717700  1.0  0.0688
  H  H123  1  0.158800  0.452800  0.727300  1.0  0.0928
  H  H124  1  0.165900  0.414000  0.819700  1.0  0.1069
  H  H125  1  0.040800  0.453900  0.896500  1.0  0.0727
  H  H126  1  0.083000  0.347400  0.994500  1.0  0.0735
  H  H127  1  0.108200  0.375500  0.042600  1.0  0.0736
  H  H128  1  0.171700  0.306600  0.939400  1.0  0.0902
  H  H129  1  0.714000  0.301200  0.107800  1.0  0.0743
  H  H130  1  0.642300  0.263500  0.948900  1.0  0.0748
  H  H131  1  0.575600  0.298600  0.973000  1.0  0.0952
  H  H132  1  0.678200  0.337500  0.185700  1.0  0.2416
  H  H133  1  0.421700  0.588100  0.457000  1.0  0.2231
  H  H134  1  0.578400  0.336500  0.067200  1.0  0.1048
  H  H135  1  0.675600  0.399100  0.239300  1.0  0.1113
  H  H136  1  0.654500  0.366600  0.279500  1.0  0.0877
  H  H137  1  0.592800  0.447300  0.213200  1.0  0.0865
  H  H138  1  0.409600  0.512600  0.217700  1.0  0.0692
  H  H139  1  0.341200  0.547200  0.227300  1.0  0.0922
  H  H140  1  0.334100  0.586000  0.319700  1.0  0.1079
  H  H141  1  0.459200  0.546100  0.396500  1.0  0.0733
  H  H142  1  0.417000  0.652600  0.494500  1.0  0.0775
  H  H143  1  0.391800  0.624500  0.542600  1.0  0.0737
  H  H144  1  0.328300  0.693400  0.439400  1.0  0.0899
  H  H145  1  0.786000  0.801200  0.107800  1.0  0.0745
  H  H146  1  0.857700  0.763500  0.948900  1.0  0.0754
  H  H147  1  0.924400  0.798600  0.973000  1.0  0.0953
  H  H148  1  0.821800  0.837500  0.185700  1.0  0.2412
  H  H149  1  0.078300  0.088100  0.457000  1.0  0.2228
  H  H150  1  0.921600  0.836500  0.067200  1.0  0.1053
  H  H151  1  0.824400  0.899100  0.239300  1.0  0.1104
  H  H152  1  0.845500  0.866600  0.279500  1.0  0.088
  H  H153  1  0.907200  0.947300  0.213200  1.0  0.0865
  H  H154  1  0.090400  0.012600  0.217700  1.0  0.0692
  H  H155  1  0.158800  0.047200  0.227300  1.0  0.0927
  H  H156  1  0.165900  0.086000  0.319700  1.0  0.108
  H  H157  1  0.040800  0.046100  0.396500  1.0  0.0728
  H  H158  1  0.083000  0.152600  0.494500  1.0  0.074
  H  H159  1  0.108200  0.124500  0.542600  1.0  0.0743
  H  H160  1  0.171700  0.193400  0.439400  1.0  0.0901
  H  H161  1  0.714000  0.198800  0.607800  1.0  0.0739
  H  H162  1  0.642300  0.236500  0.448900  1.0  0.0749
  H  H163  1  0.575600  0.201400  0.473000  1.0  0.0953
  H  H164  1  0.678200  0.162500  0.685700  1.0  0.2409
  H  H165  1  0.421700  0.911900  0.957000  1.0  0.2219
  H  H166  1  0.578400  0.163500  0.567200  1.0  0.1047
  H  H167  1  0.675600  0.100900  0.739300  1.0  0.1101
  H  H168  1  0.654500  0.133400  0.779500  1.0  0.0878
  H  H169  1  0.592800  0.052700  0.713200  1.0  0.0866
  H  H170  1  0.409600  0.987400  0.717700  1.0  0.0687
  H  H171  1  0.341200  0.952800  0.727300  1.0  0.0923
  H  H172  1  0.334100  0.914000  0.819700  1.0  0.1076
  H  H173  1  0.459200  0.953900  0.896500  1.0  0.0732
  H  H174  1  0.417000  0.847400  0.994500  1.0  0.077
  H  H175  1  0.391800  0.875500  0.042600  1.0  0.074
  H  H176  1  0.328300  0.806600  0.939400  1.0  0.0899
  H  H177  1  0.214000  0.301200  0.392200  1.0  0.0743
  H  H178  1  0.142300  0.263500  0.551100  1.0  0.0761
  H  H179  1  0.075600  0.298600  0.527000  1.0  0.0953
  H  H180  1  0.178200  0.337500  0.314300  1.0  0.2406
  H  H181  1  0.921700  0.588100  0.043000  1.0  0.2224
  H  H182  1  0.078400  0.336500  0.432800  1.0  0.1051
  H  H183  1  0.175600  0.399100  0.260700  1.0  0.1111
  H  H184  1  0.154500  0.366600  0.220500  1.0  0.087
  H  H185  1  0.092800  0.447300  0.286800  1.0  0.0857
  H  H186  1  0.909600  0.512600  0.282300  1.0  0.0687
  H  H187  1  0.841200  0.547200  0.272700  1.0  0.0928
  H  H188  1  0.834100  0.586000  0.180300  1.0  0.108
  H  H189  1  0.959200  0.546100  0.103500  1.0  0.0729
  H  H190  1  0.917000  0.652600  0.005500  1.0  0.0771
  H  H191  1  0.891800  0.624500  0.957400  1.0  0.0736
  H  H192  1  0.828300  0.693400  0.060600  1.0  0.0899
  H  H193  1  0.286000  0.698800  0.892200  1.0  0.0748
  H  H194  1  0.357700  0.736500  0.051100  1.0  0.0762
  H  H195  1  0.424400  0.701400  0.027000  1.0  0.095
  H  H196  1  0.321800  0.662500  0.814300  1.0  0.2401
  H  H197  1  0.578300  0.411900  0.543000  1.0  0.2218
  H  H198  1  0.421600  0.663500  0.932800  1.0  0.1053
  H  H199  1  0.324400  0.600900  0.760700  1.0  0.1098
  H  H200  1  0.345500  0.633400  0.720500  1.0  0.0878
  H  H201  1  0.407200  0.552700  0.786800  1.0  0.0869
  H  H202  1  0.590400  0.487400  0.782300  1.0  0.0681
  H  H203  1  0.658800  0.452800  0.772700  1.0  0.0926
  H  H204  1  0.665900  0.414000  0.680300  1.0  0.1071
  H  H205  1  0.540800  0.453900  0.603500  1.0  0.0727
  H  H206  1  0.583000  0.347400  0.505500  1.0  0.0733
  H  H207  1  0.608200  0.375500  0.457400  1.0  0.0738
  H  H208  1  0.671700  0.306600  0.560600  1.0  0.0901
  H  H209  1  0.714000  0.698800  0.892200  1.0  0.0741
  H  H210  1  0.642300  0.736500  0.051100  1.0  0.0756
  H  H211  1  0.575600  0.701400  0.027000  1.0  0.0953
  H  H212  1  0.678200  0.662500  0.814300  1.0  0.2404
  H  H213  1  0.421700  0.411900  0.543000  1.0  0.2213
  H  H214  1  0.578400  0.663500  0.932800  1.0  0.1051
  H  H215  1  0.675600  0.600900  0.760700  1.0  0.1101
  H  H216  1  0.654500  0.633400  0.720500  1.0  0.0877
  H  H217  1  0.592800  0.552700  0.786800  1.0  0.0859
  H  H218  1  0.409600  0.487400  0.782300  1.0  0.0686
  H  H219  1  0.341200  0.452800  0.772700  1.0  0.0928
  H  H220  1  0.334100  0.414000  0.680300  1.0  0.1079
  H  H221  1  0.459200  0.453900  0.603500  1.0  0.0732
  H  H222  1  0.417000  0.347400  0.505500  1.0  0.0766
  H  H223  1  0.391800  0.375500  0.457400  1.0  0.0738
  H  H224  1  0.328300  0.306600  0.560600  1.0  0.0897
  H  H225  1  0.786000  0.301200  0.392200  1.0  0.0748
  H  H226  1  0.857700  0.263500  0.551100  1.0  0.0761
  H  H227  1  0.924400  0.298600  0.527000  1.0  0.0949
  H  H228  1  0.821800  0.337500  0.314300  1.0  0.2403
  H  H229  1  0.078300  0.588100  0.043000  1.0  0.2227
  H  H230  1  0.921600  0.336500  0.432800  1.0  0.1056
  H  H231  1  0.824400  0.399100  0.260700  1.0  0.1103
  H  H232  1  0.845500  0.366600  0.220500  1.0  0.0874
  H  H233  1  0.907200  0.447300  0.286800  1.0  0.0862
  H  H234  1  0.090400  0.512600  0.282300  1.0  0.0684
  H  H235  1  0.158800  0.547200  0.272700  1.0  0.0926
  H  H236  1  0.165900  0.586000  0.180300  1.0  0.1079
  H  H237  1  0.040800  0.546100  0.103500  1.0  0.0723
  H  H238  1  0.083000  0.652600  0.005500  1.0  0.0739
  H  H239  1  0.108200  0.624500  0.957400  1.0  0.0737
  H  H240  1  0.171700  0.693400  0.060600  1.0  0.0902
  H  H241  1  0.286000  0.198800  0.607800  1.0  0.0743
  H  H242  1  0.357700  0.236500  0.448900  1.0  0.0757
  H  H243  1  0.424400  0.201400  0.473000  1.0  0.0954
  H  H244  1  0.321800  0.162500  0.685700  1.0  0.2404
  H  H245  1  0.578300  0.911900  0.957000  1.0  0.2216
  H  H246  1  0.421600  0.163500  0.567200  1.0  0.1049
  H  H247  1  0.324400  0.100900  0.739300  1.0  0.1097
  H  H248  1  0.345500  0.133400  0.779500  1.0  0.0877
  H  H249  1  0.407200  0.052700  0.713200  1.0  0.0871
  H  H250  1  0.590400  0.987400  0.717700  1.0  0.0688
  H  H251  1  0.658800  0.952800  0.727300  1.0  0.0928
  H  H252  1  0.665900  0.914000  0.819700  1.0  0.1069
  H  H253  1  0.540800  0.953900  0.896500  1.0  0.0727
  H  H254  1  0.583000  0.847400  0.994500  1.0  0.0735
  H  H255  1  0.608200  0.875500  0.042600  1.0  0.0739
  H  H256  1  0.671700  0.806600  0.939400  1.0  0.0902
  H  H257  1  0.214000  0.801200  0.107800  1.0  0.0743
  H  H258  1  0.142300  0.763500  0.948900  1.0  0.0748
  H  H259  1  0.075600  0.798600  0.973000  1.0  0.0952
  H  H260  1  0.178200  0.837500  0.185700  1.0  0.2416
  H  H261  1  0.921700  0.088100  0.457000  1.0  0.2231
  H  H262  1  0.078400  0.836500  0.067200  1.0  0.1048
  H  H263  1  0.175600  0.899100  0.239300  1.0  0.1113
  H  H264  1  0.154500  0.866600  0.279500  1.0  0.0877
  H  H265  1  0.092800  0.947300  0.213200  1.0  0.0865
  H  H266  1  0.909600  0.012600  0.217700  1.0  0.0692
  H  H267  1  0.841200  0.047200  0.227300  1.0  0.0922
  H  H268  1  0.834100  0.086000  0.319700  1.0  0.1079
  H  H269  1  0.959200  0.046100  0.396500  1.0  0.0733
  H  H270  1  0.917000  0.152600  0.494500  1.0  0.0775
  H  H271  1  0.891800  0.124500  0.542600  1.0  0.0741
  H  H272  1  0.828300  0.193400  0.439400  1.0  0.0899
  C  C273  1  0.314300  0.300660  0.080100  1.0  0.1155
  C  C274  1  0.353000  0.322500  0.098700  1.0  0.1654
  C  C275  1  0.356100  0.278580  0.986900  1.0  0.1384
  C  C276  1  0.396500  0.299640  0.001200  1.0  -0.1253
  C  C277  1  0.395000  0.322000  0.057200  1.0  -0.121
  C  C278  1  0.373100  0.370580  0.179100  1.0  0.3709
  C  C279  1  0.354000  0.385570  0.248000  1.0  -0.1236
  C  C280  1  0.413800  0.436630  0.255900  1.0  0.09
  C  C281  1  0.593700  0.526720  0.257000  1.0  0.1544
  C  C282  1  0.634500  0.548100  0.261600  1.0  -0.1236
  C  C283  1  0.639200  0.570800  0.316800  1.0  -0.1077
  C  C284  1  0.564300  0.546870  0.361100  1.0  0.0701
  C  C285  1  0.603400  0.570510  0.367800  1.0  0.237
  C  C286  1  0.630400  0.620070  0.438600  1.0  0.3302
  C  C287  1  0.613900  0.640680  0.504200  1.0  -0.1237
  C  C288  1  0.674700  0.689910  0.487300  1.0  0.1002
  C  C289  1  0.185700  0.699340  0.580100  1.0  0.114
  C  C290  1  0.147000  0.677500  0.598700  1.0  0.165
  C  C291  1  0.143900  0.721420  0.486900  1.0  0.1396
  C  C292  1  0.103500  0.700360  0.501200  1.0  -0.126
  C  C293  1  0.105000  0.678000  0.557200  1.0  -0.121
  C  C294  1  0.126900  0.629420  0.679100  1.0  0.3687
  C  C295  1  0.146000  0.614430  0.748000  1.0  -0.1227
  C  C296  1  0.086200  0.563370  0.755900  1.0  0.0907
  C  C297  1  0.906300  0.473280  0.757000  1.0  0.1546
  C  C298  1  0.865500  0.451900  0.761600  1.0  -0.1256
  C  C299  1  0.860800  0.429200  0.816800  1.0  -0.108
  C  C300  1  0.935700  0.453130  0.861100  1.0  0.0698
  C  C301  1  0.896600  0.429490  0.867800  1.0  0.2381
  C  C302  1  0.869600  0.379930  0.938600  1.0  0.3312
  C  C303  1  0.886100  0.359320  0.004200  1.0  -0.1244
  C  C304  1  0.825300  0.310090  0.987300  1.0  0.1
  C  C305  1  0.685700  0.800660  0.419900  1.0  0.114
  C  C306  1  0.647000  0.822500  0.401300  1.0  0.1654
  C  C307  1  0.643900  0.778580  0.513100  1.0  0.1385
  C  C308  1  0.603500  0.799640  0.498800  1.0  -0.1273
  C  C309  1  0.605000  0.822000  0.442800  1.0  -0.1204
  C  C310  1  0.626900  0.870580  0.320900  1.0  0.3682
  C  C311  1  0.646000  0.885570  0.252000  1.0  -0.1238
  C  C312  1  0.586200  0.936630  0.244100  1.0  0.0899
  C  C313  1  0.406300  0.026720  0.243000  1.0  0.1568
  C  C314  1  0.365500  0.048100  0.238400  1.0  -0.1252
  C  C315  1  0.360800  0.070800  0.183200  1.0  -0.1091
  C  C316  1  0.435700  0.046870  0.138900  1.0  0.0705
  C  C317  1  0.396600  0.070510  0.132200  1.0  0.2379
  C  C318  1  0.369600  0.120070  0.061400  1.0  0.331
  C  C319  1  0.386100  0.140680  0.995800  1.0  -0.1252
  C  C320  1  0.325300  0.189910  0.012700  1.0  0.0997
  C  C321  1  0.814300  0.199340  0.919900  1.0  0.1156
  C  C322  1  0.853000  0.177500  0.901300  1.0  0.1656
  C  C323  1  0.856100  0.221420  0.013100  1.0  0.1396
  C  C324  1  0.896500  0.200360  0.998800  1.0  -0.1249
  C  C325  1  0.895000  0.178000  0.942800  1.0  -0.1199
  C  C326  1  0.873100  0.129420  0.820900  1.0  0.3696
  C  C327  1  0.854000  0.114430  0.752000  1.0  -0.1233
  C  C328  1  0.913800  0.063370  0.744100  1.0  0.0912
  C  C329  1  0.093700  0.973280  0.743000  1.0  0.1558
  C  C330  1  0.134500  0.951900  0.738400  1.0  -0.1227
  C  C331  1  0.139200  0.929200  0.683200  1.0  -0.107
  C  C332  1  0.064300  0.953130  0.638900  1.0  0.0705
  C  C333  1  0.103400  0.929490  0.632200  1.0  0.2372
  C  C334  1  0.130400  0.879930  0.561400  1.0  0.3302
  C  C335  1  0.113900  0.859320  0.495800  1.0  -0.1235
  C  C336  1  0.174700  0.810090  0.512700  1.0  0.1
  C  C337  1  0.185700  0.199340  0.919900  1.0  0.114
  C  C338  1  0.147000  0.177500  0.901300  1.0  0.1652
  C  C339  1  0.143900  0.221420  0.013100  1.0  0.1386
  C  C340  1  0.103500  0.200360  0.998800  1.0  -0.1274
  C  C341  1  0.105000  0.178000  0.942800  1.0  -0.1198
  C  C342  1  0.126900  0.129420  0.820900  1.0  0.3684
  C  C343  1  0.146000  0.114430  0.752000  1.0  -0.1234
  C  C344  1  0.086200  0.063370  0.744100  1.0  0.0914
  C  C345  1  0.906300  0.973280  0.743000  1.0  0.156
  C  C346  1  0.865500  0.951900  0.738400  1.0  -0.1253
  C  C347  1  0.860800  0.929200  0.683200  1.0  -0.1081
  C  C348  1  0.935700  0.953130  0.638900  1.0  0.0706
  C  C349  1  0.896600  0.929490  0.632200  1.0  0.2381
  C  C350  1  0.869600  0.879930  0.561400  1.0  0.3311
  C  C351  1  0.886100  0.859320  0.495800  1.0  -0.1249
  C  C352  1  0.825300  0.810090  0.512700  1.0  0.1001
  C  C353  1  0.314300  0.800660  0.419900  1.0  0.1155
  C  C354  1  0.353000  0.822500  0.401300  1.0  0.1657
  C  C355  1  0.356100  0.778580  0.513100  1.0  0.1396
  C  C356  1  0.396500  0.799640  0.498800  1.0  -0.1248
  C  C357  1  0.395000  0.822000  0.442800  1.0  -0.1203
  C  C358  1  0.373100  0.870580  0.320900  1.0  0.3692
  C  C359  1  0.354000  0.885570  0.252000  1.0  -0.124
  C  C360  1  0.413800  0.936630  0.244100  1.0  0.0894
  C  C361  1  0.593700  0.026720  0.243000  1.0  0.1567
  C  C362  1  0.634500  0.048100  0.238400  1.0  -0.1224
  C  C363  1  0.639200  0.070800  0.183200  1.0  -0.1077
  C  C364  1  0.564300  0.046870  0.138900  1.0  0.0705
  C  C365  1  0.603400  0.070510  0.132200  1.0  0.237
  C  C366  1  0.630400  0.120070  0.061400  1.0  0.3297
  C  C367  1  0.613900  0.140680  0.995800  1.0  -0.1238
  C  C368  1  0.674700  0.189910  0.012700  1.0  0.0996
  C  C369  1  0.814300  0.699340  0.580100  1.0  0.1153
  C  C370  1  0.853000  0.677500  0.598700  1.0  0.1653
  C  C371  1  0.856100  0.721420  0.486900  1.0  0.1389
  C  C372  1  0.896500  0.700360  0.501200  1.0  -0.1254
  C  C373  1  0.895000  0.678000  0.557200  1.0  -0.1204
  C  C374  1  0.873100  0.629420  0.679100  1.0  0.3705
  C  C375  1  0.854000  0.614430  0.748000  1.0  -0.1228
  C  C376  1  0.913800  0.563370  0.755900  1.0  0.0909
  C  C377  1  0.093700  0.473280  0.757000  1.0  0.154
  C  C378  1  0.134500  0.451900  0.761600  1.0  -0.1236
  C  C379  1  0.139200  0.429200  0.816800  1.0  -0.1068
  C  C380  1  0.064300  0.453130  0.861100  1.0  0.0696
  C  C381  1  0.103400  0.429490  0.867800  1.0  0.2371
  C  C382  1  0.130400  0.379930  0.938600  1.0  0.3302
  C  C383  1  0.113900  0.359320  0.004200  1.0  -0.1233
  C  C384  1  0.174700  0.310090  0.987300  1.0  0.1
  C  C385  1  0.685700  0.300660  0.080100  1.0  0.1143
  C  C386  1  0.647000  0.322500  0.098700  1.0  0.1651
  C  C387  1  0.643900  0.278580  0.986900  1.0  0.1391
  C  C388  1  0.603500  0.299640  0.001200  1.0  -0.126
  C  C389  1  0.605000  0.322000  0.057200  1.0  -0.1215
  C  C390  1  0.626900  0.370580  0.179100  1.0  0.3695
  C  C391  1  0.646000  0.385570  0.248000  1.0  -0.123
  C  C392  1  0.586200  0.436630  0.255900  1.0  0.0901
  C  C393  1  0.406300  0.526720  0.257000  1.0  0.1549
  C  C394  1  0.365500  0.548100  0.261600  1.0  -0.126
  C  C395  1  0.360800  0.570800  0.316800  1.0  -0.1093
  C  C396  1  0.435700  0.546870  0.361100  1.0  0.0702
  C  C397  1  0.396600  0.570510  0.367800  1.0  0.2379
  C  C398  1  0.369600  0.620070  0.438600  1.0  0.3315
  C  C399  1  0.386100  0.640680  0.504200  1.0  -0.1247
  C  C400  1  0.325300  0.689910  0.487300  1.0  0.1002
  C  C401  1  0.814300  0.800660  0.080100  1.0  0.1155
  C  C402  1  0.853000  0.822500  0.098700  1.0  0.1654
  C  C403  1  0.856100  0.778580  0.986900  1.0  0.1384
  C  C404  1  0.896500  0.799640  0.001200  1.0  -0.1253
  C  C405  1  0.895000  0.822000  0.057200  1.0  -0.121
  C  C406  1  0.873100  0.870580  0.179100  1.0  0.3709
  C  C407  1  0.854000  0.885570  0.248000  1.0  -0.1236
  C  C408  1  0.913800  0.936630  0.255900  1.0  0.09
  C  C409  1  0.093700  0.026720  0.257000  1.0  0.1544
  C  C410  1  0.134500  0.048100  0.261600  1.0  -0.1236
  C  C411  1  0.139200  0.070800  0.316800  1.0  -0.1077
  C  C412  1  0.064300  0.046870  0.361100  1.0  0.0701
  C  C413  1  0.103400  0.070510  0.367800  1.0  0.237
  C  C414  1  0.130400  0.120070  0.438600  1.0  0.3302
  C  C415  1  0.113900  0.140680  0.504200  1.0  -0.1237
  C  C416  1  0.174700  0.189910  0.487300  1.0  0.1002
  C  C417  1  0.685700  0.199340  0.580100  1.0  0.114
  C  C418  1  0.647000  0.177500  0.598700  1.0  0.165
  C  C419  1  0.643900  0.221420  0.486900  1.0  0.1396
  C  C420  1  0.603500  0.200360  0.501200  1.0  -0.126
  C  C421  1  0.605000  0.178000  0.557200  1.0  -0.121
  C  C422  1  0.626900  0.129420  0.679100  1.0  0.3687
  C  C423  1  0.646000  0.114430  0.748000  1.0  -0.1227
  C  C424  1  0.586200  0.063370  0.755900  1.0  0.0907
  C  C425  1  0.406300  0.973280  0.757000  1.0  0.1546
  C  C426  1  0.365500  0.951900  0.761600  1.0  -0.1256
  C  C427  1  0.360800  0.929200  0.816800  1.0  -0.108
  C  C428  1  0.435700  0.953130  0.861100  1.0  0.0698
  C  C429  1  0.396600  0.929490  0.867800  1.0  0.2381
  C  C430  1  0.369600  0.879930  0.938600  1.0  0.3312
  C  C431  1  0.386100  0.859320  0.004200  1.0  -0.1244
  C  C432  1  0.325300  0.810090  0.987300  1.0  0.1
  C  C433  1  0.185700  0.300660  0.419900  1.0  0.114
  C  C434  1  0.147000  0.322500  0.401300  1.0  0.1654
  C  C435  1  0.143900  0.278580  0.513100  1.0  0.1385
  C  C436  1  0.103500  0.299640  0.498800  1.0  -0.1273
  C  C437  1  0.105000  0.322000  0.442800  1.0  -0.1204
  C  C438  1  0.126900  0.370580  0.320900  1.0  0.3682
  C  C439  1  0.146000  0.385570  0.252000  1.0  -0.1238
  C  C440  1  0.086200  0.436630  0.244100  1.0  0.0899
  C  C441  1  0.906300  0.526720  0.243000  1.0  0.1568
  C  C442  1  0.865500  0.548100  0.238400  1.0  -0.1252
  C  C443  1  0.860800  0.570800  0.183200  1.0  -0.1091
  C  C444  1  0.935700  0.546870  0.138900  1.0  0.0705
  C  C445  1  0.896600  0.570510  0.132200  1.0  0.2379
  C  C446  1  0.869600  0.620070  0.061400  1.0  0.331
  C  C447  1  0.886100  0.640680  0.995800  1.0  -0.1252
  C  C448  1  0.825300  0.689910  0.012700  1.0  0.0997
  C  C449  1  0.314300  0.699340  0.919900  1.0  0.1156
  C  C450  1  0.353000  0.677500  0.901300  1.0  0.1656
  C  C451  1  0.356100  0.721420  0.013100  1.0  0.1396
  C  C452  1  0.396500  0.700360  0.998800  1.0  -0.1249
  C  C453  1  0.395000  0.678000  0.942800  1.0  -0.1199
  C  C454  1  0.373100  0.629420  0.820900  1.0  0.3696
  C  C455  1  0.354000  0.614430  0.752000  1.0  -0.1233
  C  C456  1  0.413800  0.563370  0.744100  1.0  0.0912
  C  C457  1  0.593700  0.473280  0.743000  1.0  0.1558
  C  C458  1  0.634500  0.451900  0.738400  1.0  -0.1227
  C  C459  1  0.639200  0.429200  0.683200  1.0  -0.107
  C  C460  1  0.564300  0.453130  0.638900  1.0  0.0705
  C  C461  1  0.603400  0.429490  0.632200  1.0  0.2372
  C  C462  1  0.630400  0.379930  0.561400  1.0  0.3302
  C  C463  1  0.613900  0.359320  0.495800  1.0  -0.1235
  C  C464  1  0.674700  0.310090  0.512700  1.0  0.1
  C  C465  1  0.685700  0.699340  0.919900  1.0  0.114
  C  C466  1  0.647000  0.677500  0.901300  1.0  0.1652
  C  C467  1  0.643900  0.721420  0.013100  1.0  0.1386
  C  C468  1  0.603500  0.700360  0.998800  1.0  -0.1274
  C  C469  1  0.605000  0.678000  0.942800  1.0  -0.1198
  C  C470  1  0.626900  0.629420  0.820900  1.0  0.3684
  C  C471  1  0.646000  0.614430  0.752000  1.0  -0.1234
  C  C472  1  0.586200  0.563370  0.744100  1.0  0.0914
  C  C473  1  0.406300  0.473280  0.743000  1.0  0.156
  C  C474  1  0.365500  0.451900  0.738400  1.0  -0.1253
  C  C475  1  0.360800  0.429200  0.683200  1.0  -0.1081
  C  C476  1  0.435700  0.453130  0.638900  1.0  0.0706
  C  C477  1  0.396600  0.429490  0.632200  1.0  0.2381
  C  C478  1  0.369600  0.379930  0.561400  1.0  0.3311
  C  C479  1  0.386100  0.359320  0.495800  1.0  -0.1249
  C  C480  1  0.325300  0.310090  0.512700  1.0  0.1001
  C  C481  1  0.814300  0.300660  0.419900  1.0  0.1155
  C  C482  1  0.853000  0.322500  0.401300  1.0  0.1657
  C  C483  1  0.856100  0.278580  0.513100  1.0  0.1396
  C  C484  1  0.896500  0.299640  0.498800  1.0  -0.1248
  C  C485  1  0.895000  0.322000  0.442800  1.0  -0.1203
  C  C486  1  0.873100  0.370580  0.320900  1.0  0.3692
  C  C487  1  0.854000  0.385570  0.252000  1.0  -0.124
  C  C488  1  0.913800  0.436630  0.244100  1.0  0.0894
  C  C489  1  0.093700  0.526720  0.243000  1.0  0.1567
  C  C490  1  0.134500  0.548100  0.238400  1.0  -0.1224
  C  C491  1  0.139200  0.570800  0.183200  1.0  -0.1077
  C  C492  1  0.064300  0.546870  0.138900  1.0  0.0705
  C  C493  1  0.103400  0.570510  0.132200  1.0  0.237
  C  C494  1  0.130400  0.620070  0.061400  1.0  0.3297
  C  C495  1  0.113900  0.640680  0.995800  1.0  -0.1238
  C  C496  1  0.174700  0.689910  0.012700  1.0  0.0996
  C  C497  1  0.314300  0.199340  0.580100  1.0  0.1153
  C  C498  1  0.353000  0.177500  0.598700  1.0  0.1653
  C  C499  1  0.356100  0.221420  0.486900  1.0  0.1389
  C  C500  1  0.396500  0.200360  0.501200  1.0  -0.1254
  C  C501  1  0.395000  0.178000  0.557200  1.0  -0.1204
  C  C502  1  0.373100  0.129420  0.679100  1.0  0.3705
  C  C503  1  0.354000  0.114430  0.748000  1.0  -0.1228
  C  C504  1  0.413800  0.063370  0.755900  1.0  0.0909
  C  C505  1  0.593700  0.973280  0.757000  1.0  0.154
  C  C506  1  0.634500  0.951900  0.761600  1.0  -0.1236
  C  C507  1  0.639200  0.929200  0.816800  1.0  -0.1068
  C  C508  1  0.564300  0.953130  0.861100  1.0  0.0696
  C  C509  1  0.603400  0.929490  0.867800  1.0  0.2371
  C  C510  1  0.630400  0.879930  0.938600  1.0  0.3302
  C  C511  1  0.613900  0.859320  0.004200  1.0  -0.1233
  C  C512  1  0.674700  0.810090  0.987300  1.0  0.1
  C  C513  1  0.185700  0.800660  0.080100  1.0  0.1143
  C  C514  1  0.147000  0.822500  0.098700  1.0  0.1651
  C  C515  1  0.143900  0.778580  0.986900  1.0  0.1391
  C  C516  1  0.103500  0.799640  0.001200  1.0  -0.126
  C  C517  1  0.105000  0.822000  0.057200  1.0  -0.1215
  C  C518  1  0.126900  0.870580  0.179100  1.0  0.3695
  C  C519  1  0.146000  0.885570  0.248000  1.0  -0.123
  C  C520  1  0.086200  0.936630  0.255900  1.0  0.0901
  C  C521  1  0.906300  0.026720  0.257000  1.0  0.1549
  C  C522  1  0.865500  0.048100  0.261600  1.0  -0.126
  C  C523  1  0.860800  0.070800  0.316800  1.0  -0.1093
  C  C524  1  0.935700  0.046870  0.361100  1.0  0.0702
  C  C525  1  0.896600  0.070510  0.367800  1.0  0.2379
  C  C526  1  0.869600  0.120070  0.438600  1.0  0.3315
  C  C527  1  0.886100  0.140680  0.504200  1.0  -0.1247
  C  C528  1  0.825300  0.189910  0.487300  1.0  0.1002
  N  N529  1  0.446460  0.447080  0.302100  1.0  -0.2676
  N  N530  1  0.444000  0.423730  0.356300  1.0  -0.1221
  N  N531  1  0.411200  0.400210  0.343000  1.0  -0.286
  N  N532  1  0.391700  0.407960  0.280700  1.0  0.1599
  N  N533  1  0.346100  0.343170  0.159000  1.0  -0.4114
  N  N534  1  0.314500  0.279110  0.026200  1.0  -0.3451
  N  N535  1  0.558900  0.525190  0.306200  1.0  -0.38
  N  N536  1  0.600800  0.592580  0.426400  1.0  -0.408
  N  N537  1  0.650680  0.665940  0.524400  1.0  0.163
  N  N538  1  0.664200  0.669210  0.592500  1.0  -0.2778
  N  N539  1  0.696470  0.694560  0.594900  1.0  -0.1256
  N  N540  1  0.703510  0.707900  0.530100  1.0  -0.2209
  N  N541  1  0.053540  0.552920  0.802100  1.0  -0.2688
  N  N542  1  0.056000  0.576270  0.856300  1.0  -0.124
  N  N543  1  0.088800  0.599790  0.843000  1.0  -0.2869
  N  N544  1  0.108300  0.592040  0.780700  1.0  0.1608
  N  N545  1  0.153900  0.656830  0.659000  1.0  -0.4108
  N  N546  1  0.185500  0.720890  0.526200  1.0  -0.3453
  N  N547  1  0.941100  0.474810  0.806200  1.0  -0.3828
  N  N548  1  0.899200  0.407420  0.926400  1.0  -0.4071
  N  N549  1  0.849320  0.334060  0.024400  1.0  0.1639
  N  N550  1  0.835800  0.330790  0.092500  1.0  -0.2778
  N  N551  1  0.803530  0.305440  0.094900  1.0  -0.1262
  N  N552  1  0.796490  0.292100  0.030100  1.0  -0.22
  N  N553  1  0.553540  0.947080  0.197900  1.0  -0.2686
  N  N554  1  0.556000  0.923730  0.143700  1.0  -0.1241
  N  N555  1  0.588800  0.900210  0.157000  1.0  -0.2873
  N  N556  1  0.608300  0.907960  0.219300  1.0  0.1618
  N  N557  1  0.653900  0.843170  0.341000  1.0  -0.4108
  N  N558  1  0.685500  0.779110  0.473800  1.0  -0.3449
  N  N559  1  0.441100  0.025190  0.193800  1.0  -0.3822
  N  N560  1  0.399200  0.092580  0.073600  1.0  -0.4074
  N  N561  1  0.349320  0.165940  0.975600  1.0  0.1649
  N  N562  1  0.335800  0.169210  0.907500  1.0  -0.2792
  N  N563  1  0.303530  0.194560  0.905100  1.0  -0.1283
  N  N564  1  0.296490  0.207900  0.969900  1.0  -0.2204
  N  N565  1  0.946460  0.052920  0.697900  1.0  -0.2673
  N  N566  1  0.944000  0.076270  0.643700  1.0  -0.1236
  N  N567  1  0.911200  0.099790  0.657000  1.0  -0.2871
  N  N568  1  0.891700  0.092040  0.719300  1.0  0.1615
  N  N569  1  0.846100  0.156830  0.841000  1.0  -0.4118
  N  N570  1  0.814500  0.220890  0.973800  1.0  -0.3451
  N  N571  1  0.058900  0.974810  0.693800  1.0  -0.3788
  N  N572  1  0.100800  0.907420  0.573600  1.0  -0.4086
  N  N573  1  0.150680  0.834060  0.475600  1.0  0.1644
  N  N574  1  0.164200  0.830790  0.407500  1.0  -0.2787
  N  N575  1  0.196470  0.805440  0.405100  1.0  -0.1285
  N  N576  1  0.203510  0.792100  0.469900  1.0  -0.2201
  N  N577  1  0.053540  0.052920  0.697900  1.0  -0.2691
  N  N578  1  0.056000  0.076270  0.643700  1.0  -0.1246
  N  N579  1  0.088800  0.099790  0.657000  1.0  -0.2873
  N  N580  1  0.108300  0.092040  0.719300  1.0  0.162
  N  N581  1  0.153900  0.156830  0.841000  1.0  -0.4108
  N  N582  1  0.185500  0.220890  0.973800  1.0  -0.3455
  N  N583  1  0.941100  0.974810  0.693800  1.0  -0.3825
  N  N584  1  0.899200  0.907420  0.573600  1.0  -0.4074
  N  N585  1  0.849320  0.834060  0.475600  1.0  0.165
  N  N586  1  0.835800  0.830790  0.407500  1.0  -0.2784
  N  N587  1  0.803530  0.805440  0.405100  1.0  -0.129
  N  N588  1  0.796490  0.792100  0.469900  1.0  -0.2199
  N  N589  1  0.446460  0.947080  0.197900  1.0  -0.2674
  N  N590  1  0.444000  0.923730  0.143700  1.0  -0.123
  N  N591  1  0.411200  0.900210  0.157000  1.0  -0.287
  N  N592  1  0.391700  0.907960  0.219300  1.0  0.1609
  N  N593  1  0.346100  0.843170  0.341000  1.0  -0.4118
  N  N594  1  0.314500  0.779110  0.473800  1.0  -0.3452
  N  N595  1  0.558900  0.025190  0.193800  1.0  -0.3796
  N  N596  1  0.600800  0.092580  0.073600  1.0  -0.4085
  N  N597  1  0.650680  0.165940  0.975600  1.0  0.1642
  N  N598  1  0.664200  0.169210  0.907500  1.0  -0.2796
  N  N599  1  0.696470  0.194560  0.905100  1.0  -0.1281
  N  N600  1  0.703510  0.207900  0.969900  1.0  -0.2206
  N  N601  1  0.946460  0.552920  0.802100  1.0  -0.2672
  N  N602  1  0.944000  0.576270  0.856300  1.0  -0.122
  N  N603  1  0.911200  0.599790  0.843000  1.0  -0.2868
  N  N604  1  0.891700  0.592040  0.780700  1.0  0.1598
  N  N605  1  0.846100  0.656830  0.659000  1.0  -0.4117
  N  N606  1  0.814500  0.720890  0.526200  1.0  -0.3448
  N  N607  1  0.058900  0.474810  0.806200  1.0  -0.3794
  N  N608  1  0.100800  0.407420  0.926400  1.0  -0.4085
  N  N609  1  0.150680  0.334060  0.024400  1.0  0.1631
  N  N610  1  0.164200  0.330790  0.092500  1.0  -0.2781
  N  N611  1  0.196470  0.305440  0.094900  1.0  -0.1255
  N  N612  1  0.203510  0.292100  0.030100  1.0  -0.2202
  N  N613  1  0.553540  0.447080  0.302100  1.0  -0.2689
  N  N614  1  0.556000  0.423730  0.356300  1.0  -0.1241
  N  N615  1  0.588800  0.400210  0.343000  1.0  -0.2864
  N  N616  1  0.608300  0.407960  0.280700  1.0  0.1609
  N  N617  1  0.653900  0.343170  0.159000  1.0  -0.4105
  N  N618  1  0.685500  0.279110  0.026200  1.0  -0.3448
  N  N619  1  0.441100  0.525190  0.306200  1.0  -0.3824
  N  N620  1  0.399200  0.592580  0.426400  1.0  -0.4068
  N  N621  1  0.349320  0.665940  0.524400  1.0  0.1638
  N  N622  1  0.335800  0.669210  0.592500  1.0  -0.2776
  N  N623  1  0.303530  0.694560  0.594900  1.0  -0.1264
  N  N624  1  0.296490  0.707900  0.530100  1.0  -0.2206
  N  N625  1  0.946460  0.947080  0.302100  1.0  -0.2676
  N  N626  1  0.944000  0.923730  0.356300  1.0  -0.1221
  N  N627  1  0.911200  0.900210  0.343000  1.0  -0.286
  N  N628  1  0.891700  0.907960  0.280700  1.0  0.1599
  N  N629  1  0.846100  0.843170  0.159000  1.0  -0.4114
  N  N630  1  0.814500  0.779110  0.026200  1.0  -0.3451
  N  N631  1  0.058900  0.025190  0.306200  1.0  -0.38
  N  N632  1  0.100800  0.092580  0.426400  1.0  -0.408
  N  N633  1  0.150680  0.165940  0.524400  1.0  0.163
  N  N634  1  0.164200  0.169210  0.592500  1.0  -0.2778
  N  N635  1  0.196470  0.194560  0.594900  1.0  -0.1256
  N  N636  1  0.203510  0.207900  0.530100  1.0  -0.2209
  N  N637  1  0.553540  0.052920  0.802100  1.0  -0.2688
  N  N638  1  0.556000  0.076270  0.856300  1.0  -0.124
  N  N639  1  0.588800  0.099790  0.843000  1.0  -0.2869
  N  N640  1  0.608300  0.092040  0.780700  1.0  0.1608
  N  N641  1  0.653900  0.156830  0.659000  1.0  -0.4108
  N  N642  1  0.685500  0.220890  0.526200  1.0  -0.3453
  N  N643  1  0.441100  0.974810  0.806200  1.0  -0.3828
  N  N644  1  0.399200  0.907420  0.926400  1.0  -0.4071
  N  N645  1  0.349320  0.834060  0.024400  1.0  0.1639
  N  N646  1  0.335800  0.830790  0.092500  1.0  -0.2778
  N  N647  1  0.303530  0.805440  0.094900  1.0  -0.1262
  N  N648  1  0.296490  0.792100  0.030100  1.0  -0.22
  N  N649  1  0.053540  0.447080  0.197900  1.0  -0.2686
  N  N650  1  0.056000  0.423730  0.143700  1.0  -0.1241
  N  N651  1  0.088800  0.400210  0.157000  1.0  -0.2873
  N  N652  1  0.108300  0.407960  0.219300  1.0  0.1618
  N  N653  1  0.153900  0.343170  0.341000  1.0  -0.4108
  N  N654  1  0.185500  0.279110  0.473800  1.0  -0.3449
  N  N655  1  0.941100  0.525190  0.193800  1.0  -0.3822
  N  N656  1  0.899200  0.592580  0.073600  1.0  -0.4074
  N  N657  1  0.849320  0.665940  0.975600  1.0  0.1649
  N  N658  1  0.835800  0.669210  0.907500  1.0  -0.2792
  N  N659  1  0.803530  0.694560  0.905100  1.0  -0.1283
  N  N660  1  0.796490  0.707900  0.969900  1.0  -0.2204
  N  N661  1  0.446460  0.552920  0.697900  1.0  -0.2673
  N  N662  1  0.444000  0.576270  0.643700  1.0  -0.1236
  N  N663  1  0.411200  0.599790  0.657000  1.0  -0.2871
  N  N664  1  0.391700  0.592040  0.719300  1.0  0.1615
  N  N665  1  0.346100  0.656830  0.841000  1.0  -0.4118
  N  N666  1  0.314500  0.720890  0.973800  1.0  -0.3451
  N  N667  1  0.558900  0.474810  0.693800  1.0  -0.3788
  N  N668  1  0.600800  0.407420  0.573600  1.0  -0.4086
  N  N669  1  0.650680  0.334060  0.475600  1.0  0.1644
  N  N670  1  0.664200  0.330790  0.407500  1.0  -0.2787
  N  N671  1  0.696470  0.305440  0.405100  1.0  -0.1285
  N  N672  1  0.703510  0.292100  0.469900  1.0  -0.2201
  N  N673  1  0.553540  0.552920  0.697900  1.0  -0.2691
  N  N674  1  0.556000  0.576270  0.643700  1.0  -0.1246
  N  N675  1  0.588800  0.599790  0.657000  1.0  -0.2873
  N  N676  1  0.608300  0.592040  0.719300  1.0  0.162
  N  N677  1  0.653900  0.656830  0.841000  1.0  -0.4108
  N  N678  1  0.685500  0.720890  0.973800  1.0  -0.3455
  N  N679  1  0.441100  0.474810  0.693800  1.0  -0.3825
  N  N680  1  0.399200  0.407420  0.573600  1.0  -0.4074
  N  N681  1  0.349320  0.334060  0.475600  1.0  0.165
  N  N682  1  0.335800  0.330790  0.407500  1.0  -0.2784
  N  N683  1  0.303530  0.305440  0.405100  1.0  -0.129
  N  N684  1  0.296490  0.292100  0.469900  1.0  -0.2199
  N  N685  1  0.946460  0.447080  0.197900  1.0  -0.2674
  N  N686  1  0.944000  0.423730  0.143700  1.0  -0.123
  N  N687  1  0.911200  0.400210  0.157000  1.0  -0.287
  N  N688  1  0.891700  0.407960  0.219300  1.0  0.1609
  N  N689  1  0.846100  0.343170  0.341000  1.0  -0.4118
  N  N690  1  0.814500  0.279110  0.473800  1.0  -0.3452
  N  N691  1  0.058900  0.525190  0.193800  1.0  -0.3796
  N  N692  1  0.100800  0.592580  0.073600  1.0  -0.4085
  N  N693  1  0.150680  0.665940  0.975600  1.0  0.1642
  N  N694  1  0.164200  0.669210  0.907500  1.0  -0.2796
  N  N695  1  0.196470  0.694560  0.905100  1.0  -0.1281
  N  N696  1  0.203510  0.707900  0.969900  1.0  -0.2206
  N  N697  1  0.446460  0.052920  0.802100  1.0  -0.2672
  N  N698  1  0.444000  0.076270  0.856300  1.0  -0.122
  N  N699  1  0.411200  0.099790  0.843000  1.0  -0.2868
  N  N700  1  0.391700  0.092040  0.780700  1.0  0.1598
  N  N701  1  0.346100  0.156830  0.659000  1.0  -0.4117
  N  N702  1  0.314500  0.220890  0.526200  1.0  -0.3448
  N  N703  1  0.558900  0.974810  0.806200  1.0  -0.3794
  N  N704  1  0.600800  0.907420  0.926400  1.0  -0.4085
  N  N705  1  0.650680  0.834060  0.024400  1.0  0.1631
  N  N706  1  0.664200  0.830790  0.092500  1.0  -0.2781
  N  N707  1  0.696470  0.805440  0.094900  1.0  -0.1255
  N  N708  1  0.703510  0.792100  0.030100  1.0  -0.2202
  N  N709  1  0.053540  0.947080  0.302100  1.0  -0.2689
  N  N710  1  0.056000  0.923730  0.356300  1.0  -0.1241
  N  N711  1  0.088800  0.900210  0.343000  1.0  -0.2864
  N  N712  1  0.108300  0.907960  0.280700  1.0  0.1609
  N  N713  1  0.153900  0.843170  0.159000  1.0  -0.4105
  N  N714  1  0.185500  0.779110  0.026200  1.0  -0.3448
  N  N715  1  0.941100  0.025190  0.306200  1.0  -0.3824
  N  N716  1  0.899200  0.092580  0.426400  1.0  -0.4068
  N  N717  1  0.849320  0.165940  0.524400  1.0  0.1638
  N  N718  1  0.835800  0.169210  0.592500  1.0  -0.2776
  N  N719  1  0.803530  0.194560  0.594900  1.0  -0.1264
  N  N720  1  0.796490  0.207900  0.530100  1.0  -0.2206
  O  O721  1  0.407800  0.383080  0.147200  1.0  -0.4589
  O  O722  1  0.665510  0.629220  0.404100  1.0  -0.4586
  O  O723  1  0.092200  0.616920  0.647200  1.0  -0.458
  O  O724  1  0.834490  0.370780  0.904100  1.0  -0.4574
  O  O725  1  0.592200  0.883080  0.352800  1.0  -0.4576
  O  O726  1  0.334490  0.129220  0.095900  1.0  -0.4606
  O  O727  1  0.907800  0.116920  0.852800  1.0  -0.4574
  O  O728  1  0.165510  0.870780  0.595900  1.0  -0.4575
  O  O729  1  0.092200  0.116920  0.852800  1.0  -0.4568
  O  O730  1  0.834490  0.870780  0.595900  1.0  -0.4593
  O  O731  1  0.407800  0.883080  0.352800  1.0  -0.4575
  O  O732  1  0.665510  0.129220  0.095900  1.0  -0.459
  O  O733  1  0.907800  0.616920  0.647200  1.0  -0.4582
  O  O734  1  0.165510  0.370780  0.904100  1.0  -0.4568
  O  O735  1  0.592200  0.383080  0.147200  1.0  -0.4592
  O  O736  1  0.334490  0.629220  0.404100  1.0  -0.4588
  O  O737  1  0.907800  0.883080  0.147200  1.0  -0.4589
  O  O738  1  0.165510  0.129220  0.404100  1.0  -0.4586
  O  O739  1  0.592200  0.116920  0.647200  1.0  -0.458
  O  O740  1  0.334490  0.870780  0.904100  1.0  -0.4574
  O  O741  1  0.092200  0.383080  0.352800  1.0  -0.4576
  O  O742  1  0.834490  0.629220  0.095900  1.0  -0.4606
  O  O743  1  0.407800  0.616920  0.852800  1.0  -0.4574
  O  O744  1  0.665510  0.370780  0.595900  1.0  -0.4575
  O  O745  1  0.592200  0.616920  0.852800  1.0  -0.4568
  O  O746  1  0.334490  0.370780  0.595900  1.0  -0.4593
  O  O747  1  0.907800  0.383080  0.352800  1.0  -0.4575
  O  O748  1  0.165510  0.629220  0.095900  1.0  -0.459
  O  O749  1  0.407800  0.116920  0.647200  1.0  -0.4582
  O  O750  1  0.665510  0.870780  0.904100  1.0  -0.4568
  O  O751  1  0.092200  0.883080  0.147200  1.0  -0.4592
  O  O752  1  0.834490  0.129220  0.404100  1.0  -0.4588
