# generated using pymatgen
data_Gd4H22C43(NO3)6
_symmetry_space_group_name_H-M   'P 1'
_cell_length_a   34.55830000
_cell_length_b   19.05730000
_cell_length_c   23.68800000
_cell_angle_alpha   90.00000000
_cell_angle_beta   128.18800000
_cell_angle_gamma   90.00000000
_symmetry_Int_Tables_number   1
_chemical_formula_structural   Gd4H22C43(NO3)6
_chemical_formula_sum   'Gd32 H176 C344 N48 O144'
_cell_volume   12261.88289734
_cell_formula_units_Z   8
loop_
 _symmetry_equiv_pos_site_id
 _symmetry_equiv_pos_as_xyz
  1  'x, y, z'
loop_
 _atom_site_type_symbol
 _atom_site_label
 _atom_site_symmetry_multiplicity
 _atom_site_fract_x
 _atom_site_fract_y
 _atom_site_fract_z
 _atom_site_occupancy
 _atom_site_charge
  Gd  Gd1  1  0.206240  0.092030  0.717760  1.0  2.1511
  Gd  Gd2  1  0.175680  0.042730  0.535200  1.0  2.1722
  Gd  Gd3  1  0.242180  0.913920  0.695090  1.0  2.1908
  Gd  Gd4  1  0.105150  0.955710  0.587370  1.0  2.2093
  Gd  Gd5  1  0.706240  0.592030  0.717760  1.0  2.1511
  Gd  Gd6  1  0.675680  0.542730  0.535200  1.0  2.1722
  Gd  Gd7  1  0.742180  0.413920  0.695090  1.0  2.1908
  Gd  Gd8  1  0.605150  0.455710  0.587370  1.0  2.2093
  Gd  Gd9  1  0.793760  0.092030  0.782240  1.0  2.1497
  Gd  Gd10  1  0.824320  0.042730  0.964800  1.0  2.176
  Gd  Gd11  1  0.757820  0.913920  0.804910  1.0  2.19
  Gd  Gd12  1  0.894850  0.955710  0.912630  1.0  2.2073
  Gd  Gd13  1  0.293760  0.592030  0.782240  1.0  2.1497
  Gd  Gd14  1  0.324320  0.542730  0.964800  1.0  2.176
  Gd  Gd15  1  0.257820  0.413920  0.804910  1.0  2.19
  Gd  Gd16  1  0.394850  0.455710  0.912630  1.0  2.2073
  Gd  Gd17  1  0.793760  0.907970  0.282240  1.0  2.1502
  Gd  Gd18  1  0.824320  0.957270  0.464800  1.0  2.1757
  Gd  Gd19  1  0.757820  0.086080  0.304910  1.0  2.1902
  Gd  Gd20  1  0.894850  0.044290  0.412630  1.0  2.2069
  Gd  Gd21  1  0.293760  0.407970  0.282240  1.0  2.1502
  Gd  Gd22  1  0.324320  0.457270  0.464800  1.0  2.1757
  Gd  Gd23  1  0.257820  0.586080  0.304910  1.0  2.1902
  Gd  Gd24  1  0.394850  0.544290  0.412630  1.0  2.2069
  Gd  Gd25  1  0.206240  0.907970  0.217760  1.0  2.1514
  Gd  Gd26  1  0.175680  0.957270  0.035200  1.0  2.1722
  Gd  Gd27  1  0.242180  0.086080  0.195090  1.0  2.1906
  Gd  Gd28  1  0.105150  0.044290  0.087370  1.0  2.2087
  Gd  Gd29  1  0.706240  0.407970  0.217760  1.0  2.1514
  Gd  Gd30  1  0.675680  0.457270  0.035200  1.0  2.1722
  Gd  Gd31  1  0.742180  0.586080  0.195090  1.0  2.1906
  Gd  Gd32  1  0.605150  0.544290  0.087370  1.0  2.2087
  H  H33  1  0.067700  0.209100  0.686000  1.0  0.1064
  H  H34  1  0.369100  0.922300  0.893800  1.0  0.0939
  H  H35  1  0.388700  0.123200  0.876500  1.0  0.0862
  H  H36  1  0.000100  0.247800  0.677500  1.0  0.1158
  H  H37  1  0.452900  0.906900  0.976500  1.0  0.1197
  H  H38  1  0.473400  0.107300  0.955700  1.0  0.1146
  H  H39  1  0.943200  0.165700  0.656700  1.0  0.0653
  H  H40  1  0.369000  0.968600  0.651600  1.0  0.1153
  H  H41  1  0.024500  0.171700  0.363400  1.0  0.1099
  H  H42  1  0.090900  0.731800  0.667800  1.0  0.1037
  H  H43  1  0.111200  0.881500  0.806700  1.0  0.0621
  H  H44  1  0.413000  0.949500  0.608400  1.0  0.1205
  H  H45  1  0.947700  0.203600  0.257600  1.0  0.1161
  H  H46  1  0.090800  0.645800  0.736000  1.0  0.115
  H  H47  1  0.374700  0.891900  0.500700  1.0  0.0636
  H  H48  1  0.158800  0.632300  0.853100  1.0  0.0585
  H  H49  1  0.154200  0.775200  0.309100  1.0  0.1077
  H  H50  1  0.168300  0.773300  0.489200  1.0  0.0697
  H  H51  1  0.359400  0.810700  0.980300  1.0  0.1103
  H  H52  1  0.262600  0.965400  0.910600  1.0  0.0678
  H  H53  1  0.125500  0.739600  0.371200  1.0  0.1048
  H  H54  1  0.342100  0.927100  0.986800  1.0  0.112
  H  H55  1  0.567700  0.709100  0.686000  1.0  0.1064
  H  H56  1  0.869100  0.422300  0.893800  1.0  0.0939
  H  H57  1  0.888700  0.623200  0.876500  1.0  0.0862
  H  H58  1  0.500100  0.747800  0.677500  1.0  0.1158
  H  H59  1  0.952900  0.406900  0.976500  1.0  0.1197
  H  H60  1  0.973400  0.607300  0.955700  1.0  0.1146
  H  H61  1  0.443200  0.665700  0.656700  1.0  0.0653
  H  H62  1  0.869000  0.468600  0.651600  1.0  0.1153
  H  H63  1  0.524500  0.671700  0.363400  1.0  0.1099
  H  H64  1  0.590900  0.231800  0.667800  1.0  0.1037
  H  H65  1  0.611200  0.381500  0.806700  1.0  0.0621
  H  H66  1  0.913000  0.449500  0.608400  1.0  0.1205
  H  H67  1  0.447700  0.703600  0.257600  1.0  0.1161
  H  H68  1  0.590800  0.145800  0.736000  1.0  0.115
  H  H69  1  0.874700  0.391900  0.500700  1.0  0.0636
  H  H70  1  0.658800  0.132300  0.853100  1.0  0.0585
  H  H71  1  0.654200  0.275200  0.309100  1.0  0.1077
  H  H72  1  0.668300  0.273300  0.489200  1.0  0.0697
  H  H73  1  0.859400  0.310700  0.980300  1.0  0.1103
  H  H74  1  0.762600  0.465400  0.910600  1.0  0.0678
  H  H75  1  0.625500  0.239600  0.371200  1.0  0.1048
  H  H76  1  0.842100  0.427100  0.986800  1.0  0.112
  H  H77  1  0.932300  0.209100  0.814000  1.0  0.1065
  H  H78  1  0.630900  0.922300  0.606200  1.0  0.094
  H  H79  1  0.611300  0.123200  0.623500  1.0  0.0867
  H  H80  1  0.999900  0.247800  0.822500  1.0  0.1157
  H  H81  1  0.547100  0.906900  0.523500  1.0  0.12
  H  H82  1  0.526600  0.107300  0.544300  1.0  0.1154
  H  H83  1  0.056800  0.165700  0.843300  1.0  0.0659
  H  H84  1  0.631000  0.968600  0.848400  1.0  0.1153
  H  H85  1  0.975500  0.171700  0.136600  1.0  0.1105
  H  H86  1  0.909100  0.731800  0.832200  1.0  0.1039
  H  H87  1  0.888800  0.881500  0.693300  1.0  0.0631
  H  H88  1  0.587000  0.949500  0.891600  1.0  0.1206
  H  H89  1  0.052300  0.203600  0.242400  1.0  0.1158
  H  H90  1  0.909200  0.645800  0.764000  1.0  0.1149
  H  H91  1  0.625300  0.891900  0.999300  1.0  0.0643
  H  H92  1  0.841200  0.632300  0.646900  1.0  0.0579
  H  H93  1  0.845800  0.775200  0.190900  1.0  0.1073
  H  H94  1  0.831700  0.773300  0.010800  1.0  0.0702
  H  H95  1  0.640600  0.810700  0.519700  1.0  0.1109
  H  H96  1  0.737400  0.965400  0.589400  1.0  0.0678
  H  H97  1  0.874500  0.739600  0.128800  1.0  0.1046
  H  H98  1  0.657900  0.927100  0.513200  1.0  0.1126
  H  H99  1  0.432300  0.709100  0.814000  1.0  0.1065
  H  H100  1  0.130900  0.422300  0.606200  1.0  0.094
  H  H101  1  0.111300  0.623200  0.623500  1.0  0.0867
  H  H102  1  0.499900  0.747800  0.822500  1.0  0.1157
  H  H103  1  0.047100  0.406900  0.523500  1.0  0.12
  H  H104  1  0.026600  0.607300  0.544300  1.0  0.1154
  H  H105  1  0.556800  0.665700  0.843300  1.0  0.0659
  H  H106  1  0.131000  0.468600  0.848400  1.0  0.1153
  H  H107  1  0.475500  0.671700  0.136600  1.0  0.1105
  H  H108  1  0.409100  0.231800  0.832200  1.0  0.1039
  H  H109  1  0.388800  0.381500  0.693300  1.0  0.0631
  H  H110  1  0.087000  0.449500  0.891600  1.0  0.1206
  H  H111  1  0.552300  0.703600  0.242400  1.0  0.1158
  H  H112  1  0.409200  0.145800  0.764000  1.0  0.1149
  H  H113  1  0.125300  0.391900  0.999300  1.0  0.0643
  H  H114  1  0.341200  0.132300  0.646900  1.0  0.0579
  H  H115  1  0.345800  0.275200  0.190900  1.0  0.1073
  H  H116  1  0.331700  0.273300  0.010800  1.0  0.0702
  H  H117  1  0.140600  0.310700  0.519700  1.0  0.1109
  H  H118  1  0.237400  0.465400  0.589400  1.0  0.0678
  H  H119  1  0.374500  0.239600  0.128800  1.0  0.1046
  H  H120  1  0.157900  0.427100  0.513200  1.0  0.1126
  H  H121  1  0.932300  0.790900  0.314000  1.0  0.1063
  H  H122  1  0.630900  0.077700  0.106200  1.0  0.0936
  H  H123  1  0.611300  0.876800  0.123500  1.0  0.0864
  H  H124  1  0.999900  0.752200  0.322500  1.0  0.1148
  H  H125  1  0.547100  0.093100  0.023500  1.0  0.1203
  H  H126  1  0.526600  0.892700  0.044300  1.0  0.1156
  H  H127  1  0.056800  0.834300  0.343300  1.0  0.0663
  H  H128  1  0.631000  0.031400  0.348400  1.0  0.1153
  H  H129  1  0.975500  0.828300  0.636600  1.0  0.1094
  H  H130  1  0.909100  0.268200  0.332200  1.0  0.1041
  H  H131  1  0.888800  0.118500  0.193300  1.0  0.0634
  H  H132  1  0.587000  0.050500  0.391600  1.0  0.1205
  H  H133  1  0.052300  0.796400  0.742400  1.0  0.1159
  H  H134  1  0.909200  0.354200  0.264000  1.0  0.116
  H  H135  1  0.625300  0.108100  0.499300  1.0  0.0637
  H  H136  1  0.841200  0.367700  0.146900  1.0  0.0584
  H  H137  1  0.845800  0.224800  0.690900  1.0  0.1072
  H  H138  1  0.831700  0.226700  0.510800  1.0  0.0703
  H  H139  1  0.640600  0.189300  0.019700  1.0  0.1107
  H  H140  1  0.737400  0.034600  0.089400  1.0  0.068
  H  H141  1  0.874500  0.260400  0.628800  1.0  0.1049
  H  H142  1  0.657900  0.072900  0.013200  1.0  0.1127
  H  H143  1  0.432300  0.290900  0.314000  1.0  0.1063
  H  H144  1  0.130900  0.577700  0.106200  1.0  0.0936
  H  H145  1  0.111300  0.376800  0.123500  1.0  0.0864
  H  H146  1  0.499900  0.252200  0.322500  1.0  0.1148
  H  H147  1  0.047100  0.593100  0.023500  1.0  0.1203
  H  H148  1  0.026600  0.392700  0.044300  1.0  0.1156
  H  H149  1  0.556800  0.334300  0.343300  1.0  0.0663
  H  H150  1  0.131000  0.531400  0.348400  1.0  0.1153
  H  H151  1  0.475500  0.328300  0.636600  1.0  0.1094
  H  H152  1  0.409100  0.768200  0.332200  1.0  0.1041
  H  H153  1  0.388800  0.618500  0.193300  1.0  0.0634
  H  H154  1  0.087000  0.550500  0.391600  1.0  0.1205
  H  H155  1  0.552300  0.296400  0.742400  1.0  0.1159
  H  H156  1  0.409200  0.854200  0.264000  1.0  0.116
  H  H157  1  0.125300  0.608100  0.499300  1.0  0.0637
  H  H158  1  0.341200  0.867700  0.146900  1.0  0.0584
  H  H159  1  0.345800  0.724800  0.690900  1.0  0.1072
  H  H160  1  0.331700  0.726700  0.510800  1.0  0.0703
  H  H161  1  0.140600  0.689300  0.019700  1.0  0.1107
  H  H162  1  0.237400  0.534600  0.089400  1.0  0.068
  H  H163  1  0.374500  0.760400  0.628800  1.0  0.1049
  H  H164  1  0.157900  0.572900  0.013200  1.0  0.1127
  H  H165  1  0.067700  0.790900  0.186000  1.0  0.1064
  H  H166  1  0.369100  0.077700  0.393800  1.0  0.0941
  H  H167  1  0.388700  0.876800  0.376500  1.0  0.086
  H  H168  1  0.000100  0.752200  0.177500  1.0  0.115
  H  H169  1  0.452900  0.093100  0.476500  1.0  0.1199
  H  H170  1  0.473400  0.892700  0.455700  1.0  0.1152
  H  H171  1  0.943200  0.834300  0.156700  1.0  0.0654
  H  H172  1  0.369000  0.031400  0.151600  1.0  0.1151
  H  H173  1  0.024500  0.828300  0.863400  1.0  0.1097
  H  H174  1  0.090900  0.268200  0.167800  1.0  0.1037
  H  H175  1  0.111200  0.118500  0.306700  1.0  0.0622
  H  H176  1  0.413000  0.050500  0.108400  1.0  0.1204
  H  H177  1  0.947700  0.796400  0.757600  1.0  0.1161
  H  H178  1  0.090800  0.354200  0.236000  1.0  0.1156
  H  H179  1  0.374700  0.108100  0.000700  1.0  0.0637
  H  H180  1  0.158800  0.367700  0.353100  1.0  0.059
  H  H181  1  0.154200  0.224800  0.809100  1.0  0.108
  H  H182  1  0.168300  0.226700  0.989200  1.0  0.0701
  H  H183  1  0.359400  0.189300  0.480300  1.0  0.1107
  H  H184  1  0.262600  0.034600  0.410600  1.0  0.0682
  H  H185  1  0.125500  0.260400  0.871200  1.0  0.105
  H  H186  1  0.342100  0.072900  0.486800  1.0  0.1126
  H  H187  1  0.567700  0.290900  0.186000  1.0  0.1064
  H  H188  1  0.869100  0.577700  0.393800  1.0  0.0941
  H  H189  1  0.888700  0.376800  0.376500  1.0  0.086
  H  H190  1  0.500100  0.252200  0.177500  1.0  0.115
  H  H191  1  0.952900  0.593100  0.476500  1.0  0.1199
  H  H192  1  0.973400  0.392700  0.455700  1.0  0.1152
  H  H193  1  0.443200  0.334300  0.156700  1.0  0.0654
  H  H194  1  0.869000  0.531400  0.151600  1.0  0.1151
  H  H195  1  0.524500  0.328300  0.863400  1.0  0.1097
  H  H196  1  0.590900  0.768200  0.167800  1.0  0.1037
  H  H197  1  0.611200  0.618500  0.306700  1.0  0.0622
  H  H198  1  0.913000  0.550500  0.108400  1.0  0.1204
  H  H199  1  0.447700  0.296400  0.757600  1.0  0.1161
  H  H200  1  0.590800  0.854200  0.236000  1.0  0.1156
  H  H201  1  0.874700  0.608100  0.000700  1.0  0.0637
  H  H202  1  0.658800  0.867700  0.353100  1.0  0.059
  H  H203  1  0.654200  0.724800  0.809100  1.0  0.108
  H  H204  1  0.668300  0.726700  0.989200  1.0  0.0701
  H  H205  1  0.859400  0.689300  0.480300  1.0  0.1107
  H  H206  1  0.762600  0.534600  0.410600  1.0  0.0682
  H  H207  1  0.625500  0.760400  0.871200  1.0  0.105
  H  H208  1  0.842100  0.572900  0.486800  1.0  0.1126
  C  C209  1  0.092300  0.079300  0.677100  1.0  0.6912
  C  C210  1  0.316200  0.033700  0.824200  1.0  0.7084
  C  C211  1  0.053200  0.105500  0.681500  1.0  -0.087
  C  C212  1  0.370600  0.025500  0.877700  1.0  -0.1412
  C  C213  1  0.045700  0.177000  0.681700  1.0  0.003
  C  C214  1  0.019400  0.058900  0.676500  1.0  0.1344
  C  C215  1  0.390100  0.960300  0.907000  1.0  -0.0644
  C  C216  1  0.401400  0.079000  0.895900  1.0  -0.058
  C  C217  1  0.276600  0.942200  0.592900  1.0  0.6976
  C  C218  1  0.056800  0.049200  0.426300  1.0  0.7377
  C  C219  1  0.161100  0.821600  0.701400  1.0  0.7278
  C  C220  1  0.005100  0.200200  0.675200  1.0  -0.1231
  C  C221  1  0.028200  0.981500  0.688800  1.0  0.132
  C  C222  1  0.440500  0.950800  0.955700  1.0  -0.1476
  C  C223  1  0.452700  0.069400  0.944200  1.0  -0.1351
  C  C224  1  0.306400  0.921800  0.569400  1.0  -0.1108
  C  C225  1  0.008500  0.068100  0.355900  1.0  -0.105
  C  C226  1  0.158800  0.769400  0.746400  1.0  -0.1106
  C  C227  1  0.971900  0.150000  0.665200  1.0  0.1517
  C  C228  1  0.472800  0.005300  0.974300  1.0  0.0207
  C  C229  1  0.354400  0.945100  0.608400  1.0  -0.0426
  C  C230  1  0.287000  0.882800  0.506800  1.0  0.126
  C  C231  1  0.000100  0.138200  0.335600  1.0  -0.0398
  C  C232  1  0.118000  0.726100  0.715700  1.0  -0.0185
  C  C233  1  0.197300  0.760600  0.819000  1.0  0.1731
  C  C234  1  0.080300  0.894700  0.765800  1.0  0.1703
  C  C235  1  0.380800  0.933600  0.583200  1.0  -0.1451
  C  C236  1  0.238100  0.846300  0.464100  1.0  0.1274
  C  C237  1  0.954600  0.157200  0.273100  1.0  -0.1996
  C  C238  1  0.117800  0.675300  0.755900  1.0  -0.1457
  C  C239  1  0.240400  0.808700  0.861600  1.0  0.1292
  C  C240  1  0.357700  0.897600  0.519200  1.0  0.1666
  C  C241  1  0.212500  0.830700  0.391400  1.0  -0.0414
  C  C242  1  0.158400  0.668600  0.826500  1.0  0.1452
  C  C243  1  0.288800  0.782200  0.903200  1.0  -0.0546
  C  C244  1  0.170600  0.788600  0.356600  1.0  -0.0854
  C  C245  1  0.224370  0.858800  0.344600  1.0  0.6229
  C  C246  1  0.180200  0.786800  0.464700  1.0  0.1511
  C  C247  1  0.327100  0.827000  0.950900  1.0  -0.064
  C  C248  1  0.297500  0.707600  0.893600  1.0  0.6974
  C  C249  1  0.268900  0.918300  0.908900  1.0  0.1616
  C  C250  1  0.153700  0.766800  0.393400  1.0  -0.1336
  C  C251  1  0.317000  0.896200  0.954400  1.0  -0.1871
  C  C252  1  0.592300  0.579300  0.677100  1.0  0.6912
  C  C253  1  0.816200  0.533700  0.824200  1.0  0.7084
  C  C254  1  0.553200  0.605500  0.681500  1.0  -0.087
  C  C255  1  0.870600  0.525500  0.877700  1.0  -0.1412
  C  C256  1  0.545700  0.677000  0.681700  1.0  0.003
  C  C257  1  0.519400  0.558900  0.676500  1.0  0.1344
  C  C258  1  0.890100  0.460300  0.907000  1.0  -0.0644
  C  C259  1  0.901400  0.579000  0.895900  1.0  -0.058
  C  C260  1  0.776600  0.442200  0.592900  1.0  0.6976
  C  C261  1  0.556800  0.549200  0.426300  1.0  0.7377
  C  C262  1  0.661100  0.321600  0.701400  1.0  0.7278
  C  C263  1  0.505100  0.700200  0.675200  1.0  -0.1231
  C  C264  1  0.528200  0.481500  0.688800  1.0  0.132
  C  C265  1  0.940500  0.450800  0.955700  1.0  -0.1476
  C  C266  1  0.952700  0.569400  0.944200  1.0  -0.1351
  C  C267  1  0.806400  0.421800  0.569400  1.0  -0.1108
  C  C268  1  0.508500  0.568100  0.355900  1.0  -0.105
  C  C269  1  0.658800  0.269400  0.746400  1.0  -0.1106
  C  C270  1  0.471900  0.650000  0.665200  1.0  0.1517
  C  C271  1  0.972800  0.505300  0.974300  1.0  0.0207
  C  C272  1  0.854400  0.445100  0.608400  1.0  -0.0426
  C  C273  1  0.787000  0.382800  0.506800  1.0  0.126
  C  C274  1  0.500100  0.638200  0.335600  1.0  -0.0398
  C  C275  1  0.618000  0.226100  0.715700  1.0  -0.0185
  C  C276  1  0.697300  0.260600  0.819000  1.0  0.1731
  C  C277  1  0.580300  0.394700  0.765800  1.0  0.1703
  C  C278  1  0.880800  0.433600  0.583200  1.0  -0.1451
  C  C279  1  0.738100  0.346300  0.464100  1.0  0.1274
  C  C280  1  0.454600  0.657200  0.273100  1.0  -0.1996
  C  C281  1  0.617800  0.175300  0.755900  1.0  -0.1457
  C  C282  1  0.740400  0.308700  0.861600  1.0  0.1292
  C  C283  1  0.857700  0.397600  0.519200  1.0  0.1666
  C  C284  1  0.712500  0.330700  0.391400  1.0  -0.0414
  C  C285  1  0.658400  0.168600  0.826500  1.0  0.1452
  C  C286  1  0.788800  0.282200  0.903200  1.0  -0.0546
  C  C287  1  0.670600  0.288600  0.356600  1.0  -0.0854
  C  C288  1  0.724370  0.358800  0.344600  1.0  0.6229
  C  C289  1  0.680200  0.286800  0.464700  1.0  0.1511
  C  C290  1  0.827100  0.327000  0.950900  1.0  -0.064
  C  C291  1  0.797500  0.207600  0.893600  1.0  0.6974
  C  C292  1  0.768900  0.418300  0.908900  1.0  0.1616
  C  C293  1  0.653700  0.266800  0.393400  1.0  -0.1336
  C  C294  1  0.817000  0.396200  0.954400  1.0  -0.1871
  C  C295  1  0.907700  0.079300  0.822900  1.0  0.6934
  C  C296  1  0.683800  0.033700  0.675800  1.0  0.7076
  C  C297  1  0.946800  0.105500  0.818500  1.0  -0.0851
  C  C298  1  0.629400  0.025500  0.622300  1.0  -0.1384
  C  C299  1  0.954300  0.177000  0.818300  1.0  0.0035
  C  C300  1  0.980600  0.058900  0.823500  1.0  0.134
  C  C301  1  0.609900  0.960300  0.593000  1.0  -0.0649
  C  C302  1  0.598600  0.079000  0.604100  1.0  -0.0586
  C  C303  1  0.723400  0.942200  0.907100  1.0  0.6975
  C  C304  1  0.943200  0.049200  0.073700  1.0  0.7374
  C  C305  1  0.838900  0.821600  0.798600  1.0  0.7286
  C  C306  1  0.994900  0.200200  0.824800  1.0  -0.1217
  C  C307  1  0.971800  0.981500  0.811200  1.0  0.1321
  C  C308  1  0.559500  0.950800  0.544300  1.0  -0.1461
  C  C309  1  0.547300  0.069400  0.555800  1.0  -0.135
  C  C310  1  0.693600  0.921800  0.930600  1.0  -0.112
  C  C311  1  0.991500  0.068100  0.144100  1.0  -0.1058
  C  C312  1  0.841200  0.769400  0.753600  1.0  -0.1095
  C  C313  1  0.028100  0.150000  0.834800  1.0  0.1534
  C  C314  1  0.527200  0.005300  0.525700  1.0  0.0198
  C  C315  1  0.645600  0.945100  0.891600  1.0  -0.0435
  C  C316  1  0.713000  0.882800  0.993200  1.0  0.1251
  C  C317  1  0.999900  0.138200  0.164400  1.0  -0.039
  C  C318  1  0.882000  0.726100  0.784300  1.0  -0.0169
  C  C319  1  0.802700  0.760600  0.681000  1.0  0.1733
  C  C320  1  0.919700  0.894700  0.734200  1.0  0.1692
  C  C321  1  0.619200  0.933600  0.916800  1.0  -0.1468
  C  C322  1  0.761900  0.846300  0.035900  1.0  0.1267
  C  C323  1  0.045400  0.157200  0.226900  1.0  -0.1971
  C  C324  1  0.882200  0.675300  0.744100  1.0  -0.1455
  C  C325  1  0.759600  0.808700  0.638400  1.0  0.1302
  C  C326  1  0.642300  0.897600  0.980800  1.0  0.1674
  C  C327  1  0.787500  0.830700  0.108600  1.0  -0.041
  C  C328  1  0.841600  0.668600  0.673500  1.0  0.1458
  C  C329  1  0.711200  0.782200  0.596800  1.0  -0.0558
  C  C330  1  0.829400  0.788600  0.143400  1.0  -0.0866
  C  C331  1  0.775630  0.858800  0.155400  1.0  0.6237
  C  C332  1  0.819800  0.786800  0.035300  1.0  0.1514
  C  C333  1  0.672900  0.827000  0.549100  1.0  -0.064
  C  C334  1  0.702500  0.707600  0.606400  1.0  0.6982
  C  C335  1  0.731100  0.918300  0.591100  1.0  0.163
  C  C336  1  0.846300  0.766800  0.106600  1.0  -0.1328
  C  C337  1  0.683000  0.896200  0.545600  1.0  -0.1883
  C  C338  1  0.407700  0.579300  0.822900  1.0  0.6934
  C  C339  1  0.183800  0.533700  0.675800  1.0  0.7076
  C  C340  1  0.446800  0.605500  0.818500  1.0  -0.0851
  C  C341  1  0.129400  0.525500  0.622300  1.0  -0.1384
  C  C342  1  0.454300  0.677000  0.818300  1.0  0.0035
  C  C343  1  0.480600  0.558900  0.823500  1.0  0.134
  C  C344  1  0.109900  0.460300  0.593000  1.0  -0.0649
  C  C345  1  0.098600  0.579000  0.604100  1.0  -0.0586
  C  C346  1  0.223400  0.442200  0.907100  1.0  0.6975
  C  C347  1  0.443200  0.549200  0.073700  1.0  0.7374
  C  C348  1  0.338900  0.321600  0.798600  1.0  0.7286
  C  C349  1  0.494900  0.700200  0.824800  1.0  -0.1217
  C  C350  1  0.471800  0.481500  0.811200  1.0  0.1321
  C  C351  1  0.059500  0.450800  0.544300  1.0  -0.1461
  C  C352  1  0.047300  0.569400  0.555800  1.0  -0.135
  C  C353  1  0.193600  0.421800  0.930600  1.0  -0.112
  C  C354  1  0.491500  0.568100  0.144100  1.0  -0.1058
  C  C355  1  0.341200  0.269400  0.753600  1.0  -0.1095
  C  C356  1  0.528100  0.650000  0.834800  1.0  0.1534
  C  C357  1  0.027200  0.505300  0.525700  1.0  0.0198
  C  C358  1  0.145600  0.445100  0.891600  1.0  -0.0435
  C  C359  1  0.213000  0.382800  0.993200  1.0  0.1251
  C  C360  1  0.499900  0.638200  0.164400  1.0  -0.039
  C  C361  1  0.382000  0.226100  0.784300  1.0  -0.0169
  C  C362  1  0.302700  0.260600  0.681000  1.0  0.1733
  C  C363  1  0.419700  0.394700  0.734200  1.0  0.1692
  C  C364  1  0.119200  0.433600  0.916800  1.0  -0.1468
  C  C365  1  0.261900  0.346300  0.035900  1.0  0.1267
  C  C366  1  0.545400  0.657200  0.226900  1.0  -0.1971
  C  C367  1  0.382200  0.175300  0.744100  1.0  -0.1455
  C  C368  1  0.259600  0.308700  0.638400  1.0  0.1302
  C  C369  1  0.142300  0.397600  0.980800  1.0  0.1674
  C  C370  1  0.287500  0.330700  0.108600  1.0  -0.041
  C  C371  1  0.341600  0.168600  0.673500  1.0  0.1458
  C  C372  1  0.211200  0.282200  0.596800  1.0  -0.0558
  C  C373  1  0.329400  0.288600  0.143400  1.0  -0.0866
  C  C374  1  0.275630  0.358800  0.155400  1.0  0.6237
  C  C375  1  0.319800  0.286800  0.035300  1.0  0.1514
  C  C376  1  0.172900  0.327000  0.549100  1.0  -0.064
  C  C377  1  0.202500  0.207600  0.606400  1.0  0.6982
  C  C378  1  0.231100  0.418300  0.591100  1.0  0.163
  C  C379  1  0.346300  0.266800  0.106600  1.0  -0.1328
  C  C380  1  0.183000  0.396200  0.545600  1.0  -0.1883
  C  C381  1  0.907700  0.920700  0.322900  1.0  0.6939
  C  C382  1  0.683800  0.966300  0.175800  1.0  0.7074
  C  C383  1  0.946800  0.894500  0.318500  1.0  -0.0855
  C  C384  1  0.629400  0.974500  0.122300  1.0  -0.1382
  C  C385  1  0.954300  0.823000  0.318300  1.0  0.0037
  C  C386  1  0.980600  0.941100  0.323500  1.0  0.1331
  C  C387  1  0.609900  0.039700  0.093000  1.0  -0.0635
  C  C388  1  0.598600  0.921000  0.104100  1.0  -0.0576
  C  C389  1  0.723400  0.057800  0.407100  1.0  0.6982
  C  C390  1  0.943200  0.950800  0.573700  1.0  0.7379
  C  C391  1  0.838900  0.178400  0.298600  1.0  0.7287
  C  C392  1  0.994900  0.799800  0.324800  1.0  -0.1224
  C  C393  1  0.971800  0.018500  0.311200  1.0  0.1354
  C  C394  1  0.559500  0.049200  0.044300  1.0  -0.1469
  C  C395  1  0.547300  0.930600  0.055800  1.0  -0.1352
  C  C396  1  0.693600  0.078200  0.430600  1.0  -0.1122
  C  C397  1  0.991500  0.931900  0.644100  1.0  -0.1088
  C  C398  1  0.841200  0.230600  0.253600  1.0  -0.1097
  C  C399  1  0.028100  0.850000  0.334800  1.0  0.1535
  C  C400  1  0.527200  0.994700  0.025700  1.0  0.0196
  C  C401  1  0.645600  0.054900  0.391600  1.0  -0.0438
  C  C402  1  0.713000  0.117200  0.493200  1.0  0.1252
  C  C403  1  0.999900  0.861800  0.664400  1.0  -0.0413
  C  C404  1  0.882000  0.273900  0.284300  1.0  -0.017
  C  C405  1  0.802700  0.239400  0.181000  1.0  0.1736
  C  C406  1  0.919700  0.105300  0.234200  1.0  0.1695
  C  C407  1  0.619200  0.066400  0.416800  1.0  -0.1463
  C  C408  1  0.761900  0.153700  0.535900  1.0  0.1262
  C  C409  1  0.045400  0.842800  0.726900  1.0  -0.1926
  C  C410  1  0.882200  0.324700  0.244100  1.0  -0.144
  C  C411  1  0.759600  0.191300  0.138400  1.0  0.1303
  C  C412  1  0.642300  0.102400  0.480800  1.0  0.167
  C  C413  1  0.787500  0.169300  0.608600  1.0  -0.0407
  C  C414  1  0.841600  0.331400  0.173500  1.0  0.1458
  C  C415  1  0.711200  0.217800  0.096800  1.0  -0.0554
  C  C416  1  0.829400  0.211400  0.643400  1.0  -0.0866
  C  C417  1  0.775630  0.141200  0.655400  1.0  0.6238
  C  C418  1  0.819800  0.213200  0.535300  1.0  0.1513
  C  C419  1  0.672900  0.173000  0.049100  1.0  -0.0641
  C  C420  1  0.702500  0.292400  0.106400  1.0  0.6975
  C  C421  1  0.731100  0.081700  0.091100  1.0  0.1627
  C  C422  1  0.846300  0.233200  0.606600  1.0  -0.1327
  C  C423  1  0.683000  0.103800  0.045600  1.0  -0.1881
  C  C424  1  0.407700  0.420700  0.322900  1.0  0.6939
  C  C425  1  0.183800  0.466300  0.175800  1.0  0.7074
  C  C426  1  0.446800  0.394500  0.318500  1.0  -0.0855
  C  C427  1  0.129400  0.474500  0.122300  1.0  -0.1382
  C  C428  1  0.454300  0.323000  0.318300  1.0  0.0037
  C  C429  1  0.480600  0.441100  0.323500  1.0  0.1331
  C  C430  1  0.109900  0.539700  0.093000  1.0  -0.0635
  C  C431  1  0.098600  0.421000  0.104100  1.0  -0.0576
  C  C432  1  0.223400  0.557800  0.407100  1.0  0.6982
  C  C433  1  0.443200  0.450800  0.573700  1.0  0.7379
  C  C434  1  0.338900  0.678400  0.298600  1.0  0.7287
  C  C435  1  0.494900  0.299800  0.324800  1.0  -0.1224
  C  C436  1  0.471800  0.518500  0.311200  1.0  0.1354
  C  C437  1  0.059500  0.549200  0.044300  1.0  -0.1469
  C  C438  1  0.047300  0.430600  0.055800  1.0  -0.1352
  C  C439  1  0.193600  0.578200  0.430600  1.0  -0.1122
  C  C440  1  0.491500  0.431900  0.644100  1.0  -0.1088
  C  C441  1  0.341200  0.730600  0.253600  1.0  -0.1097
  C  C442  1  0.528100  0.350000  0.334800  1.0  0.1535
  C  C443  1  0.027200  0.494700  0.025700  1.0  0.0196
  C  C444  1  0.145600  0.554900  0.391600  1.0  -0.0438
  C  C445  1  0.213000  0.617200  0.493200  1.0  0.1252
  C  C446  1  0.499900  0.361800  0.664400  1.0  -0.0413
  C  C447  1  0.382000  0.773900  0.284300  1.0  -0.017
  C  C448  1  0.302700  0.739400  0.181000  1.0  0.1736
  C  C449  1  0.419700  0.605300  0.234200  1.0  0.1695
  C  C450  1  0.119200  0.566400  0.416800  1.0  -0.1463
  C  C451  1  0.261900  0.653700  0.535900  1.0  0.1262
  C  C452  1  0.545400  0.342800  0.726900  1.0  -0.1926
  C  C453  1  0.382200  0.824700  0.244100  1.0  -0.144
  C  C454  1  0.259600  0.691300  0.138400  1.0  0.1303
  C  C455  1  0.142300  0.602400  0.480800  1.0  0.167
  C  C456  1  0.287500  0.669300  0.608600  1.0  -0.0407
  C  C457  1  0.341600  0.831400  0.173500  1.0  0.1458
  C  C458  1  0.211200  0.717800  0.096800  1.0  -0.0554
  C  C459  1  0.329400  0.711400  0.643400  1.0  -0.0866
  C  C460  1  0.275630  0.641200  0.655400  1.0  0.6238
  C  C461  1  0.319800  0.713200  0.535300  1.0  0.1513
  C  C462  1  0.172900  0.673000  0.049100  1.0  -0.0641
  C  C463  1  0.202500  0.792400  0.106400  1.0  0.6975
  C  C464  1  0.231100  0.581700  0.091100  1.0  0.1627
  C  C465  1  0.346300  0.733200  0.606600  1.0  -0.1327
  C  C466  1  0.183000  0.603800  0.045600  1.0  -0.1881
  C  C467  1  0.092300  0.920700  0.177100  1.0  0.6919
  C  C468  1  0.316200  0.966300  0.324200  1.0  0.7084
  C  C469  1  0.053200  0.894500  0.181500  1.0  -0.0869
  C  C470  1  0.370600  0.974500  0.377700  1.0  -0.1411
  C  C471  1  0.045700  0.823000  0.181700  1.0  0.0023
  C  C472  1  0.019400  0.941100  0.176500  1.0  0.1335
  C  C473  1  0.390100  0.039700  0.407000  1.0  -0.0636
  C  C474  1  0.401400  0.921000  0.395900  1.0  -0.0576
  C  C475  1  0.276600  0.057800  0.092900  1.0  0.6986
  C  C476  1  0.056800  0.950800  0.926300  1.0  0.7379
  C  C477  1  0.161100  0.178400  0.201400  1.0  0.7273
  C  C478  1  0.005100  0.799800  0.175200  1.0  -0.1245
  C  C479  1  0.028200  0.018500  0.188800  1.0  0.1349
  C  C480  1  0.440500  0.049200  0.455700  1.0  -0.1478
  C  C481  1  0.452700  0.930600  0.444200  1.0  -0.1359
  C  C482  1  0.306400  0.078200  0.069400  1.0  -0.1121
  C  C483  1  0.008500  0.931900  0.855900  1.0  -0.1085
  C  C484  1  0.158800  0.230600  0.246400  1.0  -0.1117
  C  C485  1  0.971900  0.850000  0.165200  1.0  0.1532
  C  C486  1  0.472800  0.994700  0.474300  1.0  0.0207
  C  C487  1  0.354400  0.054900  0.108400  1.0  -0.0426
  C  C488  1  0.287000  0.117200  0.006800  1.0  0.1257
  C  C489  1  0.000100  0.861800  0.835600  1.0  -0.0432
  C  C490  1  0.118000  0.273900  0.215700  1.0  -0.0188
  C  C491  1  0.197300  0.239400  0.319000  1.0  0.1733
  C  C492  1  0.080300  0.105300  0.265800  1.0  0.1701
  C  C493  1  0.380800  0.066400  0.083200  1.0  -0.1447
  C  C494  1  0.238100  0.153700  0.964100  1.0  0.1272
  C  C495  1  0.954600  0.842800  0.773100  1.0  -0.195
  C  C496  1  0.117800  0.324700  0.255900  1.0  -0.1456
  C  C497  1  0.240400  0.191300  0.361600  1.0  0.1294
  C  C498  1  0.357700  0.102400  0.019200  1.0  0.1668
  C  C499  1  0.212500  0.169300  0.891400  1.0  -0.0413
  C  C500  1  0.158400  0.331400  0.326500  1.0  0.1441
  C  C501  1  0.288800  0.217800  0.403200  1.0  -0.0541
  C  C502  1  0.170600  0.211400  0.856600  1.0  -0.085
  C  C503  1  0.224370  0.141200  0.844600  1.0  0.623
  C  C504  1  0.180200  0.213200  0.964700  1.0  0.1517
  C  C505  1  0.327100  0.173000  0.450900  1.0  -0.0647
  C  C506  1  0.297500  0.292400  0.393600  1.0  0.6969
  C  C507  1  0.268900  0.081700  0.408900  1.0  0.1619
  C  C508  1  0.153700  0.233200  0.893400  1.0  -0.1338
  C  C509  1  0.317000  0.103800  0.454400  1.0  -0.187
  C  C510  1  0.592300  0.420700  0.177100  1.0  0.6919
  C  C511  1  0.816200  0.466300  0.324200  1.0  0.7084
  C  C512  1  0.553200  0.394500  0.181500  1.0  -0.0869
  C  C513  1  0.870600  0.474500  0.377700  1.0  -0.1411
  C  C514  1  0.545700  0.323000  0.181700  1.0  0.0023
  C  C515  1  0.519400  0.441100  0.176500  1.0  0.1335
  C  C516  1  0.890100  0.539700  0.407000  1.0  -0.0636
  C  C517  1  0.901400  0.421000  0.395900  1.0  -0.0576
  C  C518  1  0.776600  0.557800  0.092900  1.0  0.6986
  C  C519  1  0.556800  0.450800  0.926300  1.0  0.7379
  C  C520  1  0.661100  0.678400  0.201400  1.0  0.7273
  C  C521  1  0.505100  0.299800  0.175200  1.0  -0.1245
  C  C522  1  0.528200  0.518500  0.188800  1.0  0.1349
  C  C523  1  0.940500  0.549200  0.455700  1.0  -0.1478
  C  C524  1  0.952700  0.430600  0.444200  1.0  -0.1359
  C  C525  1  0.806400  0.578200  0.069400  1.0  -0.1121
  C  C526  1  0.508500  0.431900  0.855900  1.0  -0.1085
  C  C527  1  0.658800  0.730600  0.246400  1.0  -0.1117
  C  C528  1  0.471900  0.350000  0.165200  1.0  0.1532
  C  C529  1  0.972800  0.494700  0.474300  1.0  0.0207
  C  C530  1  0.854400  0.554900  0.108400  1.0  -0.0426
  C  C531  1  0.787000  0.617200  0.006800  1.0  0.1257
  C  C532  1  0.500100  0.361800  0.835600  1.0  -0.0432
  C  C533  1  0.618000  0.773900  0.215700  1.0  -0.0188
  C  C534  1  0.697300  0.739400  0.319000  1.0  0.1733
  C  C535  1  0.580300  0.605300  0.265800  1.0  0.1701
  C  C536  1  0.880800  0.566400  0.083200  1.0  -0.1447
  C  C537  1  0.738100  0.653700  0.964100  1.0  0.1272
  C  C538  1  0.454600  0.342800  0.773100  1.0  -0.195
  C  C539  1  0.617800  0.824700  0.255900  1.0  -0.1456
  C  C540  1  0.740400  0.691300  0.361600  1.0  0.1294
  C  C541  1  0.857700  0.602400  0.019200  1.0  0.1668
  C  C542  1  0.712500  0.669300  0.891400  1.0  -0.0413
  C  C543  1  0.658400  0.831400  0.326500  1.0  0.1441
  C  C544  1  0.788800  0.717800  0.403200  1.0  -0.0541
  C  C545  1  0.670600  0.711400  0.856600  1.0  -0.085
  C  C546  1  0.724370  0.641200  0.844600  1.0  0.623
  C  C547  1  0.680200  0.713200  0.964700  1.0  0.1517
  C  C548  1  0.827100  0.673000  0.450900  1.0  -0.0647
  C  C549  1  0.797500  0.792400  0.393600  1.0  0.6969
  C  C550  1  0.768900  0.581700  0.408900  1.0  0.1619
  C  C551  1  0.653700  0.733200  0.893400  1.0  -0.1338
  C  C552  1  0.817000  0.603800  0.454400  1.0  -0.187
  N  N553  1  0.978830  0.081700  0.667200  1.0  -0.3907
  N  N554  1  0.072620  0.961800  0.748500  1.0  -0.3998
  N  N555  1  0.312450  0.870600  0.482200  1.0  -0.4353
  N  N556  1  0.197300  0.711300  0.859000  1.0  -0.3893
  N  N557  1  0.221740  0.824300  0.500200  1.0  -0.4262
  N  N558  1  0.230800  0.877000  0.862400  1.0  -0.3892
  N  N559  1  0.478830  0.581700  0.667200  1.0  -0.3907
  N  N560  1  0.572620  0.461800  0.748500  1.0  -0.3998
  N  N561  1  0.812450  0.370600  0.482200  1.0  -0.4353
  N  N562  1  0.697300  0.211300  0.859000  1.0  -0.3893
  N  N563  1  0.721740  0.324300  0.500200  1.0  -0.4262
  N  N564  1  0.730800  0.377000  0.862400  1.0  -0.3892
  N  N565  1  0.021170  0.081700  0.832800  1.0  -0.3899
  N  N566  1  0.927380  0.961800  0.751500  1.0  -0.3964
  N  N567  1  0.687550  0.870600  0.017800  1.0  -0.435
  N  N568  1  0.802700  0.711300  0.641000  1.0  -0.3914
  N  N569  1  0.778260  0.824300  0.999800  1.0  -0.4285
  N  N570  1  0.769200  0.877000  0.637600  1.0  -0.3932
  N  N571  1  0.521170  0.581700  0.832800  1.0  -0.3899
  N  N572  1  0.427380  0.461800  0.751500  1.0  -0.3964
  N  N573  1  0.187550  0.370600  0.017800  1.0  -0.435
  N  N574  1  0.302700  0.211300  0.641000  1.0  -0.3914
  N  N575  1  0.278260  0.324300  0.999800  1.0  -0.4285
  N  N576  1  0.269200  0.377000  0.637600  1.0  -0.3932
  N  N577  1  0.021170  0.918300  0.332800  1.0  -0.3913
  N  N578  1  0.927380  0.038200  0.251500  1.0  -0.396
  N  N579  1  0.687550  0.129400  0.517800  1.0  -0.4363
  N  N580  1  0.802700  0.288700  0.141000  1.0  -0.3911
  N  N581  1  0.778260  0.175700  0.499800  1.0  -0.4291
  N  N582  1  0.769200  0.123000  0.137600  1.0  -0.3928
  N  N583  1  0.521170  0.418300  0.332800  1.0  -0.3913
  N  N584  1  0.427380  0.538200  0.251500  1.0  -0.396
  N  N585  1  0.187550  0.629400  0.517800  1.0  -0.4363
  N  N586  1  0.302700  0.788700  0.141000  1.0  -0.3911
  N  N587  1  0.278260  0.675700  0.499800  1.0  -0.4291
  N  N588  1  0.269200  0.623000  0.137600  1.0  -0.3928
  N  N589  1  0.978830  0.918300  0.167200  1.0  -0.3918
  N  N590  1  0.072620  0.038200  0.248500  1.0  -0.397
  N  N591  1  0.312450  0.129400  0.982200  1.0  -0.4346
  N  N592  1  0.197300  0.288700  0.359000  1.0  -0.389
  N  N593  1  0.221740  0.175700  0.000200  1.0  -0.4252
  N  N594  1  0.230800  0.123000  0.362400  1.0  -0.3888
  N  N595  1  0.478830  0.418300  0.167200  1.0  -0.3918
  N  N596  1  0.572620  0.538200  0.248500  1.0  -0.397
  N  N597  1  0.812450  0.629400  0.982200  1.0  -0.4346
  N  N598  1  0.697300  0.788700  0.359000  1.0  -0.389
  N  N599  1  0.721740  0.675700  0.000200  1.0  -0.4252
  N  N600  1  0.730800  0.623000  0.362400  1.0  -0.3888
  O  O601  1  0.131010  0.114000  0.706100  1.0  -0.6686
  O  O602  1  0.297280  0.093800  0.805000  1.0  -0.6291
  O  O603  1  0.237070  0.038500  0.661500  1.0  -0.7742
  O  O604  1  0.140820  0.066400  0.594450  1.0  -0.8797
  O  O605  1  0.184530  0.974300  0.705000  1.0  -0.7567
  O  O606  1  0.208330  0.194900  0.663900  1.0  -0.691
  O  O607  1  0.224200  0.075480  0.836200  1.0  -0.6726
  O  O608  1  0.227820  0.184100  0.806900  1.0  -0.6412
  O  O609  1  0.081050  0.024600  0.640400  1.0  -0.6947
  O  O610  1  0.290710  0.977600  0.800200  1.0  -0.6981
  O  O611  1  0.238420  0.976100  0.548700  1.0  -0.7248
  O  O612  1  0.168160  0.933800  0.578070  1.0  -0.8221
  O  O613  1  0.094240  0.079600  0.442200  1.0  -0.6146
  O  O614  1  0.189360  0.164600  0.558300  1.0  -0.7282
  O  O615  1  0.202430  0.829800  0.715200  1.0  -0.7559
  O  O616  1  0.293280  0.926300  0.656800  1.0  -0.6481
  O  O617  1  0.122170  0.853100  0.653400  1.0  -0.7002
  O  O618  1  0.056300  0.004000  0.465500  1.0  -0.7718
  O  O619  1  0.631010  0.614000  0.706100  1.0  -0.6686
  O  O620  1  0.797280  0.593800  0.805000  1.0  -0.6291
  O  O621  1  0.737070  0.538500  0.661500  1.0  -0.7742
  O  O622  1  0.640820  0.566400  0.594450  1.0  -0.8797
  O  O623  1  0.684530  0.474300  0.705000  1.0  -0.7567
  O  O624  1  0.708330  0.694900  0.663900  1.0  -0.691
  O  O625  1  0.724200  0.575480  0.836200  1.0  -0.6726
  O  O626  1  0.727820  0.684100  0.806900  1.0  -0.6412
  O  O627  1  0.581050  0.524600  0.640400  1.0  -0.6947
  O  O628  1  0.790710  0.477600  0.800200  1.0  -0.6981
  O  O629  1  0.738420  0.476100  0.548700  1.0  -0.7248
  O  O630  1  0.668160  0.433800  0.578070  1.0  -0.8221
  O  O631  1  0.594240  0.579600  0.442200  1.0  -0.6146
  O  O632  1  0.689360  0.664600  0.558300  1.0  -0.7282
  O  O633  1  0.702430  0.329800  0.715200  1.0  -0.7559
  O  O634  1  0.793280  0.426300  0.656800  1.0  -0.6481
  O  O635  1  0.622170  0.353100  0.653400  1.0  -0.7002
  O  O636  1  0.556300  0.504000  0.465500  1.0  -0.7718
  O  O637  1  0.868990  0.114000  0.793900  1.0  -0.6673
  O  O638  1  0.702720  0.093800  0.695000  1.0  -0.6279
  O  O639  1  0.762930  0.038500  0.838500  1.0  -0.7728
  O  O640  1  0.859180  0.066400  0.905550  1.0  -0.8794
  O  O641  1  0.815470  0.974300  0.795000  1.0  -0.7592
  O  O642  1  0.791670  0.194900  0.836100  1.0  -0.6903
  O  O643  1  0.775800  0.075480  0.663800  1.0  -0.6729
  O  O644  1  0.772180  0.184100  0.693100  1.0  -0.6421
  O  O645  1  0.918950  0.024600  0.859600  1.0  -0.6945
  O  O646  1  0.709290  0.977600  0.699800  1.0  -0.698
  O  O647  1  0.761580  0.976100  0.951300  1.0  -0.7253
  O  O648  1  0.831840  0.933800  0.921930  1.0  -0.8209
  O  O649  1  0.905760  0.079600  0.057800  1.0  -0.6141
  O  O650  1  0.810640  0.164600  0.941700  1.0  -0.7299
  O  O651  1  0.797570  0.829800  0.784800  1.0  -0.7562
  O  O652  1  0.706720  0.926300  0.843200  1.0  -0.6496
  O  O653  1  0.877830  0.853100  0.846600  1.0  -0.7021
  O  O654  1  0.943700  0.004000  0.034500  1.0  -0.7727
  O  O655  1  0.368990  0.614000  0.793900  1.0  -0.6673
  O  O656  1  0.202720  0.593800  0.695000  1.0  -0.6279
  O  O657  1  0.262930  0.538500  0.838500  1.0  -0.7728
  O  O658  1  0.359180  0.566400  0.905550  1.0  -0.8794
  O  O659  1  0.315470  0.474300  0.795000  1.0  -0.7592
  O  O660  1  0.291670  0.694900  0.836100  1.0  -0.6903
  O  O661  1  0.275800  0.575480  0.663800  1.0  -0.6729
  O  O662  1  0.272180  0.684100  0.693100  1.0  -0.6421
  O  O663  1  0.418950  0.524600  0.859600  1.0  -0.6945
  O  O664  1  0.209290  0.477600  0.699800  1.0  -0.698
  O  O665  1  0.261580  0.476100  0.951300  1.0  -0.7253
  O  O666  1  0.331840  0.433800  0.921930  1.0  -0.8209
  O  O667  1  0.405760  0.579600  0.057800  1.0  -0.6141
  O  O668  1  0.310640  0.664600  0.941700  1.0  -0.7299
  O  O669  1  0.297570  0.329800  0.784800  1.0  -0.7562
  O  O670  1  0.206720  0.426300  0.843200  1.0  -0.6496
  O  O671  1  0.377830  0.353100  0.846600  1.0  -0.7021
  O  O672  1  0.443700  0.504000  0.034500  1.0  -0.7727
  O  O673  1  0.868990  0.886000  0.293900  1.0  -0.6669
  O  O674  1  0.702720  0.906200  0.195000  1.0  -0.6273
  O  O675  1  0.762930  0.961500  0.338500  1.0  -0.7729
  O  O676  1  0.859180  0.933600  0.405550  1.0  -0.8791
  O  O677  1  0.815470  0.025700  0.295000  1.0  -0.7589
  O  O678  1  0.791670  0.805100  0.336100  1.0  -0.6901
  O  O679  1  0.775800  0.924520  0.163800  1.0  -0.6742
  O  O680  1  0.772180  0.815900  0.193100  1.0  -0.6425
  O  O681  1  0.918950  0.975400  0.359600  1.0  -0.6936
  O  O682  1  0.709290  0.022400  0.199800  1.0  -0.6987
  O  O683  1  0.761580  0.023900  0.451300  1.0  -0.7247
  O  O684  1  0.831840  0.066200  0.421930  1.0  -0.8219
  O  O685  1  0.905760  0.920400  0.557800  1.0  -0.6143
  O  O686  1  0.810640  0.835400  0.441700  1.0  -0.7309
  O  O687  1  0.797570  0.170200  0.284800  1.0  -0.7562
  O  O688  1  0.706720  0.073700  0.343200  1.0  -0.649
  O  O689  1  0.877830  0.146900  0.346600  1.0  -0.7019
  O  O690  1  0.943700  0.996000  0.534500  1.0  -0.7729
  O  O691  1  0.368990  0.386000  0.293900  1.0  -0.6669
  O  O692  1  0.202720  0.406200  0.195000  1.0  -0.6273
  O  O693  1  0.262930  0.461500  0.338500  1.0  -0.7729
  O  O694  1  0.359180  0.433600  0.405550  1.0  -0.8791
  O  O695  1  0.315470  0.525700  0.295000  1.0  -0.7589
  O  O696  1  0.291670  0.305100  0.336100  1.0  -0.6901
  O  O697  1  0.275800  0.424520  0.163800  1.0  -0.6742
  O  O698  1  0.272180  0.315900  0.193100  1.0  -0.6425
  O  O699  1  0.418950  0.475400  0.359600  1.0  -0.6936
  O  O700  1  0.209290  0.522400  0.199800  1.0  -0.6987
  O  O701  1  0.261580  0.523900  0.451300  1.0  -0.7247
  O  O702  1  0.331840  0.566200  0.421930  1.0  -0.8219
  O  O703  1  0.405760  0.420400  0.557800  1.0  -0.6143
  O  O704  1  0.310640  0.335400  0.441700  1.0  -0.7309
  O  O705  1  0.297570  0.670200  0.284800  1.0  -0.7562
  O  O706  1  0.206720  0.573700  0.343200  1.0  -0.649
  O  O707  1  0.377830  0.646900  0.346600  1.0  -0.7019
  O  O708  1  0.443700  0.496000  0.534500  1.0  -0.7729
  O  O709  1  0.131010  0.886000  0.206100  1.0  -0.6688
  O  O710  1  0.297280  0.906200  0.305000  1.0  -0.6288
  O  O711  1  0.237070  0.961500  0.161500  1.0  -0.7742
  O  O712  1  0.140820  0.933600  0.094450  1.0  -0.8797
  O  O713  1  0.184530  0.025700  0.205000  1.0  -0.7564
  O  O714  1  0.208330  0.805100  0.163900  1.0  -0.691
  O  O715  1  0.224200  0.924520  0.336200  1.0  -0.674
  O  O716  1  0.227820  0.815900  0.306900  1.0  -0.6423
  O  O717  1  0.081050  0.975400  0.140400  1.0  -0.6947
  O  O718  1  0.290710  0.022400  0.300200  1.0  -0.6983
  O  O719  1  0.238420  0.023900  0.048700  1.0  -0.7246
  O  O720  1  0.168160  0.066200  0.078070  1.0  -0.8226
  O  O721  1  0.094240  0.920400  0.942200  1.0  -0.6153
  O  O722  1  0.189360  0.835400  0.058300  1.0  -0.7287
  O  O723  1  0.202430  0.170200  0.215200  1.0  -0.7559
  O  O724  1  0.293280  0.073700  0.156800  1.0  -0.6479
  O  O725  1  0.122170  0.146900  0.153400  1.0  -0.7006
  O  O726  1  0.056300  0.996000  0.965500  1.0  -0.7733
  O  O727  1  0.631010  0.386000  0.206100  1.0  -0.6688
  O  O728  1  0.797280  0.406200  0.305000  1.0  -0.6288
  O  O729  1  0.737070  0.461500  0.161500  1.0  -0.7742
  O  O730  1  0.640820  0.433600  0.094450  1.0  -0.8797
  O  O731  1  0.684530  0.525700  0.205000  1.0  -0.7564
  O  O732  1  0.708330  0.305100  0.163900  1.0  -0.691
  O  O733  1  0.724200  0.424520  0.336200  1.0  -0.674
  O  O734  1  0.727820  0.315900  0.306900  1.0  -0.6423
  O  O735  1  0.581050  0.475400  0.140400  1.0  -0.6947
  O  O736  1  0.790710  0.522400  0.300200  1.0  -0.6983
  O  O737  1  0.738420  0.523900  0.048700  1.0  -0.7246
  O  O738  1  0.668160  0.566200  0.078070  1.0  -0.8226
  O  O739  1  0.594240  0.420400  0.942200  1.0  -0.6153
  O  O740  1  0.689360  0.335400  0.058300  1.0  -0.7287
  O  O741  1  0.702430  0.670200  0.215200  1.0  -0.7559
  O  O742  1  0.793280  0.573700  0.156800  1.0  -0.6479
  O  O743  1  0.622170  0.646900  0.153400  1.0  -0.7006
  O  O744  1  0.556300  0.496000  0.965500  1.0  -0.7733
