# generated using pymatgen
data_Tb4H22C43(NO3)6
_symmetry_space_group_name_H-M   'P 1'
_cell_length_a   34.50790000
_cell_length_b   19.15900000
_cell_length_c   23.98380000
_cell_angle_alpha   90.00000000
_cell_angle_beta   128.01900000
_cell_angle_gamma   90.00000000
_symmetry_Int_Tables_number   1
_chemical_formula_structural   Tb4H22C43(NO3)6
_chemical_formula_sum   'Tb32 H176 C344 N48 O144'
_cell_volume   12491.91294706
_cell_formula_units_Z   8
loop_
 _symmetry_equiv_pos_site_id
 _symmetry_equiv_pos_as_xyz
  1  'x, y, z'
loop_
 _atom_site_type_symbol
 _atom_site_label
 _atom_site_symmetry_multiplicity
 _atom_site_fract_x
 _atom_site_fract_y
 _atom_site_fract_z
 _atom_site_occupancy
 _atom_site_charge
  Tb  Tb1  1  0.896330  0.545730  0.916120  1.0  2.2611
  Tb  Tb2  1  0.793760  0.417440  0.783870  1.0  2.255
  Tb  Tb3  1  0.825310  0.459370  0.965770  1.0  2.2419
  Tb  Tb4  1  0.762440  0.594920  0.816330  1.0  2.2861
  Tb  Tb5  1  0.396330  0.045730  0.916120  1.0  2.2611
  Tb  Tb6  1  0.293760  0.917440  0.783870  1.0  2.255
  Tb  Tb7  1  0.325310  0.959370  0.965770  1.0  2.2419
  Tb  Tb8  1  0.262440  0.094920  0.816330  1.0  2.2861
  Tb  Tb9  1  0.103670  0.545730  0.583880  1.0  2.2622
  Tb  Tb10  1  0.206240  0.417440  0.716130  1.0  2.2505
  Tb  Tb11  1  0.174690  0.459370  0.534230  1.0  2.2387
  Tb  Tb12  1  0.237560  0.594920  0.683670  1.0  2.2867
  Tb  Tb13  1  0.603670  0.045730  0.583880  1.0  2.2622
  Tb  Tb14  1  0.706240  0.917440  0.716130  1.0  2.2505
  Tb  Tb15  1  0.674690  0.959370  0.534240  1.0  2.2393
  Tb  Tb16  1  0.737560  0.094920  0.683670  1.0  2.2867
  Tb  Tb17  1  0.103670  0.454270  0.083880  1.0  2.2602
  Tb  Tb18  1  0.206240  0.582560  0.216130  1.0  2.2527
  Tb  Tb19  1  0.174690  0.540630  0.034230  1.0  2.239
  Tb  Tb20  1  0.237560  0.405080  0.183670  1.0  2.2873
  Tb  Tb21  1  0.603670  0.954270  0.083880  1.0  2.2602
  Tb  Tb22  1  0.706240  0.082560  0.216130  1.0  2.2527
  Tb  Tb23  1  0.674690  0.040630  0.034230  1.0  2.239
  Tb  Tb24  1  0.737560  0.905080  0.183670  1.0  2.2873
  Tb  Tb25  1  0.896330  0.454270  0.416120  1.0  2.2593
  Tb  Tb26  1  0.793760  0.582560  0.283870  1.0  2.2521
  Tb  Tb27  1  0.825310  0.540630  0.465760  1.0  2.2427
  Tb  Tb28  1  0.762440  0.405080  0.316330  1.0  2.2864
  Tb  Tb29  1  0.396330  0.954270  0.416120  1.0  2.2593
  Tb  Tb30  1  0.293760  0.082560  0.283870  1.0  2.2521
  Tb  Tb31  1  0.325310  0.040630  0.465770  1.0  2.2421
  Tb  Tb32  1  0.262440  0.905080  0.316330  1.0  2.2864
  H  H33  1  0.974500  0.328100  0.130700  1.0  0.1059
  H  H34  1  0.049200  0.294600  0.233600  1.0  0.1187
  H  H35  1  0.108700  0.376500  0.300000  1.0  0.0601
  H  H36  1  0.946900  0.665300  0.160300  1.0  0.0511
  H  H37  1  0.001900  0.743300  0.175200  1.0  0.1155
  H  H38  1  0.068700  0.703300  0.183900  1.0  0.1046
  H  H39  1  0.916400  0.773200  0.853000  1.0  0.1109
  H  H40  1  0.917200  0.867000  0.794500  1.0  0.1026
  H  H41  1  0.852700  0.885300  0.680300  1.0  0.0598
  H  H42  1  0.749500  0.546300  0.616200  1.0  0.0621
  H  H43  1  0.669300  0.581300  0.534900  1.0  0.1085
  H  H44  1  0.651100  0.698300  0.531600  1.0  0.1105
  H  H45  1  0.846400  0.278100  0.698600  1.0  0.1048
  H  H46  1  0.875900  0.239000  0.639800  1.0  0.115
  H  H47  1  0.836000  0.270300  0.525600  1.0  0.0529
  H  H48  1  0.625200  0.393200  0.500400  1.0  0.0741
  H  H49  1  0.593300  0.453300  0.399200  1.0  0.1025
  H  H50  1  0.637900  0.467800  0.358900  1.0  0.1156
  H  H51  1  0.617400  0.388500  0.614200  1.0  0.0829
  H  H52  1  0.533800  0.394000  0.531200  1.0  0.1076
  H  H53  1  0.541100  0.599500  0.529500  1.0  0.1116
  H  H54  1  0.625700  0.593800  0.614500  1.0  0.0953
  H  H55  1  0.474500  0.828100  0.130700  1.0  0.1059
  H  H56  1  0.549200  0.794600  0.233600  1.0  0.1187
  H  H57  1  0.608700  0.876500  0.300000  1.0  0.0601
  H  H58  1  0.446900  0.165300  0.160300  1.0  0.0511
  H  H59  1  0.501900  0.243300  0.175200  1.0  0.1155
  H  H60  1  0.568700  0.203300  0.183900  1.0  0.1046
  H  H61  1  0.416400  0.273200  0.853000  1.0  0.1109
  H  H62  1  0.417200  0.367000  0.794500  1.0  0.1026
  H  H63  1  0.352700  0.385300  0.680300  1.0  0.0598
  H  H64  1  0.249500  0.046300  0.616200  1.0  0.0621
  H  H65  1  0.169300  0.081300  0.534900  1.0  0.1085
  H  H66  1  0.151100  0.198300  0.531600  1.0  0.1105
  H  H67  1  0.346400  0.778100  0.698600  1.0  0.1048
  H  H68  1  0.375900  0.739000  0.639800  1.0  0.115
  H  H69  1  0.336000  0.770300  0.525600  1.0  0.0529
  H  H70  1  0.125200  0.893200  0.500400  1.0  0.0741
  H  H71  1  0.093300  0.953300  0.399200  1.0  0.1025
  H  H72  1  0.137900  0.967800  0.358900  1.0  0.1156
  H  H73  1  0.117400  0.888500  0.614200  1.0  0.0829
  H  H74  1  0.033800  0.894000  0.531200  1.0  0.1076
  H  H75  1  0.041100  0.099500  0.529500  1.0  0.1116
  H  H76  1  0.125700  0.093800  0.614500  1.0  0.0953
  H  H77  1  0.025500  0.328100  0.369300  1.0  0.1064
  H  H78  1  0.950800  0.294600  0.266400  1.0  0.1185
  H  H79  1  0.891300  0.376500  0.200000  1.0  0.0597
  H  H80  1  0.053100  0.665300  0.339700  1.0  0.0515
  H  H81  1  0.998100  0.743300  0.324800  1.0  0.1153
  H  H82  1  0.931300  0.703300  0.316100  1.0  0.1046
  H  H83  1  0.083600  0.773200  0.647000  1.0  0.1106
  H  H84  1  0.082800  0.867000  0.705500  1.0  0.1024
  H  H85  1  0.147300  0.885300  0.819700  1.0  0.0596
  H  H86  1  0.250500  0.546300  0.883800  1.0  0.0624
  H  H87  1  0.330700  0.581300  0.965100  1.0  0.1087
  H  H88  1  0.348900  0.698300  0.968400  1.0  0.1098
  H  H89  1  0.153600  0.278100  0.801400  1.0  0.1051
  H  H90  1  0.124100  0.239000  0.860200  1.0  0.1151
  H  H91  1  0.164000  0.270300  0.974400  1.0  0.0532
  H  H92  1  0.374800  0.393200  0.999600  1.0  0.0736
  H  H93  1  0.406700  0.453300  0.100800  1.0  0.1026
  H  H94  1  0.362100  0.467800  0.141100  1.0  0.1158
  H  H95  1  0.382600  0.388500  0.885800  1.0  0.0828
  H  H96  1  0.466200  0.394000  0.968800  1.0  0.1082
  H  H97  1  0.458900  0.599500  0.970500  1.0  0.1113
  H  H98  1  0.374300  0.593800  0.885500  1.0  0.0957
  H  H99  1  0.525500  0.828100  0.369300  1.0  0.1064
  H  H100  1  0.450800  0.794600  0.266400  1.0  0.1185
  H  H101  1  0.391300  0.876500  0.200000  1.0  0.0597
  H  H102  1  0.553100  0.165300  0.339700  1.0  0.0515
  H  H103  1  0.498100  0.243300  0.324800  1.0  0.1153
  H  H104  1  0.431300  0.203300  0.316100  1.0  0.1046
  H  H105  1  0.583600  0.273200  0.647000  1.0  0.1106
  H  H106  1  0.582800  0.367000  0.705500  1.0  0.1024
  H  H107  1  0.647300  0.385300  0.819700  1.0  0.0596
  H  H108  1  0.750500  0.046300  0.883800  1.0  0.0624
  H  H109  1  0.830700  0.081300  0.965100  1.0  0.1087
  H  H110  1  0.848900  0.198300  0.968400  1.0  0.1098
  H  H111  1  0.653600  0.778100  0.801400  1.0  0.1051
  H  H112  1  0.624100  0.739000  0.860200  1.0  0.1151
  H  H113  1  0.664000  0.770300  0.974400  1.0  0.0532
  H  H114  1  0.874800  0.893200  0.999600  1.0  0.0736
  H  H115  1  0.906700  0.953300  0.100800  1.0  0.1026
  H  H116  1  0.862100  0.967800  0.141100  1.0  0.1158
  H  H117  1  0.882600  0.888500  0.885800  1.0  0.0828
  H  H118  1  0.966200  0.894000  0.968800  1.0  0.1082
  H  H119  1  0.958900  0.099500  0.970500  1.0  0.1113
  H  H120  1  0.874300  0.093800  0.885500  1.0  0.0957
  H  H121  1  0.025500  0.671900  0.869300  1.0  0.1066
  H  H122  1  0.950800  0.705400  0.766400  1.0  0.1181
  H  H123  1  0.891300  0.623500  0.700000  1.0  0.0598
  H  H124  1  0.053100  0.334700  0.839700  1.0  0.0517
  H  H125  1  0.998100  0.256700  0.824800  1.0  0.1163
  H  H126  1  0.931300  0.296700  0.816100  1.0  0.1042
  H  H127  1  0.083600  0.226800  0.147000  1.0  0.1106
  H  H128  1  0.082800  0.133000  0.205500  1.0  0.1018
  H  H129  1  0.147300  0.114700  0.319700  1.0  0.0596
  H  H130  1  0.250500  0.453700  0.383800  1.0  0.0628
  H  H131  1  0.330700  0.418700  0.465100  1.0  0.1083
  H  H132  1  0.348900  0.301700  0.468400  1.0  0.1094
  H  H133  1  0.153600  0.721900  0.301400  1.0  0.1052
  H  H134  1  0.124100  0.761000  0.360200  1.0  0.1148
  H  H135  1  0.164000  0.729700  0.474400  1.0  0.0533
  H  H136  1  0.374800  0.606800  0.499600  1.0  0.0739
  H  H137  1  0.406700  0.546700  0.600800  1.0  0.1026
  H  H138  1  0.362100  0.532200  0.641100  1.0  0.1155
  H  H139  1  0.382600  0.611500  0.385800  1.0  0.0825
  H  H140  1  0.466200  0.606000  0.468800  1.0  0.1078
  H  H141  1  0.458900  0.400500  0.470500  1.0  0.1118
  H  H142  1  0.374300  0.406200  0.385500  1.0  0.095
  H  H143  1  0.525500  0.171900  0.869300  1.0  0.1066
  H  H144  1  0.450800  0.205400  0.766400  1.0  0.1181
  H  H145  1  0.391300  0.123500  0.700000  1.0  0.0598
  H  H146  1  0.553100  0.834700  0.839700  1.0  0.0517
  H  H147  1  0.498100  0.756700  0.824800  1.0  0.1163
  H  H148  1  0.431300  0.796700  0.816100  1.0  0.1042
  H  H149  1  0.583600  0.726800  0.147000  1.0  0.1106
  H  H150  1  0.582800  0.633000  0.205500  1.0  0.1018
  H  H151  1  0.647300  0.614700  0.319700  1.0  0.0596
  H  H152  1  0.750500  0.953700  0.383800  1.0  0.0628
  H  H153  1  0.830700  0.918700  0.465100  1.0  0.1083
  H  H154  1  0.848900  0.801700  0.468400  1.0  0.1094
  H  H155  1  0.653600  0.221900  0.301400  1.0  0.1052
  H  H156  1  0.624100  0.261000  0.360200  1.0  0.1148
  H  H157  1  0.664000  0.229700  0.474400  1.0  0.0533
  H  H158  1  0.874800  0.106800  0.499600  1.0  0.0739
  H  H159  1  0.906700  0.046700  0.600800  1.0  0.1026
  H  H160  1  0.862100  0.032200  0.641100  1.0  0.1155
  H  H161  1  0.882600  0.111500  0.385800  1.0  0.0825
  H  H162  1  0.966200  0.106000  0.468800  1.0  0.1078
  H  H163  1  0.958900  0.900500  0.470500  1.0  0.1118
  H  H164  1  0.874300  0.906200  0.385500  1.0  0.095
  H  H165  1  0.974500  0.671900  0.630700  1.0  0.1067
  H  H166  1  0.049200  0.705400  0.733600  1.0  0.1182
  H  H167  1  0.108700  0.623500  0.800000  1.0  0.06
  H  H168  1  0.946900  0.334700  0.660300  1.0  0.0512
  H  H169  1  0.001900  0.256700  0.675200  1.0  0.1165
  H  H170  1  0.068700  0.296700  0.683900  1.0  0.1044
  H  H171  1  0.916400  0.226800  0.353000  1.0  0.1107
  H  H172  1  0.917200  0.133000  0.294500  1.0  0.1019
  H  H173  1  0.852700  0.114700  0.180300  1.0  0.0595
  H  H174  1  0.749500  0.453700  0.116200  1.0  0.0625
  H  H175  1  0.669300  0.418700  0.034900  1.0  0.1085
  H  H176  1  0.651100  0.301700  0.031600  1.0  0.1105
  H  H177  1  0.846400  0.721900  0.198600  1.0  0.1049
  H  H178  1  0.875900  0.761000  0.139800  1.0  0.1149
  H  H179  1  0.836000  0.729700  0.025600  1.0  0.0534
  H  H180  1  0.625200  0.606800  0.000400  1.0  0.0739
  H  H181  1  0.593300  0.546700  0.899200  1.0  0.1026
  H  H182  1  0.637900  0.532200  0.858900  1.0  0.1158
  H  H183  1  0.617400  0.611500  0.114200  1.0  0.0829
  H  H184  1  0.533800  0.606000  0.031200  1.0  0.1084
  H  H185  1  0.541100  0.400500  0.029500  1.0  0.1115
  H  H186  1  0.625700  0.406200  0.114500  1.0  0.0952
  H  H187  1  0.474500  0.171900  0.630700  1.0  0.1067
  H  H188  1  0.549200  0.205400  0.733600  1.0  0.1182
  H  H189  1  0.608700  0.123500  0.800000  1.0  0.06
  H  H190  1  0.446900  0.834700  0.660300  1.0  0.0512
  H  H191  1  0.501900  0.756700  0.675200  1.0  0.1165
  H  H192  1  0.568700  0.796700  0.683900  1.0  0.1044
  H  H193  1  0.416400  0.726800  0.353000  1.0  0.1107
  H  H194  1  0.417200  0.633000  0.294500  1.0  0.1019
  H  H195  1  0.352700  0.614700  0.180300  1.0  0.0595
  H  H196  1  0.249500  0.953700  0.116200  1.0  0.0625
  H  H197  1  0.169300  0.918700  0.034900  1.0  0.1085
  H  H198  1  0.151100  0.801700  0.031600  1.0  0.1105
  H  H199  1  0.346400  0.221900  0.198600  1.0  0.1049
  H  H200  1  0.375900  0.261000  0.139800  1.0  0.1149
  H  H201  1  0.336000  0.229700  0.025600  1.0  0.0534
  H  H202  1  0.125200  0.106800  0.000400  1.0  0.0739
  H  H203  1  0.093300  0.046700  0.899200  1.0  0.1026
  H  H204  1  0.137900  0.032200  0.858900  1.0  0.1158
  H  H205  1  0.117400  0.111500  0.114200  1.0  0.0829
  H  H206  1  0.033800  0.106000  0.031200  1.0  0.1084
  H  H207  1  0.041100  0.900500  0.029500  1.0  0.1115
  H  H208  1  0.125700  0.906200  0.114500  1.0  0.0952
  C  C209  1  0.943500  0.451500  0.071300  1.0  0.7188
  C  C210  1  0.990800  0.430700  0.140200  1.0  -0.1234
  C  C211  1  0.998900  0.361000  0.159100  1.0  -0.0484
  C  C212  1  0.043000  0.341100  0.219700  1.0  -0.1713
  C  C213  1  0.078100  0.390900  0.259800  1.0  0.1476
  C  C214  1  0.027500  0.478500  0.185400  1.0  0.1673
  C  C215  1  0.020100  0.556000  0.175100  1.0  0.1483
  C  C216  1  0.974500  0.648600  0.166300  1.0  0.1388
  C  C217  1  0.006700  0.695800  0.174000  1.0  -0.1887
  C  C218  1  0.046600  0.671900  0.179800  1.0  0.0037
  C  C219  1  0.053500  0.600500  0.179600  1.0  -0.0985
  C  C220  1  0.092100  0.574600  0.174400  1.0  0.7117
  C  C221  1  0.846000  0.684000  0.812600  1.0  0.7176
  C  C222  1  0.849400  0.739200  0.772200  1.0  -0.0846
  C  C223  1  0.889700  0.781900  0.806100  1.0  -0.0325
  C  C224  1  0.890500  0.836700  0.771500  1.0  -0.1224
  C  C225  1  0.852000  0.846700  0.703200  1.0  0.15
  C  C226  1  0.811400  0.750900  0.701500  1.0  0.1437
  C  C227  1  0.768500  0.702600  0.656100  1.0  0.1744
  C  C228  1  0.742300  0.593400  0.614600  1.0  0.1705
  C  C229  1  0.693700  0.613500  0.565400  1.0  -0.1455
  C  C230  1  0.683200  0.682200  0.563700  1.0  -0.0337
  C  C231  1  0.721100  0.727800  0.610400  1.0  -0.0909
  C  C232  1  0.709200  0.802900  0.614800  1.0  0.7021
  C  C233  1  0.777200  0.363600  0.661200  1.0  0.6331
  C  C234  1  0.789200  0.331600  0.616600  1.0  -0.0784
  C  C235  1  0.830400  0.290100  0.651500  1.0  -0.0954
  C  C236  1  0.847900  0.266700  0.616800  1.0  -0.2099
  C  C237  1  0.823200  0.284900  0.548400  1.0  0.1622
  C  C238  1  0.764200  0.345600  0.544300  1.0  0.1552
  C  C239  1  0.715900  0.381300  0.500700  1.0  0.1828
  C  C240  1  0.644000  0.399000  0.485000  1.0  0.1363
  C  C241  1  0.624900  0.434900  0.424700  1.0  -0.1371
  C  C242  1  0.651500  0.444200  0.401100  1.0  -0.1548
  C  C243  1  0.698600  0.418600  0.440000  1.0  -0.0809
  C  C244  1  0.729100  0.437000  0.417400  1.0  0.7155
  C  C245  1  0.684400  0.488700  0.680500  1.0  0.7074
  C  C246  1  0.629800  0.490900  0.625100  1.0  -0.0864
  C  C247  1  0.602100  0.431800  0.598600  1.0  -0.0833
  C  C248  1  0.551700  0.435200  0.549300  1.0  -0.1333
  C  C249  1  0.527600  0.497200  0.526200  1.0  0.0328
  C  C250  1  0.556100  0.556500  0.548400  1.0  -0.1522
  C  C251  1  0.607100  0.553000  0.598900  1.0  -0.0844
  C  C252  1  0.443500  0.951500  0.071300  1.0  0.7188
  C  C253  1  0.490800  0.930700  0.140200  1.0  -0.1234
  C  C254  1  0.498900  0.861000  0.159100  1.0  -0.0484
  C  C255  1  0.543000  0.841100  0.219700  1.0  -0.1713
  C  C256  1  0.578100  0.890900  0.259800  1.0  0.1476
  C  C257  1  0.527500  0.978500  0.185400  1.0  0.1673
  C  C258  1  0.520100  0.056000  0.175100  1.0  0.1483
  C  C259  1  0.474500  0.148600  0.166300  1.0  0.1388
  C  C260  1  0.506700  0.195800  0.174000  1.0  -0.1887
  C  C261  1  0.546600  0.171900  0.179800  1.0  0.0037
  C  C262  1  0.553500  0.100500  0.179600  1.0  -0.0985
  C  C263  1  0.592100  0.074600  0.174400  1.0  0.7117
  C  C264  1  0.346000  0.184000  0.812600  1.0  0.7176
  C  C265  1  0.349400  0.239200  0.772200  1.0  -0.0846
  C  C266  1  0.389700  0.281900  0.806100  1.0  -0.0325
  C  C267  1  0.390500  0.336700  0.771500  1.0  -0.1224
  C  C268  1  0.352000  0.346700  0.703200  1.0  0.15
  C  C269  1  0.311400  0.250900  0.701500  1.0  0.1437
  C  C270  1  0.268500  0.202600  0.656100  1.0  0.1744
  C  C271  1  0.242300  0.093400  0.614600  1.0  0.1705
  C  C272  1  0.193700  0.113500  0.565400  1.0  -0.1455
  C  C273  1  0.183200  0.182200  0.563700  1.0  -0.0337
  C  C274  1  0.221100  0.227800  0.610400  1.0  -0.0909
  C  C275  1  0.209200  0.302900  0.614800  1.0  0.7021
  C  C276  1  0.277200  0.863600  0.661200  1.0  0.6331
  C  C277  1  0.289200  0.831600  0.616600  1.0  -0.0784
  C  C278  1  0.330400  0.790100  0.651500  1.0  -0.0954
  C  C279  1  0.347900  0.766700  0.616800  1.0  -0.2099
  C  C280  1  0.323200  0.784900  0.548400  1.0  0.1622
  C  C281  1  0.264200  0.845600  0.544300  1.0  0.1552
  C  C282  1  0.215900  0.881300  0.500700  1.0  0.1828
  C  C283  1  0.144000  0.899000  0.485000  1.0  0.1363
  C  C284  1  0.124900  0.934900  0.424700  1.0  -0.1371
  C  C285  1  0.151500  0.944200  0.401100  1.0  -0.1548
  C  C286  1  0.198600  0.918600  0.440000  1.0  -0.0809
  C  C287  1  0.229100  0.937000  0.417400  1.0  0.7155
  C  C288  1  0.184400  0.988700  0.680500  1.0  0.7074
  C  C289  1  0.129800  0.990900  0.625100  1.0  -0.0864
  C  C290  1  0.102100  0.931800  0.598600  1.0  -0.0833
  C  C291  1  0.051700  0.935200  0.549300  1.0  -0.1333
  C  C292  1  0.027600  0.997200  0.526200  1.0  0.0328
  C  C293  1  0.056100  0.056500  0.548400  1.0  -0.1522
  C  C294  1  0.107100  0.053000  0.598900  1.0  -0.0844
  C  C295  1  0.056500  0.451500  0.428700  1.0  0.7174
  C  C296  1  0.009200  0.430700  0.359800  1.0  -0.1229
  C  C297  1  0.001100  0.361000  0.340900  1.0  -0.0499
  C  C298  1  0.957000  0.341100  0.280300  1.0  -0.1732
  C  C299  1  0.921900  0.390900  0.240200  1.0  0.1459
  C  C300  1  0.972500  0.478500  0.314600  1.0  0.1672
  C  C301  1  0.979900  0.556000  0.324900  1.0  0.1471
  C  C302  1  0.025500  0.648600  0.333700  1.0  0.1388
  C  C303  1  0.993300  0.695800  0.326000  1.0  -0.189
  C  C304  1  0.953400  0.671900  0.320200  1.0  0.0026
  C  C305  1  0.946500  0.600500  0.320400  1.0  -0.0972
  C  C306  1  0.907900  0.574600  0.325600  1.0  0.7129
  C  C307  1  0.154000  0.684000  0.687400  1.0  0.7154
  C  C308  1  0.150600  0.739200  0.727800  1.0  -0.0859
  C  C309  1  0.110300  0.781900  0.693900  1.0  -0.0321
  C  C310  1  0.109500  0.836700  0.728500  1.0  -0.1251
  C  C311  1  0.148000  0.846700  0.796800  1.0  0.1506
  C  C312  1  0.188600  0.750900  0.798500  1.0  0.1429
  C  C313  1  0.231500  0.702600  0.843900  1.0  0.1741
  C  C314  1  0.257700  0.593400  0.885400  1.0  0.1699
  C  C315  1  0.306300  0.613500  0.934600  1.0  -0.1451
  C  C316  1  0.316800  0.682200  0.936300  1.0  -0.0329
  C  C317  1  0.278900  0.727800  0.889600  1.0  -0.0893
  C  C318  1  0.290800  0.802900  0.885200  1.0  0.701
  C  C319  1  0.222800  0.363600  0.838800  1.0  0.6323
  C  C320  1  0.210800  0.331600  0.883400  1.0  -0.0789
  C  C321  1  0.169600  0.290100  0.848500  1.0  -0.0938
  C  C322  1  0.152100  0.266700  0.883200  1.0  -0.2118
  C  C323  1  0.176800  0.284900  0.951600  1.0  0.1622
  C  C324  1  0.235800  0.345600  0.955700  1.0  0.1555
  C  C325  1  0.284100  0.381300  0.999300  1.0  0.1833
  C  C326  1  0.356000  0.399000  0.015000  1.0  0.1331
  C  C327  1  0.375100  0.434900  0.075300  1.0  -0.1346
  C  C328  1  0.348500  0.444200  0.098900  1.0  -0.1551
  C  C329  1  0.301400  0.418600  0.060000  1.0  -0.0804
  C  C330  1  0.270900  0.437000  0.082600  1.0  0.7135
  C  C331  1  0.315600  0.488700  0.819500  1.0  0.7069
  C  C332  1  0.370200  0.490900  0.874900  1.0  -0.089
  C  C333  1  0.397900  0.431800  0.901400  1.0  -0.083
  C  C334  1  0.448300  0.435200  0.950700  1.0  -0.1332
  C  C335  1  0.472400  0.497200  0.973800  1.0  0.0328
  C  C336  1  0.443900  0.556500  0.951600  1.0  -0.1522
  C  C337  1  0.392900  0.553000  0.901100  1.0  -0.0833
  C  C338  1  0.556500  0.951500  0.428700  1.0  0.7174
  C  C339  1  0.509200  0.930700  0.359800  1.0  -0.1229
  C  C340  1  0.501100  0.861000  0.340900  1.0  -0.0499
  C  C341  1  0.457000  0.841100  0.280300  1.0  -0.1732
  C  C342  1  0.421900  0.890900  0.240200  1.0  0.1459
  C  C343  1  0.472500  0.978500  0.314600  1.0  0.1672
  C  C344  1  0.479900  0.056000  0.324900  1.0  0.1471
  C  C345  1  0.525500  0.148600  0.333700  1.0  0.1388
  C  C346  1  0.493300  0.195800  0.326000  1.0  -0.189
  C  C347  1  0.453400  0.171900  0.320200  1.0  0.0026
  C  C348  1  0.446500  0.100500  0.320400  1.0  -0.0972
  C  C349  1  0.407900  0.074600  0.325600  1.0  0.7129
  C  C350  1  0.654000  0.184000  0.687400  1.0  0.7154
  C  C351  1  0.650600  0.239200  0.727800  1.0  -0.0859
  C  C352  1  0.610300  0.281900  0.693900  1.0  -0.0321
  C  C353  1  0.609500  0.336700  0.728500  1.0  -0.1251
  C  C354  1  0.648000  0.346700  0.796800  1.0  0.1506
  C  C355  1  0.688600  0.250900  0.798500  1.0  0.1429
  C  C356  1  0.731500  0.202600  0.843900  1.0  0.1741
  C  C357  1  0.757700  0.093400  0.885400  1.0  0.1699
  C  C358  1  0.806300  0.113500  0.934600  1.0  -0.1451
  C  C359  1  0.816800  0.182200  0.936300  1.0  -0.0329
  C  C360  1  0.778900  0.227800  0.889600  1.0  -0.0893
  C  C361  1  0.790800  0.302900  0.885200  1.0  0.701
  C  C362  1  0.722800  0.863600  0.838800  1.0  0.6323
  C  C363  1  0.710800  0.831600  0.883400  1.0  -0.0789
  C  C364  1  0.669600  0.790100  0.848500  1.0  -0.0938
  C  C365  1  0.652100  0.766700  0.883200  1.0  -0.2118
  C  C366  1  0.676800  0.784900  0.951600  1.0  0.1622
  C  C367  1  0.735800  0.845600  0.955700  1.0  0.1555
  C  C368  1  0.784100  0.881300  0.999300  1.0  0.1833
  C  C369  1  0.856000  0.899000  0.015000  1.0  0.1331
  C  C370  1  0.875100  0.934900  0.075300  1.0  -0.1346
  C  C371  1  0.848500  0.944200  0.098900  1.0  -0.1551
  C  C372  1  0.801400  0.918600  0.060000  1.0  -0.0804
  C  C373  1  0.770900  0.937000  0.082600  1.0  0.7135
  C  C374  1  0.815600  0.988700  0.819500  1.0  0.7069
  C  C375  1  0.870200  0.990900  0.874900  1.0  -0.089
  C  C376  1  0.897900  0.931800  0.901400  1.0  -0.083
  C  C377  1  0.948300  0.935200  0.950700  1.0  -0.1332
  C  C378  1  0.972400  0.997200  0.973800  1.0  0.0328
  C  C379  1  0.943900  0.056500  0.951600  1.0  -0.1522
  C  C380  1  0.892900  0.053000  0.901100  1.0  -0.0833
  C  C381  1  0.056500  0.548500  0.928700  1.0  0.7167
  C  C382  1  0.009200  0.569300  0.859800  1.0  -0.1227
  C  C383  1  0.001100  0.639000  0.840900  1.0  -0.0497
  C  C384  1  0.957000  0.658900  0.780300  1.0  -0.1741
  C  C385  1  0.921900  0.609100  0.740200  1.0  0.1461
  C  C386  1  0.972500  0.521500  0.814600  1.0  0.1673
  C  C387  1  0.979900  0.444000  0.824900  1.0  0.1471
  C  C388  1  0.025500  0.351400  0.833700  1.0  0.1393
  C  C389  1  0.993300  0.304200  0.826000  1.0  -0.1883
  C  C390  1  0.953400  0.328100  0.820200  1.0  0.0042
  C  C391  1  0.946500  0.399500  0.820400  1.0  -0.0976
  C  C392  1  0.907900  0.425400  0.825600  1.0  0.713
  C  C393  1  0.154000  0.316000  0.187400  1.0  0.716
  C  C394  1  0.150600  0.260800  0.227800  1.0  -0.0851
  C  C395  1  0.110300  0.218100  0.193900  1.0  -0.0311
  C  C396  1  0.109500  0.163300  0.228500  1.0  -0.1249
  C  C397  1  0.148000  0.153300  0.296800  1.0  0.1523
  C  C398  1  0.188600  0.249100  0.298500  1.0  0.1425
  C  C399  1  0.231500  0.297400  0.343900  1.0  0.1741
  C  C400  1  0.257700  0.406600  0.385400  1.0  0.1686
  C  C401  1  0.306300  0.386500  0.434600  1.0  -0.145
  C  C402  1  0.316800  0.317800  0.436300  1.0  -0.0328
  C  C403  1  0.278900  0.272200  0.389600  1.0  -0.0891
  C  C404  1  0.290800  0.197100  0.385200  1.0  0.7007
  C  C405  1  0.222800  0.636400  0.338800  1.0  0.6321
  C  C406  1  0.210800  0.668400  0.383400  1.0  -0.0792
  C  C407  1  0.169600  0.709900  0.348500  1.0  -0.0943
  C  C408  1  0.152100  0.733300  0.383200  1.0  -0.212
  C  C409  1  0.176800  0.715100  0.451600  1.0  0.1626
  C  C410  1  0.235800  0.654400  0.455700  1.0  0.1559
  C  C411  1  0.284100  0.618700  0.499300  1.0  0.1826
  C  C412  1  0.356000  0.601000  0.515000  1.0  0.1334
  C  C413  1  0.375100  0.565100  0.575300  1.0  -0.1333
  C  C414  1  0.348500  0.555800  0.598900  1.0  -0.1541
  C  C415  1  0.301400  0.581400  0.560000  1.0  -0.0811
  C  C416  1  0.270900  0.563000  0.582600  1.0  0.7139
  C  C417  1  0.315600  0.511300  0.319500  1.0  0.7072
  C  C418  1  0.370200  0.509100  0.374900  1.0  -0.0891
  C  C419  1  0.397900  0.568200  0.401400  1.0  -0.0825
  C  C420  1  0.448300  0.564800  0.450700  1.0  -0.1349
  C  C421  1  0.472400  0.502800  0.473800  1.0  0.0319
  C  C422  1  0.443900  0.443500  0.451600  1.0  -0.1518
  C  C423  1  0.392900  0.447000  0.401100  1.0  -0.0837
  C  C424  1  0.556500  0.048500  0.928700  1.0  0.7167
  C  C425  1  0.509200  0.069300  0.859800  1.0  -0.1227
  C  C426  1  0.501100  0.139000  0.840900  1.0  -0.0497
  C  C427  1  0.457000  0.158900  0.780300  1.0  -0.1741
  C  C428  1  0.421900  0.109100  0.740200  1.0  0.1461
  C  C429  1  0.472500  0.021500  0.814600  1.0  0.1673
  C  C430  1  0.479900  0.944000  0.824900  1.0  0.1471
  C  C431  1  0.525500  0.851400  0.833700  1.0  0.1393
  C  C432  1  0.493300  0.804200  0.826000  1.0  -0.1883
  C  C433  1  0.453400  0.828100  0.820200  1.0  0.0042
  C  C434  1  0.446500  0.899500  0.820400  1.0  -0.0976
  C  C435  1  0.407900  0.925400  0.825600  1.0  0.713
  C  C436  1  0.654000  0.816000  0.187400  1.0  0.716
  C  C437  1  0.650600  0.760800  0.227800  1.0  -0.0851
  C  C438  1  0.610300  0.718100  0.193900  1.0  -0.0311
  C  C439  1  0.609500  0.663300  0.228500  1.0  -0.1249
  C  C440  1  0.648000  0.653300  0.296800  1.0  0.1523
  C  C441  1  0.688600  0.749100  0.298500  1.0  0.1425
  C  C442  1  0.731500  0.797400  0.343900  1.0  0.1741
  C  C443  1  0.757700  0.906600  0.385400  1.0  0.1686
  C  C444  1  0.806300  0.886500  0.434600  1.0  -0.145
  C  C445  1  0.816800  0.817800  0.436300  1.0  -0.0328
  C  C446  1  0.778900  0.772200  0.389600  1.0  -0.0891
  C  C447  1  0.790800  0.697100  0.385200  1.0  0.7007
  C  C448  1  0.722800  0.136400  0.338800  1.0  0.6321
  C  C449  1  0.710800  0.168400  0.383400  1.0  -0.0792
  C  C450  1  0.669600  0.209900  0.348500  1.0  -0.0943
  C  C451  1  0.652100  0.233300  0.383200  1.0  -0.212
  C  C452  1  0.676800  0.215100  0.451600  1.0  0.1626
  C  C453  1  0.735800  0.154400  0.455700  1.0  0.1559
  C  C454  1  0.784100  0.118700  0.499300  1.0  0.1826
  C  C455  1  0.856000  0.101000  0.515000  1.0  0.1334
  C  C456  1  0.875100  0.065100  0.575300  1.0  -0.1333
  C  C457  1  0.848500  0.055800  0.598900  1.0  -0.1541
  C  C458  1  0.801400  0.081400  0.560000  1.0  -0.0811
  C  C459  1  0.770900  0.063000  0.582600  1.0  0.7139
  C  C460  1  0.815600  0.011300  0.319500  1.0  0.7072
  C  C461  1  0.870200  0.009100  0.374900  1.0  -0.0891
  C  C462  1  0.897900  0.068200  0.401400  1.0  -0.0825
  C  C463  1  0.948300  0.064800  0.450700  1.0  -0.1349
  C  C464  1  0.972400  0.002800  0.473800  1.0  0.0319
  C  C465  1  0.943900  0.943500  0.451600  1.0  -0.1518
  C  C466  1  0.892900  0.947000  0.401100  1.0  -0.0837
  C  C467  1  0.943500  0.548500  0.571300  1.0  0.7181
  C  C468  1  0.990800  0.569300  0.640200  1.0  -0.1235
  C  C469  1  0.998900  0.639000  0.659100  1.0  -0.0483
  C  C470  1  0.043000  0.658900  0.719700  1.0  -0.1724
  C  C471  1  0.078100  0.609100  0.759800  1.0  0.1474
  C  C472  1  0.027500  0.521500  0.685400  1.0  0.1672
  C  C473  1  0.020100  0.444000  0.675100  1.0  0.1483
  C  C474  1  0.974500  0.351400  0.666300  1.0  0.1389
  C  C475  1  0.006700  0.304200  0.674000  1.0  -0.1885
  C  C476  1  0.046600  0.328100  0.679800  1.0  0.0043
  C  C477  1  0.053500  0.399500  0.679600  1.0  -0.0986
  C  C478  1  0.092100  0.425400  0.674400  1.0  0.7122
  C  C479  1  0.846000  0.316000  0.312600  1.0  0.7179
  C  C480  1  0.849400  0.260800  0.272200  1.0  -0.0851
  C  C481  1  0.889700  0.218100  0.306100  1.0  -0.0317
  C  C482  1  0.890500  0.163300  0.271500  1.0  -0.1221
  C  C483  1  0.852000  0.153300  0.203200  1.0  0.1502
  C  C484  1  0.811400  0.249100  0.201500  1.0  0.1435
  C  C485  1  0.768500  0.297400  0.156100  1.0  0.1746
  C  C486  1  0.742300  0.406600  0.114600  1.0  0.17
  C  C487  1  0.693700  0.386500  0.065400  1.0  -0.1452
  C  C488  1  0.683200  0.317800  0.063700  1.0  -0.0336
  C  C489  1  0.721100  0.272200  0.110400  1.0  -0.0908
  C  C490  1  0.709200  0.197100  0.114800  1.0  0.7023
  C  C491  1  0.777200  0.636400  0.161200  1.0  0.6331
  C  C492  1  0.789200  0.668400  0.116600  1.0  -0.0779
  C  C493  1  0.830400  0.709900  0.151500  1.0  -0.0963
  C  C494  1  0.847900  0.733300  0.116800  1.0  -0.21
  C  C495  1  0.823200  0.715100  0.048400  1.0  0.1626
  C  C496  1  0.764200  0.654400  0.044300  1.0  0.1553
  C  C497  1  0.715900  0.618700  0.000700  1.0  0.1829
  C  C498  1  0.644000  0.601000  0.985000  1.0  0.1363
  C  C499  1  0.624900  0.565100  0.924700  1.0  -0.1367
  C  C500  1  0.651500  0.555800  0.901100  1.0  -0.1544
  C  C501  1  0.698600  0.581400  0.940000  1.0  -0.0809
  C  C502  1  0.729100  0.563000  0.917400  1.0  0.7152
  C  C503  1  0.684400  0.511300  0.180500  1.0  0.7078
  C  C504  1  0.629800  0.509100  0.125100  1.0  -0.0859
  C  C505  1  0.602100  0.568200  0.098600  1.0  -0.083
  C  C506  1  0.551700  0.564800  0.049300  1.0  -0.134
  C  C507  1  0.527600  0.502800  0.026200  1.0  0.032
  C  C508  1  0.556100  0.443500  0.048400  1.0  -0.1504
  C  C509  1  0.607100  0.447000  0.098900  1.0  -0.0846
  C  C510  1  0.443500  0.048500  0.571300  1.0  0.7181
  C  C511  1  0.490800  0.069300  0.640200  1.0  -0.1235
  C  C512  1  0.498900  0.139000  0.659100  1.0  -0.0483
  C  C513  1  0.543000  0.158900  0.719700  1.0  -0.1724
  C  C514  1  0.578100  0.109100  0.759800  1.0  0.1474
  C  C515  1  0.527500  0.021500  0.685400  1.0  0.1672
  C  C516  1  0.520100  0.944000  0.675100  1.0  0.1483
  C  C517  1  0.474500  0.851400  0.666300  1.0  0.1389
  C  C518  1  0.506700  0.804200  0.674000  1.0  -0.1885
  C  C519  1  0.546600  0.828100  0.679800  1.0  0.0043
  C  C520  1  0.553500  0.899500  0.679600  1.0  -0.0986
  C  C521  1  0.592100  0.925400  0.674400  1.0  0.7122
  C  C522  1  0.346000  0.816000  0.312600  1.0  0.7179
  C  C523  1  0.349400  0.760800  0.272200  1.0  -0.0851
  C  C524  1  0.389700  0.718100  0.306100  1.0  -0.0317
  C  C525  1  0.390500  0.663300  0.271500  1.0  -0.1221
  C  C526  1  0.352000  0.653300  0.203200  1.0  0.1502
  C  C527  1  0.311400  0.749100  0.201500  1.0  0.1435
  C  C528  1  0.268500  0.797400  0.156100  1.0  0.1746
  C  C529  1  0.242300  0.906600  0.114600  1.0  0.17
  C  C530  1  0.193700  0.886500  0.065400  1.0  -0.1452
  C  C531  1  0.183200  0.817800  0.063700  1.0  -0.0336
  C  C532  1  0.221100  0.772200  0.110400  1.0  -0.0908
  C  C533  1  0.209200  0.697100  0.114800  1.0  0.7023
  C  C534  1  0.277200  0.136400  0.161200  1.0  0.6331
  C  C535  1  0.289200  0.168400  0.116600  1.0  -0.0779
  C  C536  1  0.330400  0.209900  0.151500  1.0  -0.0963
  C  C537  1  0.347900  0.233300  0.116800  1.0  -0.21
  C  C538  1  0.323200  0.215100  0.048400  1.0  0.1626
  C  C539  1  0.264200  0.154400  0.044300  1.0  0.1553
  C  C540  1  0.215900  0.118700  0.000700  1.0  0.1829
  C  C541  1  0.144000  0.101000  0.985000  1.0  0.1363
  C  C542  1  0.124900  0.065100  0.924700  1.0  -0.1367
  C  C543  1  0.151500  0.055800  0.901100  1.0  -0.1544
  C  C544  1  0.198600  0.081400  0.940000  1.0  -0.0809
  C  C545  1  0.229100  0.063000  0.917400  1.0  0.7152
  C  C546  1  0.184400  0.011300  0.180500  1.0  0.7078
  C  C547  1  0.129800  0.009100  0.125100  1.0  -0.0859
  C  C548  1  0.102100  0.068200  0.098600  1.0  -0.083
  C  C549  1  0.051700  0.064800  0.049300  1.0  -0.134
  C  C550  1  0.027600  0.002800  0.026200  1.0  0.032
  C  C551  1  0.056100  0.943500  0.048400  1.0  -0.1504
  C  C552  1  0.107100  0.947000  0.098900  1.0  -0.0846
  N  N553  1  0.071060  0.458800  0.244900  1.0  -0.4112
  N  N554  1  0.979970  0.578900  0.166800  1.0  -0.4029
  N  N555  1  0.812400  0.804600  0.665700  1.0  -0.4138
  N  N556  1  0.779400  0.635300  0.659500  1.0  -0.3585
  N  N557  1  0.689100  0.371800  0.523000  1.0  -0.4507
  N  N558  1  0.782000  0.322200  0.511200  1.0  -0.4272
  N  N559  1  0.571060  0.958800  0.244900  1.0  -0.4112
  N  N560  1  0.479970  0.078900  0.166800  1.0  -0.4029
  N  N561  1  0.312400  0.304600  0.665700  1.0  -0.4138
  N  N562  1  0.279400  0.135300  0.659500  1.0  -0.3586
  N  N563  1  0.189100  0.871800  0.523000  1.0  -0.4507
  N  N564  1  0.282000  0.822200  0.511200  1.0  -0.4272
  N  N565  1  0.928940  0.458800  0.255100  1.0  -0.4072
  N  N566  1  0.020030  0.578900  0.333200  1.0  -0.4022
  N  N567  1  0.187600  0.804600  0.834300  1.0  -0.4131
  N  N568  1  0.220600  0.635300  0.840500  1.0  -0.3602
  N  N569  1  0.310900  0.371800  0.977000  1.0  -0.4551
  N  N570  1  0.218000  0.322200  0.988800  1.0  -0.4222
  N  N571  1  0.428940  0.958800  0.255100  1.0  -0.4072
  N  N572  1  0.520030  0.078900  0.333200  1.0  -0.4022
  N  N573  1  0.687600  0.304600  0.834300  1.0  -0.4131
  N  N574  1  0.720600  0.135300  0.840500  1.0  -0.3602
  N  N575  1  0.810900  0.871800  0.977000  1.0  -0.4551
  N  N576  1  0.718000  0.822200  0.988800  1.0  -0.4222
  N  N577  1  0.928940  0.541200  0.755100  1.0  -0.4079
  N  N578  1  0.020030  0.421100  0.833200  1.0  -0.4036
  N  N579  1  0.187600  0.195400  0.334300  1.0  -0.4127
  N  N580  1  0.220600  0.364700  0.340500  1.0  -0.3609
  N  N581  1  0.310900  0.628200  0.477000  1.0  -0.4548
  N  N582  1  0.218000  0.677800  0.488800  1.0  -0.423
  N  N583  1  0.428940  0.041200  0.755100  1.0  -0.4079
  N  N584  1  0.520030  0.921100  0.833200  1.0  -0.4036
  N  N585  1  0.687600  0.695400  0.334300  1.0  -0.4127
  N  N586  1  0.720600  0.864700  0.340500  1.0  -0.3608
  N  N587  1  0.810900  0.128200  0.477000  1.0  -0.4548
  N  N588  1  0.718000  0.177800  0.488800  1.0  -0.423
  N  N589  1  0.071060  0.541200  0.744900  1.0  -0.4087
  N  N590  1  0.979970  0.421100  0.666800  1.0  -0.4035
  N  N591  1  0.812400  0.195400  0.165700  1.0  -0.4142
  N  N592  1  0.779400  0.364700  0.159500  1.0  -0.3594
  N  N593  1  0.689100  0.628200  0.023000  1.0  -0.4518
  N  N594  1  0.782000  0.677800  0.011200  1.0  -0.429
  N  N595  1  0.571060  0.041200  0.744900  1.0  -0.4087
  N  N596  1  0.479970  0.921100  0.666800  1.0  -0.4035
  N  N597  1  0.312400  0.695400  0.165700  1.0  -0.4142
  N  N598  1  0.279400  0.864700  0.159500  1.0  -0.3594
  N  N599  1  0.189100  0.128200  0.023000  1.0  -0.4518
  N  N600  1  0.282000  0.177800  0.011200  1.0  -0.429
  O  O601  1  0.905380  0.420600  0.053800  1.0  -0.6161
  O  O602  1  0.945080  0.496800  0.034510  1.0  -0.7636
  O  O603  1  0.080810  0.519900  0.137800  1.0  -0.7078
  O  O604  1  0.131470  0.607300  0.203900  1.0  -0.664
  O  O605  1  0.883670  0.648400  0.855400  1.0  -0.6925
  O  O606  1  0.805460  0.677700  0.801700  1.0  -0.7607
  O  O607  1  0.716280  0.819300  0.670400  1.0  -0.693
  O  O608  1  0.693440  0.841200  0.562500  1.0  -0.7381
  O  O609  1  0.772130  0.324400  0.698600  1.0  -0.6514
  O  O610  1  0.778330  0.428700  0.667660  1.0  -0.6814
  O  O611  1  0.766160  0.474800  0.459400  1.0  -0.7297
  O  O612  1  0.715040  0.416000  0.358000  1.0  -0.6434
  O  O613  1  0.764720  0.471500  0.842160  1.0  -0.835
  O  O614  1  0.859010  0.437450  0.905510  1.0  -0.8987
  O  O615  1  0.815950  0.533820  0.799090  1.0  -0.7975
  O  O616  1  0.835850  0.568500  0.928580  1.0  -0.8435
  O  O617  1  0.704940  0.546400  0.708400  1.0  -0.6738
  O  O618  1  0.706540  0.431600  0.697100  1.0  -0.6361
  O  O619  1  0.405380  0.920600  0.053800  1.0  -0.6161
  O  O620  1  0.445080  0.996800  0.034510  1.0  -0.7636
  O  O621  1  0.580810  0.019900  0.137800  1.0  -0.7078
  O  O622  1  0.631470  0.107300  0.203900  1.0  -0.664
  O  O623  1  0.383670  0.148400  0.855400  1.0  -0.6925
  O  O624  1  0.305460  0.177700  0.801700  1.0  -0.7607
  O  O625  1  0.216280  0.319300  0.670400  1.0  -0.693
  O  O626  1  0.193440  0.341200  0.562500  1.0  -0.7381
  O  O627  1  0.272130  0.824400  0.698600  1.0  -0.6514
  O  O628  1  0.278330  0.928700  0.667660  1.0  -0.6814
  O  O629  1  0.266160  0.974800  0.459400  1.0  -0.7297
  O  O630  1  0.215040  0.916000  0.358000  1.0  -0.6434
  O  O631  1  0.264720  0.971500  0.842160  1.0  -0.835
  O  O632  1  0.359010  0.937450  0.905510  1.0  -0.8987
  O  O633  1  0.315950  0.033820  0.799090  1.0  -0.7975
  O  O634  1  0.335850  0.068500  0.928580  1.0  -0.8435
  O  O635  1  0.204940  0.046400  0.708400  1.0  -0.6738
  O  O636  1  0.206540  0.931600  0.697100  1.0  -0.6361
  O  O637  1  0.094620  0.420600  0.446200  1.0  -0.6174
  O  O638  1  0.054920  0.496800  0.465490  1.0  -0.7629
  O  O639  1  0.919190  0.519900  0.362200  1.0  -0.7089
  O  O640  1  0.868530  0.607300  0.296100  1.0  -0.6628
  O  O641  1  0.116330  0.648400  0.644600  1.0  -0.6944
  O  O642  1  0.194540  0.677700  0.698300  1.0  -0.7616
  O  O643  1  0.283720  0.819300  0.829600  1.0  -0.6918
  O  O644  1  0.306560  0.841200  0.937500  1.0  -0.7384
  O  O645  1  0.227870  0.324400  0.801400  1.0  -0.6518
  O  O646  1  0.221670  0.428700  0.832340  1.0  -0.6821
  O  O647  1  0.233840  0.474800  0.040600  1.0  -0.7303
  O  O648  1  0.284960  0.416000  0.142000  1.0  -0.6428
  O  O649  1  0.235280  0.471500  0.657840  1.0  -0.8351
  O  O650  1  0.140990  0.437450  0.594490  1.0  -0.8992
  O  O651  1  0.184050  0.533820  0.700910  1.0  -0.7971
  O  O652  1  0.164150  0.568500  0.571420  1.0  -0.8456
  O  O653  1  0.295060  0.546400  0.791600  1.0  -0.6736
  O  O654  1  0.293460  0.431600  0.802900  1.0  -0.6353
  O  O655  1  0.594620  0.920600  0.446200  1.0  -0.6174
  O  O656  1  0.554920  0.996800  0.465490  1.0  -0.7629
  O  O657  1  0.419190  0.019900  0.362200  1.0  -0.7089
  O  O658  1  0.368530  0.107300  0.296100  1.0  -0.6628
  O  O659  1  0.616330  0.148400  0.644600  1.0  -0.6944
  O  O660  1  0.694540  0.177700  0.698300  1.0  -0.7616
  O  O661  1  0.783720  0.319300  0.829600  1.0  -0.6918
  O  O662  1  0.806560  0.341200  0.937500  1.0  -0.7384
  O  O663  1  0.727870  0.824400  0.801400  1.0  -0.6518
  O  O664  1  0.721670  0.928700  0.832340  1.0  -0.6821
  O  O665  1  0.733840  0.974800  0.040600  1.0  -0.7303
  O  O666  1  0.784960  0.916000  0.142000  1.0  -0.6428
  O  O667  1  0.735280  0.971500  0.657840  1.0  -0.8351
  O  O668  1  0.640990  0.937450  0.594490  1.0  -0.8992
  O  O669  1  0.684050  0.033820  0.700910  1.0  -0.7972
  O  O670  1  0.664150  0.068500  0.571420  1.0  -0.8456
  O  O671  1  0.795060  0.046400  0.791600  1.0  -0.6736
  O  O672  1  0.793460  0.931600  0.802900  1.0  -0.6353
  O  O673  1  0.094620  0.579400  0.946200  1.0  -0.6164
  O  O674  1  0.054920  0.503200  0.965490  1.0  -0.7622
  O  O675  1  0.919190  0.480100  0.862200  1.0  -0.7078
  O  O676  1  0.868530  0.392700  0.796100  1.0  -0.6621
  O  O677  1  0.116330  0.351600  0.144600  1.0  -0.6933
  O  O678  1  0.194540  0.322300  0.198300  1.0  -0.7619
  O  O679  1  0.283720  0.180700  0.329600  1.0  -0.6917
  O  O680  1  0.306560  0.158800  0.437500  1.0  -0.737
  O  O681  1  0.227870  0.675600  0.301400  1.0  -0.6504
  O  O682  1  0.221670  0.571300  0.332340  1.0  -0.6805
  O  O683  1  0.233840  0.525200  0.540600  1.0  -0.7304
  O  O684  1  0.284960  0.584000  0.642000  1.0  -0.6423
  O  O685  1  0.235280  0.528500  0.157840  1.0  -0.8351
  O  O686  1  0.140990  0.562550  0.094490  1.0  -0.8992
  O  O687  1  0.184050  0.466180  0.200910  1.0  -0.7976
  O  O688  1  0.164150  0.431500  0.071420  1.0  -0.8457
  O  O689  1  0.295060  0.453600  0.291600  1.0  -0.6741
  O  O690  1  0.293460  0.568400  0.302900  1.0  -0.6349
  O  O691  1  0.594620  0.079400  0.946200  1.0  -0.6164
  O  O692  1  0.554920  0.003200  0.965490  1.0  -0.7622
  O  O693  1  0.419190  0.980100  0.862200  1.0  -0.7078
  O  O694  1  0.368530  0.892700  0.796100  1.0  -0.6621
  O  O695  1  0.616330  0.851600  0.144600  1.0  -0.6933
  O  O696  1  0.694540  0.822300  0.198300  1.0  -0.7619
  O  O697  1  0.783720  0.680700  0.329600  1.0  -0.6917
  O  O698  1  0.806560  0.658800  0.437500  1.0  -0.737
  O  O699  1  0.727870  0.175600  0.301400  1.0  -0.6504
  O  O700  1  0.721670  0.071300  0.332340  1.0  -0.6805
  O  O701  1  0.733840  0.025200  0.540600  1.0  -0.7304
  O  O702  1  0.784960  0.084000  0.642000  1.0  -0.6423
  O  O703  1  0.735280  0.028500  0.157840  1.0  -0.8351
  O  O704  1  0.640990  0.062550  0.094490  1.0  -0.8992
  O  O705  1  0.684050  0.966180  0.200910  1.0  -0.7976
  O  O706  1  0.664150  0.931500  0.071420  1.0  -0.8457
  O  O707  1  0.795060  0.953600  0.291600  1.0  -0.6741
  O  O708  1  0.793460  0.068400  0.302900  1.0  -0.6349
  O  O709  1  0.905380  0.579400  0.553800  1.0  -0.6164
  O  O710  1  0.945080  0.503200  0.534510  1.0  -0.7635
  O  O711  1  0.080810  0.480100  0.637800  1.0  -0.7082
  O  O712  1  0.131470  0.392700  0.703900  1.0  -0.6643
  O  O713  1  0.883670  0.351600  0.355400  1.0  -0.6924
  O  O714  1  0.805460  0.322300  0.301700  1.0  -0.7611
  O  O715  1  0.716280  0.180700  0.170400  1.0  -0.6923
  O  O716  1  0.693440  0.158800  0.062500  1.0  -0.7413
  O  O717  1  0.772130  0.675600  0.198600  1.0  -0.6517
  O  O718  1  0.778330  0.571300  0.167660  1.0  -0.6804
  O  O719  1  0.766160  0.525200  0.959400  1.0  -0.7288
  O  O720  1  0.715040  0.584000  0.858000  1.0  -0.643
  O  O721  1  0.764720  0.528500  0.342160  1.0  -0.8345
  O  O722  1  0.859010  0.562550  0.405510  1.0  -0.8988
  O  O723  1  0.815950  0.466180  0.299090  1.0  -0.798
  O  O724  1  0.835850  0.431500  0.428580  1.0  -0.8433
  O  O725  1  0.704940  0.453600  0.208400  1.0  -0.6737
  O  O726  1  0.706540  0.568400  0.197100  1.0  -0.6357
  O  O727  1  0.405380  0.079400  0.553800  1.0  -0.6164
  O  O728  1  0.445080  0.003200  0.534510  1.0  -0.7635
  O  O729  1  0.580810  0.980100  0.637800  1.0  -0.7082
  O  O730  1  0.631470  0.892700  0.703900  1.0  -0.6643
  O  O731  1  0.383670  0.851600  0.355400  1.0  -0.6924
  O  O732  1  0.305460  0.822300  0.301700  1.0  -0.7611
  O  O733  1  0.216280  0.680700  0.170400  1.0  -0.6923
  O  O734  1  0.193440  0.658800  0.062500  1.0  -0.7413
  O  O735  1  0.272130  0.175600  0.198600  1.0  -0.6517
  O  O736  1  0.278330  0.071300  0.167660  1.0  -0.6804
  O  O737  1  0.266160  0.025200  0.959400  1.0  -0.7288
  O  O738  1  0.215040  0.084000  0.858000  1.0  -0.643
  O  O739  1  0.264720  0.028500  0.342160  1.0  -0.8346
  O  O740  1  0.359010  0.062550  0.405510  1.0  -0.8988
  O  O741  1  0.315950  0.966180  0.299090  1.0  -0.7978
  O  O742  1  0.335850  0.931500  0.428580  1.0  -0.8433
  O  O743  1  0.204940  0.953600  0.208400  1.0  -0.6737
  O  O744  1  0.206540  0.068400  0.197100  1.0  -0.6357
