# generated using pymatgen
data_Zn4H30C54O13
_symmetry_space_group_name_H-M   'P 1'
_cell_length_a   37.07200000
_cell_length_b   37.07200000
_cell_length_c   30.03330000
_cell_angle_alpha   90.00000000
_cell_angle_beta   90.00000000
_cell_angle_gamma   120.00000000
_symmetry_Int_Tables_number   1
_chemical_formula_structural   Zn4H30C54O13
_chemical_formula_sum   'Zn32 H240 C432 O104'
_cell_volume   35745.85742634
_cell_formula_units_Z   8
loop_
 _symmetry_equiv_pos_site_id
 _symmetry_equiv_pos_as_xyz
  1  'x, y, z'
loop_
 _atom_site_type_symbol
 _atom_site_label
 _atom_site_symmetry_multiplicity
 _atom_site_fract_x
 _atom_site_fract_y
 _atom_site_fract_z
 _atom_site_occupancy
 _atom_site_charge
  Zn  Zn1  1  0.622520  0.338420  0.273100  1.0  1.1465
  Zn  Zn2  1  0.666130  0.333490  0.189650  1.0  1.1228
  Zn  Zn3  1  0.714850  0.377600  0.272820  1.0  1.173
  Zn  Zn4  1  0.661890  0.285330  0.273250  1.0  1.1785
  Zn  Zn5  1  0.285570  0.661250  0.774050  1.0  1.1621
  Zn  Zn6  1  0.339000  0.622190  0.773010  1.0  1.1658
  Zn  Zn7  1  0.334120  0.666667  0.690550  1.0  1.1347
  Zn  Zn8  1  0.377930  0.714300  0.774500  1.0  1.1426
  Zn  Zn9  1  0.160750  0.299890  0.200290  1.0  1.1735
  Zn  Zn10  1  0.223240  0.366780  0.260290  1.0  1.1529
  Zn  Zn11  1  0.144270  0.366270  0.234860  1.0  1.1559
  Zn  Zn12  1  0.141080  0.300980  0.296620  1.0  1.1762
  Zn  Zn13  1  0.299480  0.140210  0.798160  1.0  1.178
  Zn  Zn14  1  0.365690  0.222430  0.762000  1.0  1.1549
  Zn  Zn15  1  0.365250  0.143540  0.737270  1.0  1.1419
  Zn  Zn16  1  0.299040  0.160080  0.701810  1.0  1.1663
  Zn  Zn17  1  0.159520  0.858890  0.298130  1.0  1.1743
  Zn  Zn18  1  0.221960  0.855470  0.237210  1.0  1.1647
  Zn  Zn19  1  0.143630  0.776710  0.262420  1.0  1.1575
  Zn  Zn20  1  0.139460  0.839060  0.201910  1.0  1.1768
  Zn  Zn21  1  0.699780  0.840970  0.298480  1.0  1.1738
  Zn  Zn22  1  0.633860  0.778600  0.237530  1.0  1.1644
  Zn  Zn23  1  0.633290  0.856820  0.263320  1.0  1.1568
  Zn  Zn24  1  0.699820  0.861320  0.202370  1.0  1.1682
  Zn  Zn25  1  0.796170  0.164540  0.706580  1.0  1.1146
  Zn  Zn26  1  0.811140  0.114160  0.773000  1.0  1.1703
  Zn  Zn27  1  0.884500  0.187050  0.726230  1.0  1.1609
  Zn  Zn28  1  0.834040  0.202830  0.791630  1.0  1.0845
  Zn  Zn29  1  0.860890  0.700740  0.702500  1.0  1.1558
  Zn  Zn30  1  0.778240  0.634430  0.737730  1.0  1.1425
  Zn  Zn31  1  0.856640  0.633620  0.762020  1.0  1.1556
  Zn  Zn32  1  0.840740  0.699600  0.798970  1.0  1.1752
  H  H33  1  0.961340  0.923370  0.250520  1.0  0.1182
  H  H34  1  0.961600  0.039230  0.251050  1.0  0.1047
  H  H35  1  0.077910  0.038260  0.250000  1.0  0.1081
  H  H36  1  0.037960  0.078330  0.749610  1.0  0.1059
  H  H37  1  0.922110  0.961090  0.753460  1.0  0.1131
  H  H38  1  0.037670  0.962100  0.752500  1.0  0.1072
  H  H39  1  0.256180  0.627930  0.247720  1.0  0.1124
  H  H40  1  0.371950  0.743910  0.249450  1.0  0.1135
  H  H41  1  0.372160  0.628140  0.248250  1.0  0.113
  H  H42  1  0.627150  0.372340  0.748420  1.0  0.1095
  H  H43  1  0.742990  0.371980  0.744830  1.0  0.1181
  H  H44  1  0.627490  0.256470  0.751400  1.0  0.1169
  H  H45  1  0.416400  0.326850  0.151790  1.0  0.1044
  H  H46  1  0.447690  0.281400  0.033780  1.0  0.1142
  H  H47  1  0.332660  0.280660  0.040370  1.0  0.113
  H  H48  1  0.444430  0.164840  0.467170  1.0  0.1136
  H  H49  1  0.414570  0.093780  0.345700  1.0  0.1169
  H  H50  1  0.328520  0.049920  0.455860  1.0  0.1218
  H  H51  1  0.713660  0.164460  0.033700  1.0  0.101
  H  H52  1  0.670770  0.088510  0.152650  1.0  0.0997
  H  H53  1  0.715300  0.049930  0.041680  1.0  0.1159
  H  H54  1  0.324670  0.416010  0.651820  1.0  0.1066
  H  H55  1  0.281950  0.447660  0.532230  1.0  0.1143
  H  H56  1  0.281600  0.331900  0.540640  1.0  0.1204
  H  H57  1  0.052110  0.719710  0.541740  1.0  0.1127
  H  H58  1  0.091840  0.675350  0.653870  1.0  0.0992
  H  H59  1  0.166950  0.719230  0.535420  1.0  0.1166
  H  H60  1  0.164800  0.441100  0.963970  1.0  0.1107
  H  H61  1  0.096260  0.411150  0.841270  1.0  0.1058
  H  H62  1  0.050430  0.325180  0.952200  1.0  0.1087
  H  H63  1  0.951500  0.282280  0.457250  1.0  0.1149
  H  H64  1  0.909340  0.324610  0.344900  1.0  0.1095
  H  H65  1  0.836380  0.282650  0.464050  1.0  0.1179
  H  H66  1  0.678960  0.585840  0.346220  1.0  0.1176
  H  H67  1  0.720090  0.555640  0.467510  1.0  0.1126
  H  H68  1  0.721370  0.671720  0.456520  1.0  0.1218
  H  H69  1  0.834400  0.551890  0.033230  1.0  0.1118
  H  H70  1  0.909640  0.583830  0.153040  1.0  0.091
  H  H71  1  0.949150  0.667340  0.042280  1.0  0.117
  H  H72  1  0.555950  0.833150  0.536070  1.0  0.1181
  H  H73  1  0.587340  0.904270  0.657440  1.0  0.1162
  H  H74  1  0.671660  0.947960  0.545750  1.0  0.1035
  H  H75  1  0.278550  0.948960  0.957330  1.0  0.1128
  H  H76  1  0.321100  0.906370  0.845430  1.0  0.1082
  H  H77  1  0.280020  0.834730  0.966000  1.0  0.1187
  H  H78  1  0.586470  0.678510  0.846410  1.0  0.1112
  H  H79  1  0.555960  0.720910  0.966870  1.0  0.1075
  H  H80  1  0.670910  0.721710  0.958200  1.0  0.1079
  H  H81  1  0.453540  0.307660  0.186270  1.0  0.1112
  H  H82  1  0.511410  0.317650  0.057720  1.0  0.1058
  H  H83  1  0.573620  0.327420  0.095670  1.0  0.1141
  H  H84  1  0.516070  0.320590  0.222360  1.0  0.1157
  H  H85  1  0.492510  0.122780  0.357270  1.0  0.1113
  H  H86  1  0.466850  0.217380  0.404890  1.0  0.1144
  H  H87  1  0.530350  0.271090  0.368850  1.0  0.1136
  H  H88  1  0.556530  0.176610  0.321680  1.0  0.1101
  H  H89  1  0.678950  0.192830  0.058020  1.0  0.105
  H  H90  1  0.689720  0.145320  0.186520  1.0  0.109
  H  H91  1  0.678070  0.195800  0.222640  1.0  0.1153
  H  H92  1  0.670470  0.245990  0.095900  1.0  0.1142
  H  H93  1  0.293330  0.448730  0.682990  1.0  0.1143
  H  H94  1  0.328860  0.515120  0.557900  1.0  0.1128
  H  H95  1  0.338900  0.578180  0.596060  1.0  0.1168
  H  H96  1  0.305460  0.511410  0.720640  1.0  0.1149
  H  H97  1  0.785590  0.251330  0.401390  1.0  0.1161
  H  H98  1  0.878950  0.372760  0.355190  1.0  0.1142
  H  H99  1  0.824450  0.382140  0.319910  1.0  0.1112
  H  H100  1  0.731310  0.260360  0.365820  1.0  0.1125
  H  H101  1  0.629930  0.508080  0.357440  1.0  0.1104
  H  H102  1  0.749930  0.533040  0.405180  1.0  0.1117
  H  H103  1  0.739970  0.469630  0.368770  1.0  0.1119
  H  H104  1  0.619580  0.444160  0.321460  1.0  0.1092
  H  H105  1  0.852540  0.546170  0.186370  1.0  0.1071
  H  H106  1  0.805940  0.488240  0.057570  1.0  0.1069
  H  H107  1  0.753080  0.426030  0.095230  1.0  0.1151
  H  H108  1  0.802520  0.483750  0.222200  1.0  0.1163
  H  H109  1  0.187080  0.672220  0.560050  1.0  0.1115
  H  H110  1  0.155080  0.705170  0.686040  1.0  0.1121
  H  H111  1  0.205970  0.693090  0.723130  1.0  0.1142
  H  H112  1  0.240400  0.662370  0.597620  1.0  0.1148
  H  H113  1  0.218970  0.464630  0.902480  1.0  0.1114
  H  H114  1  0.123300  0.488070  0.853490  1.0  0.1109
  H  H115  1  0.176730  0.553370  0.819630  1.0  0.1146
  H  H116  1  0.272320  0.529430  0.868160  1.0  0.1118
  H  H117  1  0.554160  0.839300  0.687280  1.0  0.1131
  H  H118  1  0.488900  0.813550  0.561760  1.0  0.1116
  H  H119  1  0.424680  0.761270  0.598690  1.0  0.1151
  H  H120  1  0.490300  0.789490  0.723840  1.0  0.1142
  H  H121  1  0.370260  0.877670  0.856010  1.0  0.1127
  H  H122  1  0.250250  0.782890  0.904010  1.0  0.1146
  H  H123  1  0.260380  0.729210  0.868580  1.0  0.1128
  H  H124  1  0.380760  0.823800  0.820900  1.0  0.1113
  H  H125  1  0.517190  0.637740  0.843020  1.0  0.1151
  H  H126  1  0.524080  0.740760  0.918250  1.0  0.11
  H  H127  1  0.460710  0.729750  0.882470  1.0  0.1166
  H  H128  1  0.453660  0.627380  0.807630  1.0  0.1116
  H  H129  1  0.081820  0.985190  0.308550  1.0  0.1104
  H  H130  1  0.014400  0.918200  0.191520  1.0  0.1114
  H  H131  1  0.052530  0.879790  0.191240  1.0  0.1134
  H  H132  1  0.118990  0.945850  0.309300  1.0  0.1131
  H  H133  1  0.098010  0.097120  0.210680  1.0  0.1115
  H  H134  1  0.000920  0.097910  0.290270  1.0  0.1128
  H  H135  1  0.039640  0.173770  0.289980  1.0  0.1174
  H  H136  1  0.135580  0.172990  0.210090  1.0  0.1177
  H  H137  1  0.904240  0.987180  0.192890  1.0  0.1095
  H  H138  1  0.903520  0.918790  0.309200  1.0  0.1113
  H  H139  1  0.827010  0.881350  0.309470  1.0  0.1107
  H  H140  1  0.827720  0.948830  0.192140  1.0  0.1134
  H  H141  1  0.096160  0.097430  0.709110  1.0  0.1114
  H  H142  1  0.096020  0.001860  0.792240  1.0  0.1118
  H  H143  1  0.171850  0.040200  0.792380  1.0  0.1178
  H  H144  1  0.172100  0.134670  0.708960  1.0  0.1143
  H  H145  1  0.898840  0.998190  0.785770  1.0  0.1042
  H  H146  1  0.000940  0.100630  0.715630  1.0  0.1051
  H  H147  1  0.963040  0.137970  0.716470  1.0  0.1187
  H  H148  1  0.860840  0.035460  0.784370  1.0  0.1179
  H  H149  1  0.985180  0.905430  0.694480  1.0  0.1093
  H  H150  1  0.918120  0.903460  0.812450  1.0  0.1102
  H  H151  1  0.881040  0.826910  0.812040  1.0  0.1098
  H  H152  1  0.947230  0.828970  0.693080  1.0  0.1107
  H  H153  1  0.384150  0.360410  0.167550  1.0  0.1099
  H  H154  1  0.285150  0.260690  0.091140  1.0  0.1072
  H  H155  1  0.235020  0.271980  0.129500  1.0  0.1156
  H  H156  1  0.332430  0.369440  0.207800  1.0  0.1214
  H  H157  1  0.976180  0.359250  0.327900  1.0  0.1097
  H  H158  1  0.979020  0.262720  0.406910  1.0  0.1043
  H  H159  1  0.039990  0.274000  0.367970  1.0  0.1135
  H  H160  1  0.036880  0.368400  0.286980  1.0  0.1142
  H  H161  1  0.283010  0.031730  0.395540  1.0  0.114
  H  H162  1  0.382800  0.019080  0.337880  1.0  0.1136
  H  H163  1  0.331440  0.957000  0.297130  1.0  0.119
  H  H164  1  0.232330  0.969730  0.356420  1.0  0.1165
  H  H165  1  0.743240  0.031430  0.101240  1.0  0.1152
  H  H166  1  0.629720  0.015590  0.159460  1.0  0.1116
  H  H167  1  0.621620  0.955140  0.201320  1.0  0.1185
  H  H168  1  0.734400  0.970780  0.141470  1.0  0.1128
  H  H169  1  0.366050  0.384070  0.659750  1.0  0.1153
  H  H170  1  0.254160  0.285260  0.600080  1.0  0.1134
  H  H171  1  0.264050  0.234010  0.640040  1.0  0.114
  H  H172  1  0.375240  0.332200  0.701300  1.0  0.1195
  H  H173  1  0.258460  0.975930  0.906450  1.0  0.1101
  H  H174  1  0.355340  0.973260  0.828000  1.0  0.108
  H  H175  1  0.365430  0.034700  0.787850  1.0  0.1134
  H  H176  1  0.270540  0.037560  0.868180  1.0  0.1155
  H  H177  1  0.982390  0.615270  0.160120  1.0  0.1155
  H  H178  1  0.968000  0.713940  0.102200  1.0  0.1138
  H  H179  1  0.029380  0.765240  0.141890  1.0  0.1161
  H  H180  1  0.043600  0.667120  0.201410  1.0  0.1184
  H  H181  1  0.025720  0.642170  0.670860  1.0  0.1093
  H  H182  1  0.024170  0.739470  0.592020  1.0  0.1093
  H  H183  1  0.962810  0.728160  0.630510  1.0  0.1138
  H  H184  1  0.964820  0.633000  0.711090  1.0  0.1123
  H  H185  1  0.989580  0.312160  0.924530  1.0  0.112
  H  H186  1  0.061720  0.351260  0.802610  1.0  0.1121
  H  H187  1  0.999980  0.302030  0.760930  1.0  0.1136
  H  H188  1  0.928900  0.263720  0.882480  1.0  0.1127
  H  H189  1  0.636160  0.617630  0.338480  1.0  0.1133
  H  H190  1  0.748590  0.717310  0.396290  1.0  0.115
  H  H191  1  0.737420  0.768050  0.357090  1.0  0.1151
  H  H192  1  0.625590  0.669040  0.297660  1.0  0.1192
  H  H193  1  0.647400  0.936940  0.695770  1.0  0.1146
  H  H194  1  0.686280  0.009170  0.573900  1.0  0.1113
  H  H195  1  0.735020  0.069730  0.615980  1.0  0.1137
  H  H196  1  0.696820  0.998500  0.737440  1.0  0.1134
  H  H197  1  0.717850  0.741330  0.907150  1.0  0.1096
  H  H198  1  0.617980  0.643170  0.830150  1.0  0.1083
  H  H199  1  0.669240  0.633110  0.789860  1.0  0.1173
  H  H200  1  0.767320  0.729150  0.868830  1.0  0.1173
  H  H201  1  0.101330  0.309010  0.993430  1.0  0.1124
  H  H202  1  0.124300  0.429090  0.038390  1.0  0.1144
  H  H203  1  0.132560  0.411240  0.114720  1.0  0.1147
  H  H204  1  0.110500  0.291290  0.069820  1.0  0.1145
  H  H205  1  0.308100  0.435410  0.455110  1.0  0.1148
  H  H206  1  0.213150  0.315470  0.502960  1.0  0.1092
  H  H207  1  0.184940  0.296040  0.427290  1.0  0.1077
  H  H208  1  0.280630  0.415810  0.379350  1.0  0.1113
  H  H209  1  0.435210  0.307470  0.956310  1.0  0.1137
  H  H210  1  0.316480  0.211200  0.005360  1.0  0.1099
  H  H211  1  0.296430  0.183010  0.929780  1.0  0.1122
  H  H212  1  0.415010  0.279950  0.880620  1.0  0.1113
  H  H213  1  0.431440  0.125710  0.542510  1.0  0.111
  H  H214  1  0.311600  0.101470  0.495150  1.0  0.1113
  H  H215  1  0.292590  0.110500  0.571000  1.0  0.1133
  H  H216  1  0.412320  0.133820  0.618280  1.0  0.1123
  H  H217  1  0.773710  0.181870  0.994540  1.0  0.1123
  H  H218  1  0.702180  0.050250  0.965690  1.0  0.114
  H  H219  1  0.735150  0.062930  0.892170  1.0  0.1123
  H  H220  1  0.804930  0.194460  0.921110  1.0  0.1123
  H  H221  1  0.305870  0.873330  0.041760  1.0  0.1137
  H  H222  1  0.209530  0.896720  0.995010  1.0  0.1096
  H  H223  1  0.181750  0.887530  0.070960  1.0  0.1125
  H  H224  1  0.278830  0.865020  0.117700  1.0  0.1127
  H  H225  1  0.128720  0.693140  0.458050  1.0  0.1141
  H  H226  1  0.104530  0.788750  0.505450  1.0  0.1114
  H  H227  1  0.112860  0.816410  0.429590  1.0  0.1149
  H  H228  1  0.136190  0.720110  0.382070  1.0  0.1122
  H  H229  1  0.819030  0.221480  0.502400  1.0  0.1135
  H  H230  1  0.950260  0.294120  0.532870  1.0  0.1153
  H  H231  1  0.936890  0.261970  0.606890  1.0  0.1141
  H  H232  1  0.805740  0.191080  0.576280  1.0  0.1125
  H  H233  1  0.694110  0.568620  0.542970  1.0  0.1151
  H  H234  1  0.789830  0.688460  0.495730  1.0  0.1118
  H  H235  1  0.817890  0.707350  0.571590  1.0  0.1147
  H  H236  1  0.721370  0.587640  0.618750  1.0  0.1115
  H  H237  1  0.896830  0.683360  0.005070  1.0  0.1098
  H  H238  1  0.872940  0.564010  0.956420  1.0  0.113
  H  H239  1  0.865160  0.583960  0.880760  1.0  0.1129
  H  H240  1  0.888240  0.703140  0.929550  1.0  0.1156
  H  H241  1  0.687870  0.791580  0.995320  1.0  0.1103
  H  H242  1  0.568360  0.694790  0.042040  1.0  0.1119
  H  H243  1  0.587010  0.721740  0.118010  1.0  0.1128
  H  H244  1  0.706390  0.819300  0.071330  1.0  0.1133
  H  H245  1  0.687580  0.897220  0.505630  1.0  0.1125
  H  H246  1  0.567240  0.873120  0.460250  1.0  0.1124
  H  H247  1  0.585800  0.865720  0.383820  1.0  0.1152
  H  H248  1  0.705980  0.888960  0.429320  1.0  0.1121
  H  H249  1  0.332720  0.568730  0.288100  1.0  0.1155
  H  H250  1  0.236590  0.569060  0.206860  1.0  0.1147
  H  H251  1  0.198150  0.493120  0.207760  1.0  0.1145
  H  H252  1  0.295390  0.492870  0.286300  1.0  0.1095
  H  H253  1  0.332960  0.764220  0.209210  1.0  0.1132
  H  H254  1  0.235880  0.666667  0.288520  1.0  0.1137
  H  H255  1  0.197310  0.703930  0.287540  1.0  0.1088
  H  H256  1  0.295410  0.802570  0.210960  1.0  0.1166
  H  H257  1  0.431670  0.667870  0.208630  1.0  0.1141
  H  H258  1  0.430740  0.763480  0.290280  1.0  0.1158
  H  H259  1  0.506650  0.802160  0.289570  1.0  0.108
  H  H260  1  0.507560  0.705470  0.210650  1.0  0.1145
  H  H261  1  0.568120  0.235450  0.710420  1.0  0.1116
  H  H262  1  0.567700  0.333500  0.787990  1.0  0.1138
  H  H263  1  0.491820  0.295690  0.786820  1.0  0.1142
  H  H264  1  0.492210  0.196650  0.711960  1.0  0.1149
  H  H265  1  0.758410  0.329590  0.794770  1.0  0.1137
  H  H266  1  0.669940  0.241000  0.701490  1.0  0.1121
  H  H267  1  0.707800  0.202750  0.701810  1.0  0.1099
  H  H268  1  0.796550  0.291640  0.794830  1.0  0.1093
  H  H269  1  0.764010  0.430980  0.786290  1.0  0.114
  H  H270  1  0.666000  0.432200  0.709420  1.0  0.1125
  H  H271  1  0.703940  0.508120  0.711340  1.0  0.1148
  H  H272  1  0.802890  0.506850  0.785470  1.0  0.1115
  C  C273  1  0.022260  0.978440  0.249890  1.0  0.0164
  C  C274  1  0.978430  0.957130  0.250520  1.0  -0.1134
  C  C275  1  0.956470  0.979010  0.251160  1.0  0.011
  C  C276  1  0.979000  0.022920  0.251490  1.0  -0.1493
  C  C277  1  0.023180  0.045510  0.250530  1.0  0.0317
  C  C278  1  0.044220  0.022370  0.249570  1.0  -0.1475
  C  C279  1  0.043990  0.023560  0.750630  1.0  0.0629
  C  C280  1  0.020950  0.044700  0.748800  1.0  -0.1154
  C  C281  1  0.976670  0.023300  0.751110  1.0  0.0409
  C  C282  1  0.955750  0.979160  0.753940  1.0  -0.1417
  C  C283  1  0.977630  0.957170  0.753950  1.0  -0.004
  C  C284  1  0.021410  0.979550  0.752950  1.0  -0.1508
  C  C285  1  0.311360  0.622410  0.247920  1.0  0.0475
  C  C286  1  0.289840  0.644810  0.248030  1.0  -0.0729
  C  C287  1  0.311250  0.688720  0.248600  1.0  0.0454
  C  C288  1  0.355160  0.710240  0.249020  1.0  -0.0713
  C  C289  1  0.377680  0.688840  0.248900  1.0  0.0509
  C  C290  1  0.355280  0.644930  0.248330  1.0  -0.0763
  C  C291  1  0.621490  0.311520  0.748840  1.0  0.0442
  C  C292  1  0.643980  0.355510  0.748310  1.0  -0.0748
  C  C293  1  0.687960  0.378000  0.747700  1.0  0.0438
  C  C294  1  0.709360  0.355480  0.747120  1.0  -0.1194
  C  C295  1  0.687810  0.311670  0.748090  1.0  0.0543
  C  C296  1  0.644000  0.290110  0.749150  1.0  -0.1191
  C  C297  1  0.369880  0.303440  0.100530  1.0  0.04
  C  C298  1  0.408910  0.313250  0.119080  1.0  -0.1237
  C  C299  1  0.437970  0.305230  0.096400  1.0  0.0255
  C  C300  1  0.427470  0.289020  0.052450  1.0  -0.1231
  C  C301  1  0.389080  0.279380  0.032870  1.0  0.0122
  C  C302  1  0.360910  0.286500  0.057100  1.0  -0.1468
  C  C303  1  0.384930  0.108010  0.466560  1.0  0.0658
  C  C304  1  0.423320  0.137710  0.447830  1.0  -0.0855
  C  C305  1  0.434500  0.132850  0.404240  1.0  0.0228
  C  C306  1  0.406660  0.097240  0.379540  1.0  -0.104
  C  C307  1  0.367830  0.067280  0.397400  1.0  0.0178
  C  C308  1  0.357610  0.073130  0.441060  1.0  -0.1604
  C  C309  1  0.715730  0.107700  0.032190  1.0  0.0065
  C  C310  1  0.706900  0.136950  0.052430  1.0  -0.0786
  C  C311  1  0.691460  0.131790  0.096700  1.0  -0.0231
  C  C312  1  0.683880  0.095020  0.119590  1.0  -0.117
  C  C313  1  0.692580  0.065540  0.100330  1.0  0.0087
  C  C314  1  0.708250  0.072250  0.056600  1.0  -0.095
  C  C315  1  0.303490  0.370190  0.599690  1.0  -0.0147
  C  C316  1  0.312290  0.408640  0.618370  1.0  -0.1148
  C  C317  1  0.304450  0.437140  0.594790  1.0  -0.0131
  C  C318  1  0.288900  0.426830  0.550800  1.0  -0.0957
  C  C319  1  0.280200  0.388650  0.531230  1.0  0.0193
  C  C320  1  0.287590  0.360810  0.556000  1.0  -0.1592
  C  C321  1  0.110050  0.721430  0.534080  1.0  0.0224
  C  C322  1  0.074690  0.714150  0.558500  1.0  -0.1391
  C  C323  1  0.067010  0.697530  0.602200  1.0  -0.0097
  C  C324  1  0.096450  0.687850  0.620590  1.0  -0.0948
  C  C325  1  0.133110  0.695930  0.597390  1.0  -0.0133
  C  C326  1  0.139050  0.712230  0.553740  1.0  -0.0919
  C  C327  1  0.107760  0.381860  0.963130  1.0  0.0227
  C  C328  1  0.138060  0.419810  0.944260  1.0  -0.1123
  C  C329  1  0.134210  0.430470  0.900180  1.0  0.0181
  C  C330  1  0.099260  0.402340  0.874820  1.0  -0.1503
  C  C331  1  0.067780  0.364160  0.893000  1.0  0.031
  C  C332  1  0.072940  0.354580  0.937430  1.0  -0.1479
  C  C333  1  0.893170  0.279830  0.465580  1.0  0.0223
  C  C334  1  0.928960  0.288240  0.441180  1.0  -0.1169
  C  C335  1  0.936120  0.304610  0.397240  1.0  0.0463
  C  C336  1  0.906200  0.313590  0.378790  1.0  -0.1249
  C  C337  1  0.869770  0.304960  0.402350  1.0  0.0015
  C  C338  1  0.863850  0.288370  0.445630  1.0  -0.1161
  C  C339  1  0.699290  0.632490  0.398010  1.0  0.0201
  C  C340  1  0.690350  0.593670  0.380060  1.0  -0.1049
  C  C341  1  0.698040  0.565740  0.404660  1.0  0.023
  C  C342  1  0.714140  0.576830  0.448250  1.0  -0.0844
  C  C343  1  0.722920  0.615220  0.467070  1.0  0.065
  C  C344  1  0.715410  0.642620  0.441660  1.0  -0.1578
  C  C345  1  0.891290  0.610350  0.032850  1.0  0.0114
  C  C346  1  0.861960  0.572030  0.052330  1.0  -0.116
  C  C347  1  0.866690  0.561590  0.096710  1.0  -0.0066
  C  C348  1  0.903280  0.590700  0.120030  1.0  -0.1191
  C  C349  1  0.932850  0.629100  0.101230  1.0  0.0093
  C  C350  1  0.926320  0.638370  0.057620  1.0  -0.1577
  C  C351  1  0.614680  0.890630  0.535730  1.0  0.0106
  C  C352  1  0.576900  0.860420  0.555250  1.0  -0.0962
  C  C353  1  0.567020  0.864350  0.599780  1.0  -0.0158
  C  C354  1  0.595780  0.899840  0.624280  1.0  -0.1251
  C  C355  1  0.633710  0.931030  0.605550  1.0  0.0431
  C  C356  1  0.642460  0.925600  0.560980  1.0  -0.1477
  C  C357  1  0.276710  0.891120  0.966000  1.0  0.03
  C  C358  1  0.283960  0.926120  0.940960  1.0  -0.1373
  C  C359  1  0.300400  0.933100  0.897120  1.0  0.0499
  C  C360  1  0.310010  0.903380  0.879280  1.0  -0.1214
  C  C361  1  0.302220  0.867470  0.903530  1.0  0.0009
  C  C362  1  0.285870  0.861960  0.946970  1.0  -0.1179
  C  C363  1  0.633010  0.699160  0.898270  1.0  -0.0162
  C  C364  1  0.593640  0.689320  0.880380  1.0  -0.1019
  C  C365  1  0.565440  0.697910  0.903850  1.0  0.0354
  C  C366  1  0.577030  0.715240  0.947110  1.0  -0.1465
  C  C367  1  0.615230  0.724190  0.966290  1.0  0.0093
  C  C368  1  0.642700  0.716290  0.941720  1.0  -0.1382
  C  C369  1  0.588110  0.331010  0.186950  1.0  0.7046
  C  C370  1  0.741480  0.411640  0.186550  1.0  0.7039
  C  C371  1  0.674290  0.414570  0.317230  1.0  0.699
  C  C372  1  0.740280  0.326340  0.316070  1.0  0.6977
  C  C373  1  0.668170  0.257720  0.187110  1.0  0.7062
  C  C374  1  0.585790  0.260850  0.317570  1.0  0.6972
  C  C375  1  0.261380  0.584580  0.817170  1.0  0.7017
  C  C376  1  0.330330  0.588100  0.686650  1.0  0.7113
  C  C377  1  0.258990  0.670000  0.688130  1.0  0.7095
  C  C378  1  0.413380  0.740700  0.688690  1.0  0.7048
  C  C379  1  0.414860  0.673260  0.817790  1.0  0.7085
  C  C380  1  0.326220  0.739270  0.817720  1.0  0.7001
  C  C381  1  0.246960  0.327380  0.195320  1.0  0.6765
  C  C382  1  0.220640  0.440650  0.246920  1.0  0.7127
  C  C383  1  0.130670  0.340690  0.144690  1.0  0.7044
  C  C384  1  0.081850  0.327920  0.300670  1.0  0.6753
  C  C385  1  0.212510  0.343700  0.351180  1.0  0.703
  C  C386  1  0.113760  0.225690  0.249470  1.0  0.6974
  C  C387  1  0.342930  0.211410  0.852980  1.0  0.6981
  C  C388  1  0.439610  0.219870  0.749370  1.0  0.7029
  C  C389  1  0.325560  0.080230  0.801940  1.0  0.6746
  C  C390  1  0.340870  0.130750  0.646780  1.0  0.7039
  C  C391  1  0.326290  0.246270  0.697160  1.0  0.7073
  C  C392  1  0.224420  0.113360  0.750490  1.0  0.7011
  C  C393  1  0.245400  0.919070  0.301390  1.0  0.707
  C  C394  1  0.220080  0.779310  0.249480  1.0  0.7111
  C  C395  1  0.132000  0.788050  0.353430  1.0  0.7043
  C  C396  1  0.080110  0.752980  0.197870  1.0  0.7058
  C  C397  1  0.210330  0.867810  0.146590  1.0  0.6996
  C  C398  1  0.111920  0.886190  0.250270  1.0  0.7074
  C  C399  1  0.673820  0.755060  0.301880  1.0  0.7106
  C  C400  1  0.559450  0.780200  0.250390  1.0  0.7128
  C  C401  1  0.657330  0.869260  0.354040  1.0  0.7011
  C  C402  1  0.672100  0.919900  0.198100  1.0  0.7048
  C  C403  1  0.658090  0.790420  0.146980  1.0  0.6972
  C  C404  1  0.774590  0.888850  0.250630  1.0  0.707
  C  C405  1  0.750580  0.077060  0.704770  1.0  0.7162
  C  C406  1  0.885150  0.113210  0.750200  1.0  0.6788
  C  C407  1  0.860500  0.205890  0.643600  1.0  0.7089
  C  C408  1  0.921520  0.248140  0.793800  1.0  0.7145
  C  C409  1  0.791570  0.138980  0.854890  1.0  0.7088
  C  C410  1  0.778440  0.220760  0.748560  1.0  0.7054
  C  C411  1  0.789790  0.659010  0.647330  1.0  0.6987
  C  C412  1  0.779930  0.559890  0.748930  1.0  0.7142
  C  C413  1  0.920150  0.673730  0.697420  1.0  0.7016
  C  C414  1  0.868810  0.656080  0.853110  1.0  0.7024
  C  C415  1  0.754740  0.673650  0.803030  1.0  0.6819
  C  C416  1  0.888150  0.775050  0.751840  1.0  0.7065
  C  C417  1  0.479360  0.313670  0.164890  1.0  -0.1202
  C  C418  1  0.475810  0.312240  0.117880  1.0  0.005
  C  C419  1  0.511010  0.317260  0.093680  1.0  -0.1191
  C  C420  1  0.547540  0.323630  0.115480  1.0  -0.0892
  C  C421  1  0.550430  0.325420  0.162190  1.0  -0.1009
  C  C422  1  0.515710  0.320360  0.186300  1.0  -0.0814
  C  C423  1  0.500610  0.155090  0.360220  1.0  -0.1449
  C  C424  1  0.474490  0.165720  0.383930  1.0  0.038
  C  C425  1  0.486380  0.208100  0.387220  1.0  -0.1425
  C  C426  1  0.522760  0.238900  0.366430  1.0  -0.0801
  C  C427  1  0.548770  0.228310  0.342410  1.0  -0.117
  C  C428  1  0.537470  0.185990  0.340110  1.0  -0.0773
  C  C429  1  0.679880  0.193090  0.093960  1.0  -0.1134
  C  C430  1  0.684890  0.162900  0.118170  1.0  0.0483
  C  C431  1  0.683920  0.165300  0.165180  1.0  -0.1006
  C  C432  1  0.677940  0.195420  0.186580  1.0  -0.0808
  C  C433  1  0.673080  0.225200  0.162420  1.0  -0.1005
  C  C434  1  0.674220  0.223680  0.115720  1.0  -0.0858
  C  C435  1  0.304280  0.476740  0.663330  1.0  -0.1242
  C  C436  1  0.310840  0.476420  0.617180  1.0  0.0261
  C  C437  1  0.323190  0.513730  0.593370  1.0  -0.1222
  C  C438  1  0.329210  0.550080  0.615250  1.0  -0.104
  C  C439  1  0.323630  0.550250  0.661600  1.0  -0.1051
  C  C440  1  0.310930  0.512930  0.685080  1.0  -0.0812
  C  C441  1  0.794480  0.280190  0.384020  1.0  -0.1304
  C  C442  1  0.836700  0.311310  0.381170  1.0  0.064
  C  C443  1  0.846800  0.348090  0.357820  1.0  -0.1431
  C  C444  1  0.815510  0.353570  0.337910  1.0  -0.0902
  C  C445  1  0.773330  0.322080  0.340110  1.0  -0.1194
  C  C446  1  0.763330  0.285350  0.363510  1.0  -0.0772
  C  C447  1  0.654050  0.499850  0.360340  1.0  -0.1445
  C  C448  1  0.690780  0.525750  0.384200  1.0  0.039
  C  C449  1  0.721150  0.513690  0.387400  1.0  -0.1417
  C  C450  1  0.715470  0.477360  0.366380  1.0  -0.0786
  C  C451  1  0.678890  0.451580  0.342200  1.0  -0.1169
  C  C452  1  0.648000  0.463060  0.339980  1.0  -0.0796
  C  C453  1  0.832880  0.520360  0.164910  1.0  -0.1145
  C  C454  1  0.835510  0.523840  0.117930  1.0  0.0543
  C  C455  1  0.805560  0.488650  0.093530  1.0  -0.1038
  C  C456  1  0.775150  0.452140  0.115150  1.0  -0.0834
  C  C457  1  0.773590  0.449310  0.161860  1.0  -0.0947
  C  C458  1  0.802990  0.484060  0.186140  1.0  -0.0799
  C  C459  1  0.191130  0.677350  0.595610  1.0  -0.1392
  C  C460  1  0.165790  0.689040  0.619760  1.0  -0.0164
  C  C461  1  0.172420  0.694780  0.666040  1.0  -0.1272
  C  C462  1  0.202190  0.688180  0.687480  1.0  -0.082
  C  C463  1  0.227320  0.676380  0.663580  1.0  -0.1089
  C  C464  1  0.221670  0.671420  0.617170  1.0  -0.0997
  C  C465  1  0.209370  0.483900  0.884800  1.0  -0.1386
  C  C466  1  0.166810  0.470980  0.880550  1.0  0.0453
  C  C467  1  0.155760  0.496900  0.857040  1.0  -0.1321
  C  C468  1  0.186420  0.534510  0.837980  1.0  -0.0766
  C  C469  1  0.228950  0.546860  0.841200  1.0  -0.108
  C  C470  1  0.239950  0.521060  0.865060  1.0  -0.0774
  C  C471  1  0.526190  0.823460  0.667300  1.0  -0.1123
  C  C472  1  0.527180  0.831550  0.621370  1.0  -0.015
  C  C473  1  0.489820  0.808250  0.597060  1.0  -0.1125
  C  C474  1  0.452790  0.778390  0.618260  1.0  -0.0943
  C  C475  1  0.451960  0.771500  0.664430  1.0  -0.1054
  C  C476  1  0.489320  0.794410  0.688410  1.0  -0.0763
  C  C477  1  0.346150  0.845340  0.859120  1.0  -0.1383
  C  C478  1  0.309410  0.834690  0.882880  1.0  0.0559
  C  C479  1  0.279070  0.792240  0.886330  1.0  -0.1282
  C  C480  1  0.284850  0.761430  0.865880  1.0  -0.0772
  C  C481  1  0.321500  0.772010  0.841960  1.0  -0.1134
  C  C482  1  0.352290  0.814410  0.839290  1.0  -0.0829
  C  C483  1  0.505900  0.658610  0.852010  1.0  -0.1288
  C  C484  1  0.527050  0.690410  0.884040  1.0  0.0348
  C  C485  1  0.509010  0.715090  0.895100  1.0  -0.0983
  C  C486  1  0.472600  0.709220  0.874060  1.0  -0.0924
  C  C487  1  0.451940  0.677610  0.842290  1.0  -0.0918
  C  C488  1  0.468720  0.651970  0.832080  1.0  -0.0867
  C  C489  1  0.075160  0.962190  0.282860  1.0  -0.1492
  C  C490  1  0.045200  0.954780  0.249990  1.0  0.0609
  C  C491  1  0.037230  0.924500  0.217310  1.0  -0.1385
  C  C492  1  0.059160  0.902630  0.217100  1.0  -0.0866
  C  C493  1  0.088800  0.909650  0.250300  1.0  -0.0954
  C  C494  1  0.096280  0.939530  0.283370  1.0  -0.0863
  C  C495  1  0.084720  0.112920  0.228810  1.0  -0.1091
  C  C496  1  0.045730  0.090140  0.250470  1.0  0.0507
  C  C497  1  0.029940  0.113360  0.271980  1.0  -0.1135
  C  C498  1  0.052430  0.157130  0.272500  1.0  -0.097
  C  C499  1  0.090580  0.179290  0.250000  1.0  -0.0656
  C  C500  1  0.106260  0.156700  0.227820  1.0  -0.1015
  C  C501  1  0.887650  0.964100  0.218440  1.0  -0.1442
  C  C502  1  0.909880  0.955970  0.251080  1.0  0.059
  C  C503  1  0.887250  0.925630  0.283580  1.0  -0.1434
  C  C504  1  0.843470  0.904340  0.283800  1.0  -0.088
  C  C505  1  0.821160  0.912030  0.250800  1.0  -0.0928
  C  C506  1  0.843860  0.942030  0.217940  1.0  -0.091
  C  C507  1  0.111760  0.084410  0.728060  1.0  -0.1184
  C  C508  1  0.088680  0.045920  0.750580  1.0  0.0395
  C  C509  1  0.111670  0.030450  0.773240  1.0  -0.1136
  C  C510  1  0.155460  0.052760  0.774010  1.0  -0.0977
  C  C511  1  0.177940  0.090400  0.750690  1.0  -0.064
  C  C512  1  0.155590  0.105750  0.727360  1.0  -0.1109
  C  C513  1  0.913460  0.028130  0.769350  1.0  -0.1218
  C  C514  1  0.953950  0.045480  0.750790  1.0  0.0536
  C  C515  1  0.970950  0.085820  0.731980  1.0  -0.1279
  C  C516  1  0.948710  0.107390  0.731660  1.0  -0.0648
  C  C517  1  0.908680  0.089930  0.750430  1.0  -0.1012
  C  C518  1  0.891480  0.049990  0.769340  1.0  -0.0587
  C  C519  1  0.962480  0.888580  0.720280  1.0  -0.144
  C  C520  1  0.954660  0.910490  0.753590  1.0  0.0623
  C  C521  1  0.924750  0.887480  0.786340  1.0  -0.1428
  C  C522  1  0.903670  0.843650  0.786160  1.0  -0.088
  C  C523  1  0.911110  0.821680  0.752500  1.0  -0.0943
  C  C524  1  0.940620  0.844790  0.719400  1.0  -0.09
  C  C525  1  0.351810  0.339860  0.159180  1.0  -0.1151
  C  C526  1  0.340050  0.309800  0.124740  1.0  0.029
  C  C527  1  0.297000  0.285700  0.115210  1.0  -0.1072
  C  C528  1  0.267530  0.291600  0.138170  1.0  -0.0839
  C  C529  1  0.279440  0.321750  0.171860  1.0  -0.1017
  C  C530  1  0.322020  0.345750  0.182190  1.0  -0.0742
  C  C531  1  0.988900  0.339590  0.336810  1.0  -0.1019
  C  C532  1  0.971790  0.310590  0.372320  1.0  0.0106
  C  C533  1  0.991420  0.287190  0.382220  1.0  -0.0999
  C  C534  1  0.026530  0.293030  0.358870  1.0  -0.0834
  C  C535  1  0.043840  0.322360  0.324310  1.0  -0.1044
  C  C536  1  0.024420  0.345470  0.313380  1.0  -0.0943
  C  C537  1  0.294260  0.015610  0.374700  1.0  -0.1316
  C  C538  1  0.337210  0.030320  0.370650  1.0  0.0213
  C  C539  1  0.350040  0.008880  0.341730  1.0  -0.1283
  C  C540  1  0.320600  0.973160  0.318500  1.0  -0.0635
  C  C541  1  0.277630  0.957940  0.323790  1.0  -0.1204
  C  C542  1  0.265050  0.980000  0.351890  1.0  -0.0828
  C  C543  1  0.716140  0.014880  0.122370  1.0  -0.1415
  C  C544  1  0.687000  0.028460  0.126430  1.0  0.0469
  C  C545  1  0.653070  0.006430  0.155660  1.0  -0.1361
  C  C546  1  0.648290  0.971620  0.179600  1.0  -0.071
  C  C547  1  0.677170  0.957780  0.174700  1.0  -0.1155
  C  C548  1  0.711220  0.980110  0.145880  1.0  -0.0776
  C  C549  1  0.343290  0.351420  0.655570  1.0  -0.1291
  C  C550  1  0.309520  0.339060  0.625980  1.0  0.0399
  C  C551  1  0.281130  0.296180  0.621480  1.0  -0.1283
  C  C552  1  0.286670  0.266640  0.644810  1.0  -0.0761
  C  C553  1  0.320620  0.278800  0.673890  1.0  -0.117
  C  C554  1  0.348710  0.321670  0.679300  1.0  -0.0591
  C  C555  1  0.283130  0.988490  0.881980  1.0  -0.105
  C  C556  1  0.306470  0.968780  0.872130  1.0  -0.0243
  C  C557  1  0.335790  0.986090  0.836920  1.0  -0.1061
  C  C558  1  0.342190  0.022030  0.813950  1.0  -0.0837
  C  C559  1  0.319280  0.041660  0.824990  1.0  -0.1012
  C  C560  1  0.289470  0.024000  0.859070  1.0  -0.0858
  C  C561  1  0.992000  0.647890  0.156310  1.0  -0.1315
  C  C562  1  0.970150  0.660230  0.127320  1.0  0.035
  C  C563  1  0.984350  0.703070  0.123200  1.0  -0.1383
  C  C564  1  0.019570  0.732620  0.146360  1.0  -0.0865
  C  C565  1  0.041750  0.720470  0.174870  1.0  -0.1136
  C  C566  1  0.027260  0.677630  0.179890  1.0  -0.0675
  C  C567  1  0.013340  0.662100  0.661890  1.0  -0.1172
  C  C568  1  0.031000  0.691410  0.626690  1.0  0.0272
  C  C569  1  0.011500  0.714930  0.616640  1.0  -0.1064
  C  C570  1  0.976150  0.709050  0.639670  1.0  -0.0846
  C  C571  1  0.958410  0.679490  0.673990  1.0  -0.1034
  C  C572  1  0.977610  0.656170  0.684930  1.0  -0.086
  C  C573  1  0.993230  0.310240  0.889020  1.0  -0.1211
  C  C574  1  0.031750  0.336170  0.867750  1.0  0.0342
  C  C575  1  0.032990  0.333020  0.820810  1.0  -0.1058
  C  C576  1  0.997620  0.304260  0.796650  1.0  -0.0844
  C  C577  1  0.959530  0.278970  0.818340  1.0  -0.0986
  C  C578  1  0.957790  0.282700  0.864700  1.0  -0.0767
  C  C579  1  0.658740  0.650370  0.342360  1.0  -0.1348
  C  C580  1  0.692980  0.663160  0.371330  1.0  0.021
  C  C581  1  0.721250  0.706100  0.375410  1.0  -0.1313
  C  C582  1  0.714940  0.735340  0.352560  1.0  -0.0866
  C  C583  1  0.680350  0.722790  0.324370  1.0  -0.1203
  C  C584  1  0.652540  0.679840  0.319080  1.0  -0.0706
  C  C585  1  0.665620  0.965680  0.677570  1.0  -0.1123
  C  C586  1  0.662190  0.966990  0.630650  1.0  0.0343
  C  C587  1  0.688260  0.005480  0.609390  1.0  -0.1179
  C  C588  1  0.716000  0.040840  0.633740  1.0  -0.0876
  C  C589  1  0.719810  0.039050  0.680110  1.0  -0.0966
  C  C590  1  0.694520  0.000950  0.701740  1.0  -0.0878
  C  C591  1  0.705650  0.716380  0.882990  1.0  -0.104
  C  C592  1  0.662540  0.692790  0.873490  1.0  0.0238
  C  C593  1  0.650410  0.663030  0.838710  1.0  -0.1082
  C  C594  1  0.679900  0.656620  0.815670  1.0  -0.0835
  C  C595  1  0.722510  0.679880  0.826270  1.0  -0.1081
  C  C596  1  0.734770  0.709980  0.860050  1.0  -0.0883
  C  C597  1  0.107890  0.331420  0.019760  1.0  -0.1327
  C  C598  1  0.112310  0.370560  0.009820  1.0  0.0531
  C  C599  1  0.121030  0.398860  0.044880  1.0  -0.15
  C  C600  1  0.125370  0.388400  0.088700  1.0  -0.0769
  C  C601  1  0.121930  0.349640  0.098620  1.0  -0.124
  C  C602  1  0.113120  0.321270  0.063510  1.0  -0.09
  C  C603  1  0.281250  0.404910  0.449420  1.0  -0.149
  C  C604  1  0.262790  0.377090  0.485090  1.0  0.0389
  C  C605  1  0.228170  0.337560  0.476160  1.0  -0.1374
  C  C606  1  0.212040  0.326390  0.432800  1.0  -0.0846
  C  C607  1  0.230720  0.354100  0.397010  1.0  -0.1269
  C  C608  1  0.265710  0.393430  0.405930  1.0  -0.0738
  C  C609  1  0.404890  0.280270  0.950910  1.0  -0.1477
  C  C610  1  0.377570  0.261490  0.986890  1.0  0.0452
  C  C611  1  0.338220  0.226440  0.978320  1.0  -0.137
  C  C612  1  0.326670  0.210360  0.935010  1.0  -0.0887
  C  C613  1  0.353800  0.229440  0.898880  1.0  -0.1179
  C  C614  1  0.393040  0.264720  0.907470  1.0  -0.0783
  C  C615  1  0.401030  0.122220  0.548340  1.0  -0.1432
  C  C616  1  0.373150  0.113110  0.512800  1.0  0.0566
  C  C617  1  0.333720  0.108370  0.521880  1.0  -0.1367
  C  C618  1  0.322810  0.113490  0.565310  1.0  -0.0878
  C  C619  1  0.350710  0.122510  0.600930  1.0  -0.1187
  C  C620  1  0.389830  0.126450  0.591830  1.0  -0.0745
  C  C621  1  0.764220  0.155530  0.972520  1.0  -0.1331
  C  C622  1  0.734810  0.115070  0.986410  1.0  0.0394
  C  C623  1  0.724960  0.081860  0.956620  1.0  -0.126
  C  C624  1  0.743800  0.089050  0.914320  1.0  -0.0929
  C  C625  1  0.772660  0.129690  0.900460  1.0  -0.1308
  C  C626  1  0.782570  0.162710  0.930300  1.0  -0.0789
  C  C627  1  0.278810  0.876550  0.047740  1.0  -0.1418
  C  C628  1  0.259790  0.885520  0.012320  1.0  0.0557
  C  C629  1  0.224940  0.889920  0.021630  1.0  -0.1328
  C  C630  1  0.209060  0.884720  0.065130  1.0  -0.0812
  C  C631  1  0.228220  0.875920  0.100640  1.0  -0.1176
  C  C632  1  0.263500  0.872220  0.091340  1.0  -0.0815
  C  C633  1  0.125230  0.720060  0.452230  1.0  -0.1598
  C  C634  1  0.116170  0.738830  0.487850  1.0  0.0315
  C  C635  1  0.111410  0.773510  0.478720  1.0  -0.1392
  C  C636  1  0.116080  0.789310  0.435230  1.0  -0.0901
  C  C637  1  0.124710  0.770270  0.399470  1.0  -0.1216
  C  C638  1  0.129030  0.735300  0.408610  1.0  -0.0735
  C  C639  1  0.845140  0.231280  0.524850  1.0  -0.1357
  C  C640  1  0.885690  0.260780  0.511310  1.0  0.0203
  C  C641  1  0.918620  0.271190  0.541640  1.0  -0.1132
  C  C642  1  0.911020  0.252870  0.584240  1.0  -0.0886
  C  C643  1  0.870260  0.224050  0.597780  1.0  -0.1281
  C  C644  1  0.837550  0.213460  0.567330  1.0  -0.0802
  C  C645  1  0.721070  0.599010  0.548830  1.0  -0.1461
  C  C646  1  0.739860  0.626920  0.513310  1.0  0.0556
  C  C647  1  0.774590  0.666310  0.522440  1.0  -0.1392
  C  C648  1  0.790630  0.677160  0.565870  1.0  -0.0902
  C  C649  1  0.771730  0.649240  0.601460  1.0  -0.1186
  C  C650  1  0.736510  0.610150  0.592330  1.0  -0.0795
  C  C651  1  0.890010  0.661460  0.978120  1.0  -0.1363
  C  C652  1  0.885390  0.622010  0.986780  1.0  0.0539
  C  C653  1  0.876360  0.594440  0.950930  1.0  -0.1487
  C  C654  1  0.872360  0.606130  0.907510  1.0  -0.0838
  C  C655  1  0.876470  0.645400  0.898860  1.0  -0.1127
  C  C656  1  0.885170  0.672840  0.934840  1.0  -0.0985
  C  C657  1  0.665690  0.776080  0.021940  1.0  -0.1343
  C  C658  1  0.626500  0.741140  0.012610  1.0  0.0716
  C  C659  1  0.598570  0.721950  0.048040  1.0  -0.1516
  C  C660  1  0.609510  0.737200  0.091650  1.0  -0.0805
  C  C661  1  0.648410  0.772590  0.100990  1.0  -0.1217
  C  C662  1  0.676320  0.791900  0.065470  1.0  -0.0891
  C  C663  1  0.665200  0.890520  0.479230  1.0  -0.1361
  C  C664  1  0.625850  0.885670  0.489060  1.0  0.0522
  C  C665  1  0.597640  0.876750  0.453860  1.0  -0.1511
  C  C666  1  0.608510  0.872930  0.409990  1.0  -0.0609
  C  C667  1  0.647610  0.877090  0.400190  1.0  -0.1171
  C  C668  1  0.675770  0.885840  0.435490  1.0  -0.0868
  C  C669  1  0.303860  0.552890  0.269580  1.0  -0.1335
  C  C670  1  0.288020  0.575610  0.247500  1.0  0.0536
  C  C671  1  0.249590  0.553060  0.225130  1.0  -0.1326
  C  C672  1  0.227580  0.509390  0.225290  1.0  -0.0758
  C  C673  1  0.243770  0.486970  0.246970  1.0  -0.0972
  C  C674  1  0.282280  0.509250  0.268890  1.0  -0.0767
  C  C675  1  0.303830  0.750890  0.227270  1.0  -0.1344
  C  C676  1  0.287780  0.712060  0.248820  1.0  0.051
  C  C677  1  0.249050  0.695800  0.270620  1.0  -0.1174
  C  C678  1  0.226950  0.717370  0.270410  1.0  -0.0799
  C  C679  1  0.243340  0.756250  0.249280  1.0  -0.099
  C  C680  1  0.282140  0.772860  0.227920  1.0  -0.0803
  C  C681  1  0.447370  0.696680  0.227270  1.0  -0.1353
  C  C682  1  0.424480  0.712310  0.249380  1.0  0.0595
  C  C683  1  0.446860  0.750660  0.271940  1.0  -0.1193
  C  C684  1  0.490530  0.772800  0.271900  1.0  -0.0767
  C  C685  1  0.513130  0.756840  0.250170  1.0  -0.1077
  C  C686  1  0.491030  0.718400  0.228080  1.0  -0.0733
  C  C687  1  0.552110  0.248790  0.728050  1.0  -0.1407
  C  C688  1  0.574660  0.287900  0.749160  1.0  0.0537
  C  C689  1  0.551900  0.304110  0.770440  1.0  -0.1186
  C  C690  1  0.508220  0.282240  0.770120  1.0  -0.0674
  C  C691  1  0.485960  0.243120  0.749380  1.0  -0.101
  C  C692  1  0.508440  0.226550  0.728600  1.0  -0.0786
  C  C693  1  0.747230  0.302130  0.774070  1.0  -0.1297
  C  C694  1  0.711090  0.288390  0.748120  1.0  0.0644
  C  C695  1  0.697370  0.252200  0.722250  1.0  -0.1334
  C  C696  1  0.719240  0.230400  0.722250  1.0  -0.0793
  C  C697  1  0.755300  0.244060  0.748340  1.0  -0.1088
  C  C698  1  0.768970  0.280210  0.774280  1.0  -0.0703
  C  C699  1  0.750700  0.447160  0.768930  1.0  -0.1352
  C  C700  1  0.711600  0.424840  0.747780  1.0  0.0474
  C  C701  1  0.695420  0.447830  0.726950  1.0  -0.1169
  C  C702  1  0.717340  0.491520  0.727700  1.0  -0.0754
  C  C703  1  0.756490  0.513540  0.748440  1.0  -0.1078
  C  C704  1  0.772990  0.490820  0.768820  1.0  -0.0756
  O  O705  1  0.666320  0.333680  0.251840  1.0  -1.2215
  O  O706  1  0.589050  0.336190  0.228890  1.0  -0.612
  O  O707  1  0.710440  0.381620  0.166690  1.0  -0.6072
  O  O708  1  0.706650  0.412270  0.308370  1.0  -0.6272
  O  O709  1  0.617920  0.329640  0.167080  1.0  -0.6101
  O  O710  1  0.638530  0.386440  0.303850  1.0  -0.624
  O  O711  1  0.745640  0.410910  0.228500  1.0  -0.6044
  O  O712  1  0.705510  0.293850  0.307820  1.0  -0.6199
  O  O713  1  0.669650  0.288920  0.167130  1.0  -0.6121
  O  O714  1  0.747450  0.361990  0.302890  1.0  -0.6268
  O  O715  1  0.663420  0.253780  0.229090  1.0  -0.6084
  O  O716  1  0.614150  0.253440  0.304470  1.0  -0.6237
  O  O717  1  0.587840  0.295350  0.308450  1.0  -0.6215
  O  O718  1  0.334110  0.666110  0.752660  1.0  -1.2603
  O  O719  1  0.253510  0.612690  0.804170  1.0  -0.621
  O  O720  1  0.335830  0.588690  0.728470  1.0  -0.6037
  O  O721  1  0.290160  0.671380  0.668150  1.0  -0.6086
  O  O722  1  0.296290  0.587370  0.808510  1.0  -0.6189
  O  O723  1  0.254460  0.664190  0.729980  1.0  -0.6153
  O  O724  1  0.329490  0.618360  0.667190  1.0  -0.6094
  O  O725  1  0.412430  0.744890  0.730630  1.0  -0.6153
  O  O726  1  0.387440  0.637860  0.802830  1.0  -0.6152
  O  O727  1  0.382900  0.710480  0.668400  1.0  -0.6151
  O  O728  1  0.411840  0.705530  0.810890  1.0  -0.6158
  O  O729  1  0.361970  0.746950  0.804160  1.0  -0.623
  O  O730  1  0.293950  0.704250  0.809670  1.0  -0.617
  O  O731  1  0.167350  0.333530  0.248010  1.0  -1.265
  O  O732  1  0.209320  0.305120  0.182950  1.0  -0.6213
  O  O733  1  0.240570  0.421260  0.252400  1.0  -0.6331
  O  O734  1  0.129770  0.362510  0.176930  1.0  -0.6332
  O  O735  1  0.256580  0.353890  0.226670  1.0  -0.6202
  O  O736  1  0.140830  0.312920  0.151050  1.0  -0.6314
  O  O737  1  0.181300  0.421070  0.241600  1.0  -0.6285
  O  O738  1  0.097700  0.306230  0.313600  1.0  -0.6104
  O  O739  1  0.234800  0.364610  0.318290  1.0  -0.6313
  O  O740  1  0.098240  0.353810  0.268700  1.0  -0.6158
  O  O741  1  0.174580  0.315580  0.345600  1.0  -0.6307
  O  O742  1  0.118490  0.245610  0.285610  1.0  -0.5998
  O  O743  1  0.128460  0.244820  0.212830  1.0  -0.5999
  O  O744  1  0.332370  0.166560  0.749800  1.0  -1.2577
  O  O745  1  0.314560  0.173560  0.847350  1.0  -0.6258
  O  O746  1  0.420170  0.239830  0.753930  1.0  -0.6295
  O  O747  1  0.352010  0.096990  0.770510  1.0  -0.615
  O  O748  1  0.363710  0.233790  0.820080  1.0  -0.6386
  O  O749  1  0.303950  0.096200  0.814810  1.0  -0.6159
  O  O750  1  0.420050  0.180430  0.744860  1.0  -0.6306
  O  O751  1  0.312800  0.140600  0.652680  1.0  -0.6276
  O  O752  1  0.352830  0.255840  0.728470  1.0  -0.6154
  O  O753  1  0.362270  0.129700  0.679340  1.0  -0.6321
  O  O754  1  0.304090  0.208670  0.684640  1.0  -0.6181
  O  O755  1  0.243820  0.127630  0.713890  1.0  -0.6006
  O  O756  1  0.244130  0.118300  0.786860  1.0  -0.6027
  O  O757  1  0.166160  0.832500  0.249910  1.0  -1.2514
  O  O758  1  0.207870  0.903220  0.314340  1.0  -0.6151
  O  O759  1  0.239900  0.818730  0.244960  1.0  -0.6309
  O  O760  1  0.130400  0.765520  0.320660  1.0  -0.6329
  O  O761  1  0.255140  0.902010  0.270330  1.0  -0.6166
  O  O762  1  0.141480  0.825870  0.347540  1.0  -0.6246
  O  O763  1  0.180680  0.759260  0.254190  1.0  -0.6227
  O  O764  1  0.095530  0.790550  0.185230  1.0  -0.6192
  O  O765  1  0.232900  0.869130  0.179160  1.0  -0.6357
  O  O766  1  0.097220  0.743390  0.229040  1.0  -0.6145
  O  O767  1  0.172430  0.857930  0.152600  1.0  -0.6299
  O  O768  1  0.117570  0.872300  0.213670  1.0  -0.629
  O  O769  1  0.125850  0.880430  0.286810  1.0  -0.6315
  O  O770  1  0.666667  0.834420  0.250410  1.0  -1.2569
  O  O771  1  0.695560  0.792580  0.314820  1.0  -0.6169
  O  O772  1  0.579140  0.760560  0.245040  1.0  -0.623
  O  O773  1  0.636040  0.870660  0.321510  1.0  -0.6305
  O  O774  1  0.647100  0.745370  0.270750  1.0  -0.6163
  O  O775  1  0.685380  0.859450  0.347860  1.0  -0.6264
  O  O776  1  0.578720  0.819510  0.255840  1.0  -0.6276
  O  O777  1  0.694610  0.904850  0.185530  1.0  -0.6215
  O  O778  1  0.636810  0.767770  0.179500  1.0  -0.633
  O  O779  1  0.645670  0.902790  0.229500  1.0  -0.6189
  O  O780  1  0.685980  0.828350  0.153050  1.0  -0.632
  O  O781  1  0.755050  0.883670  0.214100  1.0  -0.6284
  O  O782  1  0.754900  0.874380  0.287040  1.0  -0.6275
  O  O783  1  0.831830  0.166740  0.749370  1.0  -1.1555
  O  O784  1  0.759530  0.112470  0.689350  1.0  -0.6211
  O  O785  1  0.850830  0.098650  0.771680  1.0  -0.6203
  O  O786  1  0.888470  0.205960  0.668620  1.0  -0.6243
  O  O787  1  0.768260  0.074090  0.739890  1.0  -0.6157
  O  O788  1  0.823090  0.189930  0.656870  1.0  -0.6073
  O  O789  1  0.899800  0.147380  0.728490  1.0  -0.6185
  O  O790  1  0.886100  0.239390  0.809050  1.0  -0.6233
  O  O791  1  0.791550  0.110710  0.830390  1.0  -0.6214
  O  O792  1  0.924500  0.230160  0.758970  1.0  -0.6132
  O  O793  1  0.808040  0.176340  0.841300  1.0  -0.6079
  O  O794  1  0.809270  0.231990  0.774680  1.0  -0.612
  O  O795  1  0.767200  0.189760  0.722680  1.0  -0.6105
  O  O796  1  0.834130  0.667080  0.750290  1.0  -1.2624
  O  O797  1  0.827720  0.687010  0.653290  1.0  -0.6325
  O  O798  1  0.760210  0.579640  0.744890  1.0  -0.629
  O  O799  1  0.903100  0.646930  0.728520  1.0  -0.6189
  O  O800  1  0.767300  0.637620  0.679870  1.0  -0.6297
  O  O801  1  0.904710  0.696020  0.685210  1.0  -0.6255
  O  O802  1  0.819360  0.579130  0.753450  1.0  -0.6331
  O  O803  1  0.859290  0.684450  0.847760  1.0  -0.6275
  O  O804  1  0.745010  0.647520  0.771280  1.0  -0.6189
  O  O805  1  0.870100  0.635270  0.820070  1.0  -0.6311
  O  O806  1  0.792310  0.695030  0.816000  1.0  -0.6234
  O  O807  1  0.874010  0.754960  0.788120  1.0  -0.6251
  O  O808  1  0.882880  0.755880  0.715010  1.0  -0.625
