# generated using pymatgen
data_Zn2H35C51N7O8
_symmetry_space_group_name_H-M   'P 1'
_cell_length_a   24.09670000
_cell_length_b   18.46660000
_cell_length_c   37.61400000
_cell_angle_alpha   90.00000000
_cell_angle_beta   94.26410000
_cell_angle_gamma   90.00000000
_symmetry_Int_Tables_number   1
_chemical_formula_structural   Zn2H35C51N7O8
_chemical_formula_sum   'Zn16 H280 C408 N56 O64'
_cell_volume   16691.30154876
_cell_formula_units_Z   8
loop_
 _symmetry_equiv_pos_site_id
 _symmetry_equiv_pos_as_xyz
  1  'x, y, z'
loop_
 _atom_site_type_symbol
 _atom_site_label
 _atom_site_symmetry_multiplicity
 _atom_site_fract_x
 _atom_site_fract_y
 _atom_site_fract_z
 _atom_site_occupancy
 _atom_site_charge
  Zn  Zn1  1  0.601310  0.368000  0.676270  1.0  0.8513
  Zn  Zn2  1  0.591710  0.368530  0.597360  1.0  0.9291
  Zn  Zn3  1  0.101310  0.868000  0.676270  1.0  0.8513
  Zn  Zn4  1  0.091710  0.868530  0.597360  1.0  0.9291
  Zn  Zn5  1  0.601310  0.632000  0.176270  1.0  0.8511
  Zn  Zn6  1  0.591710  0.631470  0.097360  1.0  0.9304
  Zn  Zn7  1  0.101310  0.132000  0.176270  1.0  0.8511
  Zn  Zn8  1  0.091710  0.131470  0.097360  1.0  0.9304
  Zn  Zn9  1  0.398690  0.368000  0.823730  1.0  0.8502
  Zn  Zn10  1  0.408290  0.368530  0.902640  1.0  0.9288
  Zn  Zn11  1  0.898690  0.868000  0.823730  1.0  0.8502
  Zn  Zn12  1  0.908290  0.868530  0.902640  1.0  0.9288
  Zn  Zn13  1  0.398690  0.632000  0.323730  1.0  0.8505
  Zn  Zn14  1  0.408290  0.631470  0.402640  1.0  0.9303
  Zn  Zn15  1  0.898690  0.132000  0.323730  1.0  0.8505
  Zn  Zn16  1  0.908290  0.131470  0.402640  1.0  0.9303
  H  H17  1  0.937000  0.980000  0.591400  1.0  0.0936
  H  H18  1  0.210700  0.047100  0.585200  1.0  0.0965
  H  H19  1  0.255600  0.985400  0.685000  1.0  0.098
  H  H20  1  0.572000  0.459400  0.470800  1.0  0.1168
  H  H21  1  0.335000  0.054900  0.685000  1.0  0.1094
  H  H22  1  0.628000  0.458800  0.527900  1.0  0.1
  H  H23  1  0.480400  0.460400  0.441400  1.0  0.1063
  H  H24  1  0.412400  0.429500  0.397000  1.0  0.0847
  H  H25  1  0.289500  0.118500  0.584800  1.0  0.1062
  H  H26  1  0.856300  0.048900  0.590400  1.0  0.1084
  H  H27  1  0.733400  0.228400  0.584600  1.0  0.0969
  H  H28  1  0.461700  0.204300  0.581700  1.0  0.0944
  H  H29  1  0.507900  0.317900  0.535100  1.0  0.0862
  H  H30  1  0.143900  0.144400  0.403600  1.0  0.111
  H  H31  1  0.459200  0.230300  0.687400  1.0  0.1005
  H  H32  1  0.383600  0.132100  0.581400  1.0  0.1074
  H  H33  1  0.170100  0.189000  0.249100  1.0  0.0767
  H  H34  1  0.223800  0.215600  0.300800  1.0  0.1259
  H  H35  1  0.984900  0.055400  0.688900  1.0  0.1031
  H  H36  1  0.812900  0.159300  0.585400  1.0  0.1056
  H  H37  1  0.469200  0.261700  0.483300  1.0  0.1151
  H  H38  1  0.399100  0.233900  0.440200  1.0  0.1105
  H  H39  1  0.103800  0.112900  0.349400  1.0  0.0881
  H  H40  1  0.905100  0.125500  0.688200  1.0  0.1072
  H  H41  1  0.380400  0.161700  0.687300  1.0  0.1012
  H  H42  1  0.808500  0.133000  0.691100  1.0  0.1069
  H  H43  1  0.223500  0.206400  0.406600  1.0  0.0945
  H  H44  1  0.728700  0.201700  0.690100  1.0  0.1041
  H  H45  1  0.068300  0.029200  0.236700  1.0  0.109
  H  H46  1  0.099900  0.035800  0.300400  1.0  0.1087
  H  H47  1  0.377600  0.421400  0.330400  1.0  0.1258
  H  H48  1  0.391900  0.352800  0.308300  1.0  0.1293
  H  H49  1  0.427300  0.371200  0.343800  1.0  0.1078
  H  H50  1  0.021100  0.116600  0.236100  1.0  0.0161
  H  H51  1  0.041800  0.138000  0.300000  1.0  0.1557
  H  H52  1  0.437000  0.480000  0.591400  1.0  0.0936
  H  H53  1  0.710700  0.547100  0.585200  1.0  0.0965
  H  H54  1  0.755600  0.485400  0.685000  1.0  0.098
  H  H55  1  0.072000  0.959400  0.470800  1.0  0.1168
  H  H56  1  0.835000  0.554900  0.685000  1.0  0.1094
  H  H57  1  0.128000  0.958800  0.527900  1.0  0.1
  H  H58  1  0.980400  0.960400  0.441400  1.0  0.1063
  H  H59  1  0.912400  0.929500  0.397000  1.0  0.0847
  H  H60  1  0.789500  0.618500  0.584800  1.0  0.1062
  H  H61  1  0.356300  0.548900  0.590400  1.0  0.1084
  H  H62  1  0.233400  0.728400  0.584600  1.0  0.0969
  H  H63  1  0.961700  0.704300  0.581700  1.0  0.0944
  H  H64  1  0.007900  0.817900  0.535100  1.0  0.0862
  H  H65  1  0.643900  0.644400  0.403600  1.0  0.111
  H  H66  1  0.959200  0.730300  0.687400  1.0  0.1005
  H  H67  1  0.883600  0.632100  0.581400  1.0  0.1074
  H  H68  1  0.670100  0.689000  0.249100  1.0  0.0767
  H  H69  1  0.723800  0.715600  0.300800  1.0  0.1259
  H  H70  1  0.484900  0.555400  0.688900  1.0  0.1031
  H  H71  1  0.312900  0.659300  0.585400  1.0  0.1056
  H  H72  1  0.969200  0.761700  0.483300  1.0  0.1151
  H  H73  1  0.899100  0.733900  0.440200  1.0  0.1105
  H  H74  1  0.603800  0.612900  0.349400  1.0  0.0881
  H  H75  1  0.405100  0.625500  0.688200  1.0  0.1072
  H  H76  1  0.880400  0.661700  0.687300  1.0  0.1012
  H  H77  1  0.308500  0.633000  0.691100  1.0  0.1069
  H  H78  1  0.723500  0.706400  0.406600  1.0  0.0945
  H  H79  1  0.228700  0.701700  0.690100  1.0  0.1041
  H  H80  1  0.568300  0.529200  0.236700  1.0  0.109
  H  H81  1  0.599900  0.535800  0.300400  1.0  0.1087
  H  H82  1  0.877600  0.921400  0.330400  1.0  0.1258
  H  H83  1  0.891900  0.852800  0.308300  1.0  0.1293
  H  H84  1  0.927300  0.871200  0.343800  1.0  0.1078
  H  H85  1  0.521100  0.616600  0.236100  1.0  0.0161
  H  H86  1  0.541800  0.638000  0.300000  1.0  0.1555
  H  H87  1  0.937000  0.020000  0.091400  1.0  0.0933
  H  H88  1  0.210700  0.952900  0.085200  1.0  0.0972
  H  H89  1  0.255600  0.014600  0.185000  1.0  0.0983
  H  H90  1  0.572000  0.540600  0.970800  1.0  0.1164
  H  H91  1  0.335000  0.945100  0.185000  1.0  0.1095
  H  H92  1  0.628000  0.541200  0.027900  1.0  0.0998
  H  H93  1  0.480400  0.539600  0.941400  1.0  0.1065
  H  H94  1  0.412400  0.570500  0.897000  1.0  0.0843
  H  H95  1  0.289500  0.881500  0.084800  1.0  0.1061
  H  H96  1  0.856300  0.951100  0.090400  1.0  0.1085
  H  H97  1  0.733400  0.771600  0.084600  1.0  0.097
  H  H98  1  0.461700  0.795700  0.081700  1.0  0.094
  H  H99  1  0.507900  0.682100  0.035100  1.0  0.0852
  H  H100  1  0.143900  0.855600  0.903600  1.0  0.1112
  H  H101  1  0.459200  0.769700  0.187400  1.0  0.1024
  H  H102  1  0.383600  0.867900  0.081400  1.0  0.1081
  H  H103  1  0.170100  0.811000  0.749100  1.0  0.0762
  H  H104  1  0.223800  0.784400  0.800800  1.0  0.126
  H  H105  1  0.984900  0.944600  0.188900  1.0  0.1044
  H  H106  1  0.812900  0.840700  0.085400  1.0  0.1056
  H  H107  1  0.469200  0.738300  0.983300  1.0  0.1151
  H  H108  1  0.399100  0.766100  0.940200  1.0  0.1109
  H  H109  1  0.103800  0.887100  0.849400  1.0  0.0884
  H  H110  1  0.905100  0.874500  0.188200  1.0  0.1076
  H  H111  1  0.380400  0.838300  0.187300  1.0  0.101
  H  H112  1  0.808500  0.867000  0.191100  1.0  0.1064
  H  H113  1  0.223500  0.793600  0.906600  1.0  0.0941
  H  H114  1  0.728700  0.798300  0.190100  1.0  0.1037
  H  H115  1  0.068300  0.970800  0.736700  1.0  0.1086
  H  H116  1  0.099900  0.964200  0.800400  1.0  0.107
  H  H117  1  0.377600  0.578600  0.830400  1.0  0.1252
  H  H118  1  0.391900  0.647200  0.808300  1.0  0.129
  H  H119  1  0.427300  0.628800  0.843800  1.0  0.1085
  H  H120  1  0.021100  0.883400  0.736100  1.0  0.0152
  H  H121  1  0.041800  0.862000  0.800000  1.0  0.1553
  H  H122  1  0.437000  0.520000  0.091400  1.0  0.0933
  H  H123  1  0.710700  0.452900  0.085200  1.0  0.0972
  H  H124  1  0.755600  0.514600  0.185000  1.0  0.0983
  H  H125  1  0.072000  0.040600  0.970800  1.0  0.1164
  H  H126  1  0.835000  0.445100  0.185000  1.0  0.1095
  H  H127  1  0.128000  0.041200  0.027900  1.0  0.0998
  H  H128  1  0.980400  0.039600  0.941400  1.0  0.1065
  H  H129  1  0.912400  0.070500  0.897000  1.0  0.0843
  H  H130  1  0.789500  0.381500  0.084800  1.0  0.1061
  H  H131  1  0.356300  0.451100  0.090400  1.0  0.1085
  H  H132  1  0.233400  0.271600  0.084600  1.0  0.097
  H  H133  1  0.961700  0.295700  0.081700  1.0  0.094
  H  H134  1  0.007900  0.182100  0.035100  1.0  0.0852
  H  H135  1  0.643900  0.355600  0.903600  1.0  0.1112
  H  H136  1  0.959200  0.269700  0.187400  1.0  0.1024
  H  H137  1  0.883600  0.367900  0.081400  1.0  0.1081
  H  H138  1  0.670100  0.311000  0.749100  1.0  0.0762
  H  H139  1  0.723800  0.284400  0.800800  1.0  0.126
  H  H140  1  0.484900  0.444600  0.188900  1.0  0.1044
  H  H141  1  0.312900  0.340700  0.085400  1.0  0.1056
  H  H142  1  0.969200  0.238300  0.983300  1.0  0.1151
  H  H143  1  0.899100  0.266100  0.940200  1.0  0.1109
  H  H144  1  0.603800  0.387100  0.849400  1.0  0.0884
  H  H145  1  0.405100  0.374500  0.188200  1.0  0.1076
  H  H146  1  0.880400  0.338300  0.187300  1.0  0.101
  H  H147  1  0.308500  0.367000  0.191100  1.0  0.1064
  H  H148  1  0.723500  0.293600  0.906600  1.0  0.0941
  H  H149  1  0.228700  0.298300  0.190100  1.0  0.1037
  H  H150  1  0.568300  0.470800  0.736700  1.0  0.1086
  H  H151  1  0.599900  0.464200  0.800400  1.0  0.107
  H  H152  1  0.877600  0.078600  0.830400  1.0  0.1252
  H  H153  1  0.891900  0.147200  0.808300  1.0  0.129
  H  H154  1  0.927300  0.128800  0.843800  1.0  0.1085
  H  H155  1  0.521100  0.383400  0.736100  1.0  0.0152
  H  H156  1  0.541800  0.362000  0.800000  1.0  0.1553
  H  H157  1  0.063000  0.980000  0.908600  1.0  0.093
  H  H158  1  0.789300  0.047100  0.914800  1.0  0.0953
  H  H159  1  0.744400  0.985400  0.815000  1.0  0.0989
  H  H160  1  0.428000  0.459400  0.029200  1.0  0.1168
  H  H161  1  0.665000  0.054900  0.815000  1.0  0.1082
  H  H162  1  0.372000  0.458800  0.972100  1.0  0.0999
  H  H163  1  0.519600  0.460400  0.058600  1.0  0.106
  H  H164  1  0.587600  0.429500  0.103000  1.0  0.0847
  H  H165  1  0.710500  0.118500  0.915200  1.0  0.1059
  H  H166  1  0.143700  0.048900  0.909600  1.0  0.109
  H  H167  1  0.266600  0.228400  0.915400  1.0  0.0971
  H  H168  1  0.538300  0.204300  0.918300  1.0  0.0952
  H  H169  1  0.492100  0.317900  0.964900  1.0  0.0862
  H  H170  1  0.856100  0.144400  0.096400  1.0  0.1096
  H  H171  1  0.540800  0.230300  0.812600  1.0  0.1019
  H  H172  1  0.616400  0.132100  0.918600  1.0  0.1086
  H  H173  1  0.829900  0.189000  0.250900  1.0  0.0768
  H  H174  1  0.776200  0.215600  0.199200  1.0  0.1276
  H  H175  1  0.015100  0.055400  0.811100  1.0  0.1029
  H  H176  1  0.187100  0.159300  0.914600  1.0  0.1059
  H  H177  1  0.530800  0.261700  0.016700  1.0  0.115
  H  H178  1  0.600900  0.233900  0.059800  1.0  0.1107
  H  H179  1  0.896200  0.112900  0.150600  1.0  0.0886
  H  H180  1  0.094900  0.125500  0.811800  1.0  0.1082
  H  H181  1  0.619600  0.161700  0.812700  1.0  0.1016
  H  H182  1  0.191500  0.133000  0.808900  1.0  0.1056
  H  H183  1  0.776500  0.206400  0.093400  1.0  0.0943
  H  H184  1  0.271300  0.201700  0.809900  1.0  0.104
  H  H185  1  0.931700  0.029200  0.263300  1.0  0.1106
  H  H186  1  0.900100  0.035800  0.199600  1.0  0.1082
  H  H187  1  0.622400  0.421400  0.169600  1.0  0.1253
  H  H188  1  0.608100  0.352800  0.191700  1.0  0.1287
  H  H189  1  0.572700  0.371200  0.156200  1.0  0.1087
  H  H190  1  0.978900  0.116600  0.263900  1.0  0.0125
  H  H191  1  0.958200  0.138000  0.200000  1.0  0.1572
  H  H192  1  0.563000  0.480000  0.908600  1.0  0.093
  H  H193  1  0.289300  0.547100  0.914800  1.0  0.0953
  H  H194  1  0.244400  0.485400  0.815000  1.0  0.0989
  H  H195  1  0.928000  0.959400  0.029200  1.0  0.1168
  H  H196  1  0.165000  0.554900  0.815000  1.0  0.1082
  H  H197  1  0.872000  0.958800  0.972100  1.0  0.0999
  H  H198  1  0.019600  0.960400  0.058600  1.0  0.106
  H  H199  1  0.087600  0.929500  0.103000  1.0  0.0847
  H  H200  1  0.210500  0.618500  0.915200  1.0  0.1059
  H  H201  1  0.643700  0.548900  0.909600  1.0  0.1083
  H  H202  1  0.766600  0.728400  0.915400  1.0  0.0971
  H  H203  1  0.038300  0.704300  0.918300  1.0  0.0952
  H  H204  1  0.992100  0.817900  0.964900  1.0  0.0862
  H  H205  1  0.356100  0.644400  0.096400  1.0  0.1096
  H  H206  1  0.040800  0.730300  0.812600  1.0  0.1019
  H  H207  1  0.116400  0.632100  0.918600  1.0  0.1086
  H  H208  1  0.329900  0.689000  0.250900  1.0  0.0768
  H  H209  1  0.276200  0.715600  0.199200  1.0  0.1276
  H  H210  1  0.515100  0.555400  0.811100  1.0  0.1029
  H  H211  1  0.687100  0.659300  0.914600  1.0  0.1059
  H  H212  1  0.030800  0.761700  0.016700  1.0  0.115
  H  H213  1  0.100900  0.733900  0.059800  1.0  0.1107
  H  H214  1  0.396200  0.612900  0.150600  1.0  0.0886
  H  H215  1  0.594900  0.625500  0.811800  1.0  0.1082
  H  H216  1  0.119600  0.661700  0.812700  1.0  0.1016
  H  H217  1  0.691500  0.633000  0.808900  1.0  0.1056
  H  H218  1  0.276500  0.706400  0.093400  1.0  0.0943
  H  H219  1  0.771300  0.701700  0.809900  1.0  0.104
  H  H220  1  0.431700  0.529200  0.263300  1.0  0.1106
  H  H221  1  0.400100  0.535800  0.199600  1.0  0.1082
  H  H222  1  0.122400  0.921400  0.169600  1.0  0.1253
  H  H223  1  0.108100  0.852800  0.191700  1.0  0.1287
  H  H224  1  0.072700  0.871200  0.156200  1.0  0.1087
  H  H225  1  0.478900  0.616600  0.263900  1.0  0.0125
  H  H226  1  0.458200  0.638000  0.200000  1.0  0.1572
  H  H227  1  0.063000  0.020000  0.408600  1.0  0.0928
  H  H228  1  0.789300  0.952900  0.414800  1.0  0.0947
  H  H229  1  0.744400  0.014600  0.315000  1.0  0.0988
  H  H230  1  0.428000  0.540600  0.529200  1.0  0.1168
  H  H231  1  0.665000  0.945100  0.315000  1.0  0.1083
  H  H232  1  0.372000  0.541200  0.472100  1.0  0.1
  H  H233  1  0.519600  0.539600  0.558600  1.0  0.1062
  H  H234  1  0.587600  0.570500  0.603000  1.0  0.0846
  H  H235  1  0.710500  0.881500  0.415200  1.0  0.1059
  H  H236  1  0.143700  0.951100  0.409600  1.0  0.1079
  H  H237  1  0.266600  0.771600  0.415400  1.0  0.0969
  H  H238  1  0.538300  0.795700  0.418300  1.0  0.095
  H  H239  1  0.492100  0.682100  0.464900  1.0  0.085
  H  H240  1  0.856100  0.855600  0.596400  1.0  0.1096
  H  H241  1  0.540800  0.769700  0.312600  1.0  0.1015
  H  H242  1  0.616400  0.867900  0.418600  1.0  0.1084
  H  H243  1  0.829900  0.811000  0.750900  1.0  0.0768
  H  H244  1  0.776200  0.784400  0.699200  1.0  0.1275
  H  H245  1  0.015100  0.944600  0.311100  1.0  0.1033
  H  H246  1  0.187100  0.840700  0.414600  1.0  0.1061
  H  H247  1  0.530800  0.738300  0.516700  1.0  0.1159
  H  H248  1  0.600900  0.766100  0.559800  1.0  0.1111
  H  H249  1  0.896200  0.887100  0.650600  1.0  0.0886
  H  H250  1  0.094900  0.874500  0.311800  1.0  0.1083
  H  H251  1  0.619600  0.838300  0.312700  1.0  0.1018
  H  H252  1  0.191500  0.867000  0.308900  1.0  0.106
  H  H253  1  0.776500  0.793600  0.593400  1.0  0.0943
  H  H254  1  0.271300  0.798300  0.309900  1.0  0.1038
  H  H255  1  0.931700  0.970800  0.763300  1.0  0.1084
  H  H256  1  0.900100  0.964200  0.699600  1.0  0.1081
  H  H257  1  0.622400  0.578600  0.669600  1.0  0.1251
  H  H258  1  0.608100  0.647200  0.691700  1.0  0.1293
  H  H259  1  0.572700  0.628800  0.656200  1.0  0.1078
  H  H260  1  0.978900  0.883400  0.763900  1.0  0.0124
  H  H261  1  0.958200  0.862000  0.700000  1.0  0.1565
  H  H262  1  0.563000  0.520000  0.408600  1.0  0.0928
  H  H263  1  0.289300  0.452900  0.414800  1.0  0.0947
  H  H264  1  0.244400  0.514600  0.315000  1.0  0.0988
  H  H265  1  0.928000  0.040600  0.529200  1.0  0.1168
  H  H266  1  0.165000  0.445100  0.315000  1.0  0.1083
  H  H267  1  0.872000  0.041200  0.472100  1.0  0.1
  H  H268  1  0.019600  0.039600  0.558600  1.0  0.1062
  H  H269  1  0.087600  0.070500  0.603000  1.0  0.0846
  H  H270  1  0.210500  0.381500  0.415200  1.0  0.1059
  H  H271  1  0.643700  0.451100  0.409600  1.0  0.1079
  H  H272  1  0.766600  0.271600  0.415400  1.0  0.0969
  H  H273  1  0.038300  0.295700  0.418300  1.0  0.095
  H  H274  1  0.992100  0.182100  0.464900  1.0  0.085
  H  H275  1  0.356100  0.355600  0.596400  1.0  0.1096
  H  H276  1  0.040800  0.269700  0.312600  1.0  0.1015
  H  H277  1  0.116400  0.367900  0.418600  1.0  0.1084
  H  H278  1  0.329900  0.311000  0.750900  1.0  0.0768
  H  H279  1  0.276200  0.284400  0.699200  1.0  0.1275
  H  H280  1  0.515100  0.444600  0.311100  1.0  0.1033
  H  H281  1  0.687100  0.340700  0.414600  1.0  0.1061
  H  H282  1  0.030800  0.238300  0.516700  1.0  0.1159
  H  H283  1  0.100900  0.266100  0.559800  1.0  0.1111
  H  H284  1  0.396200  0.387100  0.650600  1.0  0.0886
  H  H285  1  0.594900  0.374500  0.311800  1.0  0.1083
  H  H286  1  0.119600  0.338300  0.312700  1.0  0.1018
  H  H287  1  0.691500  0.367000  0.308900  1.0  0.106
  H  H288  1  0.276500  0.293600  0.593400  1.0  0.0943
  H  H289  1  0.771300  0.298300  0.309900  1.0  0.1038
  H  H290  1  0.431700  0.470800  0.763300  1.0  0.1084
  H  H291  1  0.400100  0.464200  0.699600  1.0  0.1081
  H  H292  1  0.122400  0.078600  0.669600  1.0  0.1251
  H  H293  1  0.108100  0.147200  0.691700  1.0  0.1293
  H  H294  1  0.072700  0.128800  0.656200  1.0  0.1078
  H  H295  1  0.478900  0.383400  0.763900  1.0  0.0124
  H  H296  1  0.458200  0.362000  0.700000  1.0  0.1565
  C  C297  1  0.930340  0.009100  0.610830  1.0  -0.0423
  C  C298  1  0.225450  0.008800  0.634750  1.0  -0.1644
  C  C299  1  0.019330  0.962970  0.640390  1.0  0.6551
  C  C300  1  0.968630  0.010900  0.640230  1.0  -0.1548
  C  C301  1  0.235720  0.048700  0.605270  1.0  -0.0362
  C  C302  1  0.175310  0.960570  0.634940  1.0  0.6542
  C  C303  1  0.262760  0.011900  0.664760  1.0  -0.0462
  C  C304  1  0.321690  0.094800  0.634490  1.0  0.0901
  C  C305  1  0.672980  0.272400  0.636850  1.0  0.6872
  C  C306  1  0.481180  0.363200  0.466380  1.0  0.1423
  C  C307  1  0.517630  0.275000  0.634310  1.0  0.6723
  C  C308  1  0.355840  0.307000  0.386310  1.0  0.2817
  C  C309  1  0.566020  0.430800  0.490520  1.0  -0.1334
  C  C310  1  0.310310  0.053700  0.664850  1.0  -0.1527
  C  C311  1  0.596910  0.430100  0.522190  1.0  0.0098
  C  C312  1  0.159800  0.162300  0.319940  1.0  0.165
  C  C313  1  0.722980  0.223300  0.637030  1.0  -0.1495
  C  C314  1  0.464570  0.414400  0.440850  1.0  -0.2036
  C  C315  1  0.400230  0.329000  0.413180  1.0  0.0412
  C  C316  1  0.372900  0.139400  0.634700  1.0  0.068
  C  C317  1  0.423780  0.395600  0.414330  1.0  -0.1464
  C  C318  1  0.283320  0.091500  0.605050  1.0  -0.1293
  C  C319  1  0.881830  0.050600  0.610130  1.0  -0.1306
  C  C320  1  0.468490  0.226100  0.634410  1.0  -0.1518
  C  C321  1  0.748600  0.209500  0.606070  1.0  -0.0541
  C  C322  1  0.284790  0.259900  0.359920  1.0  0.3158
  C  C323  1  0.871700  0.094700  0.638980  1.0  0.0332
  C  C324  1  0.445320  0.195600  0.602920  1.0  -0.0373
  C  C325  1  0.820120  0.139300  0.638520  1.0  0.0438
  C  C326  1  0.531150  0.352800  0.526210  1.0  0.1101
  C  C327  1  0.159900  0.157900  0.382880  1.0  -0.0677
  C  C328  1  0.443630  0.211500  0.666050  1.0  -0.0385
  C  C329  1  0.398400  0.152500  0.602650  1.0  -0.0963
  C  C330  1  0.140880  0.158800  0.254310  1.0  0.146
  C  C331  1  0.208060  0.201300  0.321570  1.0  -0.1609
  C  C332  1  0.233000  0.218900  0.354550  1.0  -0.0786
  C  C333  1  0.959180  0.054300  0.669170  1.0  -0.0808
  C  C334  1  0.796400  0.168100  0.606500  1.0  -0.1527
  C  C335  1  0.457600  0.295700  0.466140  1.0  -0.1951
  C  C336  1  0.416400  0.278900  0.440000  1.0  -0.0675
  C  C337  1  0.136300  0.140300  0.351040  1.0  -0.1627
  C  C338  1  0.911270  0.096200  0.668740  1.0  -0.1046
  C  C339  1  0.396670  0.169800  0.665980  1.0  -0.1284
  C  C340  1  0.793700  0.152300  0.669640  1.0  -0.1377
  C  C341  1  0.206700  0.195100  0.384200  1.0  -0.0561
  C  C342  1  0.745800  0.193600  0.669130  1.0  -0.0621
  C  C343  1  0.088400  0.067100  0.247700  1.0  -0.0463
  C  C344  1  0.104500  0.070500  0.282900  1.0  -0.1003
  C  C345  1  0.390600  0.372300  0.331870  1.0  -0.2006
  C  C346  1  0.056100  0.125400  0.247400  1.0  -0.1158
  C  C347  1  0.066900  0.135300  0.282400  1.0  -0.0206
  C  C348  1  0.430340  0.509100  0.610830  1.0  -0.0423
  C  C349  1  0.725450  0.508800  0.634750  1.0  -0.1644
  C  C350  1  0.519330  0.462970  0.640390  1.0  0.6551
  C  C351  1  0.468630  0.510900  0.640230  1.0  -0.1548
  C  C352  1  0.735720  0.548700  0.605270  1.0  -0.0362
  C  C353  1  0.675310  0.460570  0.634940  1.0  0.6542
  C  C354  1  0.762760  0.511900  0.664760  1.0  -0.0462
  C  C355  1  0.821690  0.594800  0.634490  1.0  0.0901
  C  C356  1  0.172980  0.772400  0.636850  1.0  0.6872
  C  C357  1  0.981180  0.863200  0.466380  1.0  0.1423
  C  C358  1  0.017630  0.775000  0.634310  1.0  0.6723
  C  C359  1  0.855840  0.807000  0.386310  1.0  0.2817
  C  C360  1  0.066020  0.930800  0.490520  1.0  -0.1334
  C  C361  1  0.810310  0.553700  0.664850  1.0  -0.1527
  C  C362  1  0.096910  0.930100  0.522190  1.0  0.0098
  C  C363  1  0.659800  0.662300  0.319940  1.0  0.165
  C  C364  1  0.222980  0.723300  0.637030  1.0  -0.1495
  C  C365  1  0.964570  0.914400  0.440850  1.0  -0.2036
  C  C366  1  0.900230  0.829000  0.413180  1.0  0.0412
  C  C367  1  0.872900  0.639400  0.634700  1.0  0.068
  C  C368  1  0.923780  0.895600  0.414330  1.0  -0.1464
  C  C369  1  0.783320  0.591500  0.605050  1.0  -0.1293
  C  C370  1  0.381830  0.550600  0.610130  1.0  -0.1306
  C  C371  1  0.968490  0.726100  0.634410  1.0  -0.1518
  C  C372  1  0.248600  0.709500  0.606070  1.0  -0.0541
  C  C373  1  0.784790  0.759900  0.359920  1.0  0.3158
  C  C374  1  0.371700  0.594700  0.638980  1.0  0.0332
  C  C375  1  0.945320  0.695600  0.602920  1.0  -0.0373
  C  C376  1  0.320120  0.639300  0.638520  1.0  0.0438
  C  C377  1  0.031150  0.852800  0.526210  1.0  0.1101
  C  C378  1  0.659900  0.657900  0.382880  1.0  -0.0677
  C  C379  1  0.943630  0.711500  0.666050  1.0  -0.0385
  C  C380  1  0.898400  0.652500  0.602650  1.0  -0.0963
  C  C381  1  0.640880  0.658800  0.254310  1.0  0.146
  C  C382  1  0.708060  0.701300  0.321570  1.0  -0.1609
  C  C383  1  0.733000  0.718900  0.354550  1.0  -0.0786
  C  C384  1  0.459180  0.554300  0.669170  1.0  -0.0808
  C  C385  1  0.296400  0.668100  0.606500  1.0  -0.1527
  C  C386  1  0.957600  0.795700  0.466140  1.0  -0.1951
  C  C387  1  0.916400  0.778900  0.440000  1.0  -0.0675
  C  C388  1  0.636300  0.640300  0.351040  1.0  -0.1627
  C  C389  1  0.411270  0.596200  0.668740  1.0  -0.1046
  C  C390  1  0.896670  0.669800  0.665980  1.0  -0.1284
  C  C391  1  0.293700  0.652300  0.669640  1.0  -0.1377
  C  C392  1  0.706700  0.695100  0.384200  1.0  -0.0561
  C  C393  1  0.245800  0.693600  0.669130  1.0  -0.0621
  C  C394  1  0.588400  0.567100  0.247700  1.0  -0.0463
  C  C395  1  0.604500  0.570500  0.282900  1.0  -0.1003
  C  C396  1  0.890600  0.872300  0.331870  1.0  -0.2006
  C  C397  1  0.556100  0.625400  0.247400  1.0  -0.1158
  C  C398  1  0.566900  0.635300  0.282400  1.0  -0.0206
  C  C399  1  0.930340  0.990900  0.110830  1.0  -0.0418
  C  C400  1  0.225450  0.991200  0.134750  1.0  -0.1648
  C  C401  1  0.019330  0.037030  0.140390  1.0  0.6564
  C  C402  1  0.968630  0.989100  0.140230  1.0  -0.1548
  C  C403  1  0.235720  0.951300  0.105270  1.0  -0.0346
  C  C404  1  0.175310  0.039430  0.134940  1.0  0.6549
  C  C405  1  0.262760  0.988100  0.164760  1.0  -0.045
  C  C406  1  0.321690  0.905200  0.134490  1.0  0.0901
  C  C407  1  0.672980  0.727600  0.136850  1.0  0.6883
  C  C408  1  0.481180  0.636800  0.966380  1.0  0.1421
  C  C409  1  0.517630  0.725000  0.134310  1.0  0.6714
  C  C410  1  0.355840  0.693000  0.886310  1.0  0.2812
  C  C411  1  0.566020  0.569200  0.990520  1.0  -0.1339
  C  C412  1  0.310310  0.946300  0.164850  1.0  -0.1508
  C  C413  1  0.596910  0.569900  0.022190  1.0  0.0092
  C  C414  1  0.159800  0.837700  0.819940  1.0  0.1653
  C  C415  1  0.722980  0.776700  0.137030  1.0  -0.1494
  C  C416  1  0.464570  0.585600  0.940850  1.0  -0.2026
  C  C417  1  0.400230  0.671000  0.913180  1.0  0.0425
  C  C418  1  0.372900  0.860600  0.134700  1.0  0.0686
  C  C419  1  0.423780  0.604400  0.914330  1.0  -0.1485
  C  C420  1  0.283320  0.908500  0.105050  1.0  -0.13
  C  C421  1  0.881830  0.949400  0.110130  1.0  -0.131
  C  C422  1  0.468490  0.773900  0.134410  1.0  -0.1525
  C  C423  1  0.748600  0.790500  0.106070  1.0  -0.0533
  C  C424  1  0.284790  0.740100  0.859920  1.0  0.3153
  C  C425  1  0.871700  0.905300  0.138980  1.0  0.0334
  C  C426  1  0.445320  0.804400  0.102920  1.0  -0.0385
  C  C427  1  0.820120  0.860700  0.138520  1.0  0.0434
  C  C428  1  0.531150  0.647200  0.026210  1.0  0.1089
  C  C429  1  0.159900  0.842100  0.882880  1.0  -0.0688
  C  C430  1  0.443630  0.788500  0.166050  1.0  -0.0392
  C  C431  1  0.398400  0.847500  0.102650  1.0  -0.0991
  C  C432  1  0.140880  0.841200  0.754310  1.0  0.1452
  C  C433  1  0.208060  0.798700  0.821570  1.0  -0.1608
  C  C434  1  0.233000  0.781100  0.854550  1.0  -0.0802
  C  C435  1  0.959180  0.945700  0.169170  1.0  -0.0795
  C  C436  1  0.796400  0.831900  0.106500  1.0  -0.1515
  C  C437  1  0.457600  0.704300  0.966140  1.0  -0.1933
  C  C438  1  0.416400  0.721100  0.940000  1.0  -0.0652
  C  C439  1  0.136300  0.859700  0.851040  1.0  -0.1642
  C  C440  1  0.911270  0.903800  0.168740  1.0  -0.1054
  C  C441  1  0.396670  0.830200  0.165980  1.0  -0.1268
  C  C442  1  0.793700  0.847700  0.169640  1.0  -0.1382
  C  C443  1  0.206700  0.804900  0.884200  1.0  -0.0542
  C  C444  1  0.745800  0.806400  0.169130  1.0  -0.0626
  C  C445  1  0.088400  0.932900  0.747700  1.0  -0.0432
  C  C446  1  0.104500  0.929500  0.782900  1.0  -0.0969
  C  C447  1  0.390600  0.627700  0.831870  1.0  -0.1989
  C  C448  1  0.056100  0.874600  0.747400  1.0  -0.1124
  C  C449  1  0.066900  0.864700  0.782400  1.0  -0.0243
  C  C450  1  0.430340  0.490900  0.110830  1.0  -0.0418
  C  C451  1  0.725450  0.491200  0.134750  1.0  -0.1648
  C  C452  1  0.519330  0.537030  0.140390  1.0  0.6555
  C  C453  1  0.468630  0.489100  0.140230  1.0  -0.1548
  C  C454  1  0.735720  0.451300  0.105270  1.0  -0.0346
  C  C455  1  0.675310  0.539430  0.134940  1.0  0.6549
  C  C456  1  0.762760  0.488100  0.164760  1.0  -0.045
  C  C457  1  0.821690  0.405200  0.134490  1.0  0.0901
  C  C458  1  0.172980  0.227600  0.136850  1.0  0.6883
  C  C459  1  0.981180  0.136800  0.966380  1.0  0.1421
  C  C460  1  0.017630  0.225000  0.134310  1.0  0.6714
  C  C461  1  0.855840  0.193000  0.886310  1.0  0.2812
  C  C462  1  0.066020  0.069200  0.990520  1.0  -0.1339
  C  C463  1  0.810310  0.446300  0.164850  1.0  -0.1507
  C  C464  1  0.096910  0.069900  0.022190  1.0  0.0092
  C  C465  1  0.659800  0.337700  0.819940  1.0  0.1653
  C  C466  1  0.222980  0.276700  0.137030  1.0  -0.1494
  C  C467  1  0.964570  0.085600  0.940850  1.0  -0.2026
  C  C468  1  0.900230  0.171000  0.913180  1.0  0.0425
  C  C469  1  0.872900  0.360600  0.134700  1.0  0.0686
  C  C470  1  0.923780  0.104400  0.914330  1.0  -0.1485
  C  C471  1  0.783320  0.408500  0.105050  1.0  -0.13
  C  C472  1  0.381830  0.449400  0.110130  1.0  -0.131
  C  C473  1  0.968490  0.273900  0.134410  1.0  -0.1525
  C  C474  1  0.248600  0.290500  0.106070  1.0  -0.0533
  C  C475  1  0.784790  0.240100  0.859920  1.0  0.3153
  C  C476  1  0.371700  0.405300  0.138980  1.0  0.0334
  C  C477  1  0.945320  0.304400  0.102920  1.0  -0.0385
  C  C478  1  0.320120  0.360700  0.138520  1.0  0.0434
  C  C479  1  0.031150  0.147200  0.026210  1.0  0.1089
  C  C480  1  0.659900  0.342100  0.882880  1.0  -0.0688
  C  C481  1  0.943630  0.288500  0.166050  1.0  -0.0392
  C  C482  1  0.898400  0.347500  0.102650  1.0  -0.0991
  C  C483  1  0.640880  0.341200  0.754310  1.0  0.1452
  C  C484  1  0.708060  0.298700  0.821570  1.0  -0.1608
  C  C485  1  0.733000  0.281100  0.854550  1.0  -0.0802
  C  C486  1  0.459180  0.445700  0.169170  1.0  -0.0795
  C  C487  1  0.296400  0.331900  0.106500  1.0  -0.1515
  C  C488  1  0.957600  0.204300  0.966140  1.0  -0.1933
  C  C489  1  0.916400  0.221100  0.940000  1.0  -0.0652
  C  C490  1  0.636300  0.359700  0.851040  1.0  -0.1642
  C  C491  1  0.411270  0.403800  0.168740  1.0  -0.1054
  C  C492  1  0.896670  0.330200  0.165980  1.0  -0.1268
  C  C493  1  0.293700  0.347700  0.169640  1.0  -0.1382
  C  C494  1  0.706700  0.304900  0.884200  1.0  -0.0542
  C  C495  1  0.245800  0.306400  0.169130  1.0  -0.0626
  C  C496  1  0.588400  0.432900  0.747700  1.0  -0.0432
  C  C497  1  0.604500  0.429500  0.782900  1.0  -0.0969
  C  C498  1  0.890600  0.127700  0.831870  1.0  -0.1989
  C  C499  1  0.556100  0.374600  0.747400  1.0  -0.1124
  C  C500  1  0.566900  0.364700  0.782400  1.0  -0.0243
  C  C501  1  0.069660  0.009100  0.889170  1.0  -0.04
  C  C502  1  0.774550  0.008800  0.865250  1.0  -0.1641
  C  C503  1  0.980670  0.962970  0.859610  1.0  0.6596
  C  C504  1  0.031370  0.010900  0.859770  1.0  -0.1555
  C  C505  1  0.764280  0.048700  0.894730  1.0  -0.0366
  C  C506  1  0.824690  0.960570  0.865060  1.0  0.6524
  C  C507  1  0.737240  0.011900  0.835240  1.0  -0.0477
  C  C508  1  0.678310  0.094800  0.865510  1.0  0.0904
  C  C509  1  0.327020  0.272400  0.863150  1.0  0.6866
  C  C510  1  0.518820  0.363200  0.033620  1.0  0.1419
  C  C511  1  0.482370  0.275000  0.865690  1.0  0.674
  C  C512  1  0.644160  0.307000  0.113690  1.0  0.2792
  C  C513  1  0.433980  0.430800  0.009480  1.0  -0.132
  C  C514  1  0.689690  0.053700  0.835150  1.0  -0.1513
  C  C515  1  0.403090  0.430100  0.977810  1.0  0.0078
  C  C516  1  0.840200  0.162300  0.180060  1.0  0.1632
  C  C517  1  0.277020  0.223300  0.862970  1.0  -0.1503
  C  C518  1  0.535430  0.414400  0.059150  1.0  -0.2034
  C  C519  1  0.599770  0.329000  0.086820  1.0  0.0398
  C  C520  1  0.627100  0.139400  0.865300  1.0  0.0681
  C  C521  1  0.576220  0.395600  0.085670  1.0  -0.1388
  C  C522  1  0.716680  0.091500  0.894950  1.0  -0.1321
  C  C523  1  0.118170  0.050600  0.889870  1.0  -0.1301
  C  C524  1  0.531510  0.226100  0.865590  1.0  -0.1529
  C  C525  1  0.251400  0.209500  0.893930  1.0  -0.0539
  C  C526  1  0.715210  0.259900  0.140080  1.0  0.3138
  C  C527  1  0.128300  0.094700  0.861020  1.0  0.0336
  C  C528  1  0.554680  0.195600  0.897080  1.0  -0.0399
  C  C529  1  0.179880  0.139300  0.861480  1.0  0.0436
  C  C530  1  0.468850  0.352800  0.973790  1.0  0.1096
  C  C531  1  0.840100  0.157900  0.117120  1.0  -0.0722
  C  C532  1  0.556370  0.211500  0.833950  1.0  -0.0351
  C  C533  1  0.601600  0.152500  0.897350  1.0  -0.1026
  C  C534  1  0.859120  0.158800  0.245690  1.0  0.1484
  C  C535  1  0.791940  0.201300  0.178430  1.0  -0.1581
  C  C536  1  0.767000  0.218900  0.145450  1.0  -0.0803
  C  C537  1  0.040820  0.054300  0.830830  1.0  -0.0839
  C  C538  1  0.203600  0.168100  0.893500  1.0  -0.1487
  C  C539  1  0.542400  0.295700  0.033860  1.0  -0.1946
  C  C540  1  0.583600  0.278900  0.060000  1.0  -0.0678
  C  C541  1  0.863700  0.140300  0.148960  1.0  -0.1686
  C  C542  1  0.088730  0.096200  0.831260  1.0  -0.104
  C  C543  1  0.603330  0.169800  0.834020  1.0  -0.1266
  C  C544  1  0.206300  0.152300  0.830360  1.0  -0.1373
  C  C545  1  0.793300  0.195100  0.115800  1.0  -0.0557
  C  C546  1  0.254200  0.193600  0.830870  1.0  -0.0641
  C  C547  1  0.911600  0.067100  0.252300  1.0  -0.0489
  C  C548  1  0.895500  0.070500  0.217100  1.0  -0.0992
  C  C549  1  0.609400  0.372300  0.168130  1.0  -0.1986
  C  C550  1  0.943900  0.125400  0.252600  1.0  -0.1172
  C  C551  1  0.933100  0.135300  0.217600  1.0  -0.0205
  C  C552  1  0.569660  0.509100  0.889170  1.0  -0.04
  C  C553  1  0.274550  0.508800  0.865250  1.0  -0.1641
  C  C554  1  0.480670  0.462970  0.859610  1.0  0.6596
  C  C555  1  0.531370  0.510900  0.859770  1.0  -0.1555
  C  C556  1  0.264280  0.548700  0.894730  1.0  -0.0366
  C  C557  1  0.324690  0.460570  0.865060  1.0  0.6524
  C  C558  1  0.237240  0.511900  0.835240  1.0  -0.0477
  C  C559  1  0.178310  0.594800  0.865510  1.0  0.0904
  C  C560  1  0.827020  0.772400  0.863150  1.0  0.6866
  C  C561  1  0.018820  0.863200  0.033620  1.0  0.1419
  C  C562  1  0.982370  0.775000  0.865690  1.0  0.674
  C  C563  1  0.144160  0.807000  0.113690  1.0  0.2792
  C  C564  1  0.933980  0.930800  0.009480  1.0  -0.132
  C  C565  1  0.189690  0.553700  0.835150  1.0  -0.1513
  C  C566  1  0.903090  0.930100  0.977810  1.0  0.0078
  C  C567  1  0.340200  0.662300  0.180060  1.0  0.1632
  C  C568  1  0.777020  0.723300  0.862970  1.0  -0.1503
  C  C569  1  0.035430  0.914400  0.059150  1.0  -0.2034
  C  C570  1  0.099770  0.829000  0.086820  1.0  0.0398
  C  C571  1  0.127100  0.639400  0.865300  1.0  0.0681
  C  C572  1  0.076220  0.895600  0.085670  1.0  -0.1388
  C  C573  1  0.216680  0.591500  0.894950  1.0  -0.1321
  C  C574  1  0.618170  0.550600  0.889870  1.0  -0.1301
  C  C575  1  0.031510  0.726100  0.865590  1.0  -0.1529
  C  C576  1  0.751400  0.709500  0.893930  1.0  -0.0539
  C  C577  1  0.215210  0.759900  0.140080  1.0  0.3138
  C  C578  1  0.628300  0.594700  0.861020  1.0  0.0336
  C  C579  1  0.054680  0.695600  0.897080  1.0  -0.0399
  C  C580  1  0.679880  0.639300  0.861480  1.0  0.0436
  C  C581  1  0.968850  0.852800  0.973790  1.0  0.1096
  C  C582  1  0.340100  0.657900  0.117120  1.0  -0.0722
  C  C583  1  0.056370  0.711500  0.833950  1.0  -0.0351
  C  C584  1  0.101600  0.652500  0.897350  1.0  -0.1026
  C  C585  1  0.359120  0.658800  0.245690  1.0  0.1484
  C  C586  1  0.291940  0.701300  0.178430  1.0  -0.1581
  C  C587  1  0.267000  0.718900  0.145450  1.0  -0.0803
  C  C588  1  0.540820  0.554300  0.830830  1.0  -0.0839
  C  C589  1  0.703600  0.668100  0.893500  1.0  -0.1487
  C  C590  1  0.042400  0.795700  0.033860  1.0  -0.1946
  C  C591  1  0.083600  0.778900  0.060000  1.0  -0.0678
  C  C592  1  0.363700  0.640300  0.148960  1.0  -0.1686
  C  C593  1  0.588730  0.596200  0.831260  1.0  -0.104
  C  C594  1  0.103330  0.669800  0.834020  1.0  -0.1266
  C  C595  1  0.706300  0.652300  0.830360  1.0  -0.1373
  C  C596  1  0.293300  0.695100  0.115800  1.0  -0.0557
  C  C597  1  0.754200  0.693600  0.830870  1.0  -0.0641
  C  C598  1  0.411600  0.567100  0.252300  1.0  -0.0489
  C  C599  1  0.395500  0.570500  0.217100  1.0  -0.0992
  C  C600  1  0.109400  0.872300  0.168130  1.0  -0.1986
  C  C601  1  0.443900  0.625400  0.252600  1.0  -0.1172
  C  C602  1  0.433100  0.635300  0.217600  1.0  -0.0205
  C  C603  1  0.069660  0.990900  0.389170  1.0  -0.0395
  C  C604  1  0.774550  0.991200  0.365250  1.0  -0.1646
  C  C605  1  0.980670  0.037030  0.359610  1.0  0.6594
  C  C606  1  0.031370  0.989100  0.359770  1.0  -0.1558
  C  C607  1  0.764280  0.951300  0.394730  1.0  -0.0354
  C  C608  1  0.824690  0.039430  0.365060  1.0  0.6542
  C  C609  1  0.737240  0.988100  0.335240  1.0  -0.0485
  C  C610  1  0.678310  0.905200  0.365510  1.0  0.0913
  C  C611  1  0.327020  0.727600  0.363150  1.0  0.6874
  C  C612  1  0.518820  0.636800  0.533620  1.0  0.1418
  C  C613  1  0.482370  0.725000  0.365690  1.0  0.6731
  C  C614  1  0.644160  0.693000  0.613690  1.0  0.2782
  C  C615  1  0.433980  0.569200  0.509480  1.0  -0.1334
  C  C616  1  0.689690  0.946300  0.335150  1.0  -0.1525
  C  C617  1  0.403090  0.569900  0.477810  1.0  0.0072
  C  C618  1  0.840200  0.837700  0.680060  1.0  0.1635
  C  C619  1  0.277020  0.776700  0.362970  1.0  -0.1503
  C  C620  1  0.535430  0.585600  0.559150  1.0  -0.2032
  C  C621  1  0.599770  0.671000  0.586820  1.0  0.0409
  C  C622  1  0.627100  0.860600  0.365300  1.0  0.0691
  C  C623  1  0.576220  0.604400  0.585670  1.0  -0.1383
  C  C624  1  0.716680  0.908500  0.394950  1.0  -0.1318
  C  C625  1  0.118170  0.949400  0.389870  1.0  -0.1303
  C  C626  1  0.531510  0.773900  0.365590  1.0  -0.1531
  C  C627  1  0.251400  0.790500  0.393930  1.0  -0.0532
  C  C628  1  0.715210  0.740100  0.640080  1.0  0.314
  C  C629  1  0.128300  0.905300  0.361020  1.0  0.0341
  C  C630  1  0.554680  0.804400  0.397080  1.0  -0.0352
  C  C631  1  0.179880  0.860700  0.361480  1.0  0.0431
  C  C632  1  0.468850  0.647200  0.473790  1.0  0.1092
  C  C633  1  0.840100  0.842100  0.617120  1.0  -0.0727
  C  C634  1  0.556370  0.788500  0.333950  1.0  -0.0354
  C  C635  1  0.601600  0.847500  0.397350  1.0  -0.0997
  C  C636  1  0.859120  0.841200  0.745690  1.0  0.1481
  C  C637  1  0.791940  0.798700  0.678430  1.0  -0.1587
  C  C638  1  0.767000  0.781100  0.645450  1.0  -0.0802
  C  C639  1  0.040820  0.945700  0.330830  1.0  -0.0818
  C  C640  1  0.203600  0.831900  0.393500  1.0  -0.1492
  C  C641  1  0.542400  0.704300  0.533860  1.0  -0.1937
  C  C642  1  0.583600  0.721100  0.560000  1.0  -0.0652
  C  C643  1  0.863700  0.859700  0.648960  1.0  -0.1688
  C  C644  1  0.088730  0.903800  0.331260  1.0  -0.1057
  C  C645  1  0.603330  0.830200  0.334020  1.0  -0.1276
  C  C646  1  0.206300  0.847700  0.330360  1.0  -0.1378
  C  C647  1  0.793300  0.804900  0.615800  1.0  -0.0556
  C  C648  1  0.254200  0.806400  0.330870  1.0  -0.064
  C  C649  1  0.911600  0.932900  0.752300  1.0  -0.0455
  C  C650  1  0.895500  0.929500  0.717100  1.0  -0.0952
  C  C651  1  0.609400  0.627700  0.668130  1.0  -0.1994
  C  C652  1  0.943900  0.874600  0.752600  1.0  -0.1146
  C  C653  1  0.933100  0.864700  0.717600  1.0  -0.0254
  C  C654  1  0.569660  0.490900  0.389170  1.0  -0.0395
  C  C655  1  0.274550  0.491200  0.365250  1.0  -0.1646
  C  C656  1  0.480670  0.537030  0.359610  1.0  0.6594
  C  C657  1  0.531370  0.489100  0.359770  1.0  -0.1558
  C  C658  1  0.264280  0.451300  0.394730  1.0  -0.0354
  C  C659  1  0.324690  0.539430  0.365060  1.0  0.6542
  C  C660  1  0.237240  0.488100  0.335240  1.0  -0.0485
  C  C661  1  0.178310  0.405200  0.365510  1.0  0.0913
  C  C662  1  0.827020  0.227600  0.363150  1.0  0.6874
  C  C663  1  0.018820  0.136800  0.533620  1.0  0.1418
  C  C664  1  0.982370  0.225000  0.365690  1.0  0.6731
  C  C665  1  0.144160  0.193000  0.613690  1.0  0.2782
  C  C666  1  0.933980  0.069200  0.509480  1.0  -0.1334
  C  C667  1  0.189690  0.446300  0.335150  1.0  -0.1525
  C  C668  1  0.903090  0.069900  0.477810  1.0  0.0072
  C  C669  1  0.340200  0.337700  0.680060  1.0  0.1635
  C  C670  1  0.777020  0.276700  0.362970  1.0  -0.1503
  C  C671  1  0.035430  0.085600  0.559150  1.0  -0.203
  C  C672  1  0.099770  0.171000  0.586820  1.0  0.0409
  C  C673  1  0.127100  0.360600  0.365300  1.0  0.0691
  C  C674  1  0.076220  0.104400  0.585670  1.0  -0.1383
  C  C675  1  0.216680  0.408500  0.394950  1.0  -0.1318
  C  C676  1  0.618170  0.449400  0.389870  1.0  -0.1303
  C  C677  1  0.031510  0.273900  0.365590  1.0  -0.1531
  C  C678  1  0.751400  0.290500  0.393930  1.0  -0.0532
  C  C679  1  0.215210  0.240100  0.640080  1.0  0.314
  C  C680  1  0.628300  0.405300  0.361020  1.0  0.0341
  C  C681  1  0.054680  0.304400  0.397080  1.0  -0.0352
  C  C682  1  0.679880  0.360700  0.361480  1.0  0.0431
  C  C683  1  0.968850  0.147200  0.473790  1.0  0.1092
  C  C684  1  0.340100  0.342100  0.617120  1.0  -0.0727
  C  C685  1  0.056370  0.288500  0.333950  1.0  -0.0354
  C  C686  1  0.101600  0.347500  0.397350  1.0  -0.0997
  C  C687  1  0.359120  0.341200  0.745690  1.0  0.1481
  C  C688  1  0.291940  0.298700  0.678430  1.0  -0.1587
  C  C689  1  0.267000  0.281100  0.645450  1.0  -0.0802
  C  C690  1  0.540820  0.445700  0.330830  1.0  -0.0818
  C  C691  1  0.703600  0.331900  0.393500  1.0  -0.1492
  C  C692  1  0.042400  0.204300  0.533860  1.0  -0.1937
  C  C693  1  0.083600  0.221100  0.560000  1.0  -0.0652
  C  C694  1  0.363700  0.359700  0.648960  1.0  -0.1688
  C  C695  1  0.588730  0.403800  0.331260  1.0  -0.1057
  C  C696  1  0.103330  0.330200  0.334020  1.0  -0.1276
  C  C697  1  0.706300  0.347700  0.330360  1.0  -0.1378
  C  C698  1  0.293300  0.304900  0.615800  1.0  -0.0556
  C  C699  1  0.754200  0.306400  0.330870  1.0  -0.064
  C  C700  1  0.411600  0.432900  0.752300  1.0  -0.0455
  C  C701  1  0.395500  0.429500  0.717100  1.0  -0.0952
  C  C702  1  0.109400  0.127700  0.668130  1.0  -0.1994
  C  C703  1  0.443900  0.374600  0.752600  1.0  -0.1146
  C  C704  1  0.433100  0.364700  0.717600  1.0  -0.0254
  N  N705  1  0.106800  0.130540  0.229810  1.0  0.0383
  N  N706  1  0.524190  0.381150  0.493200  1.0  0.0317
  N  N707  1  0.575160  0.380530  0.544540  1.0  -0.3977
  N  N708  1  0.352710  0.328800  0.351940  1.0  0.1599
  N  N709  1  0.306700  0.298500  0.334920  1.0  -0.396
  N  N710  1  0.313980  0.264200  0.392400  1.0  -0.3709
  N  N711  1  0.130850  0.141200  0.286940  1.0  0.053
  N  N712  1  0.606800  0.630540  0.229810  1.0  0.0383
  N  N713  1  0.024190  0.881150  0.493200  1.0  0.0317
  N  N714  1  0.075160  0.880530  0.544540  1.0  -0.3977
  N  N715  1  0.852710  0.828800  0.351940  1.0  0.1599
  N  N716  1  0.806700  0.798500  0.334920  1.0  -0.396
  N  N717  1  0.813980  0.764200  0.392400  1.0  -0.3709
  N  N718  1  0.630850  0.641200  0.286940  1.0  0.053
  N  N719  1  0.106800  0.869460  0.729810  1.0  0.0376
  N  N720  1  0.524190  0.618850  0.993200  1.0  0.0312
  N  N721  1  0.575160  0.619470  0.044540  1.0  -0.3986
  N  N722  1  0.352710  0.671200  0.851940  1.0  0.1621
  N  N723  1  0.306700  0.701500  0.834920  1.0  -0.3961
  N  N724  1  0.313980  0.735800  0.892400  1.0  -0.3715
  N  N725  1  0.130850  0.858800  0.786940  1.0  0.0534
  N  N726  1  0.606800  0.369460  0.729810  1.0  0.0376
  N  N727  1  0.024190  0.118850  0.993200  1.0  0.0312
  N  N728  1  0.075160  0.119470  0.044540  1.0  -0.3986
  N  N729  1  0.852710  0.171200  0.851940  1.0  0.1621
  N  N730  1  0.806700  0.201500  0.834920  1.0  -0.3961
  N  N731  1  0.813980  0.235800  0.892400  1.0  -0.3715
  N  N732  1  0.630850  0.358800  0.786940  1.0  0.0534
  N  N733  1  0.893200  0.130540  0.270190  1.0  0.0432
  N  N734  1  0.475810  0.381150  0.006800  1.0  0.0318
  N  N735  1  0.424840  0.380530  0.955460  1.0  -0.3998
  N  N736  1  0.647290  0.328800  0.148060  1.0  0.1599
  N  N737  1  0.693300  0.298500  0.165080  1.0  -0.3929
  N  N738  1  0.686020  0.264200  0.107600  1.0  -0.366
  N  N739  1  0.869150  0.141200  0.213060  1.0  0.0517
  N  N740  1  0.393200  0.630540  0.270190  1.0  0.0432
  N  N741  1  0.975810  0.881150  0.006800  1.0  0.0318
  N  N742  1  0.924840  0.880530  0.955460  1.0  -0.3998
  N  N743  1  0.147290  0.828800  0.148060  1.0  0.1599
  N  N744  1  0.193300  0.798500  0.165080  1.0  -0.3929
  N  N745  1  0.186020  0.764200  0.107600  1.0  -0.366
  N  N746  1  0.369150  0.641200  0.213060  1.0  0.0517
  N  N747  1  0.893200  0.869460  0.770190  1.0  0.0428
  N  N748  1  0.475810  0.618850  0.506800  1.0  0.031
  N  N749  1  0.424840  0.619470  0.455460  1.0  -0.3988
  N  N750  1  0.647290  0.671200  0.648060  1.0  0.1616
  N  N751  1  0.693300  0.701500  0.665080  1.0  -0.4041
  N  N752  1  0.686020  0.735800  0.607600  1.0  -0.3719
  N  N753  1  0.869150  0.858800  0.713060  1.0  0.0515
  N  N754  1  0.393200  0.369460  0.770190  1.0  0.0428
  N  N755  1  0.975810  0.118850  0.506800  1.0  0.031
  N  N756  1  0.924840  0.119470  0.455460  1.0  -0.3988
  N  N757  1  0.147290  0.171200  0.648060  1.0  0.1616
  N  N758  1  0.193300  0.201500  0.665080  1.0  -0.4041
  N  N759  1  0.186020  0.235800  0.607600  1.0  -0.3719
  N  N760  1  0.369150  0.358800  0.713060  1.0  0.0515
  O  O761  1  0.147390  0.950900  0.605810  1.0  -0.5994
  O  O762  1  0.656520  0.299900  0.607340  1.0  -0.6243
  O  O763  1  0.538440  0.285280  0.604610  1.0  -0.5937
  O  O764  1  0.029760  0.935580  0.611280  1.0  -0.5944
  O  O765  1  0.165340  0.932700  0.664380  1.0  -0.6184
  O  O766  1  0.534230  0.304020  0.663620  1.0  -0.6088
  O  O767  1  0.047740  0.954630  0.669970  1.0  -0.5756
  O  O768  1  0.652470  0.283180  0.666290  1.0  -0.6025
  O  O769  1  0.647390  0.450900  0.605810  1.0  -0.5994
  O  O770  1  0.156520  0.799900  0.607340  1.0  -0.6243
  O  O771  1  0.038440  0.785280  0.604610  1.0  -0.5937
  O  O772  1  0.529760  0.435580  0.611280  1.0  -0.5944
  O  O773  1  0.665340  0.432700  0.664380  1.0  -0.6184
  O  O774  1  0.034230  0.804020  0.663620  1.0  -0.6076
  O  O775  1  0.547740  0.454630  0.669970  1.0  -0.5764
  O  O776  1  0.152470  0.783180  0.666290  1.0  -0.6021
  O  O777  1  0.147390  0.049100  0.105810  1.0  -0.5986
  O  O778  1  0.656520  0.700100  0.107340  1.0  -0.6248
  O  O779  1  0.538440  0.714720  0.104610  1.0  -0.5936
  O  O780  1  0.029760  0.064420  0.111280  1.0  -0.5942
  O  O781  1  0.165340  0.067300  0.164380  1.0  -0.6183
  O  O782  1  0.534230  0.695980  0.163620  1.0  -0.6095
  O  O783  1  0.047740  0.045370  0.169970  1.0  -0.5754
  O  O784  1  0.652470  0.716820  0.166290  1.0  -0.6012
  O  O785  1  0.647390  0.549100  0.105810  1.0  -0.5988
  O  O786  1  0.156520  0.200100  0.107340  1.0  -0.6248
  O  O787  1  0.038440  0.214720  0.104610  1.0  -0.5936
  O  O788  1  0.529760  0.564420  0.111280  1.0  -0.5942
  O  O789  1  0.665340  0.567300  0.164380  1.0  -0.6183
  O  O790  1  0.034230  0.195980  0.163620  1.0  -0.6093
  O  O791  1  0.547740  0.545370  0.169970  1.0  -0.5761
  O  O792  1  0.152470  0.216820  0.166290  1.0  -0.6014
  O  O793  1  0.852610  0.950900  0.894190  1.0  -0.5985
  O  O794  1  0.343480  0.299900  0.892660  1.0  -0.6238
  O  O795  1  0.461560  0.285280  0.895390  1.0  -0.5955
  O  O796  1  0.970240  0.935580  0.888720  1.0  -0.594
  O  O797  1  0.834660  0.932700  0.835620  1.0  -0.6183
  O  O798  1  0.465770  0.304020  0.836380  1.0  -0.6085
  O  O799  1  0.952260  0.954630  0.830030  1.0  -0.5766
  O  O800  1  0.347530  0.283180  0.833710  1.0  -0.6015
  O  O801  1  0.352610  0.450900  0.894190  1.0  -0.5985
  O  O802  1  0.843480  0.799900  0.892660  1.0  -0.6238
  O  O803  1  0.961560  0.785280  0.895390  1.0  -0.5955
  O  O804  1  0.470240  0.435580  0.888720  1.0  -0.5941
  O  O805  1  0.334660  0.432700  0.835620  1.0  -0.6183
  O  O806  1  0.965770  0.804020  0.836380  1.0  -0.6085
  O  O807  1  0.452260  0.454630  0.830030  1.0  -0.5766
  O  O808  1  0.847530  0.783180  0.833710  1.0  -0.6015
  O  O809  1  0.852610  0.049100  0.394190  1.0  -0.5989
  O  O810  1  0.343480  0.700100  0.392660  1.0  -0.6243
  O  O811  1  0.461560  0.714720  0.395390  1.0  -0.5927
  O  O812  1  0.970240  0.064420  0.388720  1.0  -0.5941
  O  O813  1  0.834660  0.067300  0.335620  1.0  -0.6181
  O  O814  1  0.465770  0.695980  0.336380  1.0  -0.6084
  O  O815  1  0.952260  0.045370  0.330030  1.0  -0.5766
  O  O816  1  0.347530  0.716820  0.333710  1.0  -0.6027
  O  O817  1  0.352610  0.549100  0.394190  1.0  -0.5988
  O  O818  1  0.843480  0.200100  0.392660  1.0  -0.6243
  O  O819  1  0.961560  0.214720  0.395390  1.0  -0.5927
  O  O820  1  0.470240  0.564420  0.388720  1.0  -0.594
  O  O821  1  0.334660  0.567300  0.335620  1.0  -0.6181
  O  O822  1  0.965770  0.195980  0.336380  1.0  -0.6084
  O  O823  1  0.452260  0.545370  0.330030  1.0  -0.5766
  O  O824  1  0.847530  0.216820  0.333710  1.0  -0.6028
