# generated using pymatgen
data_Co8H84C112N8O21
_symmetry_space_group_name_H-M   'P 1'
_cell_length_a   17.46750000
_cell_length_b   17.46750000
_cell_length_c   57.83600000
_cell_angle_alpha   90.00000000
_cell_angle_beta   90.00000000
_cell_angle_gamma   90.00000000
_symmetry_Int_Tables_number   1
_chemical_formula_structural   Co8H84C112N8O21
_chemical_formula_sum   'Co32 H336 C448 N32 O84'
_cell_volume   17646.54763928
_cell_formula_units_Z   4
loop_
 _symmetry_equiv_pos_site_id
 _symmetry_equiv_pos_as_xyz
  1  'x, y, z'
loop_
 _atom_site_type_symbol
 _atom_site_label
 _atom_site_symmetry_multiplicity
 _atom_site_fract_x
 _atom_site_fract_y
 _atom_site_fract_z
 _atom_site_occupancy
 _atom_site_charge
  Co  Co1  1  0.134140  0.403940  0.587590  1.0  0.8304
  Co  Co2  1  0.122840  0.226820  0.619990  1.0  1.0952
  Co  Co3  1  0.634140  0.903940  0.087590  1.0  0.8304
  Co  Co4  1  0.622840  0.726820  0.119990  1.0  1.0952
  Co  Co5  1  0.365860  0.596060  0.087590  1.0  0.827
  Co  Co6  1  0.377160  0.773180  0.119990  1.0  1.0959
  Co  Co7  1  0.865860  0.096060  0.587590  1.0  0.827
  Co  Co8  1  0.877160  0.273180  0.619990  1.0  1.0959
  Co  Co9  1  0.346060  0.384140  0.837590  1.0  0.8232
  Co  Co10  1  0.523180  0.372840  0.869990  1.0  1.0945
  Co  Co11  1  0.846060  0.884140  0.337590  1.0  0.8232
  Co  Co12  1  0.023180  0.872840  0.369990  1.0  1.0945
  Co  Co13  1  0.153940  0.615860  0.337590  1.0  0.8263
  Co  Co14  1  0.976820  0.627160  0.369990  1.0  1.0956
  Co  Co15  1  0.653940  0.115860  0.837590  1.0  0.8263
  Co  Co16  1  0.476820  0.127160  0.869990  1.0  1.0956
  Co  Co17  1  0.865860  0.596060  0.412410  1.0  0.8269
  Co  Co18  1  0.877160  0.773180  0.380010  1.0  1.0985
  Co  Co19  1  0.365860  0.096060  0.912410  1.0  0.8269
  Co  Co20  1  0.377160  0.273180  0.880010  1.0  1.0985
  Co  Co21  1  0.634140  0.403940  0.912410  1.0  0.8294
  Co  Co22  1  0.622840  0.226820  0.880010  1.0  1.0977
  Co  Co23  1  0.134140  0.903940  0.412410  1.0  0.8294
  Co  Co24  1  0.122840  0.726820  0.380010  1.0  1.0977
  Co  Co25  1  0.653940  0.615860  0.162410  1.0  0.8263
  Co  Co26  1  0.476820  0.627160  0.130010  1.0  1.0987
  Co  Co27  1  0.153940  0.115860  0.662410  1.0  0.8263
  Co  Co28  1  0.976820  0.127160  0.630010  1.0  1.0987
  Co  Co29  1  0.846060  0.384140  0.662410  1.0  0.8216
  Co  Co30  1  0.023180  0.372840  0.630010  1.0  1.0999
  Co  Co31  1  0.346060  0.884140  0.162410  1.0  0.8216
  Co  Co32  1  0.523180  0.872840  0.130010  1.0  1.0999
  H  H33  1  0.171300  0.354300  0.625500  1.0  0.4864
  H  H34  1  0.724100  0.178000  0.567700  1.0  0.0645
  H  H35  1  0.595100  0.188300  0.573700  1.0  0.0926
  H  H36  1  0.606200  0.001400  0.613300  1.0  0.1074
  H  H37  1  0.734400  0.997000  0.607000  1.0  0.0736
  H  H38  1  0.465600  0.155200  0.572100  1.0  0.1077
  H  H39  1  0.341000  0.176900  0.584200  1.0  0.0869
  H  H40  1  0.390500  0.087800  0.646300  1.0  0.0882
  H  H41  1  0.513000  0.061200  0.634000  1.0  0.1033
  H  H42  1  0.050100  0.407700  0.541200  1.0  0.0705
  H  H43  1  0.040100  0.478700  0.507300  1.0  0.1049
  H  H44  1  0.185600  0.633300  0.536100  1.0  0.0714
  H  H45  1  0.189800  0.557800  0.568600  1.0  0.0597
  H  H46  1  0.126000  0.518000  0.472300  1.0  0.1063
  H  H47  1  0.121600  0.591900  0.438900  1.0  0.0896
  H  H48  1  0.107300  0.784000  0.477100  1.0  0.0858
  H  H49  1  0.106100  0.711100  0.510700  1.0  0.0969
  H  H50  1  0.197100  0.404700  0.538200  1.0  0.0716
  H  H51  1  0.196900  0.476400  0.504700  1.0  0.1168
  H  H52  1  0.046400  0.620700  0.535600  1.0  0.069
  H  H53  1  0.060200  0.548500  0.568300  1.0  0.056
  H  H54  1  0.671300  0.854300  0.125500  1.0  0.4864
  H  H55  1  0.224100  0.678000  0.067700  1.0  0.0645
  H  H56  1  0.095100  0.688300  0.073700  1.0  0.0926
  H  H57  1  0.106200  0.501400  0.113300  1.0  0.1064
  H  H58  1  0.234400  0.497000  0.107000  1.0  0.0736
  H  H59  1  0.965600  0.655200  0.072100  1.0  0.1077
  H  H60  1  0.841000  0.676900  0.084200  1.0  0.0869
  H  H61  1  0.890500  0.587800  0.146300  1.0  0.0882
  H  H62  1  0.013000  0.561200  0.134000  1.0  0.1033
  H  H63  1  0.550100  0.907700  0.041200  1.0  0.0704
  H  H64  1  0.540100  0.978700  0.007300  1.0  0.1049
  H  H65  1  0.685600  0.133300  0.036100  1.0  0.0716
  H  H66  1  0.689800  0.057800  0.068600  1.0  0.0597
  H  H67  1  0.626000  0.018000  0.972300  1.0  0.1063
  H  H68  1  0.621600  0.091900  0.938900  1.0  0.0896
  H  H69  1  0.607300  0.284000  0.977100  1.0  0.0858
  H  H70  1  0.606100  0.211100  0.010700  1.0  0.0969
  H  H71  1  0.697100  0.904700  0.038200  1.0  0.0716
  H  H72  1  0.696900  0.976400  0.004700  1.0  0.1167
  H  H73  1  0.546400  0.120700  0.035600  1.0  0.0693
  H  H74  1  0.560200  0.048500  0.068300  1.0  0.056
  H  H75  1  0.328700  0.645700  0.125500  1.0  0.4875
  H  H76  1  0.775900  0.822000  0.067700  1.0  0.0646
  H  H77  1  0.904900  0.811700  0.073700  1.0  0.0932
  H  H78  1  0.893800  0.998600  0.113300  1.0  0.1065
  H  H79  1  0.765600  0.003000  0.107000  1.0  0.0741
  H  H80  1  0.034400  0.844800  0.072100  1.0  0.1078
  H  H81  1  0.159000  0.823100  0.084200  1.0  0.087
  H  H82  1  0.109500  0.912200  0.146300  1.0  0.0886
  H  H83  1  0.987000  0.938800  0.134000  1.0  0.103
  H  H84  1  0.449900  0.592300  0.041200  1.0  0.071
  H  H85  1  0.459900  0.521300  0.007300  1.0  0.1041
  H  H86  1  0.314400  0.366700  0.036100  1.0  0.0704
  H  H87  1  0.310200  0.442200  0.068600  1.0  0.0609
  H  H88  1  0.374000  0.482000  0.972300  1.0  0.1051
  H  H89  1  0.378400  0.408100  0.938900  1.0  0.0898
  H  H90  1  0.392700  0.216000  0.977100  1.0  0.0857
  H  H91  1  0.393900  0.288900  0.010700  1.0  0.0981
  H  H92  1  0.302900  0.595300  0.038200  1.0  0.0722
  H  H93  1  0.303100  0.523600  0.004700  1.0  0.1163
  H  H94  1  0.453600  0.379300  0.035600  1.0  0.0677
  H  H95  1  0.439800  0.451500  0.068300  1.0  0.0567
  H  H96  1  0.828700  0.145700  0.625500  1.0  0.4875
  H  H97  1  0.275900  0.322000  0.567700  1.0  0.0646
  H  H98  1  0.404900  0.311700  0.573700  1.0  0.0932
  H  H99  1  0.393800  0.498600  0.613300  1.0  0.1076
  H  H100  1  0.265600  0.503000  0.607000  1.0  0.0741
  H  H101  1  0.534400  0.344800  0.572100  1.0  0.1078
  H  H102  1  0.659000  0.323100  0.584200  1.0  0.087
  H  H103  1  0.609500  0.412200  0.646300  1.0  0.0886
  H  H104  1  0.487000  0.438800  0.634000  1.0  0.103
  H  H105  1  0.949900  0.092300  0.541200  1.0  0.071
  H  H106  1  0.959900  0.021300  0.507300  1.0  0.1041
  H  H107  1  0.814400  0.866700  0.536100  1.0  0.0707
  H  H108  1  0.810200  0.942200  0.568600  1.0  0.0609
  H  H109  1  0.874000  0.982000  0.472300  1.0  0.1051
  H  H110  1  0.878400  0.908100  0.438900  1.0  0.0898
  H  H111  1  0.892700  0.716000  0.477100  1.0  0.0857
  H  H112  1  0.893900  0.788900  0.510700  1.0  0.0981
  H  H113  1  0.802900  0.095300  0.538200  1.0  0.0722
  H  H114  1  0.803100  0.023600  0.504700  1.0  0.1163
  H  H115  1  0.953600  0.879300  0.535600  1.0  0.0677
  H  H116  1  0.939800  0.951500  0.568300  1.0  0.0567
  H  H117  1  0.395700  0.421300  0.875500  1.0  0.4864
  H  H118  1  0.572000  0.974100  0.817700  1.0  0.064
  H  H119  1  0.561700  0.845100  0.823700  1.0  0.0932
  H  H120  1  0.748600  0.856200  0.863300  1.0  0.1072
  H  H121  1  0.753000  0.984400  0.857000  1.0  0.0715
  H  H122  1  0.594800  0.715600  0.822100  1.0  0.1078
  H  H123  1  0.573100  0.591000  0.834200  1.0  0.0867
  H  H124  1  0.662200  0.640500  0.896300  1.0  0.0892
  H  H125  1  0.688800  0.763000  0.884000  1.0  0.1023
  H  H126  1  0.342300  0.300100  0.791200  1.0  0.0708
  H  H127  1  0.271300  0.290100  0.757300  1.0  0.1049
  H  H128  1  0.116700  0.435600  0.786100  1.0  0.0707
  H  H129  1  0.192200  0.439800  0.818600  1.0  0.0611
  H  H130  1  0.232000  0.376000  0.722300  1.0  0.1085
  H  H131  1  0.158100  0.371600  0.688900  1.0  0.0896
  H  H132  1  0.966000  0.357300  0.727100  1.0  0.0859
  H  H133  1  0.038900  0.356100  0.760700  1.0  0.0983
  H  H134  1  0.345300  0.447100  0.788200  1.0  0.0714
  H  H135  1  0.273600  0.446900  0.754700  1.0  0.1171
  H  H136  1  0.129300  0.296400  0.785600  1.0  0.0689
  H  H137  1  0.201500  0.310200  0.818300  1.0  0.0588
  H  H138  1  0.895700  0.921300  0.375500  1.0  0.4864
  H  H139  1  0.072000  0.474100  0.317700  1.0  0.064
  H  H140  1  0.061700  0.345100  0.323700  1.0  0.0932
  H  H141  1  0.248600  0.356200  0.363300  1.0  0.1072
  H  H142  1  0.253000  0.484400  0.357000  1.0  0.0715
  H  H143  1  0.094800  0.215600  0.322100  1.0  0.1078
  H  H144  1  0.073100  0.091000  0.334200  1.0  0.0867
  H  H145  1  0.162200  0.140500  0.396300  1.0  0.0892
  H  H146  1  0.188800  0.263000  0.384000  1.0  0.1023
  H  H147  1  0.842300  0.800100  0.291200  1.0  0.0708
  H  H148  1  0.771300  0.790100  0.257300  1.0  0.1049
  H  H149  1  0.616700  0.935600  0.286100  1.0  0.07
  H  H150  1  0.692200  0.939800  0.318600  1.0  0.0611
  H  H151  1  0.732000  0.876000  0.222300  1.0  0.1085
  H  H152  1  0.658100  0.871600  0.188900  1.0  0.0896
  H  H153  1  0.466000  0.857300  0.227100  1.0  0.0859
  H  H154  1  0.538900  0.856100  0.260700  1.0  0.0983
  H  H155  1  0.845300  0.947100  0.288200  1.0  0.0714
  H  H156  1  0.773600  0.946900  0.254700  1.0  0.1178
  H  H157  1  0.629300  0.796400  0.285600  1.0  0.0689
  H  H158  1  0.701500  0.810200  0.318300  1.0  0.0588
  H  H159  1  0.104300  0.578700  0.375500  1.0  0.4847
  H  H160  1  0.928000  0.025900  0.317700  1.0  0.0641
  H  H161  1  0.938300  0.154900  0.323700  1.0  0.0917
  H  H162  1  0.751400  0.143800  0.363300  1.0  0.1075
  H  H163  1  0.747000  0.015600  0.357000  1.0  0.0709
  H  H164  1  0.905200  0.284400  0.322100  1.0  0.1075
  H  H165  1  0.926900  0.409000  0.334200  1.0  0.0868
  H  H166  1  0.837800  0.359500  0.396300  1.0  0.0889
  H  H167  1  0.811200  0.237000  0.384000  1.0  0.1027
  H  H168  1  0.157700  0.699900  0.291200  1.0  0.0705
  H  H169  1  0.228700  0.709900  0.257300  1.0  0.1049
  H  H170  1  0.383300  0.564400  0.286100  1.0  0.0711
  H  H171  1  0.307800  0.560200  0.318600  1.0  0.0611
  H  H172  1  0.268000  0.624000  0.222300  1.0  0.1063
  H  H173  1  0.341900  0.628400  0.188900  1.0  0.0897
  H  H174  1  0.534000  0.642700  0.227100  1.0  0.0869
  H  H175  1  0.461100  0.643900  0.260700  1.0  0.0983
  H  H176  1  0.154700  0.552900  0.288200  1.0  0.0717
  H  H177  1  0.226400  0.553100  0.254700  1.0  0.1169
  H  H178  1  0.370700  0.703600  0.285600  1.0  0.0671
  H  H179  1  0.298500  0.689800  0.318300  1.0  0.0564
  H  H180  1  0.604300  0.078700  0.875500  1.0  0.4847
  H  H181  1  0.428000  0.525900  0.817700  1.0  0.0641
  H  H182  1  0.438300  0.654900  0.823700  1.0  0.0917
  H  H183  1  0.251400  0.643800  0.863300  1.0  0.1075
  H  H184  1  0.247000  0.515600  0.857000  1.0  0.0709
  H  H185  1  0.405200  0.784400  0.822100  1.0  0.1075
  H  H186  1  0.426900  0.909000  0.834200  1.0  0.0868
  H  H187  1  0.337800  0.859500  0.896300  1.0  0.0889
  H  H188  1  0.311200  0.737000  0.884000  1.0  0.1027
  H  H189  1  0.657700  0.199900  0.791200  1.0  0.0705
  H  H190  1  0.728700  0.209900  0.757300  1.0  0.1049
  H  H191  1  0.883300  0.064400  0.786100  1.0  0.0714
  H  H192  1  0.807800  0.060200  0.818600  1.0  0.0611
  H  H193  1  0.768000  0.124000  0.722300  1.0  0.1063
  H  H194  1  0.841900  0.128400  0.688900  1.0  0.0897
  H  H195  1  0.034000  0.142700  0.727100  1.0  0.0869
  H  H196  1  0.961100  0.143900  0.760700  1.0  0.0983
  H  H197  1  0.654700  0.052900  0.788200  1.0  0.0717
  H  H198  1  0.726400  0.053100  0.754700  1.0  0.1173
  H  H199  1  0.870700  0.203600  0.785600  1.0  0.0671
  H  H200  1  0.798500  0.189800  0.818300  1.0  0.0564
  H  H201  1  0.828700  0.645700  0.374500  1.0  0.4888
  H  H202  1  0.275900  0.822000  0.432300  1.0  0.0648
  H  H203  1  0.404900  0.811700  0.426300  1.0  0.0936
  H  H204  1  0.393800  0.998600  0.386700  1.0  0.1076
  H  H205  1  0.265600  0.003000  0.393000  1.0  0.0741
  H  H206  1  0.534400  0.844800  0.427900  1.0  0.1074
  H  H207  1  0.659000  0.823100  0.415800  1.0  0.0871
  H  H208  1  0.609500  0.912200  0.353700  1.0  0.0883
  H  H209  1  0.487000  0.938800  0.366000  1.0  0.1031
  H  H210  1  0.949900  0.592300  0.458800  1.0  0.0715
  H  H211  1  0.959900  0.521300  0.492700  1.0  0.1034
  H  H212  1  0.814400  0.366700  0.463900  1.0  0.0704
  H  H213  1  0.810200  0.442200  0.431400  1.0  0.06
  H  H214  1  0.874000  0.482000  0.527700  1.0  0.1046
  H  H215  1  0.878400  0.408100  0.561100  1.0  0.0894
  H  H216  1  0.892700  0.216000  0.522900  1.0  0.086
  H  H217  1  0.893900  0.288900  0.489300  1.0  0.0968
  H  H218  1  0.802900  0.595300  0.461800  1.0  0.0721
  H  H219  1  0.803100  0.523600  0.495300  1.0  0.1172
  H  H220  1  0.953600  0.379300  0.464400  1.0  0.069
  H  H221  1  0.939800  0.451500  0.431700  1.0  0.0573
  H  H222  1  0.328700  0.145700  0.874500  1.0  0.4888
  H  H223  1  0.775900  0.322000  0.932300  1.0  0.0648
  H  H224  1  0.904900  0.311700  0.926300  1.0  0.0936
  H  H225  1  0.893800  0.498600  0.886700  1.0  0.1067
  H  H226  1  0.765600  0.503000  0.893000  1.0  0.0741
  H  H227  1  0.034400  0.344800  0.927900  1.0  0.1074
  H  H228  1  0.159000  0.323100  0.915800  1.0  0.0871
  H  H229  1  0.109500  0.412200  0.853700  1.0  0.0883
  H  H230  1  0.987000  0.438800  0.866000  1.0  0.1031
  H  H231  1  0.449900  0.092300  0.958800  1.0  0.0715
  H  H232  1  0.459900  0.021300  0.992700  1.0  0.1034
  H  H233  1  0.314400  0.866700  0.963900  1.0  0.0706
  H  H234  1  0.310200  0.942200  0.931400  1.0  0.06
  H  H235  1  0.374000  0.982000  0.027700  1.0  0.1046
  H  H236  1  0.378400  0.908100  0.061100  1.0  0.0894
  H  H237  1  0.392700  0.716000  0.022900  1.0  0.086
  H  H238  1  0.393900  0.788900  0.989300  1.0  0.0968
  H  H239  1  0.302900  0.095300  0.961800  1.0  0.0721
  H  H240  1  0.303100  0.023600  0.995300  1.0  0.1172
  H  H241  1  0.453600  0.879300  0.964400  1.0  0.0694
  H  H242  1  0.439800  0.951500  0.931700  1.0  0.0573
  H  H243  1  0.671300  0.354300  0.874500  1.0  0.4876
  H  H244  1  0.224100  0.178000  0.932300  1.0  0.0646
  H  H245  1  0.095100  0.188300  0.926300  1.0  0.0928
  H  H246  1  0.106200  0.001400  0.886700  1.0  0.106
  H  H247  1  0.234400  0.997000  0.893000  1.0  0.0736
  H  H248  1  0.965600  0.155200  0.927900  1.0  0.1079
  H  H249  1  0.841000  0.176900  0.915800  1.0  0.087
  H  H250  1  0.890500  0.087800  0.853700  1.0  0.0883
  H  H251  1  0.013000  0.061200  0.866000  1.0  0.1032
  H  H252  1  0.550100  0.407700  0.958800  1.0  0.0702
  H  H253  1  0.540100  0.478700  0.992700  1.0  0.1047
  H  H254  1  0.685600  0.633300  0.963900  1.0  0.0709
  H  H255  1  0.689800  0.557800  0.931400  1.0  0.0602
  H  H256  1  0.626000  0.518000  0.027700  1.0  0.1053
  H  H257  1  0.621600  0.591900  0.061100  1.0  0.0887
  H  H258  1  0.607300  0.784000  0.022900  1.0  0.0863
  H  H259  1  0.606100  0.711100  0.989300  1.0  0.097
  H  H260  1  0.697100  0.404700  0.961800  1.0  0.0722
  H  H261  1  0.696900  0.476400  0.995300  1.0  0.1166
  H  H262  1  0.546400  0.620700  0.964400  1.0  0.0676
  H  H263  1  0.560200  0.548500  0.931700  1.0  0.0568
  H  H264  1  0.171300  0.854300  0.374500  1.0  0.4876
  H  H265  1  0.724100  0.678000  0.432300  1.0  0.0646
  H  H266  1  0.595100  0.688300  0.426300  1.0  0.0928
  H  H267  1  0.606200  0.501400  0.386700  1.0  0.1071
  H  H268  1  0.734400  0.497000  0.393000  1.0  0.0736
  H  H269  1  0.465600  0.655200  0.427900  1.0  0.1079
  H  H270  1  0.341000  0.676900  0.415800  1.0  0.087
  H  H271  1  0.390500  0.587800  0.353700  1.0  0.0883
  H  H272  1  0.513000  0.561200  0.366000  1.0  0.1032
  H  H273  1  0.050100  0.907700  0.458800  1.0  0.0703
  H  H274  1  0.040100  0.978700  0.492700  1.0  0.1047
  H  H275  1  0.185600  0.133300  0.463900  1.0  0.0718
  H  H276  1  0.189800  0.057800  0.431400  1.0  0.0602
  H  H277  1  0.126000  0.018000  0.527700  1.0  0.1053
  H  H278  1  0.121600  0.091900  0.561100  1.0  0.0887
  H  H279  1  0.107300  0.284000  0.522900  1.0  0.0863
  H  H280  1  0.106100  0.211100  0.489300  1.0  0.097
  H  H281  1  0.197100  0.904700  0.461800  1.0  0.0722
  H  H282  1  0.196900  0.976400  0.495300  1.0  0.1168
  H  H283  1  0.046400  0.120700  0.464400  1.0  0.0674
  H  H284  1  0.060200  0.048500  0.431700  1.0  0.0568
  H  H285  1  0.604300  0.578700  0.124500  1.0  0.4861
  H  H286  1  0.428000  0.025900  0.182300  1.0  0.0643
  H  H287  1  0.438300  0.154900  0.176300  1.0  0.0922
  H  H288  1  0.251400  0.143800  0.136700  1.0  0.1075
  H  H289  1  0.247000  0.015600  0.143000  1.0  0.0708
  H  H290  1  0.405200  0.284400  0.177900  1.0  0.1078
  H  H291  1  0.426900  0.409000  0.165800  1.0  0.0865
  H  H292  1  0.337800  0.359500  0.103700  1.0  0.0885
  H  H293  1  0.311200  0.237000  0.116000  1.0  0.102
  H  H294  1  0.657700  0.699900  0.208800  1.0  0.0706
  H  H295  1  0.728700  0.709900  0.242700  1.0  0.1038
  H  H296  1  0.883300  0.564400  0.213900  1.0  0.0706
  H  H297  1  0.807800  0.560200  0.181400  1.0  0.0606
  H  H298  1  0.768000  0.624000  0.277700  1.0  0.1065
  H  H299  1  0.841900  0.628400  0.311100  1.0  0.0897
  H  H300  1  0.034000  0.642700  0.272900  1.0  0.0866
  H  H301  1  0.961100  0.643900  0.239300  1.0  0.0987
  H  H302  1  0.654700  0.552900  0.211800  1.0  0.0726
  H  H303  1  0.726400  0.553100  0.245300  1.0  0.119
  H  H304  1  0.870700  0.703600  0.214400  1.0  0.0687
  H  H305  1  0.798500  0.689800  0.181700  1.0  0.0594
  H  H306  1  0.104300  0.078700  0.624500  1.0  0.4861
  H  H307  1  0.928000  0.525900  0.682300  1.0  0.0643
  H  H308  1  0.938300  0.654900  0.676300  1.0  0.0922
  H  H309  1  0.751400  0.643800  0.636700  1.0  0.1075
  H  H310  1  0.747000  0.515600  0.643000  1.0  0.0708
  H  H311  1  0.905200  0.784400  0.677900  1.0  0.1078
  H  H312  1  0.926900  0.909000  0.665800  1.0  0.0865
  H  H313  1  0.837800  0.859500  0.603700  1.0  0.0885
  H  H314  1  0.811200  0.737000  0.616000  1.0  0.102
  H  H315  1  0.157700  0.199900  0.708800  1.0  0.0706
  H  H316  1  0.228700  0.209900  0.742700  1.0  0.1038
  H  H317  1  0.383300  0.064400  0.713900  1.0  0.071
  H  H318  1  0.307800  0.060200  0.681400  1.0  0.0606
  H  H319  1  0.268000  0.124000  0.777700  1.0  0.1065
  H  H320  1  0.341900  0.128400  0.811100  1.0  0.0897
  H  H321  1  0.534000  0.142700  0.772900  1.0  0.0866
  H  H322  1  0.461100  0.143900  0.739300  1.0  0.0987
  H  H323  1  0.154700  0.052900  0.711800  1.0  0.0726
  H  H324  1  0.226400  0.053100  0.745300  1.0  0.1192
  H  H325  1  0.370700  0.203600  0.714400  1.0  0.0687
  H  H326  1  0.298500  0.189800  0.681700  1.0  0.0594
  H  H327  1  0.895700  0.421300  0.624500  1.0  0.4883
  H  H328  1  0.072000  0.974100  0.682300  1.0  0.0645
  H  H329  1  0.061700  0.845100  0.676300  1.0  0.0939
  H  H330  1  0.248600  0.856200  0.636700  1.0  0.1073
  H  H331  1  0.253000  0.984400  0.643000  1.0  0.0718
  H  H332  1  0.094800  0.715600  0.677900  1.0  0.107
  H  H333  1  0.073100  0.591000  0.665800  1.0  0.087
  H  H334  1  0.162200  0.640500  0.603700  1.0  0.089
  H  H335  1  0.188800  0.763000  0.616000  1.0  0.1028
  H  H336  1  0.842300  0.300100  0.708800  1.0  0.0707
  H  H337  1  0.771300  0.290100  0.742700  1.0  0.1043
  H  H338  1  0.616700  0.435600  0.713900  1.0  0.0706
  H  H339  1  0.692200  0.439800  0.681400  1.0  0.0612
  H  H340  1  0.732000  0.376000  0.777700  1.0  0.106
  H  H341  1  0.658100  0.371600  0.811100  1.0  0.0888
  H  H342  1  0.466000  0.357300  0.772900  1.0  0.0862
  H  H343  1  0.538900  0.356100  0.739300  1.0  0.0974
  H  H344  1  0.845300  0.447100  0.711800  1.0  0.071
  H  H345  1  0.773600  0.446900  0.745300  1.0  0.1167
  H  H346  1  0.629300  0.296400  0.714400  1.0  0.0669
  H  H347  1  0.701500  0.310200  0.681700  1.0  0.0573
  H  H348  1  0.395700  0.921300  0.124500  1.0  0.4883
  H  H349  1  0.572000  0.474100  0.182300  1.0  0.0645
  H  H350  1  0.561700  0.345100  0.176300  1.0  0.0939
  H  H351  1  0.748600  0.356200  0.136700  1.0  0.1073
  H  H352  1  0.753000  0.484400  0.143000  1.0  0.0718
  H  H353  1  0.594800  0.215600  0.177900  1.0  0.107
  H  H354  1  0.573100  0.091000  0.165800  1.0  0.087
  H  H355  1  0.662200  0.140500  0.103700  1.0  0.089
  H  H356  1  0.688800  0.263000  0.116000  1.0  0.1028
  H  H357  1  0.342300  0.800100  0.208800  1.0  0.0707
  H  H358  1  0.271300  0.790100  0.242700  1.0  0.1043
  H  H359  1  0.116700  0.935600  0.213900  1.0  0.0698
  H  H360  1  0.192200  0.939800  0.181400  1.0  0.0612
  H  H361  1  0.232000  0.876000  0.277700  1.0  0.106
  H  H362  1  0.158100  0.871600  0.311100  1.0  0.0888
  H  H363  1  0.966000  0.857300  0.272900  1.0  0.0862
  H  H364  1  0.038900  0.856100  0.239300  1.0  0.0974
  H  H365  1  0.345300  0.947100  0.211800  1.0  0.071
  H  H366  1  0.273600  0.946900  0.245300  1.0  0.117
  H  H367  1  0.129300  0.796400  0.214400  1.0  0.0669
  H  H368  1  0.201500  0.810200  0.181700  1.0  0.0573
  C  C369  1  0.700300  0.142600  0.577850  1.0  0.1464
  C  C370  1  0.622840  0.149100  0.581430  1.0  -0.233
  C  C371  1  0.585180  0.100480  0.595830  1.0  0.0692
  C  C372  1  0.629740  0.040700  0.604490  1.0  -0.2401
  C  C373  1  0.705960  0.037960  0.600440  1.0  0.1441
  C  C374  1  0.504270  0.110240  0.602310  1.0  0.0627
  C  C375  1  0.450960  0.142100  0.587440  1.0  -0.1704
  C  C376  1  0.376770  0.154900  0.594640  1.0  -0.0511
  C  C377  1  0.353460  0.136430  0.616860  1.0  -0.1562
  C  C378  1  0.405510  0.101900  0.631150  1.0  -0.0683
  C  C379  1  0.478870  0.087400  0.623980  1.0  -0.1602
  C  C380  1  0.273580  0.152300  0.625120  1.0  0.6518
  C  C381  1  0.080100  0.452900  0.539740  1.0  0.073
  C  C382  1  0.073900  0.494900  0.519250  1.0  -0.1502
  C  C383  1  0.117560  0.560580  0.516520  1.0  0.2124
  C  C384  1  0.159400  0.585700  0.536330  1.0  -0.1017
  C  C385  1  0.161400  0.540500  0.555570  1.0  -0.0047
  C  C386  1  0.115230  0.607140  0.495110  1.0  0.0104
  C  C387  1  0.120800  0.572000  0.473360  1.0  -0.2077
  C  C388  1  0.118750  0.616100  0.453570  1.0  -0.0267
  C  C389  1  0.112590  0.695150  0.454730  1.0  -0.1409
  C  C390  1  0.109600  0.729730  0.476080  1.0  -0.0444
  C  C391  1  0.109800  0.686350  0.496150  1.0  -0.1888
  C  C392  1  0.112540  0.742380  0.433030  1.0  0.6846
  C  C393  1  0.167100  0.450000  0.537500  1.0  0.0407
  C  C394  1  0.166600  0.491400  0.517570  1.0  -0.1821
  C  C395  1  0.079300  0.577400  0.535370  1.0  -0.0599
  C  C396  1  0.087000  0.531900  0.554940  1.0  -0.0202
  C  C397  1  0.200300  0.642600  0.077850  1.0  0.1464
  C  C398  1  0.122840  0.649100  0.081430  1.0  -0.233
  C  C399  1  0.085180  0.600480  0.095830  1.0  0.0692
  C  C400  1  0.129740  0.540700  0.104490  1.0  -0.2401
  C  C401  1  0.205960  0.537960  0.100440  1.0  0.1441
  C  C402  1  0.004270  0.610240  0.102310  1.0  0.0627
  C  C403  1  0.950960  0.642100  0.087440  1.0  -0.1704
  C  C404  1  0.876770  0.654900  0.094640  1.0  -0.0546
  C  C405  1  0.853460  0.636430  0.116860  1.0  -0.1562
  C  C406  1  0.905510  0.601900  0.131150  1.0  -0.0683
  C  C407  1  0.978870  0.587400  0.123980  1.0  -0.1602
  C  C408  1  0.773580  0.652300  0.125120  1.0  0.6518
  C  C409  1  0.580100  0.952900  0.039740  1.0  0.073
  C  C410  1  0.573900  0.994900  0.019250  1.0  -0.1478
  C  C411  1  0.617560  0.060580  0.016520  1.0  0.2124
  C  C412  1  0.659400  0.085700  0.036330  1.0  -0.1019
  C  C413  1  0.661400  0.040500  0.055570  1.0  -0.0049
  C  C414  1  0.615230  0.107140  0.995110  1.0  0.0104
  C  C415  1  0.620800  0.072000  0.973360  1.0  -0.2075
  C  C416  1  0.618750  0.116100  0.953570  1.0  -0.0267
  C  C417  1  0.612590  0.195150  0.954730  1.0  -0.1409
  C  C418  1  0.609600  0.229730  0.976080  1.0  -0.0444
  C  C419  1  0.609800  0.186350  0.996150  1.0  -0.1888
  C  C420  1  0.612540  0.242380  0.933030  1.0  0.6846
  C  C421  1  0.667100  0.950000  0.037500  1.0  0.0409
  C  C422  1  0.666667  0.991400  0.017570  1.0  -0.1839
  C  C423  1  0.579300  0.077400  0.035370  1.0  -0.0598
  C  C424  1  0.587000  0.031900  0.054940  1.0  -0.0201
  C  C425  1  0.799700  0.857400  0.077850  1.0  0.1461
  C  C426  1  0.877160  0.850900  0.081430  1.0  -0.2342
  C  C427  1  0.914820  0.899520  0.095830  1.0  0.0697
  C  C428  1  0.870260  0.959300  0.104490  1.0  -0.2398
  C  C429  1  0.794040  0.962040  0.100440  1.0  0.143
  C  C430  1  0.995730  0.889760  0.102310  1.0  0.063
  C  C431  1  0.049040  0.857900  0.087440  1.0  -0.1712
  C  C432  1  0.123230  0.845100  0.094640  1.0  -0.0511
  C  C433  1  0.146540  0.863570  0.116860  1.0  -0.156
  C  C434  1  0.094490  0.898100  0.131150  1.0  -0.0688
  C  C435  1  0.021130  0.912600  0.123980  1.0  -0.1596
  C  C436  1  0.226420  0.847700  0.125120  1.0  0.6516
  C  C437  1  0.419900  0.547100  0.039740  1.0  0.076
  C  C438  1  0.426100  0.505100  0.019250  1.0  -0.1474
  C  C439  1  0.382440  0.439420  0.016520  1.0  0.2093
  C  C440  1  0.340600  0.414300  0.036330  1.0  -0.1062
  C  C441  1  0.338600  0.459500  0.055570  1.0  -0.0039
  C  C442  1  0.384770  0.392860  0.995110  1.0  0.0109
  C  C443  1  0.379200  0.428000  0.973360  1.0  -0.2057
  C  C444  1  0.381250  0.383900  0.953570  1.0  -0.0308
  C  C445  1  0.387410  0.304850  0.954730  1.0  -0.1417
  C  C446  1  0.390400  0.270270  0.976080  1.0  -0.046
  C  C447  1  0.390200  0.313650  0.996150  1.0  -0.1898
  C  C448  1  0.387460  0.257620  0.933030  1.0  0.6845
  C  C449  1  0.332900  0.550000  0.037500  1.0  0.0404
  C  C450  1  0.333400  0.508600  0.017570  1.0  -0.1861
  C  C451  1  0.420700  0.422600  0.035370  1.0  -0.0594
  C  C452  1  0.413000  0.468100  0.054940  1.0  -0.0139
  C  C453  1  0.299700  0.357400  0.577850  1.0  0.1461
  C  C454  1  0.377160  0.350900  0.581430  1.0  -0.2342
  C  C455  1  0.414820  0.399520  0.595830  1.0  0.0697
  C  C456  1  0.370260  0.459300  0.604490  1.0  -0.2398
  C  C457  1  0.294040  0.462040  0.600440  1.0  0.1432
  C  C458  1  0.495730  0.389760  0.602310  1.0  0.063
  C  C459  1  0.549040  0.357900  0.587440  1.0  -0.1712
  C  C460  1  0.623230  0.345100  0.594640  1.0  -0.0511
  C  C461  1  0.646540  0.363570  0.616860  1.0  -0.156
  C  C462  1  0.594490  0.398100  0.631150  1.0  -0.0688
  C  C463  1  0.521130  0.412600  0.623980  1.0  -0.1596
  C  C464  1  0.726420  0.347700  0.625120  1.0  0.6516
  C  C465  1  0.919900  0.047100  0.539740  1.0  0.076
  C  C466  1  0.926100  0.005100  0.519250  1.0  -0.1474
  C  C467  1  0.882440  0.939420  0.516520  1.0  0.2092
  C  C468  1  0.840600  0.914300  0.536330  1.0  -0.1062
  C  C469  1  0.838600  0.959500  0.555570  1.0  -0.0039
  C  C470  1  0.884770  0.892860  0.495110  1.0  0.0109
  C  C471  1  0.879200  0.928000  0.473360  1.0  -0.2057
  C  C472  1  0.881250  0.883900  0.453570  1.0  -0.0308
  C  C473  1  0.887410  0.804850  0.454730  1.0  -0.1417
  C  C474  1  0.890400  0.770270  0.476080  1.0  -0.046
  C  C475  1  0.890200  0.813650  0.496150  1.0  -0.1898
  C  C476  1  0.887460  0.757620  0.433030  1.0  0.6845
  C  C477  1  0.832900  0.050000  0.537500  1.0  0.0404
  C  C478  1  0.833400  0.008600  0.517570  1.0  -0.1823
  C  C479  1  0.920700  0.922600  0.535370  1.0  -0.0594
  C  C480  1  0.913000  0.968100  0.554940  1.0  -0.0139
  C  C481  1  0.607400  0.950300  0.827850  1.0  0.1466
  C  C482  1  0.600900  0.872840  0.831430  1.0  -0.2323
  C  C483  1  0.649520  0.835180  0.845830  1.0  0.0686
  C  C484  1  0.709300  0.879740  0.854490  1.0  -0.2349
  C  C485  1  0.712040  0.955960  0.850440  1.0  0.1464
  C  C486  1  0.639760  0.754270  0.852310  1.0  0.0624
  C  C487  1  0.607900  0.700960  0.837440  1.0  -0.1693
  C  C488  1  0.595100  0.626770  0.844640  1.0  -0.0572
  C  C489  1  0.613570  0.603460  0.866860  1.0  -0.1565
  C  C490  1  0.648100  0.655510  0.881150  1.0  -0.069
  C  C491  1  0.662600  0.728870  0.873980  1.0  -0.1577
  C  C492  1  0.597700  0.523580  0.875120  1.0  0.6546
  C  C493  1  0.297100  0.330100  0.789740  1.0  0.0743
  C  C494  1  0.255100  0.323900  0.769250  1.0  -0.151
  C  C495  1  0.189420  0.367560  0.766520  1.0  0.2097
  C  C496  1  0.164300  0.409400  0.786330  1.0  -0.103
  C  C497  1  0.209500  0.411400  0.805570  1.0  -0.0044
  C  C498  1  0.142860  0.365230  0.745110  1.0  0.0117
  C  C499  1  0.178000  0.370800  0.723360  1.0  -0.2066
  C  C500  1  0.133900  0.368750  0.703570  1.0  -0.0285
  C  C501  1  0.054850  0.362590  0.704730  1.0  -0.1404
  C  C502  1  0.020270  0.359600  0.726080  1.0  -0.0447
  C  C503  1  0.063650  0.359800  0.746150  1.0  -0.1868
  C  C504  1  0.007620  0.362540  0.683030  1.0  0.684
  C  C505  1  0.300000  0.417100  0.787500  1.0  0.0431
  C  C506  1  0.258600  0.416600  0.767570  1.0  -0.1808
  C  C507  1  0.172600  0.329300  0.785370  1.0  -0.0629
  C  C508  1  0.218100  0.337000  0.804940  1.0  -0.0144
  C  C509  1  0.107400  0.450300  0.327850  1.0  0.1466
  C  C510  1  0.100900  0.372840  0.331430  1.0  -0.2323
  C  C511  1  0.149520  0.335180  0.345830  1.0  0.0686
  C  C512  1  0.209300  0.379740  0.354490  1.0  -0.2349
  C  C513  1  0.212040  0.455960  0.350440  1.0  0.1464
  C  C514  1  0.139760  0.254270  0.352310  1.0  0.0624
  C  C515  1  0.107900  0.200960  0.337440  1.0  -0.1693
  C  C516  1  0.095100  0.126770  0.344640  1.0  -0.0572
  C  C517  1  0.113570  0.103460  0.366860  1.0  -0.1565
  C  C518  1  0.148100  0.155510  0.381150  1.0  -0.069
  C  C519  1  0.162600  0.228870  0.373980  1.0  -0.1577
  C  C520  1  0.097700  0.023580  0.375120  1.0  0.6546
  C  C521  1  0.797100  0.830100  0.289740  1.0  0.0743
  C  C522  1  0.755100  0.823900  0.269250  1.0  -0.151
  C  C523  1  0.689420  0.867560  0.266520  1.0  0.2097
  C  C524  1  0.664300  0.909400  0.286330  1.0  -0.103
  C  C525  1  0.709500  0.911400  0.305570  1.0  -0.0044
  C  C526  1  0.642860  0.865230  0.245110  1.0  0.0117
  C  C527  1  0.678000  0.870800  0.223360  1.0  -0.2066
  C  C528  1  0.633900  0.868750  0.203570  1.0  -0.0285
  C  C529  1  0.554850  0.862590  0.204730  1.0  -0.1404
  C  C530  1  0.520270  0.859600  0.226080  1.0  -0.0447
  C  C531  1  0.563650  0.859800  0.246150  1.0  -0.1868
  C  C532  1  0.507620  0.862540  0.183030  1.0  0.684
  C  C533  1  0.800000  0.917100  0.287500  1.0  0.0431
  C  C534  1  0.758600  0.916600  0.267570  1.0  -0.1808
  C  C535  1  0.672600  0.829300  0.285370  1.0  -0.0629
  C  C536  1  0.718100  0.837000  0.304940  1.0  -0.0144
  C  C537  1  0.892600  0.049700  0.327850  1.0  0.1463
  C  C538  1  0.899100  0.127160  0.331430  1.0  -0.2306
  C  C539  1  0.850480  0.164820  0.345830  1.0  0.0696
  C  C540  1  0.790700  0.120260  0.354490  1.0  -0.2393
  C  C541  1  0.787960  0.044040  0.350440  1.0  0.145
  C  C542  1  0.860240  0.245730  0.352310  1.0  0.0629
  C  C543  1  0.892100  0.299040  0.337440  1.0  -0.1693
  C  C544  1  0.904900  0.373230  0.344640  1.0  -0.0516
  C  C545  1  0.886430  0.396540  0.366860  1.0  -0.1561
  C  C546  1  0.851900  0.344490  0.381150  1.0  -0.0695
  C  C547  1  0.837400  0.271130  0.373980  1.0  -0.1593
  C  C548  1  0.902300  0.476420  0.375120  1.0  0.6543
  C  C549  1  0.202900  0.669900  0.289740  1.0  0.0741
  C  C550  1  0.244900  0.676100  0.269250  1.0  -0.1514
  C  C551  1  0.310580  0.632440  0.266520  1.0  0.2104
  C  C552  1  0.335700  0.590600  0.286330  1.0  -0.1033
  C  C553  1  0.290500  0.588600  0.305570  1.0  -0.0018
  C  C554  1  0.357140  0.634770  0.245110  1.0  0.0109
  C  C555  1  0.322000  0.629200  0.223360  1.0  -0.2055
  C  C556  1  0.366100  0.631250  0.203570  1.0  -0.0325
  C  C557  1  0.445150  0.637410  0.204730  1.0  -0.1414
  C  C558  1  0.479730  0.640400  0.226080  1.0  -0.0465
  C  C559  1  0.436350  0.640200  0.246150  1.0  -0.1883
  C  C560  1  0.492380  0.637460  0.183030  1.0  0.6846
  C  C561  1  0.200000  0.582900  0.287500  1.0  0.0405
  C  C562  1  0.241400  0.583400  0.267570  1.0  -0.1882
  C  C563  1  0.327400  0.670700  0.285370  1.0  -0.0597
  C  C564  1  0.281900  0.663000  0.304940  1.0  -0.0137
  C  C565  1  0.392600  0.549700  0.827850  1.0  0.1463
  C  C566  1  0.399100  0.627160  0.831430  1.0  -0.2306
  C  C567  1  0.350480  0.664820  0.845830  1.0  0.0696
  C  C568  1  0.290700  0.620260  0.854490  1.0  -0.2393
  C  C569  1  0.287960  0.544040  0.850440  1.0  0.145
  C  C570  1  0.360240  0.745730  0.852310  1.0  0.0629
  C  C571  1  0.392100  0.799040  0.837440  1.0  -0.1693
  C  C572  1  0.404900  0.873230  0.844640  1.0  -0.0516
  C  C573  1  0.386430  0.896540  0.866860  1.0  -0.1561
  C  C574  1  0.351900  0.844490  0.881150  1.0  -0.0695
  C  C575  1  0.337400  0.771130  0.873980  1.0  -0.1593
  C  C576  1  0.402300  0.976420  0.875120  1.0  0.6543
  C  C577  1  0.702900  0.169900  0.789740  1.0  0.0741
  C  C578  1  0.744900  0.176100  0.769250  1.0  -0.1514
  C  C579  1  0.810580  0.132440  0.766520  1.0  0.2104
  C  C580  1  0.835700  0.090600  0.786330  1.0  -0.1033
  C  C581  1  0.790500  0.088600  0.805570  1.0  -0.0018
  C  C582  1  0.857140  0.134770  0.745110  1.0  0.0109
  C  C583  1  0.822000  0.129200  0.723360  1.0  -0.2055
  C  C584  1  0.866100  0.131250  0.703570  1.0  -0.0325
  C  C585  1  0.945150  0.137410  0.704730  1.0  -0.1414
  C  C586  1  0.979730  0.140400  0.726080  1.0  -0.0465
  C  C587  1  0.936350  0.140200  0.746150  1.0  -0.1869
  C  C588  1  0.992380  0.137460  0.683030  1.0  0.6846
  C  C589  1  0.700000  0.082900  0.787500  1.0  0.0405
  C  C590  1  0.741400  0.083400  0.767570  1.0  -0.1882
  C  C591  1  0.827400  0.170700  0.785370  1.0  -0.0597
  C  C592  1  0.781900  0.163000  0.804940  1.0  -0.0137
  C  C593  1  0.299700  0.857400  0.422150  1.0  0.1459
  C  C594  1  0.377160  0.850900  0.418570  1.0  -0.234
  C  C595  1  0.414820  0.899520  0.404170  1.0  0.0697
  C  C596  1  0.370260  0.959300  0.395510  1.0  -0.2394
  C  C597  1  0.294040  0.962040  0.399560  1.0  0.1443
  C  C598  1  0.495730  0.889760  0.397690  1.0  0.0629
  C  C599  1  0.549040  0.857900  0.412560  1.0  -0.1718
  C  C600  1  0.623230  0.845100  0.405360  1.0  -0.0503
  C  C601  1  0.646540  0.863570  0.383140  1.0  -0.1551
  C  C602  1  0.594490  0.898100  0.368850  1.0  -0.0673
  C  C603  1  0.521130  0.912600  0.376020  1.0  -0.1594
  C  C604  1  0.726420  0.847700  0.374880  1.0  0.6509
  C  C605  1  0.919900  0.547100  0.460260  1.0  0.0757
  C  C606  1  0.926100  0.505100  0.480750  1.0  -0.1513
  C  C607  1  0.882440  0.439420  0.483480  1.0  0.2057
  C  C608  1  0.840600  0.414300  0.463670  1.0  -0.1062
  C  C609  1  0.838600  0.459500  0.444430  1.0  -0.0051
  C  C610  1  0.884770  0.392860  0.504890  1.0  0.0104
  C  C611  1  0.879200  0.428000  0.526640  1.0  -0.2134
  C  C612  1  0.881250  0.383900  0.546430  1.0  -0.031
  C  C613  1  0.887410  0.304850  0.545270  1.0  -0.1391
  C  C614  1  0.890400  0.270270  0.523920  1.0  -0.0451
  C  C615  1  0.890200  0.313650  0.503850  1.0  -0.1908
  C  C616  1  0.887460  0.257620  0.566970  1.0  0.6841
  C  C617  1  0.832900  0.550000  0.462500  1.0  0.041
  C  C618  1  0.833400  0.508600  0.482430  1.0  -0.1907
  C  C619  1  0.920700  0.422600  0.464630  1.0  -0.0613
  C  C620  1  0.913000  0.468100  0.445060  1.0  -0.0136
  C  C621  1  0.799700  0.357400  0.922150  1.0  0.1459
  C  C622  1  0.877160  0.350900  0.918570  1.0  -0.234
  C  C623  1  0.914820  0.399520  0.904170  1.0  0.0697
  C  C624  1  0.870260  0.459300  0.895510  1.0  -0.2394
  C  C625  1  0.794040  0.462040  0.899560  1.0  0.1441
  C  C626  1  0.995730  0.389760  0.897690  1.0  0.0629
  C  C627  1  0.049040  0.357900  0.912560  1.0  -0.1718
  C  C628  1  0.123230  0.345100  0.905360  1.0  -0.0503
  C  C629  1  0.146540  0.363570  0.883140  1.0  -0.1551
  C  C630  1  0.094490  0.398100  0.868850  1.0  -0.0673
  C  C631  1  0.021130  0.412600  0.876020  1.0  -0.1594
  C  C632  1  0.226420  0.347700  0.874880  1.0  0.6509
  C  C633  1  0.419900  0.047100  0.960260  1.0  0.0757
  C  C634  1  0.426100  0.005100  0.980750  1.0  -0.1513
  C  C635  1  0.382440  0.939420  0.983480  1.0  0.2057
  C  C636  1  0.340600  0.914300  0.963670  1.0  -0.1062
  C  C637  1  0.338600  0.959500  0.944430  1.0  -0.0051
  C  C638  1  0.384770  0.892860  0.004890  1.0  0.0104
  C  C639  1  0.379200  0.928000  0.026640  1.0  -0.2134
  C  C640  1  0.381250  0.883900  0.046430  1.0  -0.031
  C  C641  1  0.387410  0.804850  0.045270  1.0  -0.1391
  C  C642  1  0.390400  0.770270  0.023920  1.0  -0.0451
  C  C643  1  0.390200  0.813650  0.003850  1.0  -0.1908
  C  C644  1  0.387460  0.757620  0.066970  1.0  0.6841
  C  C645  1  0.332900  0.050000  0.962500  1.0  0.041
  C  C646  1  0.333400  0.008600  0.982430  1.0  -0.1893
  C  C647  1  0.420700  0.922600  0.964630  1.0  -0.0613
  C  C648  1  0.413000  0.968100  0.945060  1.0  -0.0136
  C  C649  1  0.200300  0.142600  0.922150  1.0  0.1459
  C  C650  1  0.122840  0.149100  0.918570  1.0  -0.2361
  C  C651  1  0.085180  0.100480  0.904170  1.0  0.0694
  C  C652  1  0.129740  0.040700  0.895510  1.0  -0.2399
  C  C653  1  0.205960  0.037960  0.899560  1.0  0.1442
  C  C654  1  0.004270  0.110240  0.897690  1.0  0.0624
  C  C655  1  0.950960  0.142100  0.912560  1.0  -0.1703
  C  C656  1  0.876770  0.154900  0.905360  1.0  -0.0503
  C  C657  1  0.853460  0.136430  0.883140  1.0  -0.1555
  C  C658  1  0.905510  0.101900  0.868850  1.0  -0.0679
  C  C659  1  0.978870  0.087400  0.876020  1.0  -0.1603
  C  C660  1  0.773580  0.152300  0.874880  1.0  0.6512
  C  C661  1  0.580100  0.452900  0.960260  1.0  0.0723
  C  C662  1  0.573900  0.494900  0.980750  1.0  -0.1495
  C  C663  1  0.617560  0.560580  0.983480  1.0  0.2075
  C  C664  1  0.659400  0.585700  0.963670  1.0  -0.1019
  C  C665  1  0.661400  0.540500  0.944430  1.0  -0.0044
  C  C666  1  0.615230  0.607140  0.004890  1.0  0.0097
  C  C667  1  0.620800  0.572000  0.026640  1.0  -0.2124
  C  C668  1  0.618750  0.616100  0.046430  1.0  -0.0275
  C  C669  1  0.612590  0.695150  0.045270  1.0  -0.1404
  C  C670  1  0.609600  0.729730  0.023920  1.0  -0.0441
  C  C671  1  0.609800  0.686350  0.003850  1.0  -0.1911
  C  C672  1  0.612540  0.742380  0.066970  1.0  0.6842
  C  C673  1  0.667100  0.450000  0.962500  1.0  0.0425
  C  C674  1  0.666667  0.491400  0.982430  1.0  -0.1871
  C  C675  1  0.579300  0.577400  0.964630  1.0  -0.0606
  C  C676  1  0.587000  0.531900  0.945060  1.0  -0.0167
  C  C677  1  0.700300  0.642600  0.422150  1.0  0.1459
  C  C678  1  0.622840  0.649100  0.418570  1.0  -0.2361
  C  C679  1  0.585180  0.600480  0.404170  1.0  0.0694
  C  C680  1  0.629740  0.540700  0.395510  1.0  -0.2399
  C  C681  1  0.705960  0.537960  0.399560  1.0  0.1442
  C  C682  1  0.504270  0.610240  0.397690  1.0  0.0624
  C  C683  1  0.450960  0.642100  0.412560  1.0  -0.1703
  C  C684  1  0.376770  0.654900  0.405360  1.0  -0.0503
  C  C685  1  0.353460  0.636430  0.383140  1.0  -0.1555
  C  C686  1  0.405510  0.601900  0.368850  1.0  -0.0679
  C  C687  1  0.478870  0.587400  0.376020  1.0  -0.1603
  C  C688  1  0.273580  0.652300  0.374880  1.0  0.6512
  C  C689  1  0.080100  0.952900  0.460260  1.0  0.0723
  C  C690  1  0.073900  0.994900  0.480750  1.0  -0.1517
  C  C691  1  0.117560  0.060580  0.483480  1.0  0.2075
  C  C692  1  0.159400  0.085700  0.463670  1.0  -0.1017
  C  C693  1  0.161400  0.040500  0.444430  1.0  -0.0043
  C  C694  1  0.115230  0.107140  0.504890  1.0  0.0097
  C  C695  1  0.120800  0.072000  0.526640  1.0  -0.2126
  C  C696  1  0.118750  0.116100  0.546430  1.0  -0.0275
  C  C697  1  0.112590  0.195150  0.545270  1.0  -0.1404
  C  C698  1  0.109600  0.229730  0.523920  1.0  -0.0441
  C  C699  1  0.109800  0.186350  0.503850  1.0  -0.1911
  C  C700  1  0.112540  0.242380  0.566970  1.0  0.6842
  C  C701  1  0.167100  0.950000  0.462500  1.0  0.0423
  C  C702  1  0.166600  0.991400  0.482430  1.0  -0.1856
  C  C703  1  0.079300  0.077400  0.464630  1.0  -0.0608
  C  C704  1  0.087000  0.031900  0.445060  1.0  -0.0168
  C  C705  1  0.392600  0.049700  0.172150  1.0  0.1463
  C  C706  1  0.399100  0.127160  0.168570  1.0  -0.23
  C  C707  1  0.350480  0.164820  0.154170  1.0  0.0697
  C  C708  1  0.290700  0.120260  0.145510  1.0  -0.2381
  C  C709  1  0.287960  0.044040  0.149560  1.0  0.1453
  C  C710  1  0.360240  0.245730  0.147690  1.0  0.0627
  C  C711  1  0.392100  0.299040  0.162560  1.0  -0.17
  C  C712  1  0.404900  0.373230  0.155360  1.0  -0.0523
  C  C713  1  0.386430  0.396540  0.133140  1.0  -0.1554
  C  C714  1  0.351900  0.344490  0.118850  1.0  -0.0687
  C  C715  1  0.337400  0.271130  0.126020  1.0  -0.1578
  C  C716  1  0.402300  0.476420  0.124880  1.0  0.6534
  C  C717  1  0.702900  0.669900  0.210260  1.0  0.0737
  C  C718  1  0.744900  0.676100  0.230750  1.0  -0.1532
  C  C719  1  0.810580  0.632440  0.233480  1.0  0.2063
  C  C720  1  0.835700  0.590600  0.213670  1.0  -0.1034
  C  C721  1  0.790500  0.588600  0.194430  1.0  -0.004
  C  C722  1  0.857140  0.634770  0.254890  1.0  0.0106
  C  C723  1  0.822000  0.629200  0.276640  1.0  -0.2119
  C  C724  1  0.866100  0.631250  0.296430  1.0  -0.0324
  C  C725  1  0.945150  0.637410  0.295270  1.0  -0.1405
  C  C726  1  0.979730  0.640400  0.273920  1.0  -0.0457
  C  C727  1  0.936350  0.640200  0.253850  1.0  -0.1887
  C  C728  1  0.992380  0.637460  0.316970  1.0  0.6844
  C  C729  1  0.700000  0.582900  0.212500  1.0  0.0415
  C  C730  1  0.741400  0.583400  0.232430  1.0  -0.1925
  C  C731  1  0.827400  0.670700  0.214630  1.0  -0.0596
  C  C732  1  0.781900  0.663000  0.195060  1.0  -0.0098
  C  C733  1  0.892600  0.549700  0.672150  1.0  0.1463
  C  C734  1  0.899100  0.627160  0.668570  1.0  -0.23
  C  C735  1  0.850480  0.664820  0.654170  1.0  0.0697
  C  C736  1  0.790700  0.620260  0.645510  1.0  -0.2381
  C  C737  1  0.787960  0.544040  0.649560  1.0  0.1453
  C  C738  1  0.860240  0.745730  0.647690  1.0  0.0627
  C  C739  1  0.892100  0.799040  0.662560  1.0  -0.17
  C  C740  1  0.904900  0.873230  0.655360  1.0  -0.0523
  C  C741  1  0.886430  0.896540  0.633140  1.0  -0.1554
  C  C742  1  0.851900  0.844490  0.618850  1.0  -0.0687
  C  C743  1  0.837400  0.771130  0.626020  1.0  -0.1578
  C  C744  1  0.902300  0.976420  0.624880  1.0  0.6534
  C  C745  1  0.202900  0.169900  0.710260  1.0  0.0737
  C  C746  1  0.244900  0.176100  0.730750  1.0  -0.1532
  C  C747  1  0.310580  0.132440  0.733480  1.0  0.2063
  C  C748  1  0.335700  0.090600  0.713670  1.0  -0.1034
  C  C749  1  0.290500  0.088600  0.694430  1.0  -0.004
  C  C750  1  0.357140  0.134770  0.754890  1.0  0.0106
  C  C751  1  0.322000  0.129200  0.776640  1.0  -0.2119
  C  C752  1  0.366100  0.131250  0.796430  1.0  -0.0324
  C  C753  1  0.445150  0.137410  0.795270  1.0  -0.1405
  C  C754  1  0.479730  0.140400  0.773920  1.0  -0.0457
  C  C755  1  0.436350  0.140200  0.753850  1.0  -0.1903
  C  C756  1  0.492380  0.137460  0.816970  1.0  0.6844
  C  C757  1  0.200000  0.082900  0.712500  1.0  0.0415
  C  C758  1  0.241400  0.083400  0.732430  1.0  -0.1925
  C  C759  1  0.327400  0.170700  0.714630  1.0  -0.0596
  C  C760  1  0.281900  0.163000  0.695060  1.0  -0.0098
  C  C761  1  0.107400  0.950300  0.672150  1.0  0.1467
  C  C762  1  0.100900  0.872840  0.668570  1.0  -0.2347
  C  C763  1  0.149520  0.835180  0.654170  1.0  0.0687
  C  C764  1  0.209300  0.879740  0.645510  1.0  -0.2353
  C  C765  1  0.212040  0.955960  0.649560  1.0  0.1468
  C  C766  1  0.139760  0.754270  0.647690  1.0  0.0621
  C  C767  1  0.107900  0.700960  0.662560  1.0  -0.1696
  C  C768  1  0.095100  0.626770  0.655360  1.0  -0.0508
  C  C769  1  0.113570  0.603460  0.633140  1.0  -0.1555
  C  C770  1  0.148100  0.655510  0.618850  1.0  -0.0683
  C  C771  1  0.162600  0.728870  0.626020  1.0  -0.1589
  C  C772  1  0.097700  0.523580  0.624880  1.0  0.6538
  C  C773  1  0.797100  0.330100  0.710260  1.0  0.0743
  C  C774  1  0.755100  0.323900  0.730750  1.0  -0.1534
  C  C775  1  0.689420  0.367560  0.733480  1.0  0.2038
  C  C776  1  0.664300  0.409400  0.713670  1.0  -0.1022
  C  C777  1  0.709500  0.411400  0.694430  1.0  -0.0034
  C  C778  1  0.642860  0.365230  0.754890  1.0  0.0104
  C  C779  1  0.678000  0.370800  0.776640  1.0  -0.2089
  C  C780  1  0.633900  0.368750  0.796430  1.0  -0.0288
  C  C781  1  0.554850  0.362590  0.795270  1.0  -0.139
  C  C782  1  0.520270  0.359600  0.773920  1.0  -0.0466
  C  C783  1  0.563650  0.359800  0.753850  1.0  -0.1877
  C  C784  1  0.507620  0.362540  0.816970  1.0  0.6836
  C  C785  1  0.800000  0.417100  0.712500  1.0  0.0439
  C  C786  1  0.758600  0.416600  0.732430  1.0  -0.1859
  C  C787  1  0.672600  0.329300  0.714630  1.0  -0.0654
  C  C788  1  0.718100  0.337000  0.695060  1.0  -0.0132
  C  C789  1  0.607400  0.450300  0.172150  1.0  0.1467
  C  C790  1  0.600900  0.372840  0.168570  1.0  -0.2347
  C  C791  1  0.649520  0.335180  0.154170  1.0  0.0687
  C  C792  1  0.709300  0.379740  0.145510  1.0  -0.2353
  C  C793  1  0.712040  0.455960  0.149560  1.0  0.1468
  C  C794  1  0.639760  0.254270  0.147690  1.0  0.0621
  C  C795  1  0.607900  0.200960  0.162560  1.0  -0.1696
  C  C796  1  0.595100  0.126770  0.155360  1.0  -0.0508
  C  C797  1  0.613570  0.103460  0.133140  1.0  -0.1555
  C  C798  1  0.648100  0.155510  0.118850  1.0  -0.0683
  C  C799  1  0.662600  0.228870  0.126020  1.0  -0.1589
  C  C800  1  0.597700  0.023580  0.124880  1.0  0.6538
  C  C801  1  0.297100  0.830100  0.210260  1.0  0.0743
  C  C802  1  0.255100  0.823900  0.230750  1.0  -0.1534
  C  C803  1  0.189420  0.867560  0.233480  1.0  0.2038
  C  C804  1  0.164300  0.909400  0.213670  1.0  -0.1022
  C  C805  1  0.209500  0.911400  0.194430  1.0  -0.0034
  C  C806  1  0.142860  0.865230  0.254890  1.0  0.0104
  C  C807  1  0.178000  0.870800  0.276640  1.0  -0.2089
  C  C808  1  0.133900  0.868750  0.296430  1.0  -0.0288
  C  C809  1  0.054850  0.862590  0.295270  1.0  -0.139
  C  C810  1  0.020270  0.859600  0.273920  1.0  -0.0466
  C  C811  1  0.063650  0.859800  0.253850  1.0  -0.1877
  C  C812  1  0.007620  0.862540  0.316970  1.0  0.6836
  C  C813  1  0.300000  0.917100  0.212500  1.0  0.0439
  C  C814  1  0.258600  0.916600  0.232430  1.0  -0.1859
  C  C815  1  0.172600  0.829300  0.214630  1.0  -0.0654
  C  C816  1  0.218100  0.837000  0.195060  1.0  -0.0132
  N  N817  1  0.743570  0.090110  0.587690  1.0  -0.3105
  N  N818  1  0.124890  0.471900  0.557070  1.0  -0.0391
  N  N819  1  0.243570  0.590110  0.087690  1.0  -0.3105
  N  N820  1  0.624890  0.971900  0.057070  1.0  -0.0391
  N  N821  1  0.756430  0.909890  0.087690  1.0  -0.31
  N  N822  1  0.375110  0.528100  0.057070  1.0  -0.0426
  N  N823  1  0.256430  0.409890  0.587690  1.0  -0.31
  N  N824  1  0.875110  0.028100  0.557070  1.0  -0.0426
  N  N825  1  0.659890  0.993570  0.837690  1.0  -0.3099
  N  N826  1  0.278100  0.374890  0.807070  1.0  -0.0363
  N  N827  1  0.159890  0.493570  0.337690  1.0  -0.3099
  N  N828  1  0.778100  0.874890  0.307070  1.0  -0.0363
  N  N829  1  0.840110  0.006430  0.337690  1.0  -0.3114
  N  N830  1  0.221900  0.625110  0.307070  1.0  -0.0417
  N  N831  1  0.340110  0.506430  0.837690  1.0  -0.3114
  N  N832  1  0.721900  0.125110  0.807070  1.0  -0.0417
  N  N833  1  0.256430  0.909890  0.412310  1.0  -0.3101
  N  N834  1  0.875110  0.528100  0.442930  1.0  -0.0422
  N  N835  1  0.756430  0.409890  0.912310  1.0  -0.3101
  N  N836  1  0.375110  0.028100  0.942930  1.0  -0.0422
  N  N837  1  0.243570  0.090110  0.912310  1.0  -0.3104
  N  N838  1  0.624890  0.471900  0.942930  1.0  -0.0383
  N  N839  1  0.743570  0.590110  0.412310  1.0  -0.3104
  N  N840  1  0.124890  0.971900  0.442930  1.0  -0.0383
  N  N841  1  0.340110  0.006430  0.162310  1.0  -0.3113
  N  N842  1  0.721900  0.625110  0.192930  1.0  -0.0428
  N  N843  1  0.840110  0.506430  0.662310  1.0  -0.3113
  N  N844  1  0.221900  0.125110  0.692930  1.0  -0.0428
  N  N845  1  0.159890  0.993570  0.662310  1.0  -0.31
  N  N846  1  0.778100  0.374890  0.692930  1.0  -0.0384
  N  N847  1  0.659890  0.493570  0.162310  1.0  -0.31
  N  N848  1  0.278100  0.874890  0.192930  1.0  -0.0384
  O  O849  1  0.254730  0.120980  0.643900  1.0  -0.5956
  O  O850  1  0.232120  0.195590  0.612860  1.0  -0.6113
  O  O851  1  0.133120  0.810630  0.434360  1.0  -0.6146
  O  O852  1  0.090500  0.708900  0.414540  1.0  -0.6497
  O  O853  1  0.131010  0.342250  0.618090  1.0  -0.979
  O  O854  1  0.754730  0.620980  0.143900  1.0  -0.5956
  O  O855  1  0.732120  0.695590  0.112860  1.0  -0.6113
  O  O856  1  0.633120  0.310630  0.934360  1.0  -0.6146
  O  O857  1  0.590500  0.208900  0.914540  1.0  -0.6497
  O  O858  1  0.631010  0.842250  0.118090  1.0  -0.979
  O  O859  1  0.245270  0.879020  0.143900  1.0  -0.5958
  O  O860  1  0.267880  0.804410  0.112860  1.0  -0.6109
  O  O861  1  0.366880  0.189370  0.934360  1.0  -0.6141
  O  O862  1  0.409500  0.291100  0.914540  1.0  -0.6501
  O  O863  1  0.368990  0.657750  0.118090  1.0  -0.979
  O  O864  1  0.745270  0.379020  0.643900  1.0  -0.5958
  O  O865  1  0.767880  0.304410  0.612860  1.0  -0.6109
  O  O866  1  0.866880  0.689370  0.434360  1.0  -0.6141
  O  O867  1  0.909500  0.791100  0.414540  1.0  -0.6501
  O  O868  1  0.868990  0.157750  0.618090  1.0  -0.979
  O  O869  1  0.629020  0.504730  0.893900  1.0  -0.5946
  O  O870  1  0.554410  0.482120  0.862860  1.0  -0.6103
  O  O871  1  0.939370  0.383120  0.684360  1.0  -0.6133
  O  O872  1  0.041100  0.340500  0.664540  1.0  -0.6495
  O  O873  1  0.407750  0.381010  0.868090  1.0  -0.9809
  O  O874  1  0.129020  0.004730  0.393900  1.0  -0.5946
  O  O875  1  0.054410  0.982120  0.362860  1.0  -0.6103
  O  O876  1  0.439370  0.883120  0.184360  1.0  -0.6133
  O  O877  1  0.541100  0.840500  0.164540  1.0  -0.6495
  O  O878  1  0.907750  0.881010  0.368090  1.0  -0.9809
  O  O879  1  0.870980  0.495270  0.393900  1.0  -0.5953
  O  O880  1  0.945590  0.517880  0.362860  1.0  -0.6101
  O  O881  1  0.560630  0.616880  0.184360  1.0  -0.614
  O  O882  1  0.458900  0.659500  0.164540  1.0  -0.6497
  O  O883  1  0.092250  0.618990  0.368090  1.0  -0.9805
  O  O884  1  0.370980  0.995270  0.893900  1.0  -0.5953
  O  O885  1  0.445590  0.017880  0.862860  1.0  -0.6101
  O  O886  1  0.060630  0.116880  0.684360  1.0  -0.614
  O  O887  1  0.958900  0.159500  0.664540  1.0  -0.6497
  O  O888  1  0.592250  0.118990  0.868090  1.0  -0.9805
  O  O889  1  0.745270  0.879020  0.356100  1.0  -0.5957
  O  O890  1  0.767880  0.804410  0.387140  1.0  -0.6103
  O  O891  1  0.866880  0.189370  0.565640  1.0  -0.6123
  O  O892  1  0.909500  0.291100  0.585460  1.0  -0.6499
  O  O893  1  0.868990  0.657750  0.381910  1.0  -0.9784
  O  O894  1  0.245270  0.379020  0.856100  1.0  -0.5957
  O  O895  1  0.267880  0.304410  0.887140  1.0  -0.6103
  O  O896  1  0.366880  0.689370  0.065640  1.0  -0.6123
  O  O897  1  0.409500  0.791100  0.085460  1.0  -0.6499
  O  O898  1  0.368990  0.157750  0.881910  1.0  -0.9784
  O  O899  1  0.754730  0.120980  0.856100  1.0  -0.5949
  O  O900  1  0.732120  0.195590  0.887140  1.0  -0.6108
  O  O901  1  0.633120  0.810630  0.065640  1.0  -0.6145
  O  O902  1  0.590500  0.708900  0.085460  1.0  -0.6488
  O  O903  1  0.631010  0.342250  0.881910  1.0  -0.9789
  O  O904  1  0.254730  0.620980  0.356100  1.0  -0.5949
  O  O905  1  0.232120  0.695590  0.387140  1.0  -0.6108
  O  O906  1  0.133120  0.310630  0.565640  1.0  -0.6145
  O  O907  1  0.090500  0.208900  0.585460  1.0  -0.6488
  O  O908  1  0.131010  0.842250  0.381910  1.0  -0.9789
  O  O909  1  0.370980  0.495270  0.106100  1.0  -0.594
  O  O910  1  0.445590  0.517880  0.137140  1.0  -0.6095
  O  O911  1  0.060630  0.616880  0.315640  1.0  -0.6122
  O  O912  1  0.958900  0.659500  0.335460  1.0  -0.6493
  O  O913  1  0.592250  0.618990  0.131910  1.0  -0.9805
  O  O914  1  0.870980  0.995270  0.606100  1.0  -0.594
  O  O915  1  0.945590  0.017880  0.637140  1.0  -0.6095
  O  O916  1  0.560630  0.116880  0.815640  1.0  -0.612
  O  O917  1  0.458900  0.159500  0.835460  1.0  -0.6493
  O  O918  1  0.092250  0.118990  0.631910  1.0  -0.9805
  O  O919  1  0.129020  0.504730  0.606100  1.0  -0.5941
  O  O920  1  0.054410  0.482120  0.637140  1.0  -0.6097
  O  O921  1  0.439370  0.383120  0.815640  1.0  -0.6131
  O  O922  1  0.541100  0.340500  0.835460  1.0  -0.6488
  O  O923  1  0.907750  0.381010  0.631910  1.0  -0.9803
  O  O924  1  0.629020  0.004730  0.106100  1.0  -0.5941
  O  O925  1  0.554410  0.982120  0.137140  1.0  -0.6097
  O  O926  1  0.939370  0.883120  0.315640  1.0  -0.6131
  O  O927  1  0.041100  0.840500  0.335460  1.0  -0.6488
  O  O928  1  0.407750  0.881010  0.131910  1.0  -0.9803
  O  O929  1  0.000000  0.250000  0.625000  1.0  -0.8743
  O  O930  1  0.500000  0.750000  0.125000  1.0  -0.8743
  O  O931  1  0.500000  0.250000  0.875000  1.0  -0.8743
  O  O932  1  0.000000  0.750000  0.375000  1.0  -0.8743
