# generated using pymatgen
data_Zn4H24C54O13
_symmetry_space_group_name_H-M   'P 1'
_cell_length_a   29.53600000
_cell_length_b   29.53600000
_cell_length_c   41.76000000
_cell_angle_alpha   90.00000000
_cell_angle_beta   90.00000000
_cell_angle_gamma   120.00000000
_symmetry_Int_Tables_number   1
_chemical_formula_structural   Zn4H24C54O13
_chemical_formula_sum   'Zn48 H288 C648 O156'
_cell_volume   31549.64525443
_cell_formula_units_Z   12
loop_
 _symmetry_equiv_pos_site_id
 _symmetry_equiv_pos_as_xyz
  1  'x, y, z'
loop_
 _atom_site_type_symbol
 _atom_site_label
 _atom_site_symmetry_multiplicity
 _atom_site_fract_x
 _atom_site_fract_y
 _atom_site_fract_z
 _atom_site_occupancy
 _atom_site_charge
  Zn  Zn1  1  0.022080  0.729610  0.975580  1.0  1.0692
  Zn  Zn2  1  0.034250  0.630000  0.974820  1.0  1.0184
  Zn  Zn3  1  0.982250  0.651190  0.034740  1.0  1.0951
  Zn  Zn4  1  0.922110  0.616510  0.968310  1.0  1.082
  Zn  Zn5  1  0.707530  0.977920  0.642250  1.0  1.0678
  Zn  Zn6  1  0.595750  0.965750  0.641490  1.0  1.0181
  Zn  Zn7  1  0.668940  0.017750  0.701410  1.0  1.0949
  Zn  Zn8  1  0.694400  0.077890  0.634980  1.0  1.0828
  Zn  Zn9  1  0.270390  0.292470  0.308910  1.0  1.0704
  Zn  Zn10  1  0.370000  0.404250  0.308150  1.0  1.0178
  Zn  Zn11  1  0.348810  0.331060  0.368070  1.0  1.0936
  Zn  Zn12  1  0.383490  0.305600  0.301640  1.0  1.0823
  Zn  Zn13  1  0.707530  0.729610  0.357750  1.0  1.0685
  Zn  Zn14  1  0.595750  0.630000  0.358510  1.0  1.0185
  Zn  Zn15  1  0.668940  0.651190  0.298590  1.0  1.0946
  Zn  Zn16  1  0.694400  0.616510  0.365020  1.0  1.0831
  Zn  Zn17  1  0.270390  0.977920  0.691090  1.0  1.0694
  Zn  Zn18  1  0.370000  0.965750  0.691850  1.0  1.0185
  Zn  Zn19  1  0.348810  0.017750  0.631930  1.0  1.0915
  Zn  Zn20  1  0.383490  0.077890  0.698360  1.0  1.0834
  Zn  Zn21  1  0.022080  0.292470  0.024420  1.0  1.0701
  Zn  Zn22  1  0.034250  0.404250  0.025180  1.0  1.0181
  Zn  Zn23  1  0.982250  0.331060  0.965260  1.0  1.0942
  Zn  Zn24  1  0.922110  0.305600  0.031690  1.0  1.0822
  Zn  Zn25  1  0.375270  0.310070  0.981490  1.0  1.0243
  Zn  Zn26  1  0.370620  0.415990  0.988900  1.0  1.136
  Zn  Zn27  1  0.265200  0.301690  0.979140  1.0  1.0643
  Zn  Zn28  1  0.328690  0.330110  0.042850  1.0  1.0311
  Zn  Zn29  1  0.934800  0.624730  0.648160  1.0  1.0262
  Zn  Zn30  1  0.045370  0.629380  0.655570  1.0  1.1351
  Zn  Zn31  1  0.036490  0.734800  0.645810  1.0  1.0649
  Zn  Zn32  1  0.001420  0.671310  0.709520  1.0  1.0339
  Zn  Zn33  1  0.689930  0.065200  0.314820  1.0  1.0242
  Zn  Zn34  1  0.584010  0.954630  0.322230  1.0  1.1349
  Zn  Zn35  1  0.698310  0.963510  0.312470  1.0  1.0649
  Zn  Zn36  1  0.669890  0.998580  0.376180  1.0  1.0312
  Zn  Zn37  1  0.934800  0.310070  0.351840  1.0  1.024
  Zn  Zn38  1  0.045370  0.415990  0.344430  1.0  1.1361
  Zn  Zn39  1  0.036490  0.301690  0.354190  1.0  1.0652
  Zn  Zn40  1  0.001420  0.330110  0.290480  1.0  1.0301
  Zn  Zn41  1  0.689930  0.624730  0.685180  1.0  1.0253
  Zn  Zn42  1  0.584010  0.629380  0.677770  1.0  1.1364
  Zn  Zn43  1  0.698310  0.734800  0.687530  1.0  1.0657
  Zn  Zn44  1  0.669890  0.671310  0.623820  1.0  1.0331
  Zn  Zn45  1  0.375270  0.065200  0.018510  1.0  1.0238
  Zn  Zn46  1  0.370620  0.954630  0.011100  1.0  1.1359
  Zn  Zn47  1  0.265200  0.963510  0.020860  1.0  1.065
  Zn  Zn48  1  0.328690  0.998580  0.957150  1.0  1.0313
  H  H49  1  0.120200  0.869500  0.030700  1.0  0.0994
  H  H50  1  0.161900  0.936300  0.068400  1.0  0.0961
  H  H51  1  0.083500  0.833500  0.139700  1.0  0.1092
  H  H52  1  0.041800  0.766600  0.101900  1.0  0.1009
  H  H53  1  0.298900  0.121500  0.195400  1.0  0.1099
  H  H54  1  0.330700  0.195400  0.228200  1.0  0.1006
  H  H55  1  0.189400  0.133800  0.271600  1.0  0.1017
  H  H56  1  0.157600  0.059900  0.238800  1.0  0.1092
  H  H57  1  0.187200  0.711900  0.935200  1.0  0.1014
  H  H58  1  0.258400  0.751100  0.900000  1.0  0.1056
  H  H59  1  0.204500  0.843300  0.865000  1.0  0.1123
  H  H60  1  0.133300  0.804100  0.900100  1.0  0.0866
  H  H61  1  0.483800  0.883900  0.801800  1.0  0.0981
  H  H62  1  0.551400  0.917000  0.764100  1.0  0.1012
  H  H63  1  0.450800  0.911500  0.696100  1.0  0.0964
  H  H64  1  0.383200  0.878400  0.733900  1.0  0.0948
  H  H65  1  0.891900  0.541400  0.880800  1.0  0.1012
  H  H66  1  0.873900  0.488200  0.835700  1.0  0.1114
  H  H67  1  0.993100  0.463600  0.859000  1.0  0.1077
  H  H68  1  0.011200  0.516900  0.904200  1.0  0.0735
  H  H69  1  0.827400  0.306400  0.701200  1.0  0.1101
  H  H70  1  0.781900  0.228300  0.672300  1.0  0.1029
  H  H71  1  0.775200  0.146100  0.751700  1.0  0.1023
  H  H72  1  0.820700  0.224200  0.780600  1.0  0.1117
  H  H73  1  0.749300  0.879800  0.697370  1.0  0.0998
  H  H74  1  0.774400  0.838100  0.735070  1.0  0.0959
  H  H75  1  0.750000  0.916500  0.806370  1.0  0.107
  H  H76  1  0.724800  0.958200  0.768570  1.0  0.1014
  H  H77  1  0.822600  0.701100  0.862070  1.0  0.1093
  H  H78  1  0.864700  0.669300  0.894870  1.0  0.1002
  H  H79  1  0.944400  0.810600  0.938270  1.0  0.0995
  H  H80  1  0.902300  0.842400  0.905470  1.0  0.1105
  H  H81  1  0.524700  0.812800  0.601870  1.0  0.1024
  H  H82  1  0.492700  0.741600  0.566670  1.0  0.1039
  H  H83  1  0.638800  0.795500  0.531670  1.0  0.1114
  H  H84  1  0.670800  0.866700  0.566770  1.0  0.0868
  H  H85  1  0.400100  0.516200  0.468470  1.0  0.0983
  H  H86  1  0.365600  0.448600  0.430770  1.0  0.1016
  H  H87  1  0.460700  0.549200  0.362770  1.0  0.0965
  H  H88  1  0.495200  0.616800  0.400570  1.0  0.0953
  H  H89  1  0.649500  0.108100  0.547470  1.0  0.1026
  H  H90  1  0.614300  0.126100  0.502370  1.0  0.1123
  H  H91  1  0.470500  0.006900  0.525670  1.0  0.1078
  H  H92  1  0.505700  0.988800  0.570870  1.0  0.0744
  H  H93  1  0.479000  0.172600  0.367870  1.0  0.1092
  H  H94  1  0.446400  0.218100  0.338970  1.0  0.1034
  H  H95  1  0.370900  0.224800  0.418370  1.0  0.1001
  H  H96  1  0.403500  0.179300  0.447270  1.0  0.1114
  H  H97  1  0.130500  0.250700  0.364030  1.0  0.1006
  H  H98  1  0.063700  0.225600  0.401730  1.0  0.0957
  H  H99  1  0.166500  0.250000  0.473030  1.0  0.1095
  H  H100  1  0.233400  0.275200  0.435230  1.0  0.1006
  H  H101  1  0.878500  0.177400  0.528730  1.0  0.1108
  H  H102  1  0.804600  0.135300  0.561530  1.0  0.0993
  H  H103  1  0.866200  0.055600  0.604930  1.0  0.1007
  H  H104  1  0.940100  0.097700  0.572130  1.0  0.1103
  H  H105  1  0.288100  0.475300  0.268530  1.0  0.1022
  H  H106  1  0.248900  0.507300  0.233330  1.0  0.1047
  H  H107  1  0.156700  0.361200  0.198330  1.0  0.1114
  H  H108  1  0.195900  0.329200  0.233430  1.0  0.0872
  H  H109  1  0.116100  0.599900  0.135130  1.0  0.0981
  H  H110  1  0.083000  0.634400  0.097430  1.0  0.1015
  H  H111  1  0.088500  0.539300  0.029430  1.0  0.0964
  H  H112  1  0.121600  0.504800  0.067230  1.0  0.0948
  H  H113  1  0.458600  0.350500  0.214130  1.0  0.1018
  H  H114  1  0.511800  0.385700  0.169030  1.0  0.111
  H  H115  1  0.536400  0.529500  0.192330  1.0  0.1076
  H  H116  1  0.483100  0.494300  0.237530  1.0  0.0746
  H  H117  1  0.693600  0.521000  0.034530  1.0  0.1085
  H  H118  1  0.771700  0.553600  0.005630  1.0  0.1023
  H  H119  1  0.853900  0.629100  0.085030  1.0  0.1008
  H  H120  1  0.775800  0.596500  0.113930  1.0  0.1105
  H  H121  1  0.749300  0.869500  0.302630  1.0  0.1
  H  H122  1  0.774400  0.936300  0.264930  1.0  0.0959
  H  H123  1  0.750000  0.833500  0.193630  1.0  0.1084
  H  H124  1  0.724800  0.766600  0.231430  1.0  0.1013
  H  H125  1  0.822600  0.121500  0.137930  1.0  0.1092
  H  H126  1  0.864700  0.195400  0.105130  1.0  0.0998
  H  H127  1  0.944400  0.133800  0.061730  1.0  0.0984
  H  H128  1  0.902300  0.059900  0.094530  1.0  0.1109
  H  H129  1  0.524700  0.711900  0.398130  1.0  0.101
  H  H130  1  0.492700  0.751100  0.433330  1.0  0.1048
  H  H131  1  0.638800  0.843300  0.468330  1.0  0.1124
  H  H132  1  0.670800  0.804100  0.433230  1.0  0.0871
  H  H133  1  0.400100  0.883900  0.531530  1.0  0.0978
  H  H134  1  0.365600  0.917000  0.569230  1.0  0.1015
  H  H135  1  0.460700  0.911500  0.637230  1.0  0.0967
  H  H136  1  0.495200  0.878400  0.599430  1.0  0.095
  H  H137  1  0.649500  0.541400  0.452530  1.0  0.1019
  H  H138  1  0.614300  0.488200  0.497630  1.0  0.1118
  H  H139  1  0.470500  0.463600  0.474330  1.0  0.1085
  H  H140  1  0.505700  0.516900  0.429130  1.0  0.0739
  H  H141  1  0.479000  0.306400  0.632130  1.0  0.1108
  H  H142  1  0.446400  0.228300  0.661030  1.0  0.1038
  H  H143  1  0.370900  0.146100  0.581630  1.0  0.1002
  H  H144  1  0.403500  0.224200  0.552730  1.0  0.1115
  H  H145  1  0.130500  0.879800  0.635970  1.0  0.1006
  H  H146  1  0.063700  0.838100  0.598270  1.0  0.0957
  H  H147  1  0.166500  0.916500  0.526970  1.0  0.1078
  H  H148  1  0.233400  0.958200  0.564770  1.0  0.1016
  H  H149  1  0.878500  0.701100  0.471270  1.0  0.1091
  H  H150  1  0.804600  0.669300  0.438470  1.0  0.0998
  H  H151  1  0.866200  0.810600  0.395070  1.0  0.1016
  H  H152  1  0.940100  0.842400  0.427870  1.0  0.1098
  H  H153  1  0.288100  0.812800  0.731470  1.0  0.1022
  H  H154  1  0.248900  0.741600  0.766670  1.0  0.1051
  H  H155  1  0.156700  0.795500  0.801670  1.0  0.1116
  H  H156  1  0.195900  0.866700  0.766570  1.0  0.087
  H  H157  1  0.116100  0.516200  0.864870  1.0  0.0979
  H  H158  1  0.083000  0.448600  0.902570  1.0  0.1013
  H  H159  1  0.088500  0.549200  0.970570  1.0  0.0964
  H  H160  1  0.121600  0.616800  0.932770  1.0  0.0951
  H  H161  1  0.458600  0.108100  0.785870  1.0  0.1024
  H  H162  1  0.511800  0.126100  0.830970  1.0  0.1123
  H  H163  1  0.536400  0.006900  0.807670  1.0  0.1078
  H  H164  1  0.483100  0.988800  0.762470  1.0  0.075
  H  H165  1  0.693600  0.172600  0.965470  1.0  0.1097
  H  H166  1  0.771700  0.218100  0.994370  1.0  0.1034
  H  H167  1  0.853900  0.224800  0.914970  1.0  0.1016
  H  H168  1  0.775800  0.179300  0.886070  1.0  0.1112
  H  H169  1  0.120200  0.250700  0.969300  1.0  0.1013
  H  H170  1  0.161900  0.225600  0.931600  1.0  0.0956
  H  H171  1  0.083500  0.250000  0.860300  1.0  0.1078
  H  H172  1  0.041800  0.275200  0.898100  1.0  0.1004
  H  H173  1  0.298900  0.177400  0.804600  1.0  0.1102
  H  H174  1  0.330700  0.135300  0.771800  1.0  0.0982
  H  H175  1  0.189400  0.055600  0.728400  1.0  0.1008
  H  H176  1  0.157600  0.097700  0.761200  1.0  0.1109
  H  H177  1  0.187200  0.475300  0.064800  1.0  0.1024
  H  H178  1  0.258400  0.507300  0.100000  1.0  0.105
  H  H179  1  0.204500  0.361200  0.135000  1.0  0.1116
  H  H180  1  0.133300  0.329200  0.099900  1.0  0.0874
  H  H181  1  0.483800  0.599900  0.198200  1.0  0.098
  H  H182  1  0.551400  0.634400  0.235900  1.0  0.1009
  H  H183  1  0.450800  0.539300  0.303900  1.0  0.0965
  H  H184  1  0.383200  0.504800  0.266100  1.0  0.0946
  H  H185  1  0.891900  0.350500  0.119200  1.0  0.102
  H  H186  1  0.873900  0.385700  0.164300  1.0  0.1118
  H  H187  1  0.993100  0.529500  0.141000  1.0  0.1079
  H  H188  1  0.011200  0.494300  0.095800  1.0  0.075
  H  H189  1  0.827400  0.521000  0.298800  1.0  0.1092
  H  H190  1  0.781900  0.553600  0.327700  1.0  0.1029
  H  H191  1  0.775200  0.629100  0.248300  1.0  0.1
  H  H192  1  0.820700  0.596500  0.219400  1.0  0.1109
  H  H193  1  0.460000  0.470300  0.902700  1.0  0.0998
  H  H194  1  0.529600  0.513800  0.866800  1.0  0.1105
  H  H195  1  0.596700  0.433300  0.901900  1.0  0.1121
  H  H196  1  0.527100  0.389800  0.937800  1.0  0.1003
  H  H197  1  0.713300  0.541000  0.730500  1.0  0.1013
  H  H198  1  0.785200  0.570100  0.696100  1.0  0.0972
  H  H199  1  0.879900  0.596600  0.772500  1.0  0.1012
  H  H200  1  0.808000  0.567500  0.806900  1.0  0.0985
  H  H201  1  0.188900  0.156400  0.928900  1.0  0.0996
  H  H202  1  0.159700  0.088200  0.891700  1.0  0.1131
  H  H203  1  0.309900  0.130700  0.871000  1.0  0.102
  H  H204  1  0.339100  0.198800  0.908300  1.0  0.0812
  H  H205  1  0.074200  0.863500  0.801700  1.0  0.1002
  H  H206  1  0.033000  0.793400  0.766100  1.0  0.1024
  H  H207  1  0.130800  0.883000  0.695300  1.0  0.0964
  H  H208  1  0.172000  0.953100  0.731000  1.0  0.0958
  H  H209  1  0.041000  0.590100  0.776000  1.0  0.1021
  H  H210  1  0.077400  0.547000  0.803500  1.0  0.1043
  H  H211  1  0.204500  0.615200  0.745700  1.0  0.1074
  H  H212  1  0.168200  0.658300  0.718200  1.0  0.1018
  H  H213  1  0.168500  0.383700  0.867800  1.0  0.1066
  H  H214  1  0.195800  0.346200  0.907200  1.0  0.0861
  H  H215  1  0.324400  0.487200  0.923600  1.0  0.1008
  H  H216  1  0.297000  0.524800  0.884300  1.0  0.1138
  H  H217  1  0.010300  0.540000  0.569370  1.0  0.101
  H  H218  1  0.984200  0.470400  0.533470  1.0  0.1092
  H  H219  1  0.836600  0.403300  0.568570  1.0  0.1127
  H  H220  1  0.862700  0.472900  0.604470  1.0  0.1005
  H  H221  1  0.827700  0.286700  0.397170  1.0  0.0998
  H  H222  1  0.784900  0.214800  0.362770  1.0  0.0965
  H  H223  1  0.716700  0.120100  0.439170  1.0  0.1011
  H  H224  1  0.759500  0.192000  0.473570  1.0  0.0982
  H  H225  1  0.967500  0.811100  0.595570  1.0  0.1003
  H  H226  1  0.928500  0.840300  0.558370  1.0  0.1136
  H  H227  1  0.820800  0.690100  0.537670  1.0  0.1029
  H  H228  1  0.859700  0.660900  0.574970  1.0  0.0814
  H  H229  1  0.789300  0.925800  0.468370  1.0  0.0995
  H  H230  1  0.760400  0.967000  0.432770  1.0  0.1022
  H  H231  1  0.752200  0.869200  0.361970  1.0  0.0963
  H  H232  1  0.781100  0.828000  0.397670  1.0  0.0951
  H  H233  1  0.549100  0.959000  0.442670  1.0  0.1028
  H  H234  1  0.469600  0.922600  0.470170  1.0  0.1036
  H  H235  1  0.410700  0.795500  0.412370  1.0  0.107
  H  H236  1  0.490100  0.831800  0.384870  1.0  0.1013
  H  H237  1  0.215200  0.831500  0.534470  1.0  0.1067
  H  H238  1  0.150400  0.804200  0.573870  1.0  0.0854
  H  H239  1  0.162800  0.675600  0.590270  1.0  0.0997
  H  H240  1  0.227800  0.703000  0.550970  1.0  0.1133
  H  H241  1  0.529700  0.989700  0.236030  1.0  0.1006
  H  H242  1  0.486200  0.015800  0.200130  1.0  0.1091
  H  H243  1  0.566700  0.163400  0.235230  1.0  0.113
  H  H244  1  0.610200  0.137300  0.271130  1.0  0.1
  H  H245  1  0.459000  0.172300  0.063830  1.0  0.1007
  H  H246  1  0.429900  0.215100  0.029430  1.0  0.0972
  H  H247  1  0.403400  0.283300  0.105830  1.0  0.1025
  H  H248  1  0.432500  0.240500  0.140230  1.0  0.0977
  H  H249  1  0.843600  0.032500  0.262230  1.0  0.0995
  H  H250  1  0.911800  0.071500  0.225030  1.0  0.1121
  H  H251  1  0.869300  0.179200  0.204330  1.0  0.1039
  H  H252  1  0.801200  0.140300  0.241630  1.0  0.0814
  H  H253  1  0.136500  0.210700  0.135030  1.0  0.0995
  H  H254  1  0.206600  0.239600  0.099430  1.0  0.1021
  H  H255  1  0.117000  0.247800  0.028630  1.0  0.0965
  H  H256  1  0.046900  0.218900  0.064330  1.0  0.0944
  H  H257  1  0.409900  0.450900  0.109330  1.0  0.1022
  H  H258  1  0.453000  0.530400  0.136830  1.0  0.1039
  H  H259  1  0.384800  0.589300  0.079030  1.0  0.1066
  H  H260  1  0.341700  0.509900  0.051530  1.0  0.1014
  H  H261  1  0.616300  0.784800  0.201130  1.0  0.1062
  H  H262  1  0.653800  0.849600  0.240530  1.0  0.0849
  H  H263  1  0.512800  0.837200  0.256930  1.0  0.0994
  H  H264  1  0.475200  0.772200  0.217630  1.0  0.1132
  H  H265  1  0.010300  0.470300  0.430630  1.0  0.1001
  H  H266  1  0.984200  0.513800  0.466530  1.0  0.1098
  H  H267  1  0.836600  0.433300  0.431430  1.0  0.1127
  H  H268  1  0.862700  0.389800  0.395530  1.0  0.1003
  H  H269  1  0.827700  0.541000  0.602830  1.0  0.1011
  H  H270  1  0.784900  0.570100  0.637230  1.0  0.0976
  H  H271  1  0.716700  0.596600  0.560830  1.0  0.1012
  H  H272  1  0.759500  0.567500  0.526430  1.0  0.0981
  H  H273  1  0.967500  0.156400  0.404430  1.0  0.0995
  H  H274  1  0.928500  0.088200  0.441630  1.0  0.1127
  H  H275  1  0.820800  0.130700  0.462330  1.0  0.1024
  H  H276  1  0.859700  0.198800  0.425030  1.0  0.0816
  H  H277  1  0.789300  0.863500  0.531630  1.0  0.1018
  H  H278  1  0.760400  0.793400  0.567230  1.0  0.1021
  H  H279  1  0.752200  0.883000  0.638030  1.0  0.0966
  H  H280  1  0.781100  0.953100  0.602330  1.0  0.0948
  H  H281  1  0.549100  0.590100  0.557330  1.0  0.1018
  H  H282  1  0.469600  0.547000  0.529830  1.0  0.1042
  H  H283  1  0.410700  0.615200  0.587630  1.0  0.1068
  H  H284  1  0.490100  0.658300  0.615130  1.0  0.1024
  H  H285  1  0.215200  0.383700  0.465530  1.0  0.1065
  H  H286  1  0.150400  0.346200  0.426130  1.0  0.0861
  H  H287  1  0.162800  0.487200  0.409730  1.0  0.101
  H  H288  1  0.227800  0.524800  0.449030  1.0  0.1136
  H  H289  1  0.529700  0.540000  0.763970  1.0  0.1005
  H  H290  1  0.486200  0.470400  0.799870  1.0  0.1094
  H  H291  1  0.566700  0.403300  0.764770  1.0  0.1124
  H  H292  1  0.610200  0.472900  0.728870  1.0  0.1003
  H  H293  1  0.459000  0.286700  0.936170  1.0  0.0992
  H  H294  1  0.429900  0.214800  0.970570  1.0  0.0967
  H  H295  1  0.403400  0.120100  0.894170  1.0  0.1009
  H  H296  1  0.432500  0.192000  0.859770  1.0  0.0988
  H  H297  1  0.843600  0.811100  0.737770  1.0  0.1007
  H  H298  1  0.911800  0.840300  0.774970  1.0  0.1131
  H  H299  1  0.869300  0.690100  0.795670  1.0  0.103
  H  H300  1  0.801200  0.660900  0.758370  1.0  0.0813
  H  H301  1  0.136500  0.925800  0.864970  1.0  0.1016
  H  H302  1  0.206600  0.967000  0.900570  1.0  0.102
  H  H303  1  0.117000  0.869200  0.971370  1.0  0.0962
  H  H304  1  0.046900  0.828000  0.935670  1.0  0.0948
  H  H305  1  0.409900  0.959000  0.890670  1.0  0.1032
  H  H306  1  0.453000  0.922600  0.863170  1.0  0.1042
  H  H307  1  0.384800  0.795500  0.920970  1.0  0.1066
  H  H308  1  0.341700  0.831800  0.948470  1.0  0.1019
  H  H309  1  0.616300  0.831500  0.798870  1.0  0.1064
  H  H310  1  0.653800  0.804200  0.759470  1.0  0.0851
  H  H311  1  0.512800  0.675600  0.743070  1.0  0.0996
  H  H312  1  0.475200  0.703000  0.782370  1.0  0.1135
  H  H313  1  0.460000  0.989700  0.097300  1.0  0.1007
  H  H314  1  0.529600  0.015800  0.133200  1.0  0.1093
  H  H315  1  0.596700  0.163400  0.098100  1.0  0.1125
  H  H316  1  0.527100  0.137300  0.062200  1.0  0.1006
  H  H317  1  0.713300  0.172300  0.269500  1.0  0.1002
  H  H318  1  0.785200  0.215100  0.303900  1.0  0.0973
  H  H319  1  0.879900  0.283300  0.227500  1.0  0.1023
  H  H320  1  0.808000  0.240500  0.193100  1.0  0.0979
  H  H321  1  0.188900  0.032500  0.071100  1.0  0.0991
  H  H322  1  0.159700  0.071500  0.108300  1.0  0.1131
  H  H323  1  0.309900  0.179200  0.129000  1.0  0.1039
  H  H324  1  0.339100  0.140300  0.091700  1.0  0.0817
  H  H325  1  0.074200  0.210700  0.198300  1.0  0.1012
  H  H326  1  0.033000  0.239600  0.233900  1.0  0.1022
  H  H327  1  0.130800  0.247800  0.304700  1.0  0.097
  H  H328  1  0.172000  0.218900  0.269000  1.0  0.0952
  H  H329  1  0.041000  0.450900  0.224000  1.0  0.1023
  H  H330  1  0.077400  0.530400  0.196500  1.0  0.1044
  H  H331  1  0.204500  0.589300  0.254300  1.0  0.108
  H  H332  1  0.168200  0.509900  0.281800  1.0  0.1017
  H  H333  1  0.168500  0.784800  0.132200  1.0  0.106
  H  H334  1  0.195800  0.849600  0.092800  1.0  0.0858
  H  H335  1  0.324400  0.837200  0.076400  1.0  0.1004
  H  H336  1  0.297000  0.772200  0.115700  1.0  0.1135
  C  C337  1  0.051300  0.768800  0.039300  1.0  0.6846
  C  C338  1  0.077100  0.811800  0.062740  1.0  -0.1345
  C  C339  1  0.112700  0.862100  0.052790  1.0  -0.0385
  C  C340  1  0.137500  0.901900  0.075200  1.0  -0.1019
  C  C341  1  0.126600  0.891200  0.107630  1.0  -0.023
  C  C342  1  0.090900  0.840700  0.117580  1.0  -0.1011
  C  C343  1  0.066200  0.801100  0.095140  1.0  -0.0496
  C  C344  1  0.150000  0.933700  0.130600  1.0  -0.0677
  C  C345  1  0.167400  0.966100  0.150800  1.0  0.157
  C  C346  1  0.186100  0.003700  0.174000  1.0  0.013
  C  C347  1  0.203700  0.040300  0.192000  1.0  0.0191
  C  C348  1  0.225300  0.083800  0.214000  1.0  0.2852
  C  C349  1  0.276700  0.124100  0.210840  1.0  -0.101
  C  C350  1  0.295600  0.167900  0.230400  1.0  -0.0597
  C  C351  1  0.263000  0.171500  0.253000  1.0  -0.1341
  C  C352  1  0.211600  0.131300  0.256130  1.0  -0.05
  C  C353  1  0.192700  0.087400  0.236600  1.0  -0.109
  C  C354  1  0.284200  0.218400  0.274200  1.0  0.7258
  C  C355  1  0.107300  0.727800  0.942000  1.0  0.7251
  C  C356  1  0.153500  0.754300  0.920950  1.0  -0.1378
  C  C357  1  0.190700  0.738600  0.920920  1.0  -0.0513
  C  C358  1  0.233000  0.761800  0.900100  1.0  -0.1152
  C  C359  1  0.238100  0.800800  0.879240  1.0  -0.061
  C  C360  1  0.201000  0.816600  0.879260  1.0  -0.1015
  C  C361  1  0.158700  0.793400  0.900120  1.0  -0.0474
  C  C362  1  0.282000  0.822900  0.857300  1.0  0.0573
  C  C363  1  0.314700  0.834400  0.837200  1.0  0.2478
  C  C364  1  0.354500  0.851800  0.816100  1.0  0.1229
  C  C365  1  0.387300  0.865500  0.795900  1.0  -0.0128
  C  C366  1  0.427200  0.878100  0.771410  1.0  -0.0501
  C  C367  1  0.477100  0.889500  0.780370  1.0  -0.1132
  C  C368  1  0.517300  0.909200  0.757940  1.0  -0.0689
  C  C369  1  0.507500  0.917400  0.726540  1.0  -0.1586
  C  C370  1  0.457500  0.905900  0.717580  1.0  -0.0485
  C  C371  1  0.417400  0.886300  0.740020  1.0  -0.0916
  C  C372  1  0.551100  0.943100  0.703400  1.0  0.7065
  C  C373  1  0.971100  0.573700  0.922400  1.0  0.6757
  C  C374  1  0.953200  0.534100  0.896800  1.0  -0.1748
  C  C375  1  0.912500  0.525600  0.876400  1.0  -0.0589
  C  C376  1  0.901800  0.494000  0.849600  1.0  -0.1371
  C  C377  1  0.931800  0.470900  0.843100  1.0  0.0648
  C  C378  1  0.972600  0.479400  0.863500  1.0  -0.1213
  C  C379  1  0.983300  0.511000  0.890300  1.0  -0.0595
  C  C380  1  0.913600  0.432900  0.817800  1.0  0.0455
  C  C381  1  0.895900  0.392800  0.803400  1.0  0.0225
  C  C382  1  0.861000  0.350700  0.784800  1.0  -0.0122
  C  C383  1  0.852200  0.319400  0.762800  1.0  -0.0284
  C  C384  1  0.828300  0.272600  0.743600  1.0  0.0478
  C  C385  1  0.816800  0.273900  0.711400  1.0  -0.1216
  C  C386  1  0.789800  0.227500  0.694300  1.0  -0.0726
  C  C387  1  0.774300  0.179900  0.709300  1.0  -0.1462
  C  C388  1  0.785800  0.178700  0.741400  1.0  -0.0607
  C  C389  1  0.812800  0.225000  0.758600  1.0  -0.1703
  C  C390  1  0.750700  0.131500  0.688300  1.0  0.7272
  C  C391  1  0.717500  0.948700  0.705970  1.0  0.6846
  C  C392  1  0.734700  0.922900  0.729410  1.0  -0.1311
  C  C393  1  0.749400  0.887300  0.719460  1.0  -0.0405
  C  C394  1  0.764400  0.862500  0.741870  1.0  -0.1031
  C  C395  1  0.764600  0.873400  0.774300  1.0  -0.0232
  C  C396  1  0.749800  0.909100  0.784250  1.0  -0.1109
  C  C397  1  0.734900  0.933800  0.761810  1.0  -0.0498
  C  C398  1  0.783700  0.850000  0.797270  1.0  -0.0687
  C  C399  1  0.798700  0.832600  0.817470  1.0  0.1573
  C  C400  1  0.817600  0.813900  0.840670  1.0  0.0127
  C  C401  1  0.836600  0.796300  0.858670  1.0  0.0157
  C  C402  1  0.858500  0.774700  0.880670  1.0  0.2829
  C  C403  1  0.847400  0.723300  0.877510  1.0  -0.1028
  C  C404  1  0.872300  0.704400  0.897070  1.0  -0.0622
  C  C405  1  0.908500  0.737000  0.919670  1.0  -0.135
  C  C406  1  0.919700  0.788400  0.922800  1.0  -0.0493
  C  C407  1  0.894700  0.807300  0.903270  1.0  -0.109
  C  C408  1  0.934200  0.715800  0.940870  1.0  0.7248
  C  C409  1  0.620500  0.892700  0.608670  1.0  0.7247
  C  C410  1  0.600800  0.846500  0.587620  1.0  -0.1395
  C  C411  1  0.547900  0.809300  0.587590  1.0  -0.0501
  C  C412  1  0.528800  0.767000  0.566770  1.0  -0.1135
  C  C413  1  0.562700  0.761900  0.545910  1.0  -0.0589
  C  C414  1  0.615600  0.799000  0.545930  1.0  -0.1003
  C  C415  1  0.634700  0.841300  0.566790  1.0  -0.0465
  C  C416  1  0.540900  0.718000  0.523970  1.0  0.0573
  C  C417  1  0.519700  0.685300  0.503870  1.0  0.2468
  C  C418  1  0.497300  0.645500  0.482770  1.0  0.1234
  C  C419  1  0.478200  0.612700  0.462570  1.0  -0.0114
  C  C420  1  0.450900  0.572800  0.438080  1.0  -0.0492
  C  C421  1  0.412400  0.522900  0.447040  1.0  -0.1144
  C  C422  1  0.391900  0.482700  0.424610  1.0  -0.0721
  C  C423  1  0.409900  0.492500  0.393210  1.0  -0.1603
  C  C424  1  0.448400  0.542500  0.384250  1.0  -0.0474
  C  C425  1  0.468900  0.582600  0.406690  1.0  -0.0928
  C  C426  1  0.392000  0.448900  0.370070  1.0  0.7064
  C  C427  1  0.602600  0.028900  0.589070  1.0  0.6761
  C  C428  1  0.580900  0.046800  0.563470  1.0  -0.1724
  C  C429  1  0.613100  0.087500  0.543070  1.0  -0.0606
  C  C430  1  0.592200  0.098200  0.516270  1.0  -0.1379
  C  C431  1  0.539100  0.068200  0.509770  1.0  0.0645
  C  C432  1  0.506800  0.027400  0.530170  1.0  -0.1199
  C  C433  1  0.527700  0.016700  0.556970  1.0  -0.0631
  C  C434  1  0.519300  0.086400  0.484470  1.0  0.0413
  C  C435  1  0.496900  0.104100  0.470070  1.0  0.0236
  C  C436  1  0.489700  0.139000  0.451470  1.0  -0.0136
  C  C437  1  0.467200  0.147800  0.429470  1.0  -0.0246
  C  C438  1  0.444300  0.171700  0.410270  1.0  0.0498
  C  C439  1  0.457100  0.183200  0.378070  1.0  -0.1196
  C  C440  1  0.437700  0.210200  0.360970  1.0  -0.0724
  C  C441  1  0.405600  0.225700  0.375970  1.0  -0.1458
  C  C442  1  0.392900  0.214200  0.408070  1.0  -0.0617
  C  C443  1  0.412200  0.187200  0.425270  1.0  -0.1719
  C  C444  1  0.380800  0.249300  0.354970  1.0  0.7298
  C  C445  1  0.231200  0.282500  0.372630  1.0  0.685
  C  C446  1  0.188200  0.265300  0.396070  1.0  -0.1336
  C  C447  1  0.137900  0.250600  0.386120  1.0  -0.0396
  C  C448  1  0.098100  0.235600  0.408530  1.0  -0.1047
  C  C449  1  0.108800  0.235400  0.440960  1.0  -0.0225
  C  C450  1  0.159300  0.250200  0.450910  1.0  -0.1071
  C  C451  1  0.198900  0.265100  0.428470  1.0  -0.0475
  C  C452  1  0.066300  0.216300  0.463930  1.0  -0.0735
  C  C453  1  0.033900  0.201300  0.484130  1.0  0.1524
  C  C454  1  0.996300  0.182400  0.507330  1.0  0.0134
  C  C455  1  0.959700  0.163400  0.525330  1.0  0.0197
  C  C456  1  0.916200  0.141500  0.547330  1.0  0.2832
  C  C457  1  0.875900  0.152600  0.544170  1.0  -0.1042
  C  C458  1  0.832100  0.127700  0.563730  1.0  -0.0614
  C  C459  1  0.828500  0.091500  0.586330  1.0  -0.1349
  C  C460  1  0.868700  0.080300  0.589460  1.0  -0.0488
  C  C461  1  0.912600  0.105300  0.569930  1.0  -0.1058
  C  C462  1  0.781600  0.065800  0.607530  1.0  0.7275
  C  C463  1  0.272200  0.379500  0.275330  1.0  0.724
  C  C464  1  0.245700  0.399200  0.254280  1.0  -0.1382
  C  C465  1  0.261400  0.452100  0.254250  1.0  -0.0523
  C  C466  1  0.238200  0.471200  0.233430  1.0  -0.1181
  C  C467  1  0.199200  0.437300  0.212570  1.0  -0.0591
  C  C468  1  0.183400  0.384400  0.212590  1.0  -0.1004
  C  C469  1  0.206600  0.365300  0.233450  1.0  -0.0492
  C  C470  1  0.177100  0.459100  0.190630  1.0  0.0603
  C  C471  1  0.165600  0.480300  0.170530  1.0  0.2461
  C  C472  1  0.148200  0.502700  0.149430  1.0  0.1228
  C  C473  1  0.134500  0.521800  0.129230  1.0  -0.0107
  C  C474  1  0.121900  0.549100  0.104740  1.0  -0.0533
  C  C475  1  0.110500  0.587600  0.113700  1.0  -0.1141
  C  C476  1  0.090800  0.608100  0.091270  1.0  -0.0722
  C  C477  1  0.082600  0.590100  0.059870  1.0  -0.1539
  C  C478  1  0.094100  0.551600  0.050910  1.0  -0.0487
  C  C479  1  0.113700  0.531100  0.073350  1.0  -0.0904
  C  C480  1  0.056900  0.608000  0.036730  1.0  0.7069
  C  C481  1  0.426300  0.397400  0.255730  1.0  0.6759
  C  C482  1  0.465900  0.419100  0.230130  1.0  -0.1746
  C  C483  1  0.474400  0.386900  0.209730  1.0  -0.0615
  C  C484  1  0.506000  0.407800  0.182930  1.0  -0.135
  C  C485  1  0.529100  0.460900  0.176430  1.0  0.0628
  C  C486  1  0.520600  0.493200  0.196830  1.0  -0.1191
  C  C487  1  0.489000  0.472300  0.223630  1.0  -0.0585
  C  C488  1  0.567100  0.480700  0.151130  1.0  0.0435
  C  C489  1  0.607200  0.503100  0.136730  1.0  0.0204
  C  C490  1  0.649300  0.510300  0.118130  1.0  -0.0132
  C  C491  1  0.680600  0.532800  0.096130  1.0  -0.0235
  C  C492  1  0.727400  0.555700  0.076930  1.0  0.0455
  C  C493  1  0.726100  0.542900  0.044730  1.0  -0.1194
  C  C494  1  0.772500  0.562300  0.027630  1.0  -0.0713
  C  C495  1  0.820100  0.594400  0.042630  1.0  -0.1464
  C  C496  1  0.821300  0.607100  0.074730  1.0  -0.0605
  C  C497  1  0.775000  0.587800  0.091930  1.0  -0.1709
  C  C498  1  0.868500  0.619200  0.021630  1.0  0.7282
  C  C499  1  0.717500  0.768800  0.294030  1.0  0.6848
  C  C500  1  0.734700  0.811800  0.270590  1.0  -0.133
  C  C501  1  0.749400  0.862100  0.280540  1.0  -0.0386
  C  C502  1  0.764400  0.901900  0.258130  1.0  -0.1037
  C  C503  1  0.764600  0.891200  0.225700  1.0  -0.0212
  C  C504  1  0.749800  0.840700  0.215750  1.0  -0.1042
  C  C505  1  0.734900  0.801100  0.238190  1.0  -0.0499
  C  C506  1  0.783700  0.933700  0.202730  1.0  -0.07
  C  C507  1  0.798700  0.966100  0.182530  1.0  0.1562
  C  C508  1  0.817600  0.003700  0.159330  1.0  0.0128
  C  C509  1  0.836600  0.040300  0.141330  1.0  0.0198
  C  C510  1  0.858500  0.083800  0.119330  1.0  0.2851
  C  C511  1  0.847400  0.124100  0.122490  1.0  -0.1001
  C  C512  1  0.872300  0.167900  0.102930  1.0  -0.0604
  C  C513  1  0.908500  0.171500  0.080330  1.0  -0.1347
  C  C514  1  0.919700  0.131300  0.077200  1.0  -0.0501
  C  C515  1  0.894700  0.087400  0.096730  1.0  -0.1115
  C  C516  1  0.934200  0.218400  0.059130  1.0  0.7255
  C  C517  1  0.620500  0.727800  0.391330  1.0  0.7255
  C  C518  1  0.600800  0.754300  0.412380  1.0  -0.1384
  C  C519  1  0.547900  0.738600  0.412410  1.0  -0.0526
  C  C520  1  0.528800  0.761800  0.433230  1.0  -0.1138
  C  C521  1  0.562700  0.800800  0.454090  1.0  -0.0603
  C  C522  1  0.615600  0.816600  0.454070  1.0  -0.1038
  C  C523  1  0.634700  0.793400  0.433210  1.0  -0.0478
  C  C524  1  0.540900  0.822900  0.476030  1.0  0.0567
  C  C525  1  0.519700  0.834400  0.496130  1.0  0.2491
  C  C526  1  0.497300  0.851800  0.517230  1.0  0.1226
  C  C527  1  0.478200  0.865500  0.537430  1.0  -0.0112
  C  C528  1  0.450900  0.878100  0.561920  1.0  -0.0478
  C  C529  1  0.412400  0.889500  0.552960  1.0  -0.1151
  C  C530  1  0.391900  0.909200  0.575390  1.0  -0.0686
  C  C531  1  0.409900  0.917400  0.606790  1.0  -0.1597
  C  C532  1  0.448400  0.905900  0.615750  1.0  -0.048
  C  C533  1  0.468900  0.886300  0.593310  1.0  -0.0916
  C  C534  1  0.392000  0.943100  0.629930  1.0  0.7063
  C  C535  1  0.602600  0.573700  0.410930  1.0  0.6761
  C  C536  1  0.580900  0.534100  0.436530  1.0  -0.1745
  C  C537  1  0.613100  0.525600  0.456930  1.0  -0.0581
  C  C538  1  0.592200  0.494000  0.483730  1.0  -0.1351
  C  C539  1  0.539100  0.470900  0.490230  1.0  0.0618
  C  C540  1  0.506800  0.479400  0.469830  1.0  -0.1203
  C  C541  1  0.527700  0.511000  0.443030  1.0  -0.0583
  C  C542  1  0.519300  0.432900  0.515530  1.0  0.0453
  C  C543  1  0.496900  0.392800  0.529930  1.0  0.022
  C  C544  1  0.489700  0.350700  0.548530  1.0  -0.0129
  C  C545  1  0.467200  0.319400  0.570530  1.0  -0.0269
  C  C546  1  0.444300  0.272600  0.589730  1.0  0.0489
  C  C547  1  0.457100  0.273900  0.621930  1.0  -0.1195
  C  C548  1  0.437700  0.227500  0.639030  1.0  -0.071
  C  C549  1  0.405600  0.179900  0.624030  1.0  -0.1452
  C  C550  1  0.392900  0.178700  0.591930  1.0  -0.0604
  C  C551  1  0.412200  0.225000  0.574730  1.0  -0.1711
  C  C552  1  0.380800  0.131500  0.645030  1.0  0.7272
  C  C553  1  0.231200  0.948700  0.627370  1.0  0.6835
  C  C554  1  0.188200  0.922900  0.603930  1.0  -0.1297
  C  C555  1  0.137900  0.887300  0.613880  1.0  -0.0403
  C  C556  1  0.098100  0.862500  0.591470  1.0  -0.1
  C  C557  1  0.108800  0.873400  0.559040  1.0  -0.0253
  C  C558  1  0.159300  0.909100  0.549090  1.0  -0.1048
  C  C559  1  0.198900  0.933800  0.571530  1.0  -0.0515
  C  C560  1  0.066300  0.850000  0.536070  1.0  -0.0728
  C  C561  1  0.033900  0.832600  0.515870  1.0  0.1601
  C  C562  1  0.996300  0.813900  0.492670  1.0  0.0116
  C  C563  1  0.959700  0.796300  0.474670  1.0  0.021
  C  C564  1  0.916200  0.774700  0.452670  1.0  0.2841
  C  C565  1  0.875900  0.723300  0.455830  1.0  -0.1026
  C  C566  1  0.832100  0.704400  0.436270  1.0  -0.0619
  C  C567  1  0.828500  0.737000  0.413670  1.0  -0.1369
  C  C568  1  0.868700  0.788400  0.410540  1.0  -0.0491
  C  C569  1  0.912600  0.807300  0.430070  1.0  -0.1093
  C  C570  1  0.781600  0.715800  0.392470  1.0  0.7252
  C  C571  1  0.272200  0.892700  0.724670  1.0  0.7255
  C  C572  1  0.245700  0.846500  0.745720  1.0  -0.1396
  C  C573  1  0.261400  0.809300  0.745750  1.0  -0.0506
  C  C574  1  0.238200  0.767000  0.766570  1.0  -0.1127
  C  C575  1  0.199200  0.761900  0.787430  1.0  -0.0584
  C  C576  1  0.183400  0.799000  0.787410  1.0  -0.1019
  C  C577  1  0.206600  0.841300  0.766550  1.0  -0.0458
  C  C578  1  0.177100  0.718000  0.809370  1.0  0.0567
  C  C579  1  0.165600  0.685300  0.829470  1.0  0.2477
  C  C580  1  0.148200  0.645500  0.850570  1.0  0.1225
  C  C581  1  0.134500  0.612700  0.870770  1.0  -0.0111
  C  C582  1  0.121900  0.572800  0.895260  1.0  -0.05
  C  C583  1  0.110500  0.522900  0.886300  1.0  -0.1143
  C  C584  1  0.090800  0.482700  0.908730  1.0  -0.0722
  C  C585  1  0.082600  0.492500  0.940130  1.0  -0.1614
  C  C586  1  0.094100  0.542500  0.949090  1.0  -0.0462
  C  C587  1  0.113700  0.582600  0.926650  1.0  -0.094
  C  C588  1  0.056900  0.448900  0.963270  1.0  0.7052
  C  C589  1  0.426300  0.028900  0.744270  1.0  0.6745
  C  C590  1  0.465900  0.046800  0.769870  1.0  -0.173
  C  C591  1  0.474400  0.087500  0.790270  1.0  -0.0623
  C  C592  1  0.506000  0.098200  0.817070  1.0  -0.1394
  C  C593  1  0.529100  0.068200  0.823570  1.0  0.0625
  C  C594  1  0.520600  0.027400  0.803170  1.0  -0.1195
  C  C595  1  0.489000  0.016700  0.776370  1.0  -0.0614
  C  C596  1  0.567100  0.086400  0.848870  1.0  0.0453
  C  C597  1  0.607200  0.104100  0.863270  1.0  0.0217
  C  C598  1  0.649300  0.139000  0.881870  1.0  -0.015
  C  C599  1  0.680600  0.147800  0.903870  1.0  -0.0239
  C  C600  1  0.727400  0.171700  0.923070  1.0  0.0488
  C  C601  1  0.726100  0.183200  0.955270  1.0  -0.1201
  C  C602  1  0.772500  0.210200  0.972370  1.0  -0.0719
  C  C603  1  0.820100  0.225700  0.957370  1.0  -0.1456
  C  C604  1  0.821300  0.214200  0.925270  1.0  -0.061
  C  C605  1  0.775000  0.187200  0.908070  1.0  -0.1716
  C  C606  1  0.868500  0.249300  0.978370  1.0  0.7288
  C  C607  1  0.051300  0.282500  0.960700  1.0  0.6846
  C  C608  1  0.077100  0.265300  0.937260  1.0  -0.1325
  C  C609  1  0.112700  0.250600  0.947210  1.0  -0.0391
  C  C610  1  0.137500  0.235600  0.924800  1.0  -0.1041
  C  C611  1  0.126600  0.235400  0.892370  1.0  -0.02
  C  C612  1  0.090900  0.250200  0.882420  1.0  -0.1079
  C  C613  1  0.066200  0.265100  0.904860  1.0  -0.0461
  C  C614  1  0.150000  0.216300  0.869400  1.0  -0.0696
  C  C615  1  0.167400  0.201300  0.849200  1.0  0.1592
  C  C616  1  0.186100  0.182400  0.826000  1.0  0.0119
  C  C617  1  0.203700  0.163400  0.808000  1.0  0.0145
  C  C618  1  0.225300  0.141500  0.786000  1.0  0.2833
  C  C619  1  0.276700  0.152600  0.789160  1.0  -0.1031
  C  C620  1  0.295600  0.127700  0.769600  1.0  -0.0613
  C  C621  1  0.263000  0.091500  0.747000  1.0  -0.1359
  C  C622  1  0.211600  0.080300  0.743870  1.0  -0.0482
  C  C623  1  0.192700  0.105300  0.763400  1.0  -0.1062
  C  C624  1  0.284200  0.065800  0.725800  1.0  0.7276
  C  C625  1  0.107300  0.379500  0.058000  1.0  0.7247
  C  C626  1  0.153500  0.399200  0.079050  1.0  -0.1389
  C  C627  1  0.190700  0.452100  0.079080  1.0  -0.0526
  C  C628  1  0.233000  0.471200  0.099900  1.0  -0.1172
  C  C629  1  0.238100  0.437300  0.120760  1.0  -0.0624
  C  C630  1  0.201000  0.384400  0.120740  1.0  -0.102
  C  C631  1  0.158700  0.365300  0.099880  1.0  -0.049
  C  C632  1  0.282000  0.459100  0.142700  1.0  0.0584
  C  C633  1  0.314700  0.480300  0.162800  1.0  0.2477
  C  C634  1  0.354500  0.502700  0.183900  1.0  0.1235
  C  C635  1  0.387300  0.521800  0.204100  1.0  -0.0108
  C  C636  1  0.427200  0.549100  0.228590  1.0  -0.0514
  C  C637  1  0.477100  0.587600  0.219630  1.0  -0.1136
  C  C638  1  0.517300  0.608100  0.242060  1.0  -0.0709
  C  C639  1  0.507500  0.590100  0.273460  1.0  -0.1565
  C  C640  1  0.457500  0.551600  0.282420  1.0  -0.0479
  C  C641  1  0.417400  0.531100  0.259980  1.0  -0.0911
  C  C642  1  0.551100  0.608000  0.296600  1.0  0.7061
  C  C643  1  0.971100  0.397400  0.077600  1.0  0.6771
  C  C644  1  0.953200  0.419100  0.103200  1.0  -0.1751
  C  C645  1  0.912500  0.386900  0.123600  1.0  -0.0622
  C  C646  1  0.901800  0.407800  0.150400  1.0  -0.1363
  C  C647  1  0.931800  0.460900  0.156900  1.0  0.0618
  C  C648  1  0.972600  0.493200  0.136500  1.0  -0.1209
  C  C649  1  0.983300  0.472300  0.109700  1.0  -0.0586
  C  C650  1  0.913600  0.480700  0.182200  1.0  0.0423
  C  C651  1  0.895900  0.503100  0.196600  1.0  0.0219
  C  C652  1  0.861000  0.510300  0.215200  1.0  -0.0145
  C  C653  1  0.852200  0.532800  0.237200  1.0  -0.0223
  C  C654  1  0.828300  0.555700  0.256400  1.0  0.0489
  C  C655  1  0.816800  0.542900  0.288600  1.0  -0.1178
  C  C656  1  0.789800  0.562300  0.305700  1.0  -0.0713
  C  C657  1  0.774300  0.594400  0.290700  1.0  -0.147
  C  C658  1  0.785800  0.607100  0.258600  1.0  -0.0609
  C  C659  1  0.812800  0.587800  0.241400  1.0  -0.1709
  C  C660  1  0.750700  0.619200  0.311700  1.0  0.7266
  C  C661  1  0.441800  0.396400  0.946400  1.0  0.7043
  C  C662  1  0.487100  0.426100  0.923600  1.0  -0.1435
  C  C663  1  0.487800  0.462800  0.902600  1.0  -0.0433
  C  C664  1  0.529100  0.488600  0.881200  1.0  -0.1476
  C  C665  1  0.569700  0.477600  0.881000  1.0  0.0177
  C  C666  1  0.568900  0.440700  0.902000  1.0  -0.0961
  C  C667  1  0.527600  0.415000  0.923400  1.0  -0.0552
  C  C668  1  0.607500  0.498300  0.855400  1.0  0.0667
  C  C669  1  0.642400  0.510700  0.837100  1.0  0.1142
  C  C670  1  0.675800  0.524700  0.811300  1.0  0.118
  C  C671  1  0.709900  0.538000  0.792300  1.0  -0.0059
  C  C672  1  0.753900  0.551600  0.771910  1.0  -0.0063
  C  C673  1  0.747100  0.552300  0.739010  1.0  -0.1492
  C  C674  1  0.789800  0.569600  0.718610  1.0  -0.0529
  C  C675  1  0.839300  0.586100  0.731100  1.0  -0.1689
  C  C676  1  0.846100  0.585400  0.764000  1.0  -0.0721
  C  C677  1  0.803400  0.568100  0.784400  1.0  -0.1026
  C  C678  1  0.885700  0.608900  0.709400  1.0  0.6908
  C  C679  1  0.285300  0.228700  0.944400  1.0  0.7036
  C  C680  1  0.266700  0.184000  0.922080  1.0  -0.1366
  C  C681  1  0.213500  0.151200  0.917200  1.0  -0.0566
  C  C682  1  0.196100  0.110600  0.895000  1.0  -0.1078
  C  C683  1  0.232100  0.103100  0.877860  1.0  -0.0258
  C  C684  1  0.285300  0.135800  0.882800  1.0  -0.0874
  C  C685  1  0.302700  0.176400  0.904900  1.0  -0.0424
  C  C686  1  0.214400  0.060700  0.855100  1.0  0.0223
  C  C687  1  0.195700  0.027100  0.835500  1.0  0.1745
  C  C688  1  0.174900  0.990100  0.812900  1.0  0.037
  C  C689  1  0.156000  0.955900  0.792900  1.0  -0.0158
  C  C690  1  0.127000  0.914900  0.769740  1.0  -0.0534
  C  C691  1  0.085700  0.867500  0.780140  1.0  -0.0896
  C  C692  1  0.061200  0.825800  0.758950  1.0  -0.0661
  C  C693  1  0.078000  0.831600  0.727340  1.0  -0.163
  C  C694  1  0.119300  0.879000  0.716940  1.0  -0.0401
  C  C695  1  0.143800  0.920700  0.738140  1.0  -0.1047
  C  C696  1  0.051700  0.785400  0.706300  1.0  0.7002
  C  C697  1  0.078600  0.655700  0.725700  1.0  0.6331
  C  C698  1  0.101200  0.628300  0.744500  1.0  -0.1449
  C  C699  1  0.074200  0.595200  0.769800  1.0  -0.0563
  C  C700  1  0.095800  0.569600  0.786200  1.0  -0.1495
  C  C701  1  0.144400  0.577000  0.777200  1.0  0.0333
  C  C702  1  0.171300  0.610100  0.751900  1.0  -0.0992
  C  C703  1  0.149700  0.635700  0.735450  1.0  -0.0595
  C  C704  1  0.162800  0.548700  0.796000  1.0  -0.0832
  C  C705  1  0.182300  0.527800  0.810700  1.0  -0.0257
  C  C706  1  0.199600  0.499500  0.826900  1.0  0.0774
  C  C707  1  0.214200  0.481600  0.847900  1.0  -0.0428
  C  C708  1  0.230200  0.457800  0.872400  1.0  0.0328
  C  C709  1  0.200100  0.404700  0.879200  1.0  -0.1073
  C  C710  1  0.216400  0.382400  0.902500  1.0  -0.0444
  C  C711  1  0.262700  0.413200  0.919040  1.0  -0.1649
  C  C712  1  0.292700  0.466200  0.912300  1.0  -0.0555
  C  C713  1  0.276500  0.488500  0.888900  1.0  -0.1083
  C  C714  1  0.277200  0.388800  0.945200  1.0  0.6981
  C  C715  1  0.954600  0.558200  0.613070  1.0  0.7062
  C  C716  1  0.939000  0.512900  0.590270  1.0  -0.142
  C  C717  1  0.975000  0.512200  0.569270  1.0  -0.0445
  C  C718  1  0.959500  0.470900  0.547870  1.0  -0.147
  C  C719  1  0.907900  0.430300  0.547670  1.0  0.0182
  C  C720  1  0.871800  0.431100  0.568670  1.0  -0.0978
  C  C721  1  0.887400  0.472400  0.590070  1.0  -0.0571
  C  C722  1  0.890800  0.392500  0.522070  1.0  0.0659
  C  C723  1  0.868300  0.357600  0.503770  1.0  0.1164
  C  C724  1  0.848900  0.324200  0.477970  1.0  0.1169
  C  C725  1  0.828100  0.290100  0.458970  1.0  -0.0031
  C  C726  1  0.797700  0.246100  0.438580  1.0  -0.0056
  C  C727  1  0.805200  0.252900  0.405680  1.0  -0.1445
  C  C728  1  0.779800  0.210200  0.385280  1.0  -0.0485
  C  C729  1  0.746800  0.160700  0.397770  1.0  -0.1701
  C  C730  1  0.739300  0.153900  0.430670  1.0  -0.0713
  C  C731  1  0.764700  0.196600  0.451070  1.0  -0.098
  C  C732  1  0.723200  0.114300  0.376070  1.0  0.6903
  C  C733  1  0.943400  0.714700  0.611070  1.0  0.7044
  C  C734  1  0.917300  0.733300  0.588750  1.0  -0.1354
  C  C735  1  0.937700  0.786500  0.583870  1.0  -0.0585
  C  C736  1  0.914500  0.803900  0.561670  1.0  -0.1083
  C  C737  1  0.871000  0.767900  0.544530  1.0  -0.0295
  C  C738  1  0.850500  0.714700  0.549470  1.0  -0.0872
  C  C739  1  0.873700  0.697300  0.571570  1.0  -0.0443
  C  C740  1  0.846300  0.785600  0.521770  1.0  0.0222
  C  C741  1  0.831400  0.804300  0.502170  1.0  0.175
  C  C742  1  0.815200  0.825100  0.479570  1.0  0.0367
  C  C743  1  0.799900  0.844000  0.459570  1.0  -0.0143
  C  C744  1  0.787900  0.873000  0.436410  1.0  -0.0561
  C  C745  1  0.781800  0.914300  0.446810  1.0  -0.0885
  C  C746  1  0.764600  0.938800  0.425620  1.0  -0.0673
  C  C747  1  0.753600  0.922000  0.394010  1.0  -0.1646
  C  C748  1  0.759700  0.880700  0.383610  1.0  -0.0432
  C  C749  1  0.776900  0.856200  0.404810  1.0  -0.1037
  C  C750  1  0.733700  0.948300  0.372970  1.0  0.7003
  C  C751  1  0.577100  0.921400  0.392370  1.0  0.6307
  C  C752  1  0.527100  0.898800  0.411170  1.0  -0.1437
  C  C753  1  0.521000  0.925800  0.436470  1.0  -0.0585
  C  C754  1  0.473800  0.904200  0.452870  1.0  -0.149
  C  C755  1  0.432600  0.855600  0.443870  1.0  0.0321
  C  C756  1  0.438800  0.828700  0.418570  1.0  -0.1006
  C  C757  1  0.486000  0.850300  0.402120  1.0  -0.0578
  C  C758  1  0.385900  0.837200  0.462670  1.0  -0.0867
  C  C759  1  0.345500  0.817700  0.477370  1.0  -0.0283
  C  C760  1  0.299900  0.800400  0.493570  1.0  0.0761
  C  C761  1  0.267400  0.785800  0.514570  1.0  -0.0389
  C  C762  1  0.227600  0.769800  0.539070  1.0  0.0329
  C  C763  1  0.204600  0.799900  0.545870  1.0  -0.1099
  C  C764  1  0.166000  0.783600  0.569170  1.0  -0.0473
  C  C765  1  0.150500  0.737300  0.585710  1.0  -0.1657
  C  C766  1  0.173500  0.707300  0.578970  1.0  -0.0534
  C  C767  1  0.212000  0.723500  0.555570  1.0  -0.1083
  C  C768  1  0.111600  0.722800  0.611870  1.0  0.6988
  C  C769  1  0.603600  0.045400  0.279730  1.0  0.7027
  C  C770  1  0.573900  0.061000  0.256930  1.0  -0.1439
  C  C771  1  0.537200  0.025000  0.235930  1.0  -0.0473
  C  C772  1  0.511400  0.040500  0.214530  1.0  -0.1472
  C  C773  1  0.522400  0.092100  0.214330  1.0  0.0175
  C  C774  1  0.559300  0.128200  0.235330  1.0  -0.0995
  C  C775  1  0.585000  0.112600  0.256730  1.0  -0.0579
  C  C776  1  0.501700  0.109200  0.188730  1.0  0.0674
  C  C777  1  0.489300  0.131700  0.170430  1.0  0.1152
  C  C778  1  0.475300  0.151100  0.144630  1.0  0.1168
  C  C779  1  0.462000  0.171900  0.125630  1.0  -0.0028
  C  C780  1  0.448400  0.202300  0.105240  1.0  -0.0091
  C  C781  1  0.447700  0.194800  0.072340  1.0  -0.1457
  C  C782  1  0.430400  0.220200  0.051940  1.0  -0.0514
  C  C783  1  0.413900  0.253200  0.064430  1.0  -0.168
  C  C784  1  0.414600  0.260700  0.097330  1.0  -0.0712
  C  C785  1  0.431900  0.235300  0.117730  1.0  -0.101
  C  C786  1  0.391100  0.276800  0.042730  1.0  0.6894
  C  C787  1  0.771300  0.056600  0.277730  1.0  0.7053
  C  C788  1  0.816000  0.082700  0.255410  1.0  -0.1366
  C  C789  1  0.848800  0.062300  0.250530  1.0  -0.057
  C  C790  1  0.889400  0.085500  0.228330  1.0  -0.1052
  C  C791  1  0.896900  0.129000  0.211190  1.0  -0.0273
  C  C792  1  0.864200  0.149500  0.216130  1.0  -0.0876
  C  C793  1  0.823600  0.126300  0.238230  1.0  -0.0424
  C  C794  1  0.939300  0.153700  0.188430  1.0  0.0225
  C  C795  1  0.972900  0.168600  0.168830  1.0  0.1742
  C  C796  1  0.009900  0.184800  0.146230  1.0  0.0367
  C  C797  1  0.044100  0.200100  0.126230  1.0  -0.0148
  C  C798  1  0.085100  0.212100  0.103070  1.0  -0.0516
  C  C799  1  0.132500  0.218200  0.113470  1.0  -0.0884
  C  C800  1  0.174200  0.235400  0.092280  1.0  -0.065
  C  C801  1  0.168400  0.246400  0.060670  1.0  -0.1655
  C  C802  1  0.121000  0.240300  0.050270  1.0  -0.0421
  C  C803  1  0.079300  0.223100  0.071470  1.0  -0.1034
  C  C804  1  0.214600  0.266300  0.039630  1.0  0.7
  C  C805  1  0.344300  0.422900  0.059030  1.0  0.6314
  C  C806  1  0.371700  0.472900  0.077830  1.0  -0.1447
  C  C807  1  0.404800  0.479000  0.103130  1.0  -0.0568
  C  C808  1  0.430400  0.526200  0.119530  1.0  -0.151
  C  C809  1  0.423000  0.567400  0.110530  1.0  0.0348
  C  C810  1  0.389900  0.561200  0.085230  1.0  -0.1028
  C  C811  1  0.364300  0.514000  0.068780  1.0  -0.0567
  C  C812  1  0.451300  0.614100  0.129330  1.0  -0.0843
  C  C813  1  0.472200  0.654500  0.144030  1.0  -0.0297
  C  C814  1  0.500500  0.700100  0.160230  1.0  0.0793
  C  C815  1  0.518400  0.732600  0.181230  1.0  -0.0388
  C  C816  1  0.542200  0.772400  0.205730  1.0  0.0305
  C  C817  1  0.595300  0.795400  0.212530  1.0  -0.1095
  C  C818  1  0.617600  0.834000  0.235830  1.0  -0.0468
  C  C819  1  0.586800  0.849500  0.252370  1.0  -0.1636
  C  C820  1  0.533800  0.826500  0.245630  1.0  -0.0559
  C  C821  1  0.511500  0.788000  0.222230  1.0  -0.1086
  C  C822  1  0.611200  0.888400  0.278530  1.0  0.698
  C  C823  1  0.954600  0.396400  0.386930  1.0  0.7059
  C  C824  1  0.939000  0.426100  0.409730  1.0  -0.1443
  C  C825  1  0.975000  0.462800  0.430730  1.0  -0.0421
  C  C826  1  0.959500  0.488600  0.452130  1.0  -0.1467
  C  C827  1  0.907900  0.477600  0.452330  1.0  0.0167
  C  C828  1  0.871800  0.440700  0.431330  1.0  -0.0967
  C  C829  1  0.887400  0.415000  0.409930  1.0  -0.0554
  C  C830  1  0.890800  0.498300  0.477930  1.0  0.0666
  C  C831  1  0.868300  0.510700  0.496230  1.0  0.1144
  C  C832  1  0.848900  0.524700  0.522030  1.0  0.1176
  C  C833  1  0.828100  0.538000  0.541030  1.0  -0.0075
  C  C834  1  0.797700  0.551600  0.561420  1.0  -0.0062
  C  C835  1  0.805200  0.552300  0.594320  1.0  -0.1482
  C  C836  1  0.779800  0.569600  0.614720  1.0  -0.0512
  C  C837  1  0.746800  0.586100  0.602230  1.0  -0.1683
  C  C838  1  0.739300  0.585400  0.569330  1.0  -0.0734
  C  C839  1  0.764700  0.568100  0.548930  1.0  -0.1019
  C  C840  1  0.723200  0.608900  0.623930  1.0  0.6891
  C  C841  1  0.943400  0.228700  0.388930  1.0  0.7052
  C  C842  1  0.917300  0.184000  0.411250  1.0  -0.1358
  C  C843  1  0.937700  0.151200  0.416130  1.0  -0.0575
  C  C844  1  0.914500  0.110600  0.438330  1.0  -0.1077
  C  C845  1  0.871000  0.103100  0.455470  1.0  -0.0264
  C  C846  1  0.850500  0.135800  0.450530  1.0  -0.0863
  C  C847  1  0.873700  0.176400  0.428430  1.0  -0.0415
  C  C848  1  0.846300  0.060700  0.478230  1.0  0.0236
  C  C849  1  0.831400  0.027100  0.497830  1.0  0.1733
  C  C850  1  0.815200  0.990100  0.520430  1.0  0.0354
  C  C851  1  0.799900  0.955900  0.540430  1.0  -0.015
  C  C852  1  0.787900  0.914900  0.563590  1.0  -0.054
  C  C853  1  0.781800  0.867500  0.553190  1.0  -0.0913
  C  C854  1  0.764600  0.825800  0.574380  1.0  -0.0671
  C  C855  1  0.753600  0.831600  0.605990  1.0  -0.165
  C  C856  1  0.759700  0.879000  0.616390  1.0  -0.0416
  C  C857  1  0.776900  0.920700  0.595190  1.0  -0.1042
  C  C858  1  0.733700  0.785400  0.627030  1.0  0.7015
  C  C859  1  0.577100  0.655700  0.607630  1.0  0.6336
  C  C860  1  0.527100  0.628300  0.588830  1.0  -0.1447
  C  C861  1  0.521000  0.595200  0.563530  1.0  -0.0556
  C  C862  1  0.473800  0.569600  0.547130  1.0  -0.1477
  C  C863  1  0.432600  0.577000  0.556130  1.0  0.0323
  C  C864  1  0.438800  0.610100  0.581430  1.0  -0.0974
  C  C865  1  0.486000  0.635700  0.597880  1.0  -0.0581
  C  C866  1  0.385900  0.548700  0.537330  1.0  -0.0875
  C  C867  1  0.345500  0.527800  0.522630  1.0  -0.0285
  C  C868  1  0.299900  0.499500  0.506430  1.0  0.0777
  C  C869  1  0.267400  0.481600  0.485430  1.0  -0.0383
  C  C870  1  0.227600  0.457800  0.460930  1.0  0.0329
  C  C871  1  0.204600  0.404700  0.454130  1.0  -0.107
  C  C872  1  0.166000  0.382400  0.430830  1.0  -0.045
  C  C873  1  0.150500  0.413200  0.414290  1.0  -0.1656
  C  C874  1  0.173500  0.466200  0.421030  1.0  -0.0572
  C  C875  1  0.212000  0.488500  0.444430  1.0  -0.1081
  C  C876  1  0.111600  0.388800  0.388130  1.0  0.6975
  C  C877  1  0.603600  0.558200  0.720270  1.0  0.7057
  C  C878  1  0.573900  0.512900  0.743070  1.0  -0.1432
  C  C879  1  0.537200  0.512200  0.764070  1.0  -0.0461
  C  C880  1  0.511400  0.470900  0.785470  1.0  -0.1458
  C  C881  1  0.522400  0.430300  0.785670  1.0  0.0175
  C  C882  1  0.559300  0.431100  0.764670  1.0  -0.1005
  C  C883  1  0.585000  0.472400  0.743270  1.0  -0.0572
  C  C884  1  0.501700  0.392500  0.811270  1.0  0.0663
  C  C885  1  0.489300  0.357600  0.829570  1.0  0.1158
  C  C886  1  0.475300  0.324200  0.855370  1.0  0.1164
  C  C887  1  0.462000  0.290100  0.874370  1.0  -0.0074
  C  C888  1  0.448400  0.246100  0.894760  1.0  -0.0059
  C  C889  1  0.447700  0.252900  0.927660  1.0  -0.1464
  C  C890  1  0.430400  0.210200  0.948060  1.0  -0.0475
  C  C891  1  0.413900  0.160700  0.935570  1.0  -0.1704
  C  C892  1  0.414600  0.153900  0.902670  1.0  -0.0719
  C  C893  1  0.431900  0.196600  0.882270  1.0  -0.0994
  C  C894  1  0.391100  0.114300  0.957270  1.0  0.691
  C  C895  1  0.771300  0.714700  0.722270  1.0  0.7054
  C  C896  1  0.816000  0.733300  0.744590  1.0  -0.1352
  C  C897  1  0.848800  0.786500  0.749470  1.0  -0.0585
  C  C898  1  0.889400  0.803900  0.771670  1.0  -0.1081
  C  C899  1  0.896900  0.767900  0.788810  1.0  -0.0297
  C  C900  1  0.864200  0.714700  0.783870  1.0  -0.0886
  C  C901  1  0.823600  0.697300  0.761770  1.0  -0.0446
  C  C902  1  0.939300  0.785600  0.811570  1.0  0.0235
  C  C903  1  0.972900  0.804300  0.831170  1.0  0.1739
  C  C904  1  0.009900  0.825100  0.853770  1.0  0.0351
  C  C905  1  0.044100  0.844000  0.873770  1.0  -0.0132
  C  C906  1  0.085100  0.873000  0.896930  1.0  -0.0573
  C  C907  1  0.132500  0.914300  0.886530  1.0  -0.0886
  C  C908  1  0.174200  0.938800  0.907720  1.0  -0.067
  C  C909  1  0.168400  0.922000  0.939330  1.0  -0.1645
  C  C910  1  0.121000  0.880700  0.949730  1.0  -0.0421
  C  C911  1  0.079300  0.856200  0.928530  1.0  -0.1038
  C  C912  1  0.214600  0.948300  0.960370  1.0  0.6998
  C  C913  1  0.344300  0.921400  0.940970  1.0  0.6334
  C  C914  1  0.371700  0.898800  0.922170  1.0  -0.1433
  C  C915  1  0.404800  0.925800  0.896870  1.0  -0.0589
  C  C916  1  0.430400  0.904200  0.880470  1.0  -0.148
  C  C917  1  0.423000  0.855600  0.889470  1.0  0.0321
  C  C918  1  0.389900  0.828700  0.914770  1.0  -0.102
  C  C919  1  0.364300  0.850300  0.931220  1.0  -0.0564
  C  C920  1  0.451300  0.837200  0.870670  1.0  -0.0886
  C  C921  1  0.472200  0.817700  0.855970  1.0  -0.0348
  C  C922  1  0.500500  0.800400  0.839770  1.0  0.0761
  C  C923  1  0.518400  0.785800  0.818770  1.0  -0.0414
  C  C924  1  0.542200  0.769800  0.794270  1.0  0.0317
  C  C925  1  0.595300  0.799900  0.787470  1.0  -0.1088
  C  C926  1  0.617600  0.783600  0.764170  1.0  -0.0474
  C  C927  1  0.586800  0.737300  0.747630  1.0  -0.1658
  C  C928  1  0.533800  0.707300  0.754370  1.0  -0.0545
  C  C929  1  0.511500  0.723500  0.777770  1.0  -0.1087
  C  C930  1  0.611200  0.722800  0.721470  1.0  0.697
  C  C931  1  0.441800  0.045400  0.053600  1.0  0.7043
  C  C932  1  0.487100  0.061000  0.076400  1.0  -0.1442
  C  C933  1  0.487800  0.025000  0.097400  1.0  -0.0483
  C  C934  1  0.529100  0.040500  0.118800  1.0  -0.1467
  C  C935  1  0.569700  0.092100  0.119000  1.0  0.0154
  C  C936  1  0.568900  0.128200  0.098000  1.0  -0.0991
  C  C937  1  0.527600  0.112600  0.076600  1.0  -0.0572
  C  C938  1  0.607500  0.109200  0.144600  1.0  0.0689
  C  C939  1  0.642400  0.131700  0.162900  1.0  0.1138
  C  C940  1  0.675800  0.151100  0.188700  1.0  0.117
  C  C941  1  0.709900  0.171900  0.207700  1.0  -0.0079
  C  C942  1  0.753900  0.202300  0.228090  1.0  -0.0097
  C  C943  1  0.747100  0.194800  0.260990  1.0  -0.1463
  C  C944  1  0.789800  0.220200  0.281390  1.0  -0.0499
  C  C945  1  0.839300  0.253200  0.268900  1.0  -0.1692
  C  C946  1  0.846100  0.260700  0.236000  1.0  -0.0696
  C  C947  1  0.803400  0.235300  0.215600  1.0  -0.102
  C  C948  1  0.885700  0.276800  0.290600  1.0  0.6889
  C  C949  1  0.285300  0.056600  0.055600  1.0  0.705
  C  C950  1  0.266700  0.082700  0.077920  1.0  -0.1381
  C  C951  1  0.213500  0.062300  0.082800  1.0  -0.0562
  C  C952  1  0.196100  0.085500  0.105000  1.0  -0.1059
  C  C953  1  0.232100  0.129000  0.122140  1.0  -0.0289
  C  C954  1  0.285300  0.149500  0.117200  1.0  -0.0893
  C  C955  1  0.302700  0.126300  0.095100  1.0  -0.0437
  C  C956  1  0.214400  0.153700  0.144900  1.0  0.0214
  C  C957  1  0.195700  0.168600  0.164500  1.0  0.1739
  C  C958  1  0.174900  0.184800  0.187100  1.0  0.0352
  C  C959  1  0.156000  0.200100  0.207100  1.0  -0.0159
  C  C960  1  0.127000  0.212100  0.230260  1.0  -0.0517
  C  C961  1  0.085700  0.218200  0.219860  1.0  -0.0898
  C  C962  1  0.061200  0.235400  0.241050  1.0  -0.0656
  C  C963  1  0.078000  0.246400  0.272660  1.0  -0.1648
  C  C964  1  0.119300  0.240300  0.283060  1.0  -0.0412
  C  C965  1  0.143800  0.223100  0.261860  1.0  -0.1048
  C  C966  1  0.051700  0.266300  0.293700  1.0  0.6999
  C  C967  1  0.078600  0.422900  0.274300  1.0  0.6313
  C  C968  1  0.101200  0.472900  0.255500  1.0  -0.1433
  C  C969  1  0.074200  0.479000  0.230200  1.0  -0.0578
  C  C970  1  0.095800  0.526200  0.213800  1.0  -0.1502
  C  C971  1  0.144400  0.567400  0.222800  1.0  0.0358
  C  C972  1  0.171300  0.561200  0.248100  1.0  -0.1016
  C  C973  1  0.149700  0.514000  0.264550  1.0  -0.0541
  C  C974  1  0.162800  0.614100  0.204000  1.0  -0.0849
  C  C975  1  0.182300  0.654500  0.189300  1.0  -0.0283
  C  C976  1  0.199600  0.700100  0.173100  1.0  0.0789
  C  C977  1  0.214200  0.732600  0.152100  1.0  -0.0397
  C  C978  1  0.230200  0.772400  0.127600  1.0  0.0314
  C  C979  1  0.200100  0.795400  0.120800  1.0  -0.1095
  C  C980  1  0.216400  0.834000  0.097500  1.0  -0.0465
  C  C981  1  0.262700  0.849500  0.080960  1.0  -0.1641
  C  C982  1  0.292700  0.826500  0.087700  1.0  -0.0555
  C  C983  1  0.276500  0.788000  0.111100  1.0  -0.1081
  C  C984  1  0.277200  0.888400  0.054800  1.0  0.6982
  O  O985  1  0.991700  0.657900  0.987570  1.0  -1.183
  O  O986  1  0.058000  0.781000  0.010180  1.0  -0.5841
  O  O987  1  0.018900  0.723500  0.050620  1.0  -0.6383
  O  O988  1  0.331800  0.249500  0.273000  1.0  -0.6131
  O  O989  1  0.252200  0.225800  0.289400  1.0  -0.5844
  O  O990  1  0.076600  0.745600  0.943380  1.0  -0.6125
  O  O991  1  0.099400  0.687400  0.956120  1.0  -0.6045
  O  O992  1  0.541100  0.941400  0.674600  1.0  -0.5829
  O  O993  1  0.597400  0.962700  0.714900  1.0  -0.6711
  O  O994  1  0.005800  0.580200  0.940000  1.0  -0.5829
  O  O995  1  0.936100  0.583000  0.931300  1.0  -0.6747
  O  O996  1  0.737100  0.135800  0.661600  1.0  -0.5989
  O  O997  1  0.736100  0.089700  0.702700  1.0  -0.6417
  O  O998  1  0.666200  0.008300  0.654240  1.0  -1.1837
  O  O999  1  0.723000  0.942000  0.676850  1.0  -0.5836
  O  O1000  1  0.704600  0.981100  0.717290  1.0  -0.6372
  O  O1001  1  0.917700  0.668200  0.939670  1.0  -0.6139
  O  O1002  1  0.973600  0.747800  0.956070  1.0  -0.5878
  O  O1003  1  0.669000  0.923400  0.610050  1.0  -0.6127
  O  O1004  1  0.588000  0.900600  0.622790  1.0  -0.6024
  O  O1005  1  0.400300  0.458900  0.341270  1.0  -0.5829
  O  O1006  1  0.365300  0.402600  0.381570  1.0  -0.6713
  O  O1007  1  0.574400  0.994200  0.606670  1.0  -0.5837
  O  O1008  1  0.646900  0.063900  0.597970  1.0  -0.675
  O  O1009  1  0.398700  0.262900  0.328270  1.0  -0.5978
  O  O1010  1  0.353600  0.263900  0.369370  1.0  -0.639
  O  O1011  1  0.342100  0.333800  0.320900  1.0  -1.1839
  O  O1012  1  0.219000  0.277000  0.343510  1.0  -0.5823
  O  O1013  1  0.276500  0.295400  0.383950  1.0  -0.636
  O  O1014  1  0.750500  0.082300  0.606330  1.0  -0.6123
  O  O1015  1  0.774200  0.026400  0.622730  1.0  -0.5863
  O  O1016  1  0.254400  0.331000  0.276710  1.0  -0.614
  O  O1017  1  0.312600  0.412000  0.289450  1.0  -0.6053
  O  O1018  1  0.058600  0.599700  0.007930  1.0  -0.5828
  O  O1019  1  0.037300  0.634700  0.048230  1.0  -0.6727
  O  O1020  1  0.419800  0.425600  0.273330  1.0  -0.5835
  O  O1021  1  0.417000  0.353100  0.264630  1.0  -0.6752
  O  O1022  1  0.864200  0.601300  0.994930  1.0  -0.5994
  O  O1023  1  0.910300  0.646400  0.036030  1.0  -0.64
  O  O1024  1  0.666200  0.657900  0.345760  1.0  -1.1827
  O  O1025  1  0.723000  0.781000  0.323150  1.0  -0.5841
  O  O1026  1  0.704600  0.723500  0.282710  1.0  -0.637
  O  O1027  1  0.917700  0.249500  0.060330  1.0  -0.6124
  O  O1028  1  0.973600  0.225800  0.043930  1.0  -0.5844
  O  O1029  1  0.669000  0.745600  0.389950  1.0  -0.6121
  O  O1030  1  0.588000  0.687400  0.377210  1.0  -0.6042
  O  O1031  1  0.400300  0.941400  0.658730  1.0  -0.5828
  O  O1032  1  0.365300  0.962700  0.618430  1.0  -0.6718
  O  O1033  1  0.574400  0.580200  0.393330  1.0  -0.5821
  O  O1034  1  0.646900  0.583000  0.402030  1.0  -0.6736
  O  O1035  1  0.398700  0.135800  0.671730  1.0  -0.5971
  O  O1036  1  0.353600  0.089700  0.630630  1.0  -0.6407
  O  O1037  1  0.342100  0.008300  0.679100  1.0  -1.1832
  O  O1038  1  0.219000  0.942000  0.656490  1.0  -0.5841
  O  O1039  1  0.276500  0.981100  0.616050  1.0  -0.6374
  O  O1040  1  0.750500  0.668200  0.393670  1.0  -0.6131
  O  O1041  1  0.774200  0.747800  0.377270  1.0  -0.5875
  O  O1042  1  0.254400  0.923400  0.723290  1.0  -0.6128
  O  O1043  1  0.312600  0.900600  0.710550  1.0  -0.6016
  O  O1044  1  0.058600  0.458900  0.992070  1.0  -0.5823
  O  O1045  1  0.037300  0.402600  0.951770  1.0  -0.6701
  O  O1046  1  0.419800  0.994200  0.726670  1.0  -0.5829
  O  O1047  1  0.417000  0.063900  0.735370  1.0  -0.6747
  O  O1048  1  0.864200  0.262900  0.005070  1.0  -0.5973
  O  O1049  1  0.910300  0.263900  0.963970  1.0  -0.6394
  O  O1050  1  0.991700  0.333800  0.012430  1.0  -1.1835
  O  O1051  1  0.058000  0.277000  0.989820  1.0  -0.5821
  O  O1052  1  0.018900  0.295400  0.949380  1.0  -0.6356
  O  O1053  1  0.331800  0.082300  0.727000  1.0  -0.6123
  O  O1054  1  0.252200  0.026400  0.710600  1.0  -0.587
  O  O1055  1  0.076600  0.331000  0.056620  1.0  -0.6131
  O  O1056  1  0.099400  0.412000  0.043880  1.0  -0.6038
  O  O1057  1  0.541100  0.599700  0.325400  1.0  -0.5826
  O  O1058  1  0.597400  0.634700  0.285100  1.0  -0.6703
  O  O1059  1  0.005800  0.425600  0.060000  1.0  -0.5834
  O  O1060  1  0.936100  0.353100  0.068700  1.0  -0.6768
  O  O1061  1  0.737100  0.601300  0.338400  1.0  -0.597
  O  O1062  1  0.736100  0.646400  0.297300  1.0  -0.6395
  O  O1063  1  0.335500  0.339800  0.996860  1.0  -1.2537
  O  O1064  1  0.438900  0.357800  0.959740  1.0  -0.578
  O  O1065  1  0.411000  0.413700  0.950400  1.0  -0.6616
  O  O1066  1  0.929400  0.630400  0.723860  1.0  -0.6453
  O  O1067  1  0.878700  0.604300  0.679680  1.0  -0.5915
  O  O1068  1  0.333600  0.254800  0.949660  1.0  -0.6111
  O  O1069  1  0.251700  0.238000  0.956680  1.0  -0.5915
  O  O1070  1  0.067200  0.791600  0.677480  1.0  -0.5936
  O  O1071  1  0.018500  0.744300  0.718670  1.0  -0.5917
  O  O1072  1  0.095100  0.671100  0.699100  1.0  -0.652
  O  O1073  1  0.040800  0.657000  0.739700  1.0  -0.608
  O  O1074  1  0.315600  0.419200  0.961900  1.0  -0.6225
  O  O1075  1  0.252700  0.340100  0.946190  1.0  -0.5884
  O  O1076  1  0.004300  0.664500  0.663530  1.0  -1.2537
  O  O1077  1  0.918900  0.561100  0.626410  1.0  -0.5758
  O  O1078  1  0.002700  0.589000  0.617070  1.0  -0.664
  O  O1079  1  0.701000  0.070600  0.390530  1.0  -0.6475
  O  O1080  1  0.725600  0.121300  0.346350  1.0  -0.5931
  O  O1081  1  0.921200  0.666400  0.616330  1.0  -0.6105
  O  O1082  1  0.986300  0.748300  0.623350  1.0  -0.5949
  O  O1083  1  0.724400  0.932800  0.344150  1.0  -0.5921
  O  O1084  1  0.725800  0.981500  0.385340  1.0  -0.5906
  O  O1085  1  0.576000  0.904900  0.365770  1.0  -0.6525
  O  O1086  1  0.616200  0.959200  0.406370  1.0  -0.6073
  O  O1087  1  0.103600  0.684400  0.628570  1.0  -0.6234
  O  O1088  1  0.087400  0.747300  0.612860  1.0  -0.588
  O  O1089  1  0.660200  0.995700  0.330190  1.0  -1.2549
  O  O1090  1  0.642200  0.081100  0.293070  1.0  -0.5782
  O  O1091  1  0.586300  0.997300  0.283730  1.0  -0.6654
  O  O1092  1  0.369600  0.299000  0.057190  1.0  -0.6444
  O  O1093  1  0.395700  0.274400  0.013010  1.0  -0.5929
  O  O1094  1  0.745200  0.078800  0.282990  1.0  -0.6097
  O  O1095  1  0.762000  0.013700  0.290010  1.0  -0.5939
  O  O1096  1  0.208400  0.275600  0.010810  1.0  -0.5899
  O  O1097  1  0.255700  0.274200  0.052000  1.0  -0.5903
  O  O1098  1  0.328900  0.424000  0.032430  1.0  -0.6492
  O  O1099  1  0.343000  0.383800  0.073030  1.0  -0.6085
  O  O1100  1  0.580800  0.896400  0.295230  1.0  -0.6237
  O  O1101  1  0.659900  0.912600  0.279520  1.0  -0.5888
  O  O1102  1  0.004300  0.339800  0.336470  1.0  -1.2536
  O  O1103  1  0.918900  0.357800  0.373590  1.0  -0.5775
  O  O1104  1  0.002700  0.413700  0.382930  1.0  -0.663
  O  O1105  1  0.701000  0.630400  0.609470  1.0  -0.6451
  O  O1106  1  0.725600  0.604300  0.653650  1.0  -0.591
  O  O1107  1  0.921200  0.254800  0.383670  1.0  -0.6104
  O  O1108  1  0.986300  0.238000  0.376650  1.0  -0.5931
  O  O1109  1  0.724400  0.791600  0.655850  1.0  -0.593
  O  O1110  1  0.725800  0.744300  0.614660  1.0  -0.5918
  O  O1111  1  0.576000  0.671100  0.634230  1.0  -0.6512
  O  O1112  1  0.616200  0.657000  0.593630  1.0  -0.6081
  O  O1113  1  0.103600  0.419200  0.371430  1.0  -0.6226
  O  O1114  1  0.087400  0.340100  0.387140  1.0  -0.588
  O  O1115  1  0.660200  0.664500  0.669810  1.0  -1.2539
  O  O1116  1  0.642200  0.561100  0.706930  1.0  -0.5762
  O  O1117  1  0.586300  0.589000  0.716270  1.0  -0.6651
  O  O1118  1  0.369600  0.070600  0.942810  1.0  -0.6461
  O  O1119  1  0.395700  0.121300  0.986990  1.0  -0.5923
  O  O1120  1  0.745200  0.666400  0.717010  1.0  -0.6109
  O  O1121  1  0.762000  0.748300  0.709990  1.0  -0.5939
  O  O1122  1  0.208400  0.932800  0.989190  1.0  -0.5929
  O  O1123  1  0.255700  0.981500  0.948000  1.0  -0.5908
  O  O1124  1  0.328900  0.904900  0.967570  1.0  -0.6506
  O  O1125  1  0.343000  0.959200  0.926970  1.0  -0.6076
  O  O1126  1  0.580800  0.684400  0.704770  1.0  -0.6264
  O  O1127  1  0.659900  0.747300  0.720480  1.0  -0.5867
  O  O1128  1  0.335500  0.995700  0.003140  1.0  -1.2549
  O  O1129  1  0.438900  0.081100  0.040260  1.0  -0.5785
  O  O1130  1  0.411000  0.997300  0.049600  1.0  -0.6633
  O  O1131  1  0.929400  0.299000  0.276140  1.0  -0.6442
  O  O1132  1  0.878700  0.274400  0.320320  1.0  -0.5936
  O  O1133  1  0.333600  0.078800  0.050340  1.0  -0.6098
  O  O1134  1  0.251700  0.013700  0.043320  1.0  -0.5952
  O  O1135  1  0.067200  0.275600  0.322520  1.0  -0.5893
  O  O1136  1  0.018500  0.274200  0.281330  1.0  -0.591
  O  O1137  1  0.095100  0.424000  0.300900  1.0  -0.649
  O  O1138  1  0.040800  0.383800  0.260300  1.0  -0.6083
  O  O1139  1  0.315600  0.896400  0.038100  1.0  -0.6224
  O  O1140  1  0.252700  0.912600  0.053810  1.0  -0.5903
