# generated using pymatgen
data_RbH42C42N28O15
_symmetry_space_group_name_H-M   'P 1'
_cell_length_a   27.99400000
_cell_length_b   27.99400000
_cell_length_c   19.39100000
_cell_angle_alpha   90.00000000
_cell_angle_beta   90.00000000
_cell_angle_gamma   90.00000000
_symmetry_Int_Tables_number   1
_chemical_formula_structural   RbH42C42N28O15
_chemical_formula_sum   'Rb8 H336 C336 N224 O120'
_cell_volume   15196.02932208
_cell_formula_units_Z   8
loop_
 _symmetry_equiv_pos_site_id
 _symmetry_equiv_pos_as_xyz
  1  'x, y, z'
loop_
 _atom_site_type_symbol
 _atom_site_label
 _atom_site_symmetry_multiplicity
 _atom_site_fract_x
 _atom_site_fract_y
 _atom_site_fract_z
 _atom_site_occupancy
 _atom_site_charge
  Rb  Rb1  1  0.938290  0.034980  0.887240  1.0  0.9718
  Rb  Rb2  1  0.438290  0.534980  0.387240  1.0  0.9718
  Rb  Rb3  1  0.561710  0.465020  0.387240  1.0  0.9725
  Rb  Rb4  1  0.061710  0.965020  0.887240  1.0  0.9725
  Rb  Rb5  1  0.965020  0.438290  0.137240  1.0  0.9723
  Rb  Rb6  1  0.465020  0.938290  0.637240  1.0  0.9723
  Rb  Rb7  1  0.534980  0.061710  0.637240  1.0  0.97
  Rb  Rb8  1  0.034980  0.561710  0.137240  1.0  0.97
  H  H9  1  0.071000  0.190200  0.775800  1.0  0.113
  H  H10  1  0.066300  0.145400  0.681100  1.0  0.1185
  H  H11  1  0.031300  0.066900  0.659600  1.0  0.1149
  H  H12  1  0.026100  0.031300  0.722700  1.0  0.1249
  H  H13  1  0.124300  0.123900  0.592100  1.0  0.1191
  H  H14  1  0.179300  0.127100  0.610900  1.0  0.1105
  H  H15  1  0.090100  0.046100  0.570600  1.0  0.1079
  H  H16  1  0.120600  0.974700  0.536000  1.0  0.1113
  H  H17  1  0.120800  0.890200  0.584600  1.0  0.1303
  H  H18  1  0.106900  0.884800  0.663400  1.0  0.134
  H  H19  1  0.202600  0.950600  0.500300  1.0  0.1325
  H  H20  1  0.244200  0.985800  0.522100  1.0  0.1274
  H  H21  1  0.203800  0.867200  0.554300  1.0  0.1159
  H  H22  1  0.261600  0.825300  0.612500  1.0  0.0996
  H  H23  1  0.265200  0.786800  0.724000  1.0  0.1327
  H  H24  1  0.224900  0.801600  0.776900  1.0  0.1247
  H  H25  1  0.365300  0.895400  0.635300  1.0  0.1755
  H  H26  1  0.347900  0.841900  0.642400  1.0  0.1302
  H  H27  1  0.350500  0.807300  0.754900  1.0  0.0973
  H  H28  1  0.389600  0.830100  0.851800  1.0  0.1184
  H  H29  1  0.364100  0.823700  0.973100  1.0  0.1279
  H  H30  1  0.308400  0.821600  0.988400  1.0  0.1403
  H  H31  1  0.434400  0.903700  0.892000  1.0  0.1379
  H  H32  1  0.424100  0.952100  0.852300  1.0  0.1297
  H  H33  1  0.405100  0.902800  0.014300  1.0  0.096
  H  H34  1  0.385800  0.955500  0.094900  1.0  0.1179
  H  H35  1  0.264200  0.949300  0.142500  1.0  0.1313
  H  H36  1  0.312900  0.973500  0.164400  1.0  0.1377
  H  H37  1  0.393600  0.052000  0.083400  1.0  0.1392
  H  H38  1  0.391500  0.072000  0.007100  1.0  0.1244
  H  H39  1  0.313800  0.066300  0.155800  1.0  0.1258
  H  H40  1  0.255200  0.119300  0.154900  1.0  0.1274
  H  H41  1  0.144600  0.073300  0.099500  1.0  0.1479
  H  H42  1  0.168600  0.119600  0.130200  1.0  0.141
  H  H43  1  0.281800  0.200700  0.019700  1.0  0.1327
  H  H44  1  0.248300  0.195000  0.085000  1.0  0.1194
  H  H45  1  0.160000  0.195300  0.057000  1.0  0.1117
  H  H46  1  0.119300  0.216500  0.963500  1.0  0.1118
  H  H47  1  0.048200  0.177300  0.904800  1.0  0.1225
  H  H48  1  0.039100  0.123500  0.925900  1.0  0.1247
  H  H49  1  0.136300  0.235100  0.838800  1.0  0.1252
  H  H50  1  0.189100  0.223500  0.814100  1.0  0.1294
  H  H51  1  0.571000  0.690200  0.275800  1.0  0.113
  H  H52  1  0.566300  0.645400  0.181100  1.0  0.1185
  H  H53  1  0.531300  0.566900  0.159600  1.0  0.1149
  H  H54  1  0.526100  0.531300  0.222700  1.0  0.1249
  H  H55  1  0.624300  0.623900  0.092100  1.0  0.1191
  H  H56  1  0.679300  0.627100  0.110900  1.0  0.1105
  H  H57  1  0.590100  0.546100  0.070600  1.0  0.1079
  H  H58  1  0.620600  0.474700  0.036000  1.0  0.1113
  H  H59  1  0.620800  0.390200  0.084600  1.0  0.1303
  H  H60  1  0.606900  0.384800  0.163400  1.0  0.134
  H  H61  1  0.702600  0.450600  0.000300  1.0  0.1325
  H  H62  1  0.744200  0.485800  0.022100  1.0  0.1274
  H  H63  1  0.703800  0.367200  0.054300  1.0  0.1159
  H  H64  1  0.761600  0.325300  0.112500  1.0  0.0996
  H  H65  1  0.765200  0.286800  0.224000  1.0  0.1327
  H  H66  1  0.724900  0.301600  0.276900  1.0  0.1247
  H  H67  1  0.865300  0.395400  0.135300  1.0  0.1755
  H  H68  1  0.847900  0.341900  0.142400  1.0  0.1302
  H  H69  1  0.850500  0.307300  0.254900  1.0  0.0973
  H  H70  1  0.889600  0.330100  0.351800  1.0  0.1184
  H  H71  1  0.864100  0.323700  0.473100  1.0  0.1279
  H  H72  1  0.808400  0.321600  0.488400  1.0  0.1403
  H  H73  1  0.934400  0.403700  0.392000  1.0  0.1379
  H  H74  1  0.924100  0.452100  0.352300  1.0  0.1297
  H  H75  1  0.905100  0.402800  0.514300  1.0  0.096
  H  H76  1  0.885800  0.455500  0.594900  1.0  0.1179
  H  H77  1  0.764200  0.449300  0.642500  1.0  0.1312
  H  H78  1  0.812900  0.473500  0.664400  1.0  0.1377
  H  H79  1  0.893600  0.552000  0.583400  1.0  0.1392
  H  H80  1  0.891500  0.572000  0.507100  1.0  0.1244
  H  H81  1  0.813800  0.566300  0.655800  1.0  0.1258
  H  H82  1  0.755200  0.619300  0.654900  1.0  0.1274
  H  H83  1  0.644600  0.573300  0.599500  1.0  0.1479
  H  H84  1  0.668600  0.619600  0.630200  1.0  0.141
  H  H85  1  0.781800  0.700700  0.519700  1.0  0.1327
  H  H86  1  0.748300  0.695000  0.585000  1.0  0.1194
  H  H87  1  0.660000  0.695300  0.557000  1.0  0.1117
  H  H88  1  0.619300  0.716500  0.463500  1.0  0.1118
  H  H89  1  0.548200  0.677300  0.404800  1.0  0.1225
  H  H90  1  0.539100  0.623500  0.425900  1.0  0.1247
  H  H91  1  0.636300  0.735100  0.338800  1.0  0.1252
  H  H92  1  0.689100  0.723500  0.314100  1.0  0.1294
  H  H93  1  0.429000  0.309800  0.275800  1.0  0.1126
  H  H94  1  0.433700  0.354600  0.181100  1.0  0.1188
  H  H95  1  0.468700  0.433100  0.159600  1.0  0.1152
  H  H96  1  0.473900  0.468700  0.222700  1.0  0.1253
  H  H97  1  0.375700  0.376100  0.092100  1.0  0.1179
  H  H98  1  0.320700  0.372900  0.110900  1.0  0.1112
  H  H99  1  0.409900  0.453900  0.070600  1.0  0.1084
  H  H100  1  0.379400  0.525300  0.036000  1.0  0.1119
  H  H101  1  0.379200  0.609800  0.084600  1.0  0.1305
  H  H102  1  0.393100  0.615200  0.163400  1.0  0.1332
  H  H103  1  0.297400  0.549400  0.000300  1.0  0.1324
  H  H104  1  0.255800  0.514200  0.022100  1.0  0.1266
  H  H105  1  0.296200  0.632800  0.054300  1.0  0.1167
  H  H106  1  0.238400  0.674700  0.112500  1.0  0.1005
  H  H107  1  0.234800  0.713200  0.224000  1.0  0.1317
  H  H108  1  0.275100  0.698400  0.276900  1.0  0.1241
  H  H109  1  0.134700  0.604600  0.135300  1.0  0.175
  H  H110  1  0.152100  0.658100  0.142400  1.0  0.1302
  H  H111  1  0.149500  0.692700  0.254900  1.0  0.0978
  H  H112  1  0.110400  0.669900  0.351800  1.0  0.1193
  H  H113  1  0.135900  0.676300  0.473100  1.0  0.1317
  H  H114  1  0.191600  0.678400  0.488400  1.0  0.1388
  H  H115  1  0.065600  0.596300  0.392000  1.0  0.1366
  H  H116  1  0.075900  0.547900  0.352300  1.0  0.129
  H  H117  1  0.094900  0.597200  0.514300  1.0  0.0961
  H  H118  1  0.114200  0.544500  0.594900  1.0  0.1182
  H  H119  1  0.235800  0.550700  0.642500  1.0  0.1311
  H  H120  1  0.187100  0.526500  0.664400  1.0  0.1385
  H  H121  1  0.106400  0.448000  0.583400  1.0  0.1415
  H  H122  1  0.108500  0.428000  0.507100  1.0  0.1254
  H  H123  1  0.186200  0.433700  0.655800  1.0  0.1269
  H  H124  1  0.244800  0.380700  0.654900  1.0  0.1278
  H  H125  1  0.355400  0.426700  0.599500  1.0  0.1463
  H  H126  1  0.331400  0.380400  0.630200  1.0  0.141
  H  H127  1  0.218200  0.299300  0.519700  1.0  0.1336
  H  H128  1  0.251700  0.305000  0.585000  1.0  0.1213
  H  H129  1  0.340000  0.304700  0.557000  1.0  0.1109
  H  H130  1  0.380700  0.283500  0.463500  1.0  0.1105
  H  H131  1  0.451800  0.322700  0.404800  1.0  0.1222
  H  H132  1  0.460900  0.376500  0.425900  1.0  0.1224
  H  H133  1  0.363700  0.264900  0.338800  1.0  0.1232
  H  H134  1  0.310900  0.276500  0.314100  1.0  0.1298
  H  H135  1  0.929000  0.809800  0.775800  1.0  0.1126
  H  H136  1  0.933700  0.854600  0.681100  1.0  0.1188
  H  H137  1  0.968700  0.933100  0.659600  1.0  0.1152
  H  H138  1  0.973900  0.968700  0.722700  1.0  0.1253
  H  H139  1  0.875700  0.876100  0.592100  1.0  0.1179
  H  H140  1  0.820700  0.872900  0.610900  1.0  0.1112
  H  H141  1  0.909900  0.953900  0.570600  1.0  0.1084
  H  H142  1  0.879400  0.025300  0.536000  1.0  0.1119
  H  H143  1  0.879200  0.109800  0.584600  1.0  0.1305
  H  H144  1  0.893100  0.115200  0.663400  1.0  0.1332
  H  H145  1  0.797400  0.049400  0.500300  1.0  0.1324
  H  H146  1  0.755800  0.014200  0.522100  1.0  0.1265
  H  H147  1  0.796200  0.132800  0.554300  1.0  0.1167
  H  H148  1  0.738400  0.174700  0.612500  1.0  0.1005
  H  H149  1  0.734800  0.213200  0.724000  1.0  0.1317
  H  H150  1  0.775100  0.198400  0.776900  1.0  0.1241
  H  H151  1  0.634700  0.104600  0.635300  1.0  0.175
  H  H152  1  0.652100  0.158100  0.642400  1.0  0.1302
  H  H153  1  0.649500  0.192700  0.754900  1.0  0.0978
  H  H154  1  0.610400  0.169900  0.851800  1.0  0.1193
  H  H155  1  0.635900  0.176300  0.973100  1.0  0.1317
  H  H156  1  0.691600  0.178400  0.988400  1.0  0.1388
  H  H157  1  0.565600  0.096300  0.892000  1.0  0.1366
  H  H158  1  0.575900  0.047900  0.852300  1.0  0.129
  H  H159  1  0.594900  0.097200  0.014300  1.0  0.0961
  H  H160  1  0.614200  0.044500  0.094900  1.0  0.1181
  H  H161  1  0.735800  0.050700  0.142500  1.0  0.1311
  H  H162  1  0.687100  0.026500  0.164400  1.0  0.1385
  H  H163  1  0.606400  0.948000  0.083400  1.0  0.1415
  H  H164  1  0.608500  0.928000  0.007100  1.0  0.1254
  H  H165  1  0.686200  0.933700  0.155800  1.0  0.1269
  H  H166  1  0.744800  0.880700  0.154900  1.0  0.1278
  H  H167  1  0.855400  0.926700  0.099500  1.0  0.1463
  H  H168  1  0.831400  0.880400  0.130200  1.0  0.141
  H  H169  1  0.718200  0.799300  0.019700  1.0  0.1336
  H  H170  1  0.751700  0.805000  0.085000  1.0  0.1213
  H  H171  1  0.840000  0.804700  0.057000  1.0  0.1109
  H  H172  1  0.880700  0.783500  0.963500  1.0  0.1105
  H  H173  1  0.951800  0.822700  0.904800  1.0  0.1222
  H  H174  1  0.960900  0.876500  0.925900  1.0  0.1224
  H  H175  1  0.863700  0.764900  0.838800  1.0  0.1232
  H  H176  1  0.810900  0.776500  0.814100  1.0  0.1298
  H  H177  1  0.809800  0.571000  0.025800  1.0  0.1127
  H  H178  1  0.854600  0.566300  0.931100  1.0  0.1185
  H  H179  1  0.933100  0.531300  0.909600  1.0  0.1155
  H  H180  1  0.968700  0.526100  0.972700  1.0  0.1252
  H  H181  1  0.876100  0.624300  0.842100  1.0  0.1175
  H  H182  1  0.872900  0.679300  0.860900  1.0  0.1117
  H  H183  1  0.953900  0.590100  0.820600  1.0  0.108
  H  H184  1  0.025300  0.620600  0.786000  1.0  0.1118
  H  H185  1  0.109800  0.620800  0.834600  1.0  0.1305
  H  H186  1  0.115200  0.606900  0.913400  1.0  0.1332
  H  H187  1  0.049400  0.702600  0.750300  1.0  0.1327
  H  H188  1  0.014200  0.744200  0.772100  1.0  0.1283
  H  H189  1  0.132800  0.703800  0.804300  1.0  0.1163
  H  H190  1  0.174700  0.761600  0.862500  1.0  0.0995
  H  H191  1  0.213200  0.765200  0.974000  1.0  0.131
  H  H192  1  0.198400  0.724900  0.026900  1.0  0.1247
  H  H193  1  0.104600  0.865300  0.885300  1.0  0.1731
  H  H194  1  0.158100  0.847900  0.892400  1.0  0.1289
  H  H195  1  0.192700  0.850500  0.004900  1.0  0.0964
  H  H196  1  0.169900  0.889600  0.101800  1.0  0.1165
  H  H197  1  0.176300  0.864100  0.223100  1.0  0.1311
  H  H198  1  0.178400  0.808400  0.238400  1.0  0.1395
  H  H199  1  0.096300  0.934400  0.142000  1.0  0.1357
  H  H200  1  0.047900  0.924100  0.102300  1.0  0.1288
  H  H201  1  0.097200  0.905100  0.264300  1.0  0.0961
  H  H202  1  0.044500  0.885800  0.344900  1.0  0.1204
  H  H203  1  0.050700  0.764200  0.392500  1.0  0.1317
  H  H204  1  0.026500  0.812900  0.414400  1.0  0.1371
  H  H205  1  0.948000  0.893600  0.333400  1.0  0.1426
  H  H206  1  0.928000  0.891500  0.257100  1.0  0.1255
  H  H207  1  0.933700  0.813800  0.405800  1.0  0.1266
  H  H208  1  0.880700  0.755200  0.404900  1.0  0.1272
  H  H209  1  0.926700  0.644600  0.349500  1.0  0.1475
  H  H210  1  0.880400  0.668600  0.380200  1.0  0.1408
  H  H211  1  0.799300  0.781800  0.269700  1.0  0.1326
  H  H212  1  0.805000  0.748300  0.335000  1.0  0.1179
  H  H213  1  0.804700  0.660000  0.307000  1.0  0.1108
  H  H214  1  0.783500  0.619300  0.213500  1.0  0.1129
  H  H215  1  0.822700  0.548200  0.154800  1.0  0.1208
  H  H216  1  0.876500  0.539100  0.175900  1.0  0.1239
  H  H217  1  0.764900  0.636300  0.088800  1.0  0.1248
  H  H218  1  0.776500  0.689100  0.064100  1.0  0.1308
  H  H219  1  0.309800  0.071000  0.525800  1.0  0.1127
  H  H220  1  0.354600  0.066300  0.431100  1.0  0.1185
  H  H221  1  0.433100  0.031300  0.409600  1.0  0.1155
  H  H222  1  0.468700  0.026100  0.472700  1.0  0.1252
  H  H223  1  0.376100  0.124300  0.342100  1.0  0.1175
  H  H224  1  0.372900  0.179300  0.360900  1.0  0.1117
  H  H225  1  0.453900  0.090100  0.320600  1.0  0.108
  H  H226  1  0.525300  0.120600  0.286000  1.0  0.1118
  H  H227  1  0.609800  0.120800  0.334600  1.0  0.1305
  H  H228  1  0.615200  0.106900  0.413400  1.0  0.1332
  H  H229  1  0.549400  0.202600  0.250300  1.0  0.1327
  H  H230  1  0.514200  0.244200  0.272100  1.0  0.1287
  H  H231  1  0.632800  0.203800  0.304300  1.0  0.1163
  H  H232  1  0.674700  0.261600  0.362500  1.0  0.0995
  H  H233  1  0.713200  0.265200  0.474000  1.0  0.131
  H  H234  1  0.698400  0.224900  0.526900  1.0  0.1247
  H  H235  1  0.604600  0.365300  0.385300  1.0  0.1729
  H  H236  1  0.658100  0.347900  0.392400  1.0  0.1289
  H  H237  1  0.692700  0.350500  0.504900  1.0  0.0964
  H  H238  1  0.669900  0.389600  0.601800  1.0  0.1165
  H  H239  1  0.676300  0.364100  0.723100  1.0  0.1311
  H  H240  1  0.678400  0.308400  0.738400  1.0  0.1395
  H  H241  1  0.596300  0.434400  0.642000  1.0  0.1357
  H  H242  1  0.547900  0.424100  0.602300  1.0  0.1288
  H  H243  1  0.597200  0.405100  0.764300  1.0  0.0961
  H  H244  1  0.544500  0.385800  0.844900  1.0  0.1199
  H  H245  1  0.550700  0.264200  0.892500  1.0  0.1317
  H  H246  1  0.526500  0.312900  0.914400  1.0  0.1371
  H  H247  1  0.448000  0.393600  0.833400  1.0  0.1426
  H  H248  1  0.428000  0.391500  0.757100  1.0  0.1255
  H  H249  1  0.433700  0.313800  0.905800  1.0  0.1266
  H  H250  1  0.380700  0.255200  0.904900  1.0  0.1272
  H  H251  1  0.426700  0.144600  0.849500  1.0  0.1475
  H  H252  1  0.380400  0.168600  0.880200  1.0  0.1408
  H  H253  1  0.299300  0.281800  0.769700  1.0  0.1326
  H  H254  1  0.305000  0.248300  0.835000  1.0  0.1179
  H  H255  1  0.304700  0.160000  0.807000  1.0  0.1108
  H  H256  1  0.283500  0.119300  0.713500  1.0  0.1129
  H  H257  1  0.322700  0.048200  0.654800  1.0  0.1208
  H  H258  1  0.376500  0.039100  0.675900  1.0  0.1239
  H  H259  1  0.264900  0.136300  0.588800  1.0  0.1248
  H  H260  1  0.276500  0.189100  0.564100  1.0  0.1308
  H  H261  1  0.690200  0.929000  0.525800  1.0  0.1131
  H  H262  1  0.645400  0.933700  0.431100  1.0  0.1191
  H  H263  1  0.566900  0.968700  0.409600  1.0  0.1147
  H  H264  1  0.531300  0.973900  0.472700  1.0  0.1243
  H  H265  1  0.623900  0.875700  0.342100  1.0  0.118
  H  H266  1  0.627100  0.820700  0.360900  1.0  0.1106
  H  H267  1  0.546100  0.909900  0.320600  1.0  0.1089
  H  H268  1  0.474700  0.879400  0.286000  1.0  0.1123
  H  H269  1  0.390200  0.879200  0.334600  1.0  0.1291
  H  H270  1  0.384800  0.893100  0.413400  1.0  0.1336
  H  H271  1  0.450600  0.797400  0.250300  1.0  0.1317
  H  H272  1  0.485800  0.755800  0.272100  1.0  0.1283
  H  H273  1  0.367200  0.796200  0.304300  1.0  0.1153
  H  H274  1  0.325300  0.738400  0.362500  1.0  0.1002
  H  H275  1  0.286800  0.734800  0.474000  1.0  0.1299
  H  H276  1  0.301600  0.775100  0.526900  1.0  0.1248
  H  H277  1  0.395400  0.634700  0.385300  1.0  0.1714
  H  H278  1  0.341900  0.652100  0.392400  1.0  0.1279
  H  H279  1  0.307300  0.649500  0.504900  1.0  0.0979
  H  H280  1  0.330100  0.610400  0.601800  1.0  0.1177
  H  H281  1  0.323700  0.635900  0.723100  1.0  0.1327
  H  H282  1  0.321600  0.691600  0.738400  1.0  0.1387
  H  H283  1  0.403700  0.565600  0.642000  1.0  0.1368
  H  H284  1  0.452100  0.575900  0.602300  1.0  0.1283
  H  H285  1  0.402800  0.594900  0.764300  1.0  0.0966
  H  H286  1  0.455500  0.614200  0.844900  1.0  0.1194
  H  H287  1  0.449300  0.735800  0.892500  1.0  0.1312
  H  H288  1  0.473500  0.687100  0.914400  1.0  0.1382
  H  H289  1  0.552000  0.606400  0.833400  1.0  0.1412
  H  H290  1  0.572000  0.608500  0.757100  1.0  0.1221
  H  H291  1  0.566300  0.686200  0.905800  1.0  0.1272
  H  H292  1  0.619300  0.744800  0.904900  1.0  0.1278
  H  H293  1  0.573300  0.855400  0.849500  1.0  0.1482
  H  H294  1  0.619600  0.831400  0.880200  1.0  0.141
  H  H295  1  0.700700  0.718200  0.769700  1.0  0.1317
  H  H296  1  0.695000  0.751700  0.835000  1.0  0.1177
  H  H297  1  0.695300  0.840000  0.807000  1.0  0.1108
  H  H298  1  0.716500  0.880700  0.713500  1.0  0.1098
  H  H299  1  0.677300  0.951800  0.654800  1.0  0.1208
  H  H300  1  0.623500  0.960900  0.675900  1.0  0.1242
  H  H301  1  0.735100  0.863700  0.588800  1.0  0.1229
  H  H302  1  0.723500  0.810900  0.564100  1.0  0.1303
  H  H303  1  0.190200  0.429000  0.025800  1.0  0.1131
  H  H304  1  0.145400  0.433700  0.931100  1.0  0.1191
  H  H305  1  0.066900  0.468700  0.909600  1.0  0.1147
  H  H306  1  0.031300  0.473900  0.972700  1.0  0.1243
  H  H307  1  0.123900  0.375700  0.842100  1.0  0.118
  H  H308  1  0.127100  0.320700  0.860900  1.0  0.1106
  H  H309  1  0.046100  0.409900  0.820600  1.0  0.1089
  H  H310  1  0.974700  0.379400  0.786000  1.0  0.1123
  H  H311  1  0.890200  0.379200  0.834600  1.0  0.1291
  H  H312  1  0.884800  0.393100  0.913400  1.0  0.1336
  H  H313  1  0.950600  0.297400  0.750300  1.0  0.1317
  H  H314  1  0.985800  0.255800  0.772100  1.0  0.1283
  H  H315  1  0.867200  0.296200  0.804300  1.0  0.1153
  H  H316  1  0.825300  0.238400  0.862500  1.0  0.1002
  H  H317  1  0.786800  0.234800  0.974000  1.0  0.1299
  H  H318  1  0.801600  0.275100  0.026900  1.0  0.1248
  H  H319  1  0.895400  0.134700  0.885300  1.0  0.1712
  H  H320  1  0.841900  0.152100  0.892400  1.0  0.1279
  H  H321  1  0.807300  0.149500  0.004900  1.0  0.0979
  H  H322  1  0.830100  0.110400  0.101800  1.0  0.1177
  H  H323  1  0.823700  0.135900  0.223100  1.0  0.1327
  H  H324  1  0.821600  0.191600  0.238400  1.0  0.1387
  H  H325  1  0.903700  0.065600  0.142000  1.0  0.1368
  H  H326  1  0.952100  0.075900  0.102300  1.0  0.1283
  H  H327  1  0.902800  0.094900  0.264300  1.0  0.0966
  H  H328  1  0.955500  0.114200  0.344900  1.0  0.1194
  H  H329  1  0.949300  0.235800  0.392500  1.0  0.1312
  H  H330  1  0.973500  0.187100  0.414400  1.0  0.1382
  H  H331  1  0.052000  0.106400  0.333400  1.0  0.1412
  H  H332  1  0.072000  0.108500  0.257100  1.0  0.1221
  H  H333  1  0.066300  0.186200  0.405800  1.0  0.1272
  H  H334  1  0.119300  0.244800  0.404900  1.0  0.1278
  H  H335  1  0.073300  0.355400  0.349500  1.0  0.1482
  H  H336  1  0.119600  0.331400  0.380200  1.0  0.141
  H  H337  1  0.200700  0.218200  0.269700  1.0  0.1317
  H  H338  1  0.195000  0.251700  0.335000  1.0  0.1177
  H  H339  1  0.195300  0.340000  0.307000  1.0  0.1108
  H  H340  1  0.216500  0.380700  0.213500  1.0  0.1098
  H  H341  1  0.177300  0.451800  0.154800  1.0  0.1208
  H  H342  1  0.123500  0.460900  0.175900  1.0  0.1242
  H  H343  1  0.235100  0.363700  0.088800  1.0  0.1229
  H  H344  1  0.223500  0.310900  0.064100  1.0  0.1303
  C  C345  1  0.057190  0.087780  0.808600  1.0  0.4612
  C  C346  1  0.090310  0.160730  0.780600  1.0  -0.0137
  C  C347  1  0.087330  0.130780  0.716300  1.0  -0.0121
  C  C348  1  0.167300  0.155210  0.732800  1.0  0.4703
  C  C349  1  0.048920  0.050640  0.696400  1.0  -0.0133
  C  C350  1  0.148800  0.112650  0.624400  1.0  0.0191
  C  C351  1  0.088100  0.971560  0.680000  1.0  0.4656
  C  C352  1  0.111180  0.032200  0.606400  1.0  -0.0175
  C  C353  1  0.133610  0.984500  0.581300  1.0  -0.0294
  C  C354  1  0.193690  0.041200  0.598300  1.0  0.5491
  C  C355  1  0.128340  0.901300  0.631300  1.0  -0.0266
  C  C356  1  0.218610  0.965400  0.539900  1.0  -0.0897
  C  C357  1  0.188010  0.865510  0.707000  1.0  0.3809
  C  C358  1  0.214800  0.884010  0.596300  1.0  -0.0287
  C  C359  1  0.253910  0.855660  0.636200  1.0  -0.0028
  C  C360  1  0.285380  0.929490  0.602700  1.0  0.4927
  C  C361  1  0.251700  0.813800  0.749500  1.0  -0.0179
  C  C362  1  0.341710  0.874700  0.657600  1.0  -0.0152
  C  C363  1  0.281000  0.833800  0.865300  1.0  0.3934
  C  C364  1  0.337600  0.837400  0.774100  1.0  -0.026
  C  C365  1  0.361600  0.850600  0.842100  1.0  -0.01
  C  C366  1  0.371800  0.913100  0.764900  1.0  0.4283
  C  C367  1  0.333700  0.840400  0.966200  1.0  -0.0817
  C  C368  1  0.409120  0.925800  0.877800  1.0  -0.0391
  C  C369  1  0.298900  0.908700  0.041300  1.0  0.4638
  C  C370  1  0.376500  0.920900  0.999700  1.0  -0.0474
  C  C371  1  0.364600  0.957300  0.054000  1.0  -0.0099
  C  C372  1  0.383980  0.990900  0.946200  1.0  0.3554
  C  C373  1  0.290300  0.969600  0.126200  1.0  -0.0254
  C  C374  1  0.374500  0.052400  0.041000  1.0  -0.112
  C  C375  1  0.222000  0.025500  0.094700  1.0  0.2421
  C  C376  1  0.296300  0.064300  0.111500  1.0  -0.0327
  C  C377  1  0.259300  0.103100  0.109900  1.0  -0.039
  C  C378  1  0.320700  0.117500  0.028900  1.0  0.4478
  C  C379  1  0.169100  0.097600  0.090900  1.0  -0.1525
  C  C380  1  0.257300  0.180400  0.041000  1.0  -0.0089
  C  C381  1  0.116100  0.112600  0.989800  1.0  0.4887
  C  C382  1  0.167400  0.174800  0.016900  1.0  -0.0128
  C  C383  1  0.137000  0.186300  0.956600  1.0  -0.0096
  C  C384  1  0.217800  0.193000  0.930400  1.0  0.4269
  C  C385  1  0.062270  0.145300  0.905000  1.0  -0.0532
  C  C386  1  0.160100  0.209600  0.834300  1.0  -0.039
  C  C387  1  0.557190  0.587780  0.308600  1.0  0.4612
  C  C388  1  0.590310  0.660730  0.280600  1.0  -0.0137
  C  C389  1  0.587330  0.630780  0.216300  1.0  -0.0121
  C  C390  1  0.667300  0.655210  0.232800  1.0  0.4703
  C  C391  1  0.548920  0.550640  0.196400  1.0  -0.0133
  C  C392  1  0.648800  0.612650  0.124400  1.0  0.0191
  C  C393  1  0.588100  0.471560  0.180000  1.0  0.4656
  C  C394  1  0.611180  0.532200  0.106400  1.0  -0.0175
  C  C395  1  0.633610  0.484500  0.081300  1.0  -0.0294
  C  C396  1  0.693690  0.541200  0.098300  1.0  0.5491
  C  C397  1  0.628340  0.401300  0.131300  1.0  -0.0266
  C  C398  1  0.718610  0.465400  0.039900  1.0  -0.0897
  C  C399  1  0.688010  0.365510  0.207000  1.0  0.3809
  C  C400  1  0.714800  0.384010  0.096300  1.0  -0.0287
  C  C401  1  0.753910  0.355660  0.136200  1.0  -0.0028
  C  C402  1  0.785380  0.429490  0.102700  1.0  0.4927
  C  C403  1  0.751700  0.313800  0.249500  1.0  -0.0179
  C  C404  1  0.841710  0.374700  0.157600  1.0  -0.0152
  C  C405  1  0.781000  0.333800  0.365300  1.0  0.3934
  C  C406  1  0.837600  0.337400  0.274100  1.0  -0.026
  C  C407  1  0.861600  0.350600  0.342100  1.0  -0.01
  C  C408  1  0.871800  0.413100  0.264900  1.0  0.4283
  C  C409  1  0.833700  0.340400  0.466200  1.0  -0.0817
  C  C410  1  0.909120  0.425800  0.377800  1.0  -0.0391
  C  C411  1  0.798900  0.408700  0.541300  1.0  0.4638
  C  C412  1  0.876500  0.420900  0.499700  1.0  -0.0474
  C  C413  1  0.864600  0.457300  0.554000  1.0  -0.0099
  C  C414  1  0.883980  0.490900  0.446200  1.0  0.3554
  C  C415  1  0.790300  0.469600  0.626200  1.0  -0.0254
  C  C416  1  0.874500  0.552400  0.541000  1.0  -0.112
  C  C417  1  0.722000  0.525500  0.594700  1.0  0.2421
  C  C418  1  0.796300  0.564300  0.611500  1.0  -0.0327
  C  C419  1  0.759300  0.603100  0.609900  1.0  -0.039
  C  C420  1  0.820700  0.617500  0.528900  1.0  0.4478
  C  C421  1  0.669100  0.597600  0.590900  1.0  -0.1525
  C  C422  1  0.757300  0.680400  0.541000  1.0  -0.0089
  C  C423  1  0.616100  0.612600  0.489800  1.0  0.4887
  C  C424  1  0.667400  0.674800  0.516900  1.0  -0.0128
  C  C425  1  0.637000  0.686300  0.456600  1.0  -0.0096
  C  C426  1  0.717800  0.693000  0.430400  1.0  0.4269
  C  C427  1  0.562270  0.645300  0.405000  1.0  -0.0532
  C  C428  1  0.660100  0.709600  0.334300  1.0  -0.039
  C  C429  1  0.442810  0.412220  0.308600  1.0  0.4618
  C  C430  1  0.409690  0.339270  0.280600  1.0  -0.0143
  C  C431  1  0.412670  0.369220  0.216300  1.0  -0.0138
  C  C432  1  0.332700  0.344790  0.232800  1.0  0.469
  C  C433  1  0.451080  0.449360  0.196400  1.0  -0.0151
  C  C434  1  0.351200  0.387350  0.124400  1.0  0.0188
  C  C435  1  0.411900  0.528440  0.180000  1.0  0.4646
  C  C436  1  0.388820  0.467800  0.106400  1.0  -0.0185
  C  C437  1  0.366390  0.515500  0.081300  1.0  -0.0294
  C  C438  1  0.306310  0.458800  0.098300  1.0  0.5486
  C  C439  1  0.371660  0.598700  0.131300  1.0  -0.0262
  C  C440  1  0.281390  0.534600  0.039900  1.0  -0.0874
  C  C441  1  0.311990  0.634490  0.207000  1.0  0.3806
  C  C442  1  0.285200  0.615990  0.096300  1.0  -0.0284
  C  C443  1  0.246090  0.644340  0.136200  1.0  -0.0023
  C  C444  1  0.214620  0.570510  0.102700  1.0  0.4927
  C  C445  1  0.248300  0.686200  0.249500  1.0  -0.0203
  C  C446  1  0.158290  0.625300  0.157600  1.0  -0.0159
  C  C447  1  0.219000  0.666200  0.365300  1.0  0.3934
  C  C448  1  0.162400  0.662600  0.274100  1.0  -0.0259
  C  C449  1  0.138400  0.649400  0.342100  1.0  -0.0094
  C  C450  1  0.128200  0.586900  0.264900  1.0  0.427
  C  C451  1  0.166300  0.659600  0.466200  1.0  -0.0832
  C  C452  1  0.090880  0.574200  0.377800  1.0  -0.0387
  C  C453  1  0.201100  0.591300  0.541300  1.0  0.4633
  C  C454  1  0.123500  0.579100  0.499700  1.0  -0.0483
  C  C455  1  0.135400  0.542700  0.554000  1.0  -0.0112
  C  C456  1  0.116020  0.509100  0.446200  1.0  0.3532
  C  C457  1  0.209700  0.530400  0.626200  1.0  -0.0226
  C  C458  1  0.125500  0.447600  0.541000  1.0  -0.1135
  C  C459  1  0.278000  0.474500  0.594700  1.0  0.243
  C  C460  1  0.203700  0.435700  0.611500  1.0  -0.0347
  C  C461  1  0.240700  0.396900  0.609900  1.0  -0.0379
  C  C462  1  0.179300  0.382500  0.528900  1.0  0.4466
  C  C463  1  0.330900  0.402400  0.590900  1.0  -0.153
  C  C464  1  0.242700  0.319600  0.541000  1.0  -0.0098
  C  C465  1  0.383900  0.387400  0.489800  1.0  0.4914
  C  C466  1  0.332600  0.325200  0.516900  1.0  -0.0116
  C  C467  1  0.363000  0.313700  0.456600  1.0  -0.0102
  C  C468  1  0.282200  0.307000  0.430400  1.0  0.4247
  C  C469  1  0.437730  0.354700  0.405000  1.0  -0.0517
  C  C470  1  0.339900  0.290400  0.334300  1.0  -0.0375
  C  C471  1  0.942810  0.912220  0.808600  1.0  0.4618
  C  C472  1  0.909690  0.839270  0.780600  1.0  -0.0143
  C  C473  1  0.912670  0.869220  0.716300  1.0  -0.0138
  C  C474  1  0.832700  0.844790  0.732800  1.0  0.469
  C  C475  1  0.951080  0.949360  0.696400  1.0  -0.0151
  C  C476  1  0.851200  0.887350  0.624400  1.0  0.0188
  C  C477  1  0.911900  0.028440  0.680000  1.0  0.4646
  C  C478  1  0.888820  0.967800  0.606400  1.0  -0.0185
  C  C479  1  0.866390  0.015500  0.581300  1.0  -0.0294
  C  C480  1  0.806310  0.958800  0.598300  1.0  0.5486
  C  C481  1  0.871660  0.098700  0.631300  1.0  -0.0262
  C  C482  1  0.781390  0.034600  0.539900  1.0  -0.0869
  C  C483  1  0.811990  0.134490  0.707000  1.0  0.3806
  C  C484  1  0.785200  0.115990  0.596300  1.0  -0.0284
  C  C485  1  0.746090  0.144340  0.636200  1.0  -0.0023
  C  C486  1  0.714620  0.070510  0.602700  1.0  0.4927
  C  C487  1  0.748300  0.186200  0.749500  1.0  -0.0203
  C  C488  1  0.658290  0.125300  0.657600  1.0  -0.0159
  C  C489  1  0.719000  0.166200  0.865300  1.0  0.3934
  C  C490  1  0.662400  0.162600  0.774100  1.0  -0.0259
  C  C491  1  0.638400  0.149400  0.842100  1.0  -0.0094
  C  C492  1  0.628200  0.086900  0.764900  1.0  0.427
  C  C493  1  0.666300  0.159600  0.966200  1.0  -0.0832
  C  C494  1  0.590880  0.074200  0.877800  1.0  -0.0387
  C  C495  1  0.701100  0.091300  0.041300  1.0  0.4633
  C  C496  1  0.623500  0.079100  0.999700  1.0  -0.0483
  C  C497  1  0.635400  0.042700  0.054000  1.0  -0.0112
  C  C498  1  0.616020  0.009100  0.946200  1.0  0.3532
  C  C499  1  0.709700  0.030400  0.126200  1.0  -0.0226
  C  C500  1  0.625500  0.947600  0.041000  1.0  -0.1135
  C  C501  1  0.778000  0.974500  0.094700  1.0  0.243
  C  C502  1  0.703700  0.935700  0.111500  1.0  -0.0347
  C  C503  1  0.740700  0.896900  0.109900  1.0  -0.0379
  C  C504  1  0.679300  0.882500  0.028900  1.0  0.4466
  C  C505  1  0.830900  0.902400  0.090900  1.0  -0.153
  C  C506  1  0.742700  0.819600  0.041000  1.0  -0.0098
  C  C507  1  0.883900  0.887400  0.989800  1.0  0.4914
  C  C508  1  0.832600  0.825200  0.016900  1.0  -0.0116
  C  C509  1  0.863000  0.813700  0.956600  1.0  -0.0102
  C  C510  1  0.782200  0.807000  0.930400  1.0  0.4247
  C  C511  1  0.937730  0.854700  0.905000  1.0  -0.0517
  C  C512  1  0.839900  0.790400  0.834300  1.0  -0.0375
  C  C513  1  0.912220  0.557190  0.058600  1.0  0.4618
  C  C514  1  0.839270  0.590310  0.030600  1.0  -0.0143
  C  C515  1  0.869220  0.587330  0.966300  1.0  -0.0138
  C  C516  1  0.844790  0.667300  0.982800  1.0  0.4702
  C  C517  1  0.949360  0.548920  0.946400  1.0  -0.013
  C  C518  1  0.887350  0.648800  0.874400  1.0  0.0227
  C  C519  1  0.028440  0.588100  0.930000  1.0  0.4626
  C  C520  1  0.967800  0.611180  0.856400  1.0  -0.0182
  C  C521  1  0.015500  0.633610  0.831300  1.0  -0.0288
  C  C522  1  0.958800  0.693690  0.848300  1.0  0.547
  C  C523  1  0.098700  0.628340  0.881300  1.0  -0.0261
  C  C524  1  0.034600  0.718610  0.789900  1.0  -0.0883
  C  C525  1  0.134490  0.688010  0.957000  1.0  0.3811
  C  C526  1  0.115990  0.714800  0.846300  1.0  -0.0299
  C  C527  1  0.144340  0.753910  0.886200  1.0  -0.004
  C  C528  1  0.070510  0.785380  0.852700  1.0  0.4933
  C  C529  1  0.186200  0.751700  0.999500  1.0  -0.018
  C  C530  1  0.125300  0.841710  0.907600  1.0  -0.0152
  C  C531  1  0.166200  0.781000  0.115300  1.0  0.3964
  C  C532  1  0.162600  0.837600  0.024100  1.0  -0.0261
  C  C533  1  0.149400  0.861600  0.092100  1.0  -0.0072
  C  C534  1  0.086900  0.871800  0.014900  1.0  0.432
  C  C535  1  0.159600  0.833700  0.216200  1.0  -0.0822
  C  C536  1  0.074200  0.909120  0.127800  1.0  -0.04
  C  C537  1  0.091300  0.798900  0.291300  1.0  0.4631
  C  C538  1  0.079100  0.876500  0.249700  1.0  -0.0483
  C  C539  1  0.042700  0.864600  0.304000  1.0  -0.0075
  C  C540  1  0.009100  0.883980  0.196200  1.0  0.3532
  C  C541  1  0.030400  0.790300  0.376200  1.0  -0.0255
  C  C542  1  0.947600  0.874500  0.291000  1.0  -0.1139
  C  C543  1  0.974500  0.722000  0.344700  1.0  0.2412
  C  C544  1  0.935700  0.796300  0.361500  1.0  -0.0315
  C  C545  1  0.896900  0.759300  0.359900  1.0  -0.0379
  C  C546  1  0.882500  0.820700  0.278900  1.0  0.4493
  C  C547  1  0.902400  0.669100  0.340900  1.0  -0.1534
  C  C548  1  0.819600  0.757300  0.291000  1.0  -0.008
  C  C549  1  0.887400  0.616100  0.239800  1.0  0.4886
  C  C550  1  0.825200  0.667400  0.266900  1.0  -0.0105
  C  C551  1  0.813700  0.637000  0.206600  1.0  -0.0084
  C  C552  1  0.807000  0.717800  0.180400  1.0  0.4272
  C  C553  1  0.854700  0.562270  0.155000  1.0  -0.0519
  C  C554  1  0.790400  0.660100  0.084300  1.0  -0.038
  C  C555  1  0.412220  0.057190  0.558600  1.0  0.4618
  C  C556  1  0.339270  0.090310  0.530600  1.0  -0.0143
  C  C557  1  0.369220  0.087330  0.466300  1.0  -0.0138
  C  C558  1  0.344790  0.167300  0.482800  1.0  0.4702
  C  C559  1  0.449360  0.048920  0.446400  1.0  -0.0116
  C  C560  1  0.387350  0.148800  0.374400  1.0  0.0227
  C  C561  1  0.528440  0.088100  0.430000  1.0  0.4626
  C  C562  1  0.467800  0.111180  0.356400  1.0  -0.0182
  C  C563  1  0.515500  0.133610  0.331300  1.0  -0.0288
  C  C564  1  0.458800  0.193690  0.348300  1.0  0.547
  C  C565  1  0.598700  0.128340  0.381300  1.0  -0.0261
  C  C566  1  0.534600  0.218610  0.289900  1.0  -0.0887
  C  C567  1  0.634490  0.188010  0.457000  1.0  0.3811
  C  C568  1  0.615990  0.214800  0.346300  1.0  -0.0299
  C  C569  1  0.644340  0.253910  0.386200  1.0  -0.004
  C  C570  1  0.570510  0.285380  0.352700  1.0  0.4933
  C  C571  1  0.686200  0.251700  0.499500  1.0  -0.018
  C  C572  1  0.625300  0.341710  0.407600  1.0  -0.0152
  C  C573  1  0.666200  0.281000  0.615300  1.0  0.3964
  C  C574  1  0.662600  0.337600  0.524100  1.0  -0.0261
  C  C575  1  0.649400  0.361600  0.592100  1.0  -0.0072
  C  C576  1  0.586900  0.371800  0.514900  1.0  0.432
  C  C577  1  0.659600  0.333700  0.716200  1.0  -0.0822
  C  C578  1  0.574200  0.409120  0.627800  1.0  -0.04
  C  C579  1  0.591300  0.298900  0.791300  1.0  0.4631
  C  C580  1  0.579100  0.376500  0.749700  1.0  -0.0483
  C  C581  1  0.542700  0.364600  0.804000  1.0  -0.0075
  C  C582  1  0.509100  0.383980  0.696200  1.0  0.3532
  C  C583  1  0.530400  0.290300  0.876200  1.0  -0.0255
  C  C584  1  0.447600  0.374500  0.791000  1.0  -0.1139
  C  C585  1  0.474500  0.222000  0.844700  1.0  0.2412
  C  C586  1  0.435700  0.296300  0.861500  1.0  -0.0315
  C  C587  1  0.396900  0.259300  0.859900  1.0  -0.0379
  C  C588  1  0.382500  0.320700  0.778900  1.0  0.4493
  C  C589  1  0.402400  0.169100  0.840900  1.0  -0.1534
  C  C590  1  0.319600  0.257300  0.791000  1.0  -0.008
  C  C591  1  0.387400  0.116100  0.739800  1.0  0.4886
  C  C592  1  0.325200  0.167400  0.766900  1.0  -0.0105
  C  C593  1  0.313700  0.137000  0.706600  1.0  -0.0084
  C  C594  1  0.307000  0.217800  0.680400  1.0  0.4272
  C  C595  1  0.354700  0.062270  0.655000  1.0  -0.0519
  C  C596  1  0.290400  0.160100  0.584300  1.0  -0.038
  C  C597  1  0.587780  0.942810  0.558600  1.0  0.4609
  C  C598  1  0.660730  0.909690  0.530600  1.0  -0.0142
  C  C599  1  0.630780  0.912670  0.466300  1.0  -0.0132
  C  C600  1  0.655210  0.832700  0.482800  1.0  0.4697
  C  C601  1  0.550640  0.951080  0.446400  1.0  -0.0139
  C  C602  1  0.612650  0.851200  0.374400  1.0  0.0202
  C  C603  1  0.471560  0.911900  0.430000  1.0  0.4642
  C  C604  1  0.532200  0.888820  0.356400  1.0  -0.0176
  C  C605  1  0.484500  0.866390  0.331300  1.0  -0.0292
  C  C606  1  0.541200  0.806310  0.348300  1.0  0.5464
  C  C607  1  0.401300  0.871660  0.381300  1.0  -0.0279
  C  C608  1  0.465400  0.781390  0.289900  1.0  -0.0881
  C  C609  1  0.365510  0.811990  0.457000  1.0  0.3813
  C  C610  1  0.384010  0.785200  0.346300  1.0  -0.0282
  C  C611  1  0.355660  0.746090  0.386200  1.0  -0.0031
  C  C612  1  0.429490  0.714620  0.352700  1.0  0.4938
  C  C613  1  0.313800  0.748300  0.499500  1.0  -0.0209
  C  C614  1  0.374700  0.658290  0.407600  1.0  -0.017
  C  C615  1  0.333800  0.719000  0.615300  1.0  0.3947
  C  C616  1  0.337400  0.662400  0.524100  1.0  -0.0251
  C  C617  1  0.350600  0.638400  0.592100  1.0  -0.0083
  C  C618  1  0.413100  0.628200  0.514900  1.0  0.429
  C  C619  1  0.340400  0.666300  0.716200  1.0  -0.0811
  C  C620  1  0.425800  0.590880  0.627800  1.0  -0.0361
  C  C621  1  0.408700  0.701100  0.791300  1.0  0.4663
  C  C622  1  0.420900  0.623500  0.749700  1.0  -0.0487
  C  C623  1  0.457300  0.635400  0.804000  1.0  -0.0098
  C  C624  1  0.490900  0.616020  0.696200  1.0  0.3543
  C  C625  1  0.469600  0.709700  0.876200  1.0  -0.0256
  C  C626  1  0.552400  0.625500  0.791000  1.0  -0.1122
  C  C627  1  0.525500  0.778000  0.844700  1.0  0.2415
  C  C628  1  0.564300  0.703700  0.861500  1.0  -0.0316
  C  C629  1  0.603100  0.740700  0.859900  1.0  -0.038
  C  C630  1  0.617500  0.679300  0.778900  1.0  0.4472
  C  C631  1  0.597600  0.830900  0.840900  1.0  -0.1533
  C  C632  1  0.680400  0.742700  0.791000  1.0  -0.0072
  C  C633  1  0.612600  0.883900  0.739800  1.0  0.4887
  C  C634  1  0.674800  0.832600  0.766900  1.0  -0.011
  C  C635  1  0.686300  0.863000  0.706600  1.0  -0.0066
  C  C636  1  0.693000  0.782200  0.680400  1.0  0.4261
  C  C637  1  0.645300  0.937730  0.655000  1.0  -0.053
  C  C638  1  0.709600  0.839900  0.584300  1.0  -0.0382
  C  C639  1  0.087780  0.442810  0.058600  1.0  0.4612
  C  C640  1  0.160730  0.409690  0.030600  1.0  -0.0142
  C  C641  1  0.130780  0.412670  0.966300  1.0  -0.0132
  C  C642  1  0.155210  0.332700  0.982800  1.0  0.4697
  C  C643  1  0.050640  0.451080  0.946400  1.0  -0.0139
  C  C644  1  0.112650  0.351200  0.874400  1.0  0.0202
  C  C645  1  0.971560  0.411900  0.930000  1.0  0.4645
  C  C646  1  0.032200  0.388820  0.856400  1.0  -0.0176
  C  C647  1  0.984500  0.366390  0.831300  1.0  -0.0292
  C  C648  1  0.041200  0.306310  0.848300  1.0  0.5464
  C  C649  1  0.901300  0.371660  0.881300  1.0  -0.0279
  C  C650  1  0.965400  0.281390  0.789900  1.0  -0.0881
  C  C651  1  0.865510  0.311990  0.957000  1.0  0.3813
  C  C652  1  0.884010  0.285200  0.846300  1.0  -0.0282
  C  C653  1  0.855660  0.246090  0.886200  1.0  -0.0031
  C  C654  1  0.929490  0.214620  0.852700  1.0  0.4938
  C  C655  1  0.813800  0.248300  0.999500  1.0  -0.0209
  C  C656  1  0.874700  0.158290  0.907600  1.0  -0.0172
  C  C657  1  0.833800  0.219000  0.115300  1.0  0.3947
  C  C658  1  0.837400  0.162400  0.024100  1.0  -0.0251
  C  C659  1  0.850600  0.138400  0.092100  1.0  -0.0083
  C  C660  1  0.913100  0.128200  0.014900  1.0  0.429
  C  C661  1  0.840400  0.166300  0.216200  1.0  -0.0811
  C  C662  1  0.925800  0.090880  0.127800  1.0  -0.0361
  C  C663  1  0.908700  0.201100  0.291300  1.0  0.4663
  C  C664  1  0.920900  0.123500  0.249700  1.0  -0.0487
  C  C665  1  0.957300  0.135400  0.304000  1.0  -0.0098
  C  C666  1  0.990900  0.116020  0.196200  1.0  0.3543
  C  C667  1  0.969600  0.209700  0.376200  1.0  -0.0256
  C  C668  1  0.052400  0.125500  0.291000  1.0  -0.1122
  C  C669  1  0.025500  0.278000  0.344700  1.0  0.2415
  C  C670  1  0.064300  0.203700  0.361500  1.0  -0.0316
  C  C671  1  0.103100  0.240700  0.359900  1.0  -0.038
  C  C672  1  0.117500  0.179300  0.278900  1.0  0.4472
  C  C673  1  0.097600  0.330900  0.340900  1.0  -0.1533
  C  C674  1  0.180400  0.242700  0.291000  1.0  -0.0072
  C  C675  1  0.112600  0.383900  0.239800  1.0  0.4887
  C  C676  1  0.174800  0.332600  0.266900  1.0  -0.011
  C  C677  1  0.186300  0.363000  0.206600  1.0  -0.0066
  C  C678  1  0.193000  0.282200  0.180400  1.0  0.4261
  C  C679  1  0.145300  0.437730  0.155000  1.0  -0.053
  C  C680  1  0.209600  0.339900  0.084300  1.0  -0.0382
  N  N681  1  0.071150  0.130380  0.833600  1.0  -0.0946
  N  N682  1  0.069080  0.085190  0.740400  1.0  -0.1251
  N  N683  1  0.141710  0.172490  0.788700  1.0  -0.1594
  N  N684  1  0.136530  0.128680  0.693700  1.0  -0.1495
  N  N685  1  0.084700  0.018910  0.665300  1.0  -0.1202
  N  N686  1  0.119720  0.951800  0.635300  1.0  -0.1123
  N  N687  1  0.152630  0.063140  0.619100  1.0  -0.1731
  N  N688  1  0.183950  0.995280  0.577100  1.0  -0.1531
  N  N689  1  0.177380  0.888680  0.647500  1.0  -0.1459
  N  N690  1  0.233840  0.847150  0.701700  1.0  -0.0642
  N  N691  1  0.239000  0.929140  0.580700  1.0  -0.2279
  N  N692  1  0.295060  0.888530  0.635000  1.0  -0.1166
  N  N693  1  0.287780  0.832040  0.796100  1.0  -0.1121
  N  N694  1  0.323900  0.844100  0.893200  1.0  -0.1129
  N  N695  1  0.348140  0.877300  0.730900  1.0  -0.1184
  N  N696  1  0.375210  0.900800  0.832400  1.0  -0.1298
  N  N697  1  0.336100  0.889500  0.999300  1.0  -0.137
  N  N698  1  0.314600  0.945300  0.069400  1.0  0.0319
  N  N699  1  0.386310  0.944200  0.937000  1.0  0.0235
  N  N700  1  0.370900  0.001900  0.013800  1.0  -0.133
  N  N701  1  0.271100  0.016300  0.107900  1.0  -0.1611
  N  N702  1  0.217400  0.072700  0.090400  1.0  -0.1467
  N  N703  1  0.329800  0.074000  0.055400  1.0  -0.0742
  N  N704  1  0.277200  0.135800  0.054000  1.0  -0.2202
  N  N705  1  0.154910  0.124300  0.029700  1.0  -0.159
  N  N706  1  0.104530  0.145900  0.946000  1.0  0.0178
  N  N707  1  0.215500  0.179400  0.996100  1.0  -0.0105
  N  N708  1  0.171270  0.190400  0.902500  1.0  -0.1131
  N  N709  1  0.571150  0.630380  0.333600  1.0  -0.0946
  N  N710  1  0.569080  0.585190  0.240400  1.0  -0.1251
  N  N711  1  0.641710  0.672490  0.288700  1.0  -0.1594
  N  N712  1  0.636530  0.628680  0.193700  1.0  -0.1495
  N  N713  1  0.584700  0.518910  0.165300  1.0  -0.1202
  N  N714  1  0.619720  0.451800  0.135300  1.0  -0.1123
  N  N715  1  0.652630  0.563140  0.119100  1.0  -0.1731
  N  N716  1  0.683950  0.495280  0.077100  1.0  -0.1531
  N  N717  1  0.677380  0.388680  0.147500  1.0  -0.1459
  N  N718  1  0.733840  0.347150  0.201700  1.0  -0.0642
  N  N719  1  0.739000  0.429140  0.080700  1.0  -0.2279
  N  N720  1  0.795060  0.388530  0.135000  1.0  -0.1166
  N  N721  1  0.787780  0.332040  0.296100  1.0  -0.1121
  N  N722  1  0.823900  0.344100  0.393200  1.0  -0.1129
  N  N723  1  0.848140  0.377300  0.230900  1.0  -0.1184
  N  N724  1  0.875210  0.400800  0.332400  1.0  -0.1298
  N  N725  1  0.836100  0.389500  0.499300  1.0  -0.137
  N  N726  1  0.814600  0.445300  0.569400  1.0  0.0319
  N  N727  1  0.886310  0.444200  0.437000  1.0  0.0235
  N  N728  1  0.870900  0.501900  0.513800  1.0  -0.133
  N  N729  1  0.771100  0.516300  0.607900  1.0  -0.1611
  N  N730  1  0.717400  0.572700  0.590400  1.0  -0.1467
  N  N731  1  0.829800  0.574000  0.555400  1.0  -0.0742
  N  N732  1  0.777200  0.635800  0.554000  1.0  -0.2202
  N  N733  1  0.654910  0.624300  0.529700  1.0  -0.159
  N  N734  1  0.604530  0.645900  0.446000  1.0  0.0178
  N  N735  1  0.715500  0.679400  0.496100  1.0  -0.0105
  N  N736  1  0.671270  0.690400  0.402500  1.0  -0.1131
  N  N737  1  0.428850  0.369620  0.333600  1.0  -0.0957
  N  N738  1  0.430920  0.414810  0.240400  1.0  -0.1259
  N  N739  1  0.358290  0.327510  0.288700  1.0  -0.1594
  N  N740  1  0.363470  0.371320  0.193700  1.0  -0.1501
  N  N741  1  0.415300  0.481090  0.165300  1.0  -0.1199
  N  N742  1  0.380280  0.548200  0.135300  1.0  -0.1146
  N  N743  1  0.347370  0.436860  0.119100  1.0  -0.1742
  N  N744  1  0.316050  0.504720  0.077100  1.0  -0.1525
  N  N745  1  0.322620  0.611320  0.147500  1.0  -0.147
  N  N746  1  0.266160  0.652850  0.201700  1.0  -0.0651
  N  N747  1  0.261000  0.570860  0.080700  1.0  -0.2282
  N  N748  1  0.204940  0.611470  0.135000  1.0  -0.1181
  N  N749  1  0.212220  0.667960  0.296100  1.0  -0.1114
  N  N750  1  0.176100  0.655900  0.393200  1.0  -0.1137
  N  N751  1  0.151860  0.622700  0.230900  1.0  -0.1175
  N  N752  1  0.124790  0.599200  0.332400  1.0  -0.1303
  N  N753  1  0.163900  0.610500  0.499300  1.0  -0.1362
  N  N754  1  0.185400  0.554700  0.569400  1.0  0.0315
  N  N755  1  0.113690  0.555800  0.437000  1.0  0.0225
  N  N756  1  0.129100  0.498100  0.513800  1.0  -0.1332
  N  N757  1  0.228900  0.483700  0.607900  1.0  -0.1613
  N  N758  1  0.282600  0.427300  0.590400  1.0  -0.1462
  N  N759  1  0.170200  0.426000  0.555400  1.0  -0.07
  N  N760  1  0.222800  0.364200  0.554000  1.0  -0.221
  N  N761  1  0.345090  0.375700  0.529700  1.0  -0.158
  N  N762  1  0.395470  0.354100  0.446000  1.0  0.0166
  N  N763  1  0.284500  0.320600  0.496100  1.0  -0.0129
  N  N764  1  0.328730  0.309600  0.402500  1.0  -0.1145
  N  N765  1  0.928850  0.869620  0.833600  1.0  -0.0957
  N  N766  1  0.930920  0.914810  0.740400  1.0  -0.1259
  N  N767  1  0.858290  0.827510  0.788700  1.0  -0.1594
  N  N768  1  0.863470  0.871320  0.693700  1.0  -0.1501
  N  N769  1  0.915300  0.981090  0.665300  1.0  -0.1199
  N  N770  1  0.880280  0.048200  0.635300  1.0  -0.1146
  N  N771  1  0.847370  0.936860  0.619100  1.0  -0.1742
  N  N772  1  0.816050  0.004720  0.577100  1.0  -0.1525
  N  N773  1  0.822620  0.111320  0.647500  1.0  -0.147
  N  N774  1  0.766160  0.152850  0.701700  1.0  -0.0651
  N  N775  1  0.761000  0.070860  0.580700  1.0  -0.2282
  N  N776  1  0.704940  0.111470  0.635000  1.0  -0.1181
  N  N777  1  0.712220  0.167960  0.796100  1.0  -0.1114
  N  N778  1  0.676100  0.155900  0.893200  1.0  -0.1137
  N  N779  1  0.651860  0.122700  0.730900  1.0  -0.1175
  N  N780  1  0.624790  0.099200  0.832400  1.0  -0.1303
  N  N781  1  0.663900  0.110500  0.999300  1.0  -0.1362
  N  N782  1  0.685400  0.054700  0.069400  1.0  0.0315
  N  N783  1  0.613690  0.055800  0.937000  1.0  0.0225
  N  N784  1  0.629100  0.998100  0.013800  1.0  -0.1332
  N  N785  1  0.728900  0.983700  0.107900  1.0  -0.1613
  N  N786  1  0.782600  0.927300  0.090400  1.0  -0.1462
  N  N787  1  0.670200  0.926000  0.055400  1.0  -0.07
  N  N788  1  0.722800  0.864200  0.054000  1.0  -0.221
  N  N789  1  0.845090  0.875700  0.029700  1.0  -0.158
  N  N790  1  0.895470  0.854100  0.946000  1.0  0.0166
  N  N791  1  0.784500  0.820600  0.996100  1.0  -0.0129
  N  N792  1  0.828730  0.809600  0.902500  1.0  -0.1145
  N  N793  1  0.869620  0.571150  0.083600  1.0  -0.0934
  N  N794  1  0.914810  0.569080  0.990400  1.0  -0.1255
  N  N795  1  0.827510  0.641710  0.038700  1.0  -0.1596
  N  N796  1  0.871320  0.636530  0.943700  1.0  -0.15
  N  N797  1  0.981090  0.584700  0.915300  1.0  -0.1194
  N  N798  1  0.048200  0.619720  0.885300  1.0  -0.1134
  N  N799  1  0.936860  0.652630  0.869100  1.0  -0.1754
  N  N800  1  0.004720  0.683950  0.827100  1.0  -0.1541
  N  N801  1  0.111320  0.677380  0.897500  1.0  -0.1463
  N  N802  1  0.152850  0.733840  0.951700  1.0  -0.0663
  N  N803  1  0.070860  0.739000  0.830700  1.0  -0.2283
  N  N804  1  0.111470  0.795060  0.885000  1.0  -0.1173
  N  N805  1  0.167960  0.787780  0.046100  1.0  -0.1097
  N  N806  1  0.155900  0.823900  0.143200  1.0  -0.1162
  N  N807  1  0.122700  0.848140  0.980900  1.0  -0.1157
  N  N808  1  0.099200  0.875210  0.082400  1.0  -0.1292
  N  N809  1  0.110500  0.836100  0.249300  1.0  -0.1381
  N  N810  1  0.054700  0.814600  0.319400  1.0  0.0303
  N  N811  1  0.055800  0.886310  0.187000  1.0  0.0239
  N  N812  1  0.998100  0.870900  0.263800  1.0  -0.1314
  N  N813  1  0.983700  0.771100  0.357900  1.0  -0.1626
  N  N814  1  0.927300  0.717400  0.340400  1.0  -0.1455
  N  N815  1  0.926000  0.829800  0.305400  1.0  -0.0747
  N  N816  1  0.864200  0.777200  0.304000  1.0  -0.2216
  N  N817  1  0.875700  0.654910  0.279700  1.0  -0.1575
  N  N818  1  0.854100  0.604530  0.196000  1.0  0.0172
  N  N819  1  0.820600  0.715500  0.246100  1.0  -0.0105
  N  N820  1  0.809600  0.671270  0.152500  1.0  -0.1134
  N  N821  1  0.369620  0.071150  0.583600  1.0  -0.0934
  N  N822  1  0.414810  0.069080  0.490400  1.0  -0.1255
  N  N823  1  0.327510  0.141710  0.538700  1.0  -0.1596
  N  N824  1  0.371320  0.136530  0.443700  1.0  -0.15
  N  N825  1  0.481090  0.084700  0.415300  1.0  -0.1194
  N  N826  1  0.548200  0.119720  0.385300  1.0  -0.1134
  N  N827  1  0.436860  0.152630  0.369100  1.0  -0.1754
  N  N828  1  0.504720  0.183950  0.327100  1.0  -0.1541
  N  N829  1  0.611320  0.177380  0.397500  1.0  -0.1463
  N  N830  1  0.652850  0.233840  0.451700  1.0  -0.0663
  N  N831  1  0.570860  0.239000  0.330700  1.0  -0.2283
  N  N832  1  0.611470  0.295060  0.385000  1.0  -0.1173
  N  N833  1  0.667960  0.287780  0.546100  1.0  -0.1097
  N  N834  1  0.655900  0.323900  0.643200  1.0  -0.1162
  N  N835  1  0.622700  0.348140  0.480900  1.0  -0.1157
  N  N836  1  0.599200  0.375210  0.582400  1.0  -0.1292
  N  N837  1  0.610500  0.336100  0.749300  1.0  -0.1381
  N  N838  1  0.554700  0.314600  0.819400  1.0  0.0303
  N  N839  1  0.555800  0.386310  0.687000  1.0  0.0239
  N  N840  1  0.498100  0.370900  0.763800  1.0  -0.1314
  N  N841  1  0.483700  0.271100  0.857900  1.0  -0.1626
  N  N842  1  0.427300  0.217400  0.840400  1.0  -0.1455
  N  N843  1  0.426000  0.329800  0.805400  1.0  -0.0747
  N  N844  1  0.364200  0.277200  0.804000  1.0  -0.2216
  N  N845  1  0.375700  0.154910  0.779700  1.0  -0.1575
  N  N846  1  0.354100  0.104530  0.696000  1.0  0.0172
  N  N847  1  0.320600  0.215500  0.746100  1.0  -0.0105
  N  N848  1  0.309600  0.171270  0.652500  1.0  -0.1134
  N  N849  1  0.630380  0.928850  0.583600  1.0  -0.0928
  N  N850  1  0.585190  0.930920  0.490400  1.0  -0.1243
  N  N851  1  0.672490  0.858290  0.538700  1.0  -0.1627
  N  N852  1  0.628680  0.863470  0.443700  1.0  -0.1515
  N  N853  1  0.518910  0.915300  0.415300  1.0  -0.1202
  N  N854  1  0.451800  0.880280  0.385300  1.0  -0.1131
  N  N855  1  0.563140  0.847370  0.369100  1.0  -0.1762
  N  N856  1  0.495280  0.816050  0.327100  1.0  -0.1542
  N  N857  1  0.388680  0.822620  0.397500  1.0  -0.1458
  N  N858  1  0.347150  0.766160  0.451700  1.0  -0.0649
  N  N859  1  0.429140  0.761000  0.330700  1.0  -0.2294
  N  N860  1  0.388530  0.704940  0.385000  1.0  -0.1163
  N  N861  1  0.332040  0.712220  0.546100  1.0  -0.1093
  N  N862  1  0.344100  0.676100  0.643200  1.0  -0.1154
  N  N863  1  0.377300  0.651860  0.480900  1.0  -0.1172
  N  N864  1  0.400800  0.624790  0.582400  1.0  -0.1267
  N  N865  1  0.389500  0.663900  0.749300  1.0  -0.1374
  N  N866  1  0.445300  0.685400  0.819400  1.0  0.0284
  N  N867  1  0.444200  0.613690  0.687000  1.0  0.0229
  N  N868  1  0.501900  0.629100  0.763800  1.0  -0.1316
  N  N869  1  0.516300  0.728900  0.857900  1.0  -0.1624
  N  N870  1  0.572700  0.782600  0.840400  1.0  -0.1442
  N  N871  1  0.574000  0.670200  0.805400  1.0  -0.0705
  N  N872  1  0.635800  0.722800  0.804000  1.0  -0.222
  N  N873  1  0.624300  0.845090  0.779700  1.0  -0.1559
  N  N874  1  0.645900  0.895470  0.696000  1.0  0.0192
  N  N875  1  0.679400  0.784500  0.746100  1.0  -0.0142
  N  N876  1  0.690400  0.828730  0.652500  1.0  -0.1146
  N  N877  1  0.130380  0.428850  0.083600  1.0  -0.0928
  N  N878  1  0.085190  0.430920  0.990400  1.0  -0.1243
  N  N879  1  0.172490  0.358290  0.038700  1.0  -0.1627
  N  N880  1  0.128680  0.363470  0.943700  1.0  -0.1515
  N  N881  1  0.018910  0.415300  0.915300  1.0  -0.1202
  N  N882  1  0.951800  0.380280  0.885300  1.0  -0.1131
  N  N883  1  0.063140  0.347370  0.869100  1.0  -0.1762
  N  N884  1  0.995280  0.316050  0.827100  1.0  -0.1542
  N  N885  1  0.888680  0.322620  0.897500  1.0  -0.1458
  N  N886  1  0.847150  0.266160  0.951700  1.0  -0.0649
  N  N887  1  0.929140  0.261000  0.830700  1.0  -0.2294
  N  N888  1  0.888530  0.204940  0.885000  1.0  -0.1163
  N  N889  1  0.832040  0.212220  0.046100  1.0  -0.1093
  N  N890  1  0.844100  0.176100  0.143200  1.0  -0.1154
  N  N891  1  0.877300  0.151860  0.980900  1.0  -0.1172
  N  N892  1  0.900800  0.124790  0.082400  1.0  -0.1267
  N  N893  1  0.889500  0.163900  0.249300  1.0  -0.1374
  N  N894  1  0.945300  0.185400  0.319400  1.0  0.0284
  N  N895  1  0.944200  0.113690  0.187000  1.0  0.0229
  N  N896  1  0.001900  0.129100  0.263800  1.0  -0.1316
  N  N897  1  0.016300  0.228900  0.357900  1.0  -0.1624
  N  N898  1  0.072700  0.282600  0.340400  1.0  -0.1442
  N  N899  1  0.074000  0.170200  0.305400  1.0  -0.0705
  N  N900  1  0.135800  0.222800  0.304000  1.0  -0.222
  N  N901  1  0.124300  0.345090  0.279700  1.0  -0.1559
  N  N902  1  0.145900  0.395470  0.196000  1.0  0.0192
  N  N903  1  0.179400  0.284500  0.246100  1.0  -0.0142
  N  N904  1  0.190400  0.328730  0.152500  1.0  -0.1146
  O  O905  1  0.990700  0.970100  0.994100  1.0  -0.7591
  O  O906  1  0.035480  0.056450  0.841000  1.0  -0.6297
  O  O907  1  0.065930  0.950730  0.726430  1.0  -0.5979
  O  O908  1  0.162350  0.862630  0.758200  1.0  -0.4687
  O  O909  1  0.245390  0.826200  0.898000  1.0  -0.5066
  O  O910  1  0.261230  0.886000  0.055800  1.0  -0.5759
  O  O911  1  0.191500  0.998000  0.094400  1.0  -0.427
  O  O912  1  0.097320  0.072100  0.994700  1.0  -0.5169
  O  O913  1  0.208840  0.163620  0.720900  1.0  -0.4648
  O  O914  1  0.234410  0.059820  0.597000  1.0  -0.5602
  O  O915  1  0.314210  0.962460  0.592600  1.0  -0.5298
  O  O916  1  0.386270  0.949780  0.737000  1.0  -0.5414
  O  O917  1  0.391640  0.025500  0.903000  1.0  -0.5592
  O  O918  1  0.344680  0.139200  0.986400  1.0  -0.4861
  O  O919  1  0.253190  0.202190  0.899000  1.0  -0.5005
  O  O920  1  0.490700  0.470100  0.494100  1.0  -0.7591
  O  O921  1  0.535480  0.556450  0.341000  1.0  -0.6297
  O  O922  1  0.565930  0.450730  0.226430  1.0  -0.5979
  O  O923  1  0.662350  0.362630  0.258200  1.0  -0.4687
  O  O924  1  0.745390  0.326200  0.398000  1.0  -0.5066
  O  O925  1  0.761230  0.386000  0.555800  1.0  -0.5758
  O  O926  1  0.691500  0.498000  0.594400  1.0  -0.427
  O  O927  1  0.597320  0.572100  0.494700  1.0  -0.5169
  O  O928  1  0.708840  0.663620  0.220900  1.0  -0.4648
  O  O929  1  0.734410  0.559820  0.097000  1.0  -0.5602
  O  O930  1  0.814210  0.462460  0.092600  1.0  -0.5298
  O  O931  1  0.886270  0.449780  0.237000  1.0  -0.5414
  O  O932  1  0.891640  0.525500  0.403000  1.0  -0.5592
  O  O933  1  0.844680  0.639200  0.486400  1.0  -0.4861
  O  O934  1  0.753190  0.702190  0.399000  1.0  -0.5005
  O  O935  1  0.509300  0.529900  0.494100  1.0  -0.758
  O  O936  1  0.464520  0.443550  0.341000  1.0  -0.6276
  O  O937  1  0.434070  0.549270  0.226430  1.0  -0.5987
  O  O938  1  0.337650  0.637370  0.258200  1.0  -0.4687
  O  O939  1  0.254610  0.673800  0.398000  1.0  -0.5066
  O  O940  1  0.238770  0.614000  0.555800  1.0  -0.5742
  O  O941  1  0.308500  0.502000  0.594400  1.0  -0.4262
  O  O942  1  0.402680  0.427900  0.494700  1.0  -0.5209
  O  O943  1  0.291160  0.336380  0.220900  1.0  -0.463
  O  O944  1  0.265590  0.440180  0.097000  1.0  -0.5602
  O  O945  1  0.185790  0.537540  0.092600  1.0  -0.5296
  O  O946  1  0.113730  0.550220  0.237000  1.0  -0.5437
  O  O947  1  0.108360  0.474500  0.403000  1.0  -0.557
  O  O948  1  0.155320  0.360800  0.486400  1.0  -0.4862
  O  O949  1  0.246810  0.297810  0.399000  1.0  -0.5001
  O  O950  1  0.009300  0.029900  0.994100  1.0  -0.758
  O  O951  1  0.964520  0.943550  0.841000  1.0  -0.6276
  O  O952  1  0.934070  0.049270  0.726430  1.0  -0.5987
  O  O953  1  0.837650  0.137370  0.758200  1.0  -0.4687
  O  O954  1  0.754610  0.173800  0.898000  1.0  -0.5066
  O  O955  1  0.738770  0.114000  0.055800  1.0  -0.5742
  O  O956  1  0.808500  0.002000  0.094400  1.0  -0.4262
  O  O957  1  0.902680  0.927900  0.994700  1.0  -0.5209
  O  O958  1  0.791160  0.836380  0.720900  1.0  -0.463
  O  O959  1  0.765590  0.940180  0.597000  1.0  -0.5602
  O  O960  1  0.685790  0.037540  0.592600  1.0  -0.5296
  O  O961  1  0.613730  0.050220  0.737000  1.0  -0.5437
  O  O962  1  0.608360  0.974500  0.903000  1.0  -0.557
  O  O963  1  0.655320  0.860800  0.986400  1.0  -0.4862
  O  O964  1  0.746810  0.797810  0.899000  1.0  -0.5001
  O  O965  1  0.029900  0.490700  0.244100  1.0  -0.7598
  O  O966  1  0.943550  0.535480  0.091000  1.0  -0.6291
  O  O967  1  0.049270  0.565930  0.976430  1.0  -0.5985
  O  O968  1  0.137370  0.662350  0.008200  1.0  -0.4696
  O  O969  1  0.173800  0.745390  0.148000  1.0  -0.5063
  O  O970  1  0.114000  0.761230  0.305800  1.0  -0.5775
  O  O971  1  0.002000  0.691500  0.344400  1.0  -0.4259
  O  O972  1  0.927900  0.597320  0.244700  1.0  -0.522
  O  O973  1  0.836380  0.708840  0.970900  1.0  -0.465
  O  O974  1  0.940180  0.734410  0.847000  1.0  -0.5619
  O  O975  1  0.037540  0.814210  0.842600  1.0  -0.5289
  O  O976  1  0.050220  0.886270  0.987000  1.0  -0.5441
  O  O977  1  0.974500  0.891640  0.153000  1.0  -0.558
  O  O978  1  0.860800  0.844680  0.236400  1.0  -0.4853
  O  O979  1  0.797810  0.753190  0.149000  1.0  -0.5
  O  O980  1  0.529900  0.990700  0.744100  1.0  -0.7598
  O  O981  1  0.443550  0.035480  0.591000  1.0  -0.6291
  O  O982  1  0.549270  0.065930  0.476430  1.0  -0.5985
  O  O983  1  0.637370  0.162350  0.508200  1.0  -0.4696
  O  O984  1  0.673800  0.245390  0.648000  1.0  -0.5063
  O  O985  1  0.614000  0.261230  0.805800  1.0  -0.5775
  O  O986  1  0.502000  0.191500  0.844400  1.0  -0.4259
  O  O987  1  0.427900  0.097320  0.744700  1.0  -0.522
  O  O988  1  0.336380  0.208840  0.470900  1.0  -0.465
  O  O989  1  0.440180  0.234410  0.347000  1.0  -0.5619
  O  O990  1  0.537540  0.314210  0.342600  1.0  -0.5289
  O  O991  1  0.550220  0.386270  0.487000  1.0  -0.5441
  O  O992  1  0.474500  0.391640  0.653000  1.0  -0.558
  O  O993  1  0.360800  0.344680  0.736400  1.0  -0.4853
  O  O994  1  0.297810  0.253190  0.649000  1.0  -0.5
  O  O995  1  0.470100  0.009300  0.744100  1.0  -0.76
  O  O996  1  0.556450  0.964520  0.591000  1.0  -0.6297
  O  O997  1  0.450730  0.934070  0.476430  1.0  -0.5991
  O  O998  1  0.362630  0.837650  0.508200  1.0  -0.4703
  O  O999  1  0.326200  0.754610  0.648000  1.0  -0.5058
  O  O1000  1  0.386000  0.738770  0.805800  1.0  -0.5749
  O  O1001  1  0.498000  0.808500  0.844400  1.0  -0.4253
  O  O1002  1  0.572100  0.902680  0.744700  1.0  -0.5215
  O  O1003  1  0.663620  0.791160  0.470900  1.0  -0.4641
  O  O1004  1  0.559820  0.765590  0.347000  1.0  -0.5616
  O  O1005  1  0.462460  0.685790  0.342600  1.0  -0.5302
  O  O1006  1  0.449780  0.613730  0.487000  1.0  -0.5457
  O  O1007  1  0.525500  0.608360  0.653000  1.0  -0.5546
  O  O1008  1  0.639200  0.655320  0.736400  1.0  -0.4858
  O  O1009  1  0.702190  0.746810  0.649000  1.0  -0.5007
  O  O1010  1  0.970100  0.509300  0.244100  1.0  -0.76
  O  O1011  1  0.056450  0.464520  0.091000  1.0  -0.6297
  O  O1012  1  0.950730  0.434070  0.976430  1.0  -0.5991
  O  O1013  1  0.862630  0.337650  0.008200  1.0  -0.4703
  O  O1014  1  0.826200  0.254610  0.148000  1.0  -0.5058
  O  O1015  1  0.886000  0.238770  0.305800  1.0  -0.5749
  O  O1016  1  0.998000  0.308500  0.344400  1.0  -0.4253
  O  O1017  1  0.072100  0.402680  0.244700  1.0  -0.5215
  O  O1018  1  0.163620  0.291160  0.970900  1.0  -0.4641
  O  O1019  1  0.059820  0.265590  0.847000  1.0  -0.5616
  O  O1020  1  0.962460  0.185790  0.842600  1.0  -0.5302
  O  O1021  1  0.949780  0.113730  0.987000  1.0  -0.5457
  O  O1022  1  0.025500  0.108360  0.153000  1.0  -0.5546
  O  O1023  1  0.139200  0.155320  0.236400  1.0  -0.4858
  O  O1024  1  0.202190  0.246810  0.149000  1.0  -0.5007
