# generated using pymatgen
data_CuH6C8(N2O)2
_symmetry_space_group_name_H-M   'P 1'
_cell_length_a   23.04000000
_cell_length_b   23.04000000
_cell_length_c   25.13980000
_cell_angle_alpha   90.00000000
_cell_angle_beta   90.00000000
_cell_angle_gamma   120.00000000
_symmetry_Int_Tables_number   1
_chemical_formula_structural   CuH6C8(N2O)2
_chemical_formula_sum   'Cu36 H216 C288 N144 O72'
_cell_volume   11557.32695372
_cell_formula_units_Z   36
loop_
 _symmetry_equiv_pos_site_id
 _symmetry_equiv_pos_as_xyz
  1  'x, y, z'
loop_
 _atom_site_type_symbol
 _atom_site_label
 _atom_site_symmetry_multiplicity
 _atom_site_fract_x
 _atom_site_fract_y
 _atom_site_fract_z
 _atom_site_occupancy
 _atom_site_charge
  Cu  Cu1  1  0.767470  0.000000  0.500000  1.0  0.7764
  Cu  Cu2  1  0.434140  0.333333  0.833330  1.0  0.7773
  Cu  Cu3  1  0.100800  0.666667  0.166670  1.0  0.7763
  Cu  Cu4  1  0.000000  0.767470  0.500000  1.0  0.7798
  Cu  Cu5  1  0.666667  0.100800  0.833330  1.0  0.7798
  Cu  Cu6  1  0.333333  0.434140  0.166670  1.0  0.7792
  Cu  Cu7  1  0.232530  0.232530  0.500000  1.0  0.7793
  Cu  Cu8  1  0.899200  0.565860  0.833330  1.0  0.7794
  Cu  Cu9  1  0.565860  0.899200  0.166670  1.0  0.7786
  Cu  Cu10  1  0.232530  0.000000  0.500000  1.0  0.7787
  Cu  Cu11  1  0.899200  0.333333  0.833330  1.0  0.779
  Cu  Cu12  1  0.565860  0.666667  0.166670  1.0  0.7779
  Cu  Cu13  1  0.000000  0.232530  0.500000  1.0  0.7778
  Cu  Cu14  1  0.666667  0.565860  0.833330  1.0  0.7786
  Cu  Cu15  1  0.333333  0.899200  0.166670  1.0  0.7778
  Cu  Cu16  1  0.767470  0.767470  0.500000  1.0  0.779
  Cu  Cu17  1  0.434140  0.100800  0.833330  1.0  0.7791
  Cu  Cu18  1  0.100800  0.434140  0.166670  1.0  0.7786
  Cu  Cu19  1  0.579870  0.913210  0.666667  1.0  0.7572
  Cu  Cu20  1  0.246540  0.246540  0.000000  1.0  0.7571
  Cu  Cu21  1  0.086790  0.666667  0.666667  1.0  0.7554
  Cu  Cu22  1  0.753460  0.000000  0.000000  1.0  0.7554
  Cu  Cu23  1  0.333333  0.420130  0.666667  1.0  0.7572
  Cu  Cu24  1  0.000000  0.753460  0.000000  1.0  0.7572
  Cu  Cu25  1  0.913210  0.579870  0.333333  1.0  0.7572
  Cu  Cu26  1  0.666667  0.086790  0.333333  1.0  0.7573
  Cu  Cu27  1  0.420130  0.333333  0.333333  1.0  0.7554
  Cu  Cu28  1  0.420130  0.086790  0.333333  1.0  0.7561
  Cu  Cu29  1  0.913210  0.333333  0.333333  1.0  0.7556
  Cu  Cu30  1  0.666667  0.579870  0.333333  1.0  0.7557
  Cu  Cu31  1  0.086790  0.420130  0.666667  1.0  0.7561
  Cu  Cu32  1  0.753460  0.753460  0.000000  1.0  0.756
  Cu  Cu33  1  0.333333  0.913210  0.666667  1.0  0.7557
  Cu  Cu34  1  0.000000  0.246540  0.000000  1.0  0.7557
  Cu  Cu35  1  0.579870  0.666667  0.666667  1.0  0.7556
  Cu  Cu36  1  0.246540  0.000000  0.000000  1.0  0.7556
  H  H37  1  0.716510  0.946580  0.714080  1.0  0.09
  H  H38  1  0.835650  0.988110  0.388610  1.0  0.0952
  H  H39  1  0.509180  0.826550  0.587070  1.0  0.1013
  H  H40  1  0.627860  0.892540  0.455520  1.0  0.0999
  H  H41  1  0.525600  0.816700  0.496000  1.0  0.0966
  H  H42  1  0.383180  0.279910  0.047410  1.0  0.09
  H  H43  1  0.502320  0.321440  0.721940  1.0  0.0967
  H  H44  1  0.175850  0.159880  0.920400  1.0  0.1013
  H  H45  1  0.294530  0.225870  0.788850  1.0  0.1
  H  H46  1  0.192270  0.150030  0.829330  1.0  0.0968
  H  H47  1  0.049840  0.613250  0.380750  1.0  0.09
  H  H48  1  0.168980  0.654780  0.055280  1.0  0.0964
  H  H49  1  0.842510  0.493220  0.253740  1.0  0.0998
  H  H50  1  0.961190  0.559210  0.122190  1.0  0.1002
  H  H51  1  0.858930  0.483370  0.162670  1.0  0.0966
  H  H52  1  0.053420  0.769930  0.714080  1.0  0.0897
  H  H53  1  0.011890  0.847540  0.388610  1.0  0.0958
  H  H54  1  0.173450  0.682630  0.587070  1.0  0.0994
  H  H55  1  0.107460  0.735320  0.455520  1.0  0.0998
  H  H56  1  0.183300  0.708900  0.496000  1.0  0.0969
  H  H57  1  0.720090  0.103260  0.047410  1.0  0.0897
  H  H58  1  0.678560  0.180870  0.721940  1.0  0.0958
  H  H59  1  0.840120  0.015960  0.920400  1.0  0.0993
  H  H60  1  0.774130  0.068650  0.788850  1.0  0.0998
  H  H61  1  0.849970  0.042230  0.829330  1.0  0.0965
  H  H62  1  0.386750  0.436600  0.380750  1.0  0.0897
  H  H63  1  0.345220  0.514210  0.055280  1.0  0.0958
  H  H64  1  0.506780  0.349300  0.253740  1.0  0.1005
  H  H65  1  0.440790  0.401990  0.122190  1.0  0.0998
  H  H66  1  0.516630  0.375570  0.162670  1.0  0.0969
  H  H67  1  0.230070  0.283490  0.714080  1.0  0.0894
  H  H68  1  0.152460  0.164350  0.388610  1.0  0.0964
  H  H69  1  0.317370  0.490820  0.587070  1.0  0.1026
  H  H70  1  0.264680  0.372140  0.455520  1.0  0.0999
  H  H71  1  0.291100  0.474400  0.496000  1.0  0.0976
  H  H72  1  0.896740  0.616820  0.047410  1.0  0.0895
  H  H73  1  0.819130  0.497680  0.721940  1.0  0.0961
  H  H74  1  0.984040  0.824150  0.920400  1.0  0.1026
  H  H75  1  0.931350  0.705470  0.788850  1.0  0.0999
  H  H76  1  0.957770  0.807730  0.829330  1.0  0.0976
  H  H77  1  0.563400  0.950160  0.380750  1.0  0.0895
  H  H78  1  0.485790  0.831020  0.055280  1.0  0.0944
  H  H79  1  0.650700  0.157490  0.253740  1.0  0.0996
  H  H80  1  0.598010  0.038810  0.122190  1.0  0.1002
  H  H81  1  0.624430  0.141070  0.162670  1.0  0.0959
  H  H82  1  0.946580  0.716510  0.285920  1.0  0.0894
  H  H83  1  0.988110  0.835650  0.611390  1.0  0.0955
  H  H84  1  0.826550  0.509180  0.412930  1.0  0.1028
  H  H85  1  0.892540  0.627860  0.544480  1.0  0.0991
  H  H86  1  0.816700  0.525600  0.504000  1.0  0.0977
  H  H87  1  0.613250  0.049840  0.619250  1.0  0.0894
  H  H88  1  0.654780  0.168980  0.944720  1.0  0.0964
  H  H89  1  0.493220  0.842510  0.746260  1.0  0.1011
  H  H90  1  0.559210  0.961190  0.877810  1.0  0.0995
  H  H91  1  0.483370  0.858930  0.837330  1.0  0.0981
  H  H92  1  0.279910  0.383180  0.952590  1.0  0.0894
  H  H93  1  0.321440  0.502320  0.278060  1.0  0.0969
  H  H94  1  0.159880  0.175850  0.079600  1.0  0.1028
  H  H95  1  0.225870  0.294530  0.211150  1.0  0.0992
  H  H96  1  0.150030  0.192270  0.170670  1.0  0.0982
  H  H97  1  0.769930  0.053420  0.285920  1.0  0.0905
  H  H98  1  0.847540  0.011890  0.611390  1.0  0.0964
  H  H99  1  0.682630  0.173450  0.412930  1.0  0.0997
  H  H100  1  0.735320  0.107460  0.544480  1.0  0.0993
  H  H101  1  0.708900  0.183300  0.504000  1.0  0.097
  H  H102  1  0.436600  0.386750  0.619250  1.0  0.0905
  H  H103  1  0.514210  0.345220  0.944720  1.0  0.0964
  H  H104  1  0.349300  0.506780  0.746260  1.0  0.1011
  H  H105  1  0.401990  0.440790  0.877810  1.0  0.0993
  H  H106  1  0.375570  0.516630  0.837330  1.0  0.097
  H  H107  1  0.103260  0.720090  0.952590  1.0  0.0905
  H  H108  1  0.180870  0.678560  0.278060  1.0  0.0964
  H  H109  1  0.015960  0.840120  0.079600  1.0  0.0996
  H  H110  1  0.068650  0.774130  0.211150  1.0  0.0993
  H  H111  1  0.042230  0.849970  0.170670  1.0  0.0959
  H  H112  1  0.283490  0.230070  0.285920  1.0  0.0893
  H  H113  1  0.164350  0.152460  0.611390  1.0  0.0963
  H  H114  1  0.490820  0.317370  0.412930  1.0  0.1004
  H  H115  1  0.372140  0.264680  0.544480  1.0  0.0993
  H  H116  1  0.474400  0.291100  0.504000  1.0  0.0971
  H  H117  1  0.950160  0.563400  0.619250  1.0  0.0893
  H  H118  1  0.831020  0.485790  0.944720  1.0  0.0941
  H  H119  1  0.157490  0.650700  0.746260  1.0  0.0985
  H  H120  1  0.038810  0.598010  0.877810  1.0  0.0989
  H  H121  1  0.141070  0.624430  0.837330  1.0  0.0961
  H  H122  1  0.616820  0.896740  0.952590  1.0  0.0893
  H  H123  1  0.497680  0.819130  0.278060  1.0  0.0958
  H  H124  1  0.824150  0.984040  0.079600  1.0  0.1004
  H  H125  1  0.705470  0.931350  0.211150  1.0  0.0993
  H  H126  1  0.807730  0.957770  0.170670  1.0  0.0971
  H  H127  1  0.283490  0.053420  0.285920  1.0  0.0901
  H  H128  1  0.164350  0.011890  0.611390  1.0  0.0954
  H  H129  1  0.490820  0.173450  0.412930  1.0  0.101
  H  H130  1  0.372140  0.107460  0.544480  1.0  0.0993
  H  H131  1  0.474400  0.183300  0.504000  1.0  0.0967
  H  H132  1  0.950160  0.386750  0.619250  1.0  0.0901
  H  H133  1  0.831020  0.345220  0.944720  1.0  0.0964
  H  H134  1  0.157490  0.506780  0.746260  1.0  0.0999
  H  H135  1  0.038810  0.440790  0.877810  1.0  0.0998
  H  H136  1  0.141070  0.516630  0.837330  1.0  0.0968
  H  H137  1  0.616820  0.720090  0.952590  1.0  0.0901
  H  H138  1  0.497680  0.678560  0.278060  1.0  0.0969
  H  H139  1  0.824150  0.840120  0.079600  1.0  0.101
  H  H140  1  0.705470  0.774130  0.211150  1.0  0.0994
  H  H141  1  0.807730  0.849970  0.170670  1.0  0.0968
  H  H142  1  0.946580  0.230070  0.285920  1.0  0.0901
  H  H143  1  0.988110  0.152460  0.611390  1.0  0.0963
  H  H144  1  0.826550  0.317370  0.412930  1.0  0.1004
  H  H145  1  0.892540  0.264680  0.544480  1.0  0.0994
  H  H146  1  0.816700  0.291100  0.504000  1.0  0.0967
  H  H147  1  0.613250  0.563400  0.619250  1.0  0.0901
  H  H148  1  0.654780  0.485790  0.944720  1.0  0.0963
  H  H149  1  0.493220  0.650700  0.746260  1.0  0.1004
  H  H150  1  0.559210  0.598010  0.877810  1.0  0.0994
  H  H151  1  0.483370  0.624430  0.837330  1.0  0.0967
  H  H152  1  0.279910  0.896740  0.952590  1.0  0.0901
  H  H153  1  0.321440  0.819130  0.278060  1.0  0.0962
  H  H154  1  0.159880  0.984040  0.079600  1.0  0.099
  H  H155  1  0.225870  0.931350  0.211150  1.0  0.0994
  H  H156  1  0.150030  0.957770  0.170670  1.0  0.096
  H  H157  1  0.769930  0.716510  0.285920  1.0  0.0893
  H  H158  1  0.847540  0.835650  0.611390  1.0  0.0963
  H  H159  1  0.682630  0.509180  0.412930  1.0  0.1029
  H  H160  1  0.735320  0.627860  0.544480  1.0  0.0993
  H  H161  1  0.708900  0.525600  0.504000  1.0  0.0984
  H  H162  1  0.436600  0.049840  0.619250  1.0  0.0893
  H  H163  1  0.514210  0.168980  0.944720  1.0  0.0941
  H  H164  1  0.349300  0.842510  0.746260  1.0  0.1002
  H  H165  1  0.401990  0.961190  0.877810  1.0  0.0993
  H  H166  1  0.375570  0.858930  0.837330  1.0  0.0971
  H  H167  1  0.103260  0.383180  0.952590  1.0  0.0893
  H  H168  1  0.180870  0.502320  0.278060  1.0  0.0958
  H  H169  1  0.015960  0.175850  0.079600  1.0  0.1029
  H  H170  1  0.068650  0.294530  0.211150  1.0  0.0993
  H  H171  1  0.042230  0.192270  0.170670  1.0  0.0984
  H  H172  1  0.053420  0.283490  0.714080  1.0  0.0898
  H  H173  1  0.011890  0.164350  0.388610  1.0  0.0948
  H  H174  1  0.173450  0.490820  0.587070  1.0  0.1027
  H  H175  1  0.107460  0.372140  0.455520  1.0  0.0999
  H  H176  1  0.183300  0.474400  0.496000  1.0  0.0972
  H  H177  1  0.720090  0.616820  0.047410  1.0  0.0898
  H  H178  1  0.678560  0.497680  0.721940  1.0  0.0961
  H  H179  1  0.840120  0.824150  0.920400  1.0  0.1027
  H  H180  1  0.774130  0.705470  0.788850  1.0  0.1
  H  H181  1  0.849970  0.807730  0.829330  1.0  0.0977
  H  H182  1  0.386750  0.950160  0.380750  1.0  0.0898
  H  H183  1  0.345220  0.831020  0.055280  1.0  0.0958
  H  H184  1  0.506780  0.157490  0.253740  1.0  0.1011
  H  H185  1  0.440790  0.038810  0.122190  1.0  0.0999
  H  H186  1  0.516630  0.141070  0.162670  1.0  0.0975
  H  H187  1  0.230070  0.946580  0.714080  1.0  0.09
  H  H188  1  0.152460  0.988110  0.388610  1.0  0.0961
  H  H189  1  0.317370  0.826550  0.587070  1.0  0.1013
  H  H190  1  0.264680  0.892540  0.455520  1.0  0.1002
  H  H191  1  0.291100  0.816700  0.496000  1.0  0.0969
  H  H192  1  0.896740  0.279910  0.047410  1.0  0.09
  H  H193  1  0.819130  0.321440  0.721940  1.0  0.096
  H  H194  1  0.984040  0.159880  0.920400  1.0  0.0999
  H  H195  1  0.931350  0.225870  0.788850  1.0  0.1002
  H  H196  1  0.957770  0.150030  0.829330  1.0  0.0961
  H  H197  1  0.563400  0.613250  0.380750  1.0  0.09
  H  H198  1  0.485790  0.654780  0.055280  1.0  0.0961
  H  H199  1  0.650700  0.493220  0.253740  1.0  0.1013
  H  H200  1  0.598010  0.559210  0.122190  1.0  0.1002
  H  H201  1  0.624430  0.483370  0.162670  1.0  0.0969
  H  H202  1  0.716510  0.769930  0.714080  1.0  0.0902
  H  H203  1  0.835650  0.847540  0.388610  1.0  0.0962
  H  H204  1  0.509180  0.682630  0.587070  1.0  0.1005
  H  H205  1  0.627860  0.735320  0.455520  1.0  0.0994
  H  H206  1  0.525600  0.708900  0.496000  1.0  0.0963
  H  H207  1  0.383180  0.103260  0.047410  1.0  0.0903
  H  H208  1  0.502320  0.180870  0.721940  1.0  0.0959
  H  H209  1  0.175850  0.015960  0.920400  1.0  0.1005
  H  H210  1  0.294530  0.068650  0.788850  1.0  0.0994
  H  H211  1  0.192270  0.042230  0.829330  1.0  0.0963
  H  H212  1  0.049840  0.436600  0.380750  1.0  0.0903
  H  H213  1  0.168980  0.514210  0.055280  1.0  0.0942
  H  H214  1  0.842510  0.349300  0.253740  1.0  0.0982
  H  H215  1  0.961190  0.401990  0.122190  1.0  0.0995
  H  H216  1  0.858930  0.375570  0.162670  1.0  0.0956
  H  H217  1  0.768990  0.884500  0.735100  1.0  0.0953
  H  H218  1  0.435660  0.217830  0.068430  1.0  0.0953
  H  H219  1  0.102320  0.551160  0.401770  1.0  0.0953
  H  H220  1  0.115500  0.884500  0.735100  1.0  0.0957
  H  H221  1  0.782170  0.217830  0.068430  1.0  0.0956
  H  H222  1  0.448840  0.551160  0.401770  1.0  0.0966
  H  H223  1  0.115500  0.231010  0.735100  1.0  0.0964
  H  H224  1  0.782170  0.564340  0.068430  1.0  0.0964
  H  H225  1  0.448840  0.897680  0.401770  1.0  0.0964
  H  H226  1  0.884500  0.768990  0.264900  1.0  0.0966
  H  H227  1  0.551160  0.102320  0.598230  1.0  0.0966
  H  H228  1  0.217830  0.435660  0.931570  1.0  0.0966
  H  H229  1  0.884500  0.115500  0.264900  1.0  0.0956
  H  H230  1  0.551160  0.448840  0.598230  1.0  0.0964
  H  H231  1  0.217830  0.782170  0.931570  1.0  0.0956
  H  H232  1  0.231010  0.115500  0.264900  1.0  0.0958
  H  H233  1  0.897680  0.448840  0.598230  1.0  0.0958
  H  H234  1  0.564340  0.782170  0.931570  1.0  0.0958
  H  H235  1  0.938340  0.061660  0.348140  1.0  0.0984
  H  H236  1  0.605000  0.395000  0.681470  1.0  0.1052
  H  H237  1  0.271670  0.728330  0.014810  1.0  0.0973
  H  H238  1  0.938340  0.876670  0.348140  1.0  0.105
  H  H239  1  0.605000  0.210000  0.681470  1.0  0.0972
  H  H240  1  0.271670  0.543340  0.014810  1.0  0.0969
  H  H241  1  0.123330  0.061660  0.348140  1.0  0.1042
  H  H242  1  0.790000  0.395000  0.681470  1.0  0.0969
  H  H243  1  0.456660  0.728330  0.014810  1.0  0.0967
  H  H244  1  0.061660  0.938340  0.651860  1.0  0.0981
  H  H245  1  0.728330  0.271670  0.985190  1.0  0.0972
  H  H246  1  0.395000  0.605000  0.318530  1.0  0.1058
  H  H247  1  0.876670  0.938340  0.651860  1.0  0.1051
  H  H248  1  0.543340  0.271670  0.985190  1.0  0.0975
  H  H249  1  0.210000  0.605000  0.318530  1.0  0.0973
  H  H250  1  0.061660  0.123330  0.651860  1.0  0.1054
  H  H251  1  0.728330  0.456660  0.985190  1.0  0.0967
  H  H252  1  0.395000  0.790000  0.318530  1.0  0.0967
  C  C253  1  0.695190  0.900230  0.705600  1.0  0.1581
  C  C254  1  0.865530  0.029580  0.405190  1.0  0.1279
  C  C255  1  0.550520  0.857210  0.570700  1.0  0.1317
  C  C256  1  0.621230  0.896530  0.492350  1.0  0.1258
  C  C257  1  0.662570  0.953430  0.576720  1.0  0.4798
  C  C258  1  0.560310  0.851350  0.516460  1.0  -0.1259
  C  C259  1  0.361860  0.233560  0.038930  1.0  0.1582
  C  C260  1  0.532200  0.362910  0.738520  1.0  0.1278
  C  C261  1  0.217190  0.190540  0.904030  1.0  0.1318
  C  C262  1  0.287900  0.229860  0.825680  1.0  0.1258
  C  C263  1  0.329240  0.286760  0.910050  1.0  0.4798
  C  C264  1  0.226980  0.184680  0.849790  1.0  -0.1258
  C  C265  1  0.028520  0.566900  0.372270  1.0  0.1581
  C  C266  1  0.198860  0.696250  0.071860  1.0  0.1279
  C  C267  1  0.883850  0.523880  0.237370  1.0  0.1317
  C  C268  1  0.954560  0.563200  0.159020  1.0  0.1258
  C  C269  1  0.995900  0.620100  0.243390  1.0  0.4798
  C  C270  1  0.893640  0.518020  0.183130  1.0  -0.1259
  C  C271  1  0.099770  0.794960  0.705600  1.0  0.1588
  C  C272  1  0.970420  0.835950  0.405190  1.0  0.1302
  C  C273  1  0.142790  0.693310  0.570700  1.0  0.132
  C  C274  1  0.103470  0.724700  0.492350  1.0  0.1264
  C  C275  1  0.046570  0.709140  0.576720  1.0  0.4803
  C  C276  1  0.148650  0.708960  0.516460  1.0  -0.1273
  C  C277  1  0.766440  0.128290  0.038930  1.0  0.1588
  C  C278  1  0.637090  0.169280  0.738520  1.0  0.1302
  C  C279  1  0.809460  0.026640  0.904030  1.0  0.1327
  C  C280  1  0.770140  0.058030  0.825680  1.0  0.1264
  C  C281  1  0.713240  0.042470  0.910050  1.0  0.4803
  C  C282  1  0.815320  0.042290  0.849790  1.0  -0.1273
  C  C283  1  0.433100  0.461630  0.372270  1.0  0.1588
  C  C284  1  0.303750  0.502620  0.071860  1.0  0.1302
  C  C285  1  0.476120  0.359980  0.237370  1.0  0.132
  C  C286  1  0.436800  0.391370  0.159020  1.0  0.1264
  C  C287  1  0.379900  0.375810  0.243390  1.0  0.4803
  C  C288  1  0.481980  0.375630  0.183130  1.0  -0.1273
  C  C289  1  0.205040  0.304810  0.705600  1.0  0.159
  C  C290  1  0.164050  0.134470  0.405190  1.0  0.1306
  C  C291  1  0.306690  0.449480  0.570700  1.0  0.1284
  C  C292  1  0.275300  0.378770  0.492350  1.0  0.1273
  C  C293  1  0.290860  0.337430  0.576720  1.0  0.4801
  C  C294  1  0.291040  0.439690  0.516460  1.0  -0.1255
  C  C295  1  0.871710  0.638140  0.038930  1.0  0.159
  C  C296  1  0.830720  0.467800  0.738520  1.0  0.1306
  C  C297  1  0.973360  0.782810  0.904030  1.0  0.1284
  C  C298  1  0.941970  0.712100  0.825680  1.0  0.1273
  C  C299  1  0.957530  0.670760  0.910050  1.0  0.4801
  C  C300  1  0.957710  0.773020  0.849790  1.0  -0.1255
  C  C301  1  0.538370  0.971480  0.372270  1.0  0.1587
  C  C302  1  0.497380  0.801140  0.071860  1.0  0.1306
  C  C303  1  0.640020  0.116150  0.237370  1.0  0.1284
  C  C304  1  0.608630  0.045440  0.159020  1.0  0.1273
  C  C305  1  0.624190  0.004100  0.243390  1.0  0.4801
  C  C306  1  0.624370  0.106360  0.183130  1.0  -0.1255
  C  C307  1  0.900230  0.695190  0.294400  1.0  0.1583
  C  C308  1  0.029580  0.865530  0.594810  1.0  0.131
  C  C309  1  0.857210  0.550520  0.429300  1.0  0.1306
  C  C310  1  0.896530  0.621230  0.507650  1.0  0.127
  C  C311  1  0.953430  0.662570  0.423280  1.0  0.4807
  C  C312  1  0.851350  0.560310  0.483540  1.0  -0.1292
  C  C313  1  0.566900  0.028520  0.627730  1.0  0.1583
  C  C314  1  0.696250  0.198860  0.928140  1.0  0.131
  C  C315  1  0.523880  0.883850  0.762630  1.0  0.1306
  C  C316  1  0.563200  0.954560  0.840980  1.0  0.127
  C  C317  1  0.620100  0.995900  0.756610  1.0  0.4807
  C  C318  1  0.518020  0.893640  0.816870  1.0  -0.1292
  C  C319  1  0.233560  0.361860  0.961070  1.0  0.1583
  C  C320  1  0.362910  0.532200  0.261480  1.0  0.131
  C  C321  1  0.190540  0.217190  0.095970  1.0  0.13
  C  C322  1  0.229860  0.287900  0.174320  1.0  0.127
  C  C323  1  0.286760  0.329240  0.089950  1.0  0.4807
  C  C324  1  0.184680  0.226980  0.150210  1.0  -0.1291
  C  C325  1  0.794960  0.099770  0.294400  1.0  0.1565
  C  C326  1  0.835950  0.970420  0.594810  1.0  0.1289
  C  C327  1  0.693310  0.142790  0.429300  1.0  0.1313
  C  C328  1  0.724700  0.103470  0.507650  1.0  0.1252
  C  C329  1  0.709140  0.046570  0.423280  1.0  0.4799
  C  C330  1  0.708960  0.148650  0.483540  1.0  -0.1276
  C  C331  1  0.461630  0.433100  0.627730  1.0  0.1565
  C  C332  1  0.502620  0.303750  0.928140  1.0  0.1289
  C  C333  1  0.359980  0.476120  0.762630  1.0  0.1313
  C  C334  1  0.391370  0.436800  0.840980  1.0  0.1252
  C  C335  1  0.375810  0.379900  0.756610  1.0  0.4799
  C  C336  1  0.375630  0.481980  0.816870  1.0  -0.1275
  C  C337  1  0.128290  0.766440  0.961070  1.0  0.1565
  C  C338  1  0.169280  0.637090  0.261480  1.0  0.1289
  C  C339  1  0.026640  0.809460  0.095970  1.0  0.1315
  C  C340  1  0.058030  0.770140  0.174320  1.0  0.1252
  C  C341  1  0.042470  0.713240  0.089950  1.0  0.4799
  C  C342  1  0.042290  0.815320  0.150210  1.0  -0.1275
  C  C343  1  0.304810  0.205040  0.294400  1.0  0.1586
  C  C344  1  0.134470  0.164050  0.594810  1.0  0.131
  C  C345  1  0.449480  0.306690  0.429300  1.0  0.1317
  C  C346  1  0.378770  0.275300  0.507650  1.0  0.1263
  C  C347  1  0.337430  0.290860  0.423280  1.0  0.4808
  C  C348  1  0.439690  0.291040  0.483540  1.0  -0.1272
  C  C349  1  0.971480  0.538370  0.627730  1.0  0.1583
  C  C350  1  0.801140  0.497380  0.928140  1.0  0.131
  C  C351  1  0.116150  0.640020  0.762630  1.0  0.1317
  C  C352  1  0.045440  0.608630  0.840980  1.0  0.1263
  C  C353  1  0.004100  0.624190  0.756610  1.0  0.4808
  C  C354  1  0.106360  0.624370  0.816870  1.0  -0.1272
  C  C355  1  0.638140  0.871710  0.961070  1.0  0.1586
  C  C356  1  0.467800  0.830720  0.261480  1.0  0.131
  C  C357  1  0.782810  0.973360  0.095970  1.0  0.1317
  C  C358  1  0.712100  0.941970  0.174320  1.0  0.1263
  C  C359  1  0.670760  0.957530  0.089950  1.0  0.4808
  C  C360  1  0.773020  0.957710  0.150210  1.0  -0.1273
  C  C361  1  0.304810  0.099770  0.294400  1.0  0.1562
  C  C362  1  0.134470  0.970420  0.594810  1.0  0.1276
  C  C363  1  0.449480  0.142790  0.429300  1.0  0.1315
  C  C364  1  0.378770  0.103470  0.507650  1.0  0.1256
  C  C365  1  0.337430  0.046570  0.423280  1.0  0.4794
  C  C366  1  0.439690  0.148650  0.483540  1.0  -0.1303
  C  C367  1  0.971480  0.433100  0.627730  1.0  0.1562
  C  C368  1  0.801140  0.303750  0.928140  1.0  0.1276
  C  C369  1  0.116150  0.476120  0.762630  1.0  0.1315
  C  C370  1  0.045440  0.436800  0.840980  1.0  0.1256
  C  C371  1  0.004100  0.379900  0.756610  1.0  0.4794
  C  C372  1  0.106360  0.481980  0.816870  1.0  -0.1303
  C  C373  1  0.638140  0.766440  0.961070  1.0  0.1562
  C  C374  1  0.467800  0.637090  0.261480  1.0  0.1276
  C  C375  1  0.782810  0.809460  0.095970  1.0  0.1304
  C  C376  1  0.712100  0.770140  0.174320  1.0  0.1256
  C  C377  1  0.670760  0.713240  0.089950  1.0  0.4794
  C  C378  1  0.773020  0.815320  0.150210  1.0  -0.1303
  C  C379  1  0.900230  0.205040  0.294400  1.0  0.1577
  C  C380  1  0.029580  0.164050  0.594810  1.0  0.1298
  C  C381  1  0.857210  0.306690  0.429300  1.0  0.1329
  C  C382  1  0.896530  0.275300  0.507650  1.0  0.1253
  C  C383  1  0.953430  0.290860  0.423280  1.0  0.4798
  C  C384  1  0.851350  0.291040  0.483540  1.0  -0.126
  C  C385  1  0.566900  0.538370  0.627730  1.0  0.1577
  C  C386  1  0.696250  0.497380  0.928140  1.0  0.1298
  C  C387  1  0.523880  0.640020  0.762630  1.0  0.1329
  C  C388  1  0.563200  0.608630  0.840980  1.0  0.1253
  C  C389  1  0.620100  0.624190  0.756610  1.0  0.4798
  C  C390  1  0.518020  0.624370  0.816870  1.0  -0.1259
  C  C391  1  0.233560  0.871710  0.961070  1.0  0.1577
  C  C392  1  0.362910  0.830720  0.261480  1.0  0.1298
  C  C393  1  0.190540  0.973360  0.095970  1.0  0.1333
  C  C394  1  0.229860  0.941970  0.174320  1.0  0.1253
  C  C395  1  0.286760  0.957530  0.089950  1.0  0.4797
  C  C396  1  0.184680  0.957710  0.150210  1.0  -0.1259
  C  C397  1  0.794960  0.695190  0.294400  1.0  0.1574
  C  C398  1  0.835950  0.865530  0.594810  1.0  0.1312
  C  C399  1  0.693310  0.550520  0.429300  1.0  0.1304
  C  C400  1  0.724700  0.621230  0.507650  1.0  0.1279
  C  C401  1  0.709140  0.662570  0.423280  1.0  0.4802
  C  C402  1  0.708960  0.560310  0.483540  1.0  -0.1295
  C  C403  1  0.461630  0.028520  0.627730  1.0  0.1571
  C  C404  1  0.502620  0.198860  0.928140  1.0  0.1312
  C  C405  1  0.359980  0.883850  0.762630  1.0  0.1304
  C  C406  1  0.391370  0.954560  0.840980  1.0  0.1279
  C  C407  1  0.375810  0.995900  0.756610  1.0  0.4802
  C  C408  1  0.375630  0.893640  0.816870  1.0  -0.1295
  C  C409  1  0.128290  0.361860  0.961070  1.0  0.1574
  C  C410  1  0.169280  0.532200  0.261480  1.0  0.1312
  C  C411  1  0.026640  0.217190  0.095970  1.0  0.1304
  C  C412  1  0.058030  0.287900  0.174320  1.0  0.1279
  C  C413  1  0.042470  0.329240  0.089950  1.0  0.4802
  C  C414  1  0.042290  0.226980  0.150210  1.0  -0.1296
  C  C415  1  0.099770  0.304810  0.705600  1.0  0.1579
  C  C416  1  0.970420  0.134470  0.405190  1.0  0.1313
  C  C417  1  0.142790  0.449480  0.570700  1.0  0.1299
  C  C418  1  0.103470  0.378770  0.492350  1.0  0.1275
  C  C419  1  0.046570  0.337430  0.576720  1.0  0.4792
  C  C420  1  0.148650  0.439690  0.516460  1.0  -0.1252
  C  C421  1  0.766440  0.638140  0.038930  1.0  0.158
  C  C422  1  0.637090  0.467800  0.738520  1.0  0.1313
  C  C423  1  0.809460  0.782810  0.904030  1.0  0.1294
  C  C424  1  0.770140  0.712100  0.825680  1.0  0.1275
  C  C425  1  0.713240  0.670760  0.910050  1.0  0.4792
  C  C426  1  0.815320  0.773020  0.849790  1.0  -0.1251
  C  C427  1  0.433100  0.971480  0.372270  1.0  0.1579
  C  C428  1  0.303750  0.801140  0.071860  1.0  0.1313
  C  C429  1  0.476120  0.116150  0.237370  1.0  0.1299
  C  C430  1  0.436800  0.045440  0.159020  1.0  0.1275
  C  C431  1  0.379900  0.004100  0.243390  1.0  0.4792
  C  C432  1  0.481980  0.106360  0.183130  1.0  -0.1252
  C  C433  1  0.205040  0.900230  0.705600  1.0  0.1573
  C  C434  1  0.164050  0.029580  0.405190  1.0  0.1269
  C  C435  1  0.306690  0.857210  0.570700  1.0  0.1311
  C  C436  1  0.275300  0.896530  0.492350  1.0  0.126
  C  C437  1  0.290860  0.953430  0.576720  1.0  0.4793
  C  C438  1  0.291040  0.851350  0.516460  1.0  -0.1287
  C  C439  1  0.871710  0.233560  0.038930  1.0  0.1573
  C  C440  1  0.830720  0.362910  0.738520  1.0  0.1269
  C  C441  1  0.973360  0.190540  0.904030  1.0  0.1316
  C  C442  1  0.941970  0.229860  0.825680  1.0  0.126
  C  C443  1  0.957530  0.286760  0.910050  1.0  0.4793
  C  C444  1  0.957710  0.184680  0.849790  1.0  -0.1286
  C  C445  1  0.538370  0.566900  0.372270  1.0  0.1573
  C  C446  1  0.497380  0.696250  0.071860  1.0  0.1269
  C  C447  1  0.640020  0.523880  0.237370  1.0  0.1311
  C  C448  1  0.608630  0.563200  0.159020  1.0  0.126
  C  C449  1  0.624190  0.620100  0.243390  1.0  0.4793
  C  C450  1  0.624370  0.518020  0.183130  1.0  -0.1286
  C  C451  1  0.695190  0.794960  0.705600  1.0  0.1582
  C  C452  1  0.865530  0.835950  0.405190  1.0  0.129
  C  C453  1  0.550520  0.693310  0.570700  1.0  0.1335
  C  C454  1  0.621230  0.724700  0.492350  1.0  0.1266
  C  C455  1  0.662570  0.709140  0.576720  1.0  0.4795
  C  C456  1  0.560310  0.708960  0.516460  1.0  -0.1251
  C  C457  1  0.361860  0.128290  0.038930  1.0  0.1582
  C  C458  1  0.532200  0.169280  0.738520  1.0  0.129
  C  C459  1  0.217190  0.026640  0.904030  1.0  0.1335
  C  C460  1  0.287900  0.058030  0.825680  1.0  0.1266
  C  C461  1  0.329240  0.042470  0.910050  1.0  0.4795
  C  C462  1  0.226980  0.042290  0.849790  1.0  -0.1252
  C  C463  1  0.028520  0.461630  0.372270  1.0  0.158
  C  C464  1  0.198860  0.502620  0.071860  1.0  0.129
  C  C465  1  0.883850  0.359980  0.237370  1.0  0.1335
  C  C466  1  0.954560  0.391370  0.159020  1.0  0.1266
  C  C467  1  0.995900  0.375810  0.243390  1.0  0.4795
  C  C468  1  0.893640  0.375630  0.183130  1.0  -0.1251
  C  C469  1  0.601120  0.800560  0.668080  1.0  0.5475
  C  C470  1  0.726440  0.863220  0.718120  1.0  -0.1365
  C  C471  1  0.267790  0.133890  0.001410  1.0  0.5475
  C  C472  1  0.393110  0.196550  0.051450  1.0  -0.1365
  C  C473  1  0.934450  0.467230  0.334750  1.0  0.5475
  C  C474  1  0.059770  0.529890  0.384790  1.0  -0.1364
  C  C475  1  0.199440  0.800560  0.668080  1.0  0.5475
  C  C476  1  0.136780  0.863220  0.718120  1.0  -0.1393
  C  C477  1  0.866110  0.133890  0.001410  1.0  0.5459
  C  C478  1  0.803450  0.196550  0.051450  1.0  -0.1393
  C  C479  1  0.532770  0.467230  0.334750  1.0  0.5459
  C  C480  1  0.470110  0.529890  0.384790  1.0  -0.139
  C  C481  1  0.199440  0.398880  0.668080  1.0  0.5497
  C  C482  1  0.136780  0.273560  0.718120  1.0  -0.136
  C  C483  1  0.866110  0.732210  0.001410  1.0  0.5497
  C  C484  1  0.803450  0.606890  0.051450  1.0  -0.1361
  C  C485  1  0.532770  0.065550  0.334750  1.0  0.5497
  C  C486  1  0.470110  0.940230  0.384790  1.0  -0.1359
  C  C487  1  0.800560  0.601120  0.331920  1.0  0.5485
  C  C488  1  0.863220  0.726440  0.281880  1.0  -0.137
  C  C489  1  0.467230  0.934450  0.665250  1.0  0.5485
  C  C490  1  0.529890  0.059770  0.615210  1.0  -0.1368
  C  C491  1  0.133890  0.267790  0.998590  1.0  0.5485
  C  C492  1  0.196550  0.393110  0.948550  1.0  -0.137
  C  C493  1  0.800560  0.199440  0.331920  1.0  0.5463
  C  C494  1  0.863220  0.136780  0.281880  1.0  -0.1389
  C  C495  1  0.467230  0.532770  0.665250  1.0  0.545
  C  C496  1  0.529890  0.470110  0.615210  1.0  -0.1386
  C  C497  1  0.133890  0.866110  0.998590  1.0  0.545
  C  C498  1  0.196550  0.803450  0.948550  1.0  -0.1389
  C  C499  1  0.398880  0.199440  0.331920  1.0  0.5478
  C  C500  1  0.273560  0.136780  0.281880  1.0  -0.1371
  C  C501  1  0.065550  0.532770  0.665250  1.0  0.5478
  C  C502  1  0.940230  0.470110  0.615210  1.0  -0.1369
  C  C503  1  0.732210  0.866110  0.998590  1.0  0.5478
  C  C504  1  0.606890  0.803450  0.948550  1.0  -0.1371
  C  C505  1  0.892230  0.107770  0.478090  1.0  0.4942
  C  C506  1  0.926650  0.073350  0.381070  1.0  -0.1461
  C  C507  1  0.558900  0.441100  0.811420  1.0  0.4942
  C  C508  1  0.593320  0.406680  0.714400  1.0  -0.1464
  C  C509  1  0.225560  0.774440  0.144760  1.0  0.4942
  C  C510  1  0.259980  0.740020  0.047740  1.0  -0.1461
  C  C511  1  0.892230  0.784460  0.478090  1.0  0.4934
  C  C512  1  0.926650  0.853300  0.381070  1.0  -0.1462
  C  C513  1  0.558900  0.117790  0.811420  1.0  0.4934
  C  C514  1  0.593320  0.186630  0.714400  1.0  -0.1475
  C  C515  1  0.225560  0.451130  0.144760  1.0  0.4934
  C  C516  1  0.259980  0.519970  0.047740  1.0  -0.1462
  C  C517  1  0.215540  0.107770  0.478090  1.0  0.4928
  C  C518  1  0.146700  0.073350  0.381070  1.0  -0.1469
  C  C519  1  0.882210  0.441100  0.811420  1.0  0.4928
  C  C520  1  0.813370  0.406680  0.714400  1.0  -0.1479
  C  C521  1  0.548870  0.774440  0.144760  1.0  0.4928
  C  C522  1  0.480030  0.740020  0.047740  1.0  -0.1469
  C  C523  1  0.107770  0.892230  0.521910  1.0  0.4949
  C  C524  1  0.073350  0.926650  0.618930  1.0  -0.1487
  C  C525  1  0.774440  0.225560  0.855240  1.0  0.4949
  C  C526  1  0.740020  0.259980  0.952260  1.0  -0.1487
  C  C527  1  0.441100  0.558900  0.188580  1.0  0.4949
  C  C528  1  0.406680  0.593320  0.285600  1.0  -0.1494
  C  C529  1  0.784460  0.892230  0.521910  1.0  0.4961
  C  C530  1  0.853300  0.926650  0.618930  1.0  -0.1461
  C  C531  1  0.451130  0.225560  0.855240  1.0  0.4961
  C  C532  1  0.519970  0.259980  0.952260  1.0  -0.1461
  C  C533  1  0.117790  0.558900  0.188580  1.0  0.4961
  C  C534  1  0.186630  0.593320  0.285600  1.0  -0.1474
  C  C535  1  0.107770  0.215540  0.521910  1.0  0.4944
  C  C536  1  0.073350  0.146700  0.618930  1.0  -0.1493
  C  C537  1  0.774440  0.548870  0.855240  1.0  0.4944
  C  C538  1  0.740020  0.480030  0.952260  1.0  -0.1493
  C  C539  1  0.441100  0.882210  0.188580  1.0  0.4944
  C  C540  1  0.406680  0.813370  0.285600  1.0  -0.1507
  N  N541  1  0.632370  0.868740  0.680600  1.0  -0.4163
  N  N542  1  0.848220  0.046690  0.453700  1.0  -0.3466
  N  N543  1  0.672360  0.947570  0.522480  1.0  -0.4076
  N  N544  1  0.601650  0.908250  0.600830  1.0  -0.2833
  N  N545  1  0.299040  0.202070  0.013930  1.0  -0.4162
  N  N546  1  0.514890  0.380020  0.787030  1.0  -0.3466
  N  N547  1  0.339030  0.280900  0.855810  1.0  -0.4077
  N  N548  1  0.268320  0.241580  0.934160  1.0  -0.2833
  N  N549  1  0.965700  0.535410  0.347270  1.0  -0.4164
  N  N550  1  0.181550  0.713360  0.120370  1.0  -0.3467
  N  N551  1  0.005690  0.614240  0.189150  1.0  -0.4076
  N  N552  1  0.934980  0.574920  0.267500  1.0  -0.2835
  N  N553  1  0.131260  0.763630  0.680600  1.0  -0.4159
  N  N554  1  0.953310  0.801530  0.453700  1.0  -0.3465
  N  N555  1  0.052430  0.724790  0.522480  1.0  -0.4069
  N  N556  1  0.091750  0.693400  0.600830  1.0  -0.2848
  N  N557  1  0.797930  0.096960  0.013930  1.0  -0.4159
  N  N558  1  0.619980  0.134860  0.787030  1.0  -0.3469
  N  N559  1  0.719100  0.058120  0.855810  1.0  -0.4069
  N  N560  1  0.758420  0.026730  0.934160  1.0  -0.2848
  N  N561  1  0.464590  0.430300  0.347270  1.0  -0.4159
  N  N562  1  0.286640  0.468200  0.120370  1.0  -0.3466
  N  N563  1  0.385760  0.391460  0.189150  1.0  -0.4069
  N  N564  1  0.425080  0.360070  0.267500  1.0  -0.2844
  N  N565  1  0.236370  0.367630  0.680600  1.0  -0.4163
  N  N566  1  0.198470  0.151780  0.453700  1.0  -0.3446
  N  N567  1  0.275210  0.327640  0.522480  1.0  -0.4073
  N  N568  1  0.306600  0.398350  0.600830  1.0  -0.285
  N  N569  1  0.903040  0.700960  0.013930  1.0  -0.4167
  N  N570  1  0.865140  0.485110  0.787030  1.0  -0.3446
  N  N571  1  0.941880  0.660970  0.855810  1.0  -0.4073
  N  N572  1  0.973270  0.731680  0.934160  1.0  -0.285
  N  N573  1  0.569700  0.034300  0.347270  1.0  -0.4165
  N  N574  1  0.531800  0.818450  0.120370  1.0  -0.3446
  N  N575  1  0.608540  0.994310  0.189150  1.0  -0.4073
  N  N576  1  0.639930  0.065020  0.267500  1.0  -0.2849
  N  N577  1  0.868740  0.632370  0.319400  1.0  -0.4169
  N  N578  1  0.046690  0.848220  0.546300  1.0  -0.3455
  N  N579  1  0.947570  0.672360  0.477520  1.0  -0.406
  N  N580  1  0.908250  0.601650  0.399170  1.0  -0.285
  N  N581  1  0.535410  0.965700  0.652730  1.0  -0.417
  N  N582  1  0.713360  0.181550  0.879630  1.0  -0.3456
  N  N583  1  0.614240  0.005690  0.810850  1.0  -0.406
  N  N584  1  0.574920  0.934980  0.732500  1.0  -0.2851
  N  N585  1  0.202070  0.299040  0.986070  1.0  -0.4177
  N  N586  1  0.380020  0.514890  0.212970  1.0  -0.3455
  N  N587  1  0.280900  0.339030  0.144190  1.0  -0.4062
  N  N588  1  0.241580  0.268320  0.065840  1.0  -0.285
  N  N589  1  0.763630  0.131260  0.319400  1.0  -0.4168
  N  N590  1  0.801530  0.953310  0.546300  1.0  -0.3452
  N  N591  1  0.724790  0.052430  0.477520  1.0  -0.4068
  N  N592  1  0.693400  0.091750  0.399170  1.0  -0.2846
  N  N593  1  0.430300  0.464590  0.652730  1.0  -0.4168
  N  N594  1  0.468200  0.286640  0.879630  1.0  -0.3453
  N  N595  1  0.391460  0.385760  0.810850  1.0  -0.4068
  N  N596  1  0.360070  0.425080  0.732500  1.0  -0.2842
  N  N597  1  0.096960  0.797930  0.986070  1.0  -0.4167
  N  N598  1  0.134860  0.619980  0.212970  1.0  -0.3456
  N  N599  1  0.058120  0.719100  0.144190  1.0  -0.4068
  N  N600  1  0.026730  0.758420  0.065840  1.0  -0.2846
  N  N601  1  0.367630  0.236370  0.319400  1.0  -0.4164
  N  N602  1  0.151780  0.198470  0.546300  1.0  -0.3466
  N  N603  1  0.327640  0.275210  0.477520  1.0  -0.4062
  N  N604  1  0.398350  0.306600  0.399170  1.0  -0.2843
  N  N605  1  0.034300  0.569700  0.652730  1.0  -0.4165
  N  N606  1  0.818450  0.531800  0.879630  1.0  -0.3466
  N  N607  1  0.994310  0.608540  0.810850  1.0  -0.4062
  N  N608  1  0.065020  0.639930  0.732500  1.0  -0.2841
  N  N609  1  0.700960  0.903040  0.986070  1.0  -0.4162
  N  N610  1  0.485110  0.865140  0.212970  1.0  -0.3466
  N  N611  1  0.660970  0.941880  0.144190  1.0  -0.4062
  N  N612  1  0.731680  0.973270  0.065840  1.0  -0.2843
  N  N613  1  0.367630  0.131260  0.319400  1.0  -0.4166
  N  N614  1  0.151780  0.953310  0.546300  1.0  -0.3454
  N  N615  1  0.327640  0.052430  0.477520  1.0  -0.4068
  N  N616  1  0.398350  0.091750  0.399170  1.0  -0.2846
  N  N617  1  0.034300  0.464590  0.652730  1.0  -0.4167
  N  N618  1  0.818450  0.286640  0.879630  1.0  -0.3455
  N  N619  1  0.994310  0.385760  0.810850  1.0  -0.4068
  N  N620  1  0.065020  0.425080  0.732500  1.0  -0.2847
  N  N621  1  0.700960  0.797930  0.986070  1.0  -0.4173
  N  N622  1  0.485110  0.619980  0.212970  1.0  -0.3454
  N  N623  1  0.660970  0.719100  0.144190  1.0  -0.4069
  N  N624  1  0.731680  0.758420  0.065840  1.0  -0.2846
  N  N625  1  0.868740  0.236370  0.319400  1.0  -0.4163
  N  N626  1  0.046690  0.198470  0.546300  1.0  -0.3442
  N  N627  1  0.947570  0.275210  0.477520  1.0  -0.4073
  N  N628  1  0.908250  0.306600  0.399170  1.0  -0.2841
  N  N629  1  0.535410  0.569700  0.652730  1.0  -0.4163
  N  N630  1  0.713360  0.531800  0.879630  1.0  -0.3443
  N  N631  1  0.614240  0.608540  0.810850  1.0  -0.4073
  N  N632  1  0.574920  0.639930  0.732500  1.0  -0.2838
  N  N633  1  0.202070  0.903040  0.986070  1.0  -0.4162
  N  N634  1  0.380020  0.865140  0.212970  1.0  -0.3446
  N  N635  1  0.280900  0.941880  0.144190  1.0  -0.4073
  N  N636  1  0.241580  0.973270  0.065840  1.0  -0.2842
  N  N637  1  0.763630  0.632370  0.319400  1.0  -0.4171
  N  N638  1  0.801530  0.848220  0.546300  1.0  -0.3455
  N  N639  1  0.724790  0.672360  0.477520  1.0  -0.4067
  N  N640  1  0.693400  0.601650  0.399170  1.0  -0.285
  N  N641  1  0.430300  0.965700  0.652730  1.0  -0.4172
  N  N642  1  0.468200  0.181550  0.879630  1.0  -0.3455
  N  N643  1  0.391460  0.005690  0.810850  1.0  -0.4067
  N  N644  1  0.360070  0.934980  0.732500  1.0  -0.2848
  N  N645  1  0.096960  0.299040  0.986070  1.0  -0.4174
  N  N646  1  0.134860  0.514890  0.212970  1.0  -0.3455
  N  N647  1  0.058120  0.339030  0.144190  1.0  -0.4067
  N  N648  1  0.026730  0.268320  0.065840  1.0  -0.285
  N  N649  1  0.131260  0.367630  0.680600  1.0  -0.4168
  N  N650  1  0.953310  0.151780  0.453700  1.0  -0.3451
  N  N651  1  0.052430  0.327640  0.522480  1.0  -0.4079
  N  N652  1  0.091750  0.398350  0.600830  1.0  -0.2839
  N  N653  1  0.797930  0.700960  0.013930  1.0  -0.4163
  N  N654  1  0.619980  0.485110  0.787030  1.0  -0.3451
  N  N655  1  0.719100  0.660970  0.855810  1.0  -0.408
  N  N656  1  0.758420  0.731680  0.934160  1.0  -0.2838
  N  N657  1  0.464590  0.034300  0.347270  1.0  -0.4168
  N  N658  1  0.286640  0.818450  0.120370  1.0  -0.3452
  N  N659  1  0.385760  0.994310  0.189150  1.0  -0.4079
  N  N660  1  0.425080  0.065020  0.267500  1.0  -0.2841
  N  N661  1  0.236370  0.868740  0.680600  1.0  -0.4162
  N  N662  1  0.198470  0.046690  0.453700  1.0  -0.346
  N  N663  1  0.275210  0.947570  0.522480  1.0  -0.4079
  N  N664  1  0.306600  0.908250  0.600830  1.0  -0.2842
  N  N665  1  0.903040  0.202070  0.013930  1.0  -0.4161
  N  N666  1  0.865140  0.380020  0.787030  1.0  -0.3464
  N  N667  1  0.941880  0.280900  0.855810  1.0  -0.4079
  N  N668  1  0.973270  0.241580  0.934160  1.0  -0.2843
  N  N669  1  0.569700  0.535410  0.347270  1.0  -0.4162
  N  N670  1  0.531800  0.713360  0.120370  1.0  -0.3461
  N  N671  1  0.608540  0.614240  0.189150  1.0  -0.4079
  N  N672  1  0.639930  0.574920  0.267500  1.0  -0.2839
  N  N673  1  0.632370  0.763630  0.680600  1.0  -0.416
  N  N674  1  0.848220  0.801530  0.453700  1.0  -0.3447
  N  N675  1  0.672360  0.724790  0.522480  1.0  -0.408
  N  N676  1  0.601650  0.693400  0.600830  1.0  -0.2844
  N  N677  1  0.299040  0.096960  0.013930  1.0  -0.4159
  N  N678  1  0.514890  0.134860  0.787030  1.0  -0.3447
  N  N679  1  0.339030  0.058120  0.855810  1.0  -0.408
  N  N680  1  0.268320  0.026730  0.934160  1.0  -0.2844
  N  N681  1  0.965700  0.430300  0.347270  1.0  -0.4161
  N  N682  1  0.181550  0.468200  0.120370  1.0  -0.3447
  N  N683  1  0.005690  0.391460  0.189150  1.0  -0.408
  N  N684  1  0.934980  0.360070  0.267500  1.0  -0.2843
  O  O685  1  0.708240  0.999020  0.603650  1.0  -0.56
  O  O686  1  0.374910  0.332350  0.936980  1.0  -0.56
  O  O687  1  0.041570  0.665690  0.270320  1.0  -0.56
  O  O688  1  0.000980  0.709220  0.603650  1.0  -0.5589
  O  O689  1  0.667650  0.042550  0.936980  1.0  -0.5589
  O  O690  1  0.334310  0.375890  0.270320  1.0  -0.5589
  O  O691  1  0.290780  0.291760  0.603650  1.0  -0.5606
  O  O692  1  0.957450  0.625090  0.936980  1.0  -0.5606
  O  O693  1  0.624110  0.958430  0.270320  1.0  -0.5606
  O  O694  1  0.999020  0.708240  0.396350  1.0  -0.5591
  O  O695  1  0.665690  0.041570  0.729680  1.0  -0.5591
  O  O696  1  0.332350  0.374910  0.063020  1.0  -0.5591
  O  O697  1  0.709220  0.000980  0.396350  1.0  -0.56
  O  O698  1  0.375890  0.334310  0.729680  1.0  -0.56
  O  O699  1  0.042550  0.667650  0.063020  1.0  -0.56
  O  O700  1  0.291760  0.290780  0.396350  1.0  -0.5599
  O  O701  1  0.958430  0.624110  0.729680  1.0  -0.5599
  O  O702  1  0.625090  0.957450  0.063020  1.0  -0.5599
  O  O703  1  0.291760  0.000980  0.396350  1.0  -0.5609
  O  O704  1  0.958430  0.334310  0.729680  1.0  -0.5609
  O  O705  1  0.625090  0.667650  0.063020  1.0  -0.5609
  O  O706  1  0.999020  0.290780  0.396350  1.0  -0.5599
  O  O707  1  0.665690  0.624110  0.729680  1.0  -0.5599
  O  O708  1  0.332350  0.957450  0.063020  1.0  -0.5599
  O  O709  1  0.709220  0.708240  0.396350  1.0  -0.5604
  O  O710  1  0.375890  0.041570  0.729680  1.0  -0.5604
  O  O711  1  0.042550  0.374910  0.063020  1.0  -0.5604
  O  O712  1  0.000980  0.291760  0.603650  1.0  -0.56
  O  O713  1  0.667650  0.625090  0.936980  1.0  -0.56
  O  O714  1  0.334310  0.958430  0.270320  1.0  -0.56
  O  O715  1  0.290780  0.999020  0.603650  1.0  -0.5609
  O  O716  1  0.957450  0.332350  0.936980  1.0  -0.5609
  O  O717  1  0.624110  0.665690  0.270320  1.0  -0.5609
  O  O718  1  0.708240  0.709220  0.603650  1.0  -0.5613
  O  O719  1  0.374910  0.042550  0.936980  1.0  -0.5613
  O  O720  1  0.041570  0.375890  0.270320  1.0  -0.5613
  O  O721  1  0.545130  0.772570  0.645730  1.0  -0.5918
  O  O722  1  0.211800  0.105900  0.979060  1.0  -0.5794
  O  O723  1  0.878460  0.439230  0.312400  1.0  -0.5859
  O  O724  1  0.227440  0.772570  0.645730  1.0  -0.5937
  O  O725  1  0.894100  0.105900  0.979060  1.0  -0.5857
  O  O726  1  0.560770  0.439230  0.312400  1.0  -0.5757
  O  O727  1  0.227430  0.454870  0.645730  1.0  -0.5737
  O  O728  1  0.894100  0.788200  0.979060  1.0  -0.5746
  O  O729  1  0.560770  0.121540  0.312400  1.0  -0.5777
  O  O730  1  0.772570  0.545130  0.354270  1.0  -0.5874
  O  O731  1  0.439230  0.878460  0.687600  1.0  -0.581
  O  O732  1  0.105900  0.211800  0.020940  1.0  -0.5752
  O  O733  1  0.772570  0.227440  0.354270  1.0  -0.5933
  O  O734  1  0.439230  0.560770  0.687600  1.0  -0.5761
  O  O735  1  0.105900  0.894100  0.020940  1.0  -0.5855
  O  O736  1  0.454870  0.227430  0.354270  1.0  -0.5778
  O  O737  1  0.121540  0.560770  0.687600  1.0  -0.5823
  O  O738  1  0.788200  0.894100  0.020940  1.0  -0.5783
  O  O739  1  0.876860  0.123140  0.521430  1.0  -0.6388
  O  O740  1  0.543530  0.456470  0.854760  1.0  -0.6388
  O  O741  1  0.210190  0.789810  0.188100  1.0  -0.6388
  O  O742  1  0.876860  0.753720  0.521430  1.0  -0.6375
  O  O743  1  0.543530  0.087050  0.854760  1.0  -0.6375
  O  O744  1  0.210190  0.420390  0.188100  1.0  -0.6375
  O  O745  1  0.246280  0.123140  0.521430  1.0  -0.6386
  O  O746  1  0.912950  0.456470  0.854760  1.0  -0.6386
  O  O747  1  0.579610  0.789810  0.188100  1.0  -0.6386
  O  O748  1  0.123140  0.876860  0.478570  1.0  -0.6407
  O  O749  1  0.789810  0.210190  0.811900  1.0  -0.6407
  O  O750  1  0.456470  0.543530  0.145240  1.0  -0.6407
  O  O751  1  0.753720  0.876860  0.478570  1.0  -0.6412
  O  O752  1  0.420390  0.210190  0.811900  1.0  -0.6412
  O  O753  1  0.087050  0.543530  0.145240  1.0  -0.6412
  O  O754  1  0.123140  0.246280  0.478570  1.0  -0.6404
  O  O755  1  0.789810  0.579610  0.811900  1.0  -0.6404
  O  O756  1  0.456470  0.912950  0.145240  1.0  -0.6404
