# generated using pymatgen
data_ZnH14C20N4O5
_symmetry_space_group_name_H-M   'P 1'
_cell_length_a   15.11230000
_cell_length_b   19.90690000
_cell_length_c   31.25910000
_cell_angle_alpha   90.00000000
_cell_angle_beta   90.00000000
_cell_angle_gamma   90.00000000
_symmetry_Int_Tables_number   1
_chemical_formula_structural   ZnH14C20N4O5
_chemical_formula_sum   'Zn16 H224 C320 N64 O80'
_cell_volume   9403.95778750
_cell_formula_units_Z   16
loop_
 _symmetry_equiv_pos_site_id
 _symmetry_equiv_pos_as_xyz
  1  'x, y, z'
loop_
 _atom_site_type_symbol
 _atom_site_label
 _atom_site_symmetry_multiplicity
 _atom_site_fract_x
 _atom_site_fract_y
 _atom_site_fract_z
 _atom_site_occupancy
 _atom_site_charge
  Zn  Zn1  1  0.109110  0.195560  0.141870  1.0  0.879
  Zn  Zn2  1  0.609110  0.695560  0.641870  1.0  0.879
  Zn  Zn3  1  0.390890  0.804440  0.641870  1.0  0.8794
  Zn  Zn4  1  0.890890  0.304440  0.141870  1.0  0.8794
  Zn  Zn5  1  0.109110  0.304440  0.641870  1.0  0.8798
  Zn  Zn6  1  0.609110  0.804440  0.141870  1.0  0.8798
  Zn  Zn7  1  0.390890  0.695560  0.141870  1.0  0.8789
  Zn  Zn8  1  0.890890  0.195560  0.641870  1.0  0.8789
  Zn  Zn9  1  0.890890  0.695560  0.358130  1.0  0.8788
  Zn  Zn10  1  0.390890  0.195560  0.858130  1.0  0.8788
  Zn  Zn11  1  0.609110  0.304440  0.858130  1.0  0.8797
  Zn  Zn12  1  0.109110  0.804440  0.358130  1.0  0.8797
  Zn  Zn13  1  0.890890  0.804440  0.858130  1.0  0.8797
  Zn  Zn14  1  0.390890  0.304440  0.358130  1.0  0.8797
  Zn  Zn15  1  0.609110  0.195560  0.358130  1.0  0.8792
  Zn  Zn16  1  0.109110  0.695560  0.858130  1.0  0.8792
  H  H17  1  0.161000  0.277300  0.223800  1.0  0.073
  H  H18  1  0.155900  0.275900  0.297100  1.0  0.1193
  H  H19  1  0.029000  0.100800  0.289900  1.0  0.1181
  H  H20  1  0.038000  0.106700  0.217000  1.0  0.0801
  H  H21  1  0.132600  0.326700  0.420000  1.0  0.1158
  H  H22  1  0.113700  0.390700  0.489200  1.0  0.1176
  H  H23  1  0.106400  0.392600  0.562500  1.0  0.0801
  H  H24  1  0.132300  0.200400  0.566800  1.0  0.0672
  H  H25  1  0.134700  0.192700  0.494000  1.0  0.1262
  H  H26  1  0.236600  0.876000  0.137100  1.0  0.0881
  H  H27  1  0.170900  0.980500  0.137900  1.0  0.1061
  H  H28  1  0.410300  0.066600  0.142400  1.0  0.098
  H  H29  1  0.475900  0.961400  0.140700  1.0  0.0957
  H  H30  1  0.129000  0.275000  0.364200  1.0  0.2445
  H  H31  1  0.661000  0.777300  0.723800  1.0  0.073
  H  H32  1  0.655900  0.775900  0.797100  1.0  0.1193
  H  H33  1  0.529000  0.600800  0.789900  1.0  0.1181
  H  H34  1  0.538000  0.606700  0.717000  1.0  0.0801
  H  H35  1  0.632600  0.826700  0.920000  1.0  0.1158
  H  H36  1  0.613700  0.890700  0.989200  1.0  0.1176
  H  H37  1  0.606400  0.892600  0.062500  1.0  0.0801
  H  H38  1  0.632300  0.700400  0.066800  1.0  0.0672
  H  H39  1  0.634700  0.692700  0.994000  1.0  0.1262
  H  H40  1  0.736600  0.376000  0.637100  1.0  0.0881
  H  H41  1  0.670900  0.480500  0.637900  1.0  0.1061
  H  H42  1  0.910300  0.566600  0.642400  1.0  0.098
  H  H43  1  0.975900  0.461400  0.640700  1.0  0.0957
  H  H44  1  0.629000  0.775000  0.864200  1.0  0.2445
  H  H45  1  0.339000  0.722700  0.723800  1.0  0.0724
  H  H46  1  0.344100  0.724100  0.797100  1.0  0.1183
  H  H47  1  0.471000  0.899200  0.789900  1.0  0.1181
  H  H48  1  0.462000  0.893300  0.717000  1.0  0.0797
  H  H49  1  0.367400  0.673300  0.920000  1.0  0.1156
  H  H50  1  0.386300  0.609300  0.989200  1.0  0.1172
  H  H51  1  0.393600  0.607400  0.062500  1.0  0.0808
  H  H52  1  0.367700  0.799600  0.066800  1.0  0.0666
  H  H53  1  0.365300  0.807300  0.994000  1.0  0.1265
  H  H54  1  0.263400  0.124000  0.637100  1.0  0.0878
  H  H55  1  0.329100  0.019500  0.637900  1.0  0.1062
  H  H56  1  0.089700  0.933400  0.642400  1.0  0.0979
  H  H57  1  0.024100  0.038600  0.640700  1.0  0.0947
  H  H58  1  0.371000  0.725000  0.864200  1.0  0.2451
  H  H59  1  0.839000  0.222700  0.223800  1.0  0.0724
  H  H60  1  0.844100  0.224100  0.297100  1.0  0.1183
  H  H61  1  0.971000  0.399200  0.289900  1.0  0.1181
  H  H62  1  0.962000  0.393300  0.217000  1.0  0.0797
  H  H63  1  0.867400  0.173300  0.420000  1.0  0.1156
  H  H64  1  0.886300  0.109300  0.489200  1.0  0.1172
  H  H65  1  0.893600  0.107400  0.562500  1.0  0.0808
  H  H66  1  0.867700  0.299600  0.566800  1.0  0.0666
  H  H67  1  0.865300  0.307300  0.494000  1.0  0.1265
  H  H68  1  0.763400  0.624000  0.137100  1.0  0.0878
  H  H69  1  0.829100  0.519500  0.137900  1.0  0.1062
  H  H70  1  0.589700  0.433400  0.142400  1.0  0.0979
  H  H71  1  0.524100  0.538600  0.140700  1.0  0.0947
  H  H72  1  0.871000  0.225000  0.364200  1.0  0.2451
  H  H73  1  0.161000  0.222700  0.723800  1.0  0.0725
  H  H74  1  0.155900  0.224100  0.797100  1.0  0.1189
  H  H75  1  0.029000  0.399200  0.789900  1.0  0.1181
  H  H76  1  0.038000  0.393300  0.717000  1.0  0.08
  H  H77  1  0.132600  0.173300  0.920000  1.0  0.1153
  H  H78  1  0.113700  0.109300  0.989200  1.0  0.1175
  H  H79  1  0.106400  0.107400  0.062500  1.0  0.0805
  H  H80  1  0.132300  0.299600  0.066800  1.0  0.0663
  H  H81  1  0.134700  0.307300  0.994000  1.0  0.1259
  H  H82  1  0.236600  0.624000  0.637100  1.0  0.0877
  H  H83  1  0.170900  0.519500  0.637900  1.0  0.1062
  H  H84  1  0.410300  0.433400  0.642400  1.0  0.0979
  H  H85  1  0.475900  0.538600  0.640700  1.0  0.0959
  H  H86  1  0.129000  0.225000  0.864200  1.0  0.2448
  H  H87  1  0.661000  0.722700  0.223800  1.0  0.0725
  H  H88  1  0.655900  0.724100  0.297100  1.0  0.1189
  H  H89  1  0.529000  0.899200  0.289900  1.0  0.1181
  H  H90  1  0.538000  0.893300  0.217000  1.0  0.08
  H  H91  1  0.632600  0.673300  0.420000  1.0  0.1153
  H  H92  1  0.613700  0.609300  0.489200  1.0  0.1175
  H  H93  1  0.606400  0.607400  0.562500  1.0  0.0805
  H  H94  1  0.632300  0.799600  0.566800  1.0  0.0663
  H  H95  1  0.634700  0.807300  0.494000  1.0  0.1259
  H  H96  1  0.736600  0.124000  0.137100  1.0  0.0877
  H  H97  1  0.670900  0.019500  0.137900  1.0  0.1062
  H  H98  1  0.910300  0.933400  0.142400  1.0  0.0979
  H  H99  1  0.975900  0.038600  0.140700  1.0  0.0959
  H  H100  1  0.629000  0.725000  0.364200  1.0  0.2448
  H  H101  1  0.339000  0.777300  0.223800  1.0  0.0727
  H  H102  1  0.344100  0.775900  0.297100  1.0  0.1189
  H  H103  1  0.471000  0.600800  0.289900  1.0  0.1181
  H  H104  1  0.462000  0.606700  0.217000  1.0  0.0803
  H  H105  1  0.367400  0.826700  0.420000  1.0  0.116
  H  H106  1  0.386300  0.890700  0.489200  1.0  0.1174
  H  H107  1  0.393600  0.892600  0.562500  1.0  0.0803
  H  H108  1  0.367700  0.700400  0.566800  1.0  0.0673
  H  H109  1  0.365300  0.692700  0.494000  1.0  0.1267
  H  H110  1  0.263400  0.376000  0.137100  1.0  0.0883
  H  H111  1  0.329100  0.480500  0.137900  1.0  0.1061
  H  H112  1  0.089700  0.566600  0.142400  1.0  0.098
  H  H113  1  0.024100  0.461400  0.140700  1.0  0.0948
  H  H114  1  0.371000  0.775000  0.364200  1.0  0.2449
  H  H115  1  0.839000  0.277300  0.723800  1.0  0.0727
  H  H116  1  0.844100  0.275900  0.797100  1.0  0.1189
  H  H117  1  0.971000  0.100800  0.789900  1.0  0.1181
  H  H118  1  0.962000  0.106700  0.717000  1.0  0.0803
  H  H119  1  0.867400  0.326700  0.920000  1.0  0.116
  H  H120  1  0.886300  0.390700  0.989200  1.0  0.1174
  H  H121  1  0.893600  0.392600  0.062500  1.0  0.0803
  H  H122  1  0.867700  0.200400  0.066800  1.0  0.0673
  H  H123  1  0.865300  0.192700  0.994000  1.0  0.1267
  H  H124  1  0.763400  0.876000  0.637100  1.0  0.0883
  H  H125  1  0.829100  0.980500  0.637900  1.0  0.1061
  H  H126  1  0.589700  0.066600  0.642400  1.0  0.098
  H  H127  1  0.524100  0.961400  0.640700  1.0  0.0948
  H  H128  1  0.871000  0.275000  0.864200  1.0  0.2449
  H  H129  1  0.839000  0.777300  0.276200  1.0  0.0727
  H  H130  1  0.844100  0.775900  0.202900  1.0  0.1192
  H  H131  1  0.971000  0.600800  0.210100  1.0  0.1182
  H  H132  1  0.962000  0.606700  0.283000  1.0  0.0803
  H  H133  1  0.867400  0.826700  0.080000  1.0  0.1159
  H  H134  1  0.886300  0.890700  0.010800  1.0  0.1166
  H  H135  1  0.893600  0.892600  0.937500  1.0  0.0806
  H  H136  1  0.867700  0.700400  0.933200  1.0  0.0668
  H  H137  1  0.865300  0.692700  0.006000  1.0  0.127
  H  H138  1  0.763400  0.376000  0.362900  1.0  0.0882
  H  H139  1  0.829100  0.480500  0.362100  1.0  0.1062
  H  H140  1  0.589700  0.566600  0.357600  1.0  0.0979
  H  H141  1  0.524100  0.461400  0.359300  1.0  0.095
  H  H142  1  0.871000  0.775000  0.135800  1.0  0.2451
  H  H143  1  0.339000  0.277300  0.776200  1.0  0.0727
  H  H144  1  0.344100  0.275900  0.702900  1.0  0.1192
  H  H145  1  0.471000  0.100800  0.710100  1.0  0.1182
  H  H146  1  0.462000  0.106700  0.783000  1.0  0.0803
  H  H147  1  0.367400  0.326700  0.580000  1.0  0.1159
  H  H148  1  0.386300  0.390700  0.510800  1.0  0.1166
  H  H149  1  0.393600  0.392600  0.437500  1.0  0.0806
  H  H150  1  0.367700  0.200400  0.433200  1.0  0.0668
  H  H151  1  0.365300  0.192700  0.506000  1.0  0.127
  H  H152  1  0.263400  0.876000  0.862900  1.0  0.0882
  H  H153  1  0.329100  0.980500  0.862100  1.0  0.1062
  H  H154  1  0.089700  0.066600  0.857600  1.0  0.0979
  H  H155  1  0.024100  0.961400  0.859300  1.0  0.095
  H  H156  1  0.371000  0.275000  0.635800  1.0  0.2451
  H  H157  1  0.661000  0.222700  0.776200  1.0  0.0728
  H  H158  1  0.655900  0.224100  0.702900  1.0  0.1189
  H  H159  1  0.529000  0.399200  0.710100  1.0  0.1184
  H  H160  1  0.538000  0.393300  0.783000  1.0  0.0797
  H  H161  1  0.632600  0.173300  0.580000  1.0  0.1154
  H  H162  1  0.613700  0.109300  0.510800  1.0  0.1175
  H  H163  1  0.606400  0.107400  0.437500  1.0  0.0806
  H  H164  1  0.632300  0.299600  0.433200  1.0  0.0659
  H  H165  1  0.634700  0.307300  0.506000  1.0  0.1257
  H  H166  1  0.736600  0.624000  0.862900  1.0  0.0882
  H  H167  1  0.670900  0.519500  0.862100  1.0  0.1064
  H  H168  1  0.910300  0.433400  0.857600  1.0  0.0978
  H  H169  1  0.975900  0.538600  0.859300  1.0  0.0959
  H  H170  1  0.629000  0.225000  0.635800  1.0  0.2458
  H  H171  1  0.161000  0.722700  0.276200  1.0  0.0728
  H  H172  1  0.155900  0.724100  0.202900  1.0  0.1189
  H  H173  1  0.029000  0.899200  0.210100  1.0  0.1184
  H  H174  1  0.038000  0.893300  0.283000  1.0  0.0797
  H  H175  1  0.132600  0.673300  0.080000  1.0  0.1154
  H  H176  1  0.113700  0.609300  0.010800  1.0  0.1175
  H  H177  1  0.106400  0.607400  0.937500  1.0  0.0806
  H  H178  1  0.132300  0.799600  0.933200  1.0  0.0659
  H  H179  1  0.134700  0.807300  0.006000  1.0  0.1257
  H  H180  1  0.236600  0.124000  0.362900  1.0  0.0882
  H  H181  1  0.170900  0.019500  0.362100  1.0  0.1064
  H  H182  1  0.410300  0.933400  0.357600  1.0  0.0978
  H  H183  1  0.475900  0.038600  0.359300  1.0  0.0959
  H  H184  1  0.129000  0.725000  0.135800  1.0  0.2458
  H  H185  1  0.839000  0.722700  0.776200  1.0  0.0725
  H  H186  1  0.844100  0.724100  0.702900  1.0  0.1184
  H  H187  1  0.971000  0.899200  0.710100  1.0  0.1182
  H  H188  1  0.962000  0.893300  0.783000  1.0  0.0799
  H  H189  1  0.867400  0.673300  0.580000  1.0  0.1155
  H  H190  1  0.886300  0.609300  0.510800  1.0  0.1172
  H  H191  1  0.893600  0.607400  0.437500  1.0  0.0807
  H  H192  1  0.867700  0.799600  0.433200  1.0  0.0663
  H  H193  1  0.865300  0.807300  0.506000  1.0  0.126
  H  H194  1  0.763400  0.124000  0.862900  1.0  0.0882
  H  H195  1  0.829100  0.019500  0.862100  1.0  0.1065
  H  H196  1  0.589700  0.933400  0.857600  1.0  0.0978
  H  H197  1  0.524100  0.038600  0.859300  1.0  0.0948
  H  H198  1  0.871000  0.725000  0.635800  1.0  0.2461
  H  H199  1  0.339000  0.222700  0.276200  1.0  0.0725
  H  H200  1  0.344100  0.224100  0.202900  1.0  0.1184
  H  H201  1  0.471000  0.399200  0.210100  1.0  0.1182
  H  H202  1  0.462000  0.393300  0.283000  1.0  0.0799
  H  H203  1  0.367400  0.173300  0.080000  1.0  0.1155
  H  H204  1  0.386300  0.109300  0.010800  1.0  0.1172
  H  H205  1  0.393600  0.107400  0.937500  1.0  0.0807
  H  H206  1  0.367700  0.299600  0.933200  1.0  0.0663
  H  H207  1  0.365300  0.307300  0.006000  1.0  0.126
  H  H208  1  0.263400  0.624000  0.362900  1.0  0.0882
  H  H209  1  0.329100  0.519500  0.362100  1.0  0.1065
  H  H210  1  0.089700  0.433400  0.357600  1.0  0.0978
  H  H211  1  0.024100  0.538600  0.359300  1.0  0.0948
  H  H212  1  0.371000  0.225000  0.135800  1.0  0.2461
  H  H213  1  0.661000  0.277300  0.276200  1.0  0.0729
  H  H214  1  0.655900  0.275900  0.202900  1.0  0.1194
  H  H215  1  0.529000  0.100800  0.210100  1.0  0.1183
  H  H216  1  0.538000  0.106700  0.283000  1.0  0.0804
  H  H217  1  0.632600  0.326700  0.080000  1.0  0.1159
  H  H218  1  0.613700  0.390700  0.010800  1.0  0.1168
  H  H219  1  0.606400  0.392600  0.937500  1.0  0.0805
  H  H220  1  0.632300  0.200400  0.933200  1.0  0.0665
  H  H221  1  0.634700  0.192700  0.006000  1.0  0.1264
  H  H222  1  0.736600  0.876000  0.362900  1.0  0.0881
  H  H223  1  0.670900  0.980500  0.362100  1.0  0.1063
  H  H224  1  0.910300  0.066600  0.357600  1.0  0.098
  H  H225  1  0.975900  0.961400  0.359300  1.0  0.0957
  H  H226  1  0.629000  0.275000  0.135800  1.0  0.245
  H  H227  1  0.161000  0.777300  0.776200  1.0  0.0729
  H  H228  1  0.155900  0.775900  0.702900  1.0  0.1194
  H  H229  1  0.029000  0.600800  0.710100  1.0  0.1183
  H  H230  1  0.038000  0.606700  0.783000  1.0  0.0804
  H  H231  1  0.132600  0.826700  0.580000  1.0  0.1159
  H  H232  1  0.113700  0.890700  0.510800  1.0  0.1168
  H  H233  1  0.106400  0.892600  0.437500  1.0  0.0805
  H  H234  1  0.132300  0.700400  0.433200  1.0  0.0665
  H  H235  1  0.134700  0.692700  0.506000  1.0  0.1264
  H  H236  1  0.236600  0.376000  0.862900  1.0  0.0881
  H  H237  1  0.170900  0.480500  0.862100  1.0  0.1063
  H  H238  1  0.410300  0.566600  0.857600  1.0  0.098
  H  H239  1  0.475900  0.461400  0.859300  1.0  0.0957
  H  H240  1  0.129000  0.775000  0.635800  1.0  0.245
  C  C241  1  0.133500  0.241200  0.237280  1.0  0.188
  C  C242  1  0.130700  0.240900  0.281540  1.0  -0.2175
  C  C243  1  0.090200  0.188400  0.302250  1.0  -0.0399
  C  C244  1  0.055900  0.137700  0.277170  1.0  -0.1149
  C  C245  1  0.061600  0.141600  0.233210  1.0  0.1735
  C  C246  1  0.081000  0.182400  0.350200  1.0  0.601
  C  C247  1  0.122000  0.287900  0.435760  1.0  0.0205
  C  C248  1  0.121200  0.290900  0.482360  1.0  0.0805
  C  C249  1  0.115700  0.350500  0.504300  1.0  -0.1591
  C  C250  1  0.113100  0.351500  0.548800  1.0  0.1829
  C  C251  1  0.127500  0.239700  0.550800  1.0  0.1868
  C  C252  1  0.128700  0.234600  0.506900  1.0  -0.1843
  C  C253  1  0.363300  0.908300  0.140420  1.0  -0.1617
  C  C254  1  0.271600  0.914400  0.138700  1.0  -0.0282
  C  C255  1  0.232200  0.976800  0.139300  1.0  -0.0338
  C  C256  1  0.284200  0.033900  0.141940  1.0  -0.1387
  C  C257  1  0.375300  0.028200  0.141840  1.0  -0.0349
  C  C258  1  0.414600  0.965100  0.140930  1.0  -0.0295
  C  C259  1  0.240500  0.101900  0.144580  1.0  0.6807
  C  C260  1  0.402800  0.839500  0.141460  1.0  0.6578
  C  C261  1  0.633500  0.741200  0.737280  1.0  0.188
  C  C262  1  0.630700  0.740900  0.781540  1.0  -0.2175
  C  C263  1  0.590200  0.688400  0.802250  1.0  -0.0399
  C  C264  1  0.555900  0.637700  0.777170  1.0  -0.1149
  C  C265  1  0.561600  0.641600  0.733210  1.0  0.1735
  C  C266  1  0.581000  0.682400  0.850200  1.0  0.601
  C  C267  1  0.622000  0.787900  0.935760  1.0  0.0205
  C  C268  1  0.621200  0.790900  0.982360  1.0  0.0805
  C  C269  1  0.615700  0.850500  0.004300  1.0  -0.1591
  C  C270  1  0.613100  0.851500  0.048800  1.0  0.1829
  C  C271  1  0.627500  0.739700  0.050800  1.0  0.1868
  C  C272  1  0.628700  0.734600  0.006900  1.0  -0.1843
  C  C273  1  0.863300  0.408300  0.640420  1.0  -0.1617
  C  C274  1  0.771600  0.414400  0.638700  1.0  -0.0282
  C  C275  1  0.732200  0.476800  0.639300  1.0  -0.0338
  C  C276  1  0.784200  0.533900  0.641940  1.0  -0.1387
  C  C277  1  0.875300  0.528200  0.641840  1.0  -0.0349
  C  C278  1  0.914600  0.465100  0.640930  1.0  -0.0295
  C  C279  1  0.740500  0.601900  0.644580  1.0  0.6807
  C  C280  1  0.902800  0.339500  0.641460  1.0  0.6578
  C  C281  1  0.366500  0.758800  0.737280  1.0  0.1887
  C  C282  1  0.369300  0.759100  0.781540  1.0  -0.2181
  C  C283  1  0.409800  0.811600  0.802250  1.0  -0.0388
  C  C284  1  0.444100  0.862300  0.777170  1.0  -0.1157
  C  C285  1  0.438400  0.858400  0.733210  1.0  0.1747
  C  C286  1  0.419000  0.817600  0.850200  1.0  0.5988
  C  C287  1  0.378000  0.712100  0.935760  1.0  0.0211
  C  C288  1  0.378800  0.709100  0.982360  1.0  0.0815
  C  C289  1  0.384300  0.649500  0.004300  1.0  -0.1589
  C  C290  1  0.386900  0.648500  0.048800  1.0  0.1836
  C  C291  1  0.372500  0.760300  0.050800  1.0  0.1853
  C  C292  1  0.371300  0.765400  0.006900  1.0  -0.1845
  C  C293  1  0.136700  0.091700  0.640420  1.0  -0.1607
  C  C294  1  0.228400  0.085600  0.638700  1.0  -0.0287
  C  C295  1  0.267800  0.023200  0.639300  1.0  -0.0336
  C  C296  1  0.215800  0.966100  0.641940  1.0  -0.1371
  C  C297  1  0.124700  0.971800  0.641840  1.0  -0.0349
  C  C298  1  0.085400  0.034900  0.640930  1.0  -0.0302
  C  C299  1  0.259500  0.898100  0.644580  1.0  0.6807
  C  C300  1  0.097200  0.160500  0.641460  1.0  0.6571
  C  C301  1  0.866500  0.258800  0.237280  1.0  0.1887
  C  C302  1  0.869300  0.259100  0.281540  1.0  -0.2181
  C  C303  1  0.909800  0.311600  0.302250  1.0  -0.0388
  C  C304  1  0.944100  0.362300  0.277170  1.0  -0.1157
  C  C305  1  0.938400  0.358400  0.233210  1.0  0.1747
  C  C306  1  0.919000  0.317600  0.350200  1.0  0.5988
  C  C307  1  0.878000  0.212100  0.435760  1.0  0.0211
  C  C308  1  0.878800  0.209100  0.482360  1.0  0.0815
  C  C309  1  0.884300  0.149500  0.504300  1.0  -0.1589
  C  C310  1  0.886900  0.148500  0.548800  1.0  0.1836
  C  C311  1  0.872500  0.260300  0.550800  1.0  0.1853
  C  C312  1  0.871300  0.265400  0.506900  1.0  -0.1845
  C  C313  1  0.636700  0.591700  0.140420  1.0  -0.1607
  C  C314  1  0.728400  0.585600  0.138700  1.0  -0.0287
  C  C315  1  0.767800  0.523200  0.139300  1.0  -0.0336
  C  C316  1  0.715800  0.466100  0.141940  1.0  -0.1371
  C  C317  1  0.624700  0.471800  0.141840  1.0  -0.0349
  C  C318  1  0.585400  0.534900  0.140930  1.0  -0.0302
  C  C319  1  0.759500  0.398100  0.144580  1.0  0.6807
  C  C320  1  0.597200  0.660500  0.141460  1.0  0.6571
  C  C321  1  0.133500  0.258800  0.737280  1.0  0.1885
  C  C322  1  0.130700  0.259100  0.781540  1.0  -0.2176
  C  C323  1  0.090200  0.311600  0.802250  1.0  -0.039
  C  C324  1  0.055900  0.362300  0.777170  1.0  -0.1158
  C  C325  1  0.061600  0.358400  0.733210  1.0  0.1745
  C  C326  1  0.081000  0.317600  0.850200  1.0  0.5995
  C  C327  1  0.122000  0.212100  0.935760  1.0  0.021
  C  C328  1  0.121200  0.209100  0.982360  1.0  0.0809
  C  C329  1  0.115700  0.149500  0.004300  1.0  -0.1583
  C  C330  1  0.113100  0.148500  0.048800  1.0  0.1833
  C  C331  1  0.127500  0.260300  0.050800  1.0  0.1856
  C  C332  1  0.128700  0.265400  0.006900  1.0  -0.1843
  C  C333  1  0.363300  0.591700  0.640420  1.0  -0.1613
  C  C334  1  0.271600  0.585600  0.638700  1.0  -0.0281
  C  C335  1  0.232200  0.523200  0.639300  1.0  -0.0341
  C  C336  1  0.284200  0.466100  0.641940  1.0  -0.1374
  C  C337  1  0.375300  0.471800  0.641840  1.0  -0.0353
  C  C338  1  0.414600  0.534900  0.640930  1.0  -0.0294
  C  C339  1  0.240500  0.398100  0.644580  1.0  0.6808
  C  C340  1  0.402800  0.660500  0.641460  1.0  0.6583
  C  C341  1  0.633500  0.758800  0.237280  1.0  0.1885
  C  C342  1  0.630700  0.759100  0.281540  1.0  -0.2176
  C  C343  1  0.590200  0.811600  0.302250  1.0  -0.039
  C  C344  1  0.555900  0.862300  0.277170  1.0  -0.1158
  C  C345  1  0.561600  0.858400  0.233210  1.0  0.1745
  C  C346  1  0.581000  0.817600  0.350200  1.0  0.5995
  C  C347  1  0.622000  0.712100  0.435760  1.0  0.021
  C  C348  1  0.621200  0.709100  0.482360  1.0  0.0809
  C  C349  1  0.615700  0.649500  0.504300  1.0  -0.1583
  C  C350  1  0.613100  0.648500  0.548800  1.0  0.1833
  C  C351  1  0.627500  0.760300  0.550800  1.0  0.1856
  C  C352  1  0.628700  0.765400  0.506900  1.0  -0.1843
  C  C353  1  0.863300  0.091700  0.140420  1.0  -0.1613
  C  C354  1  0.771600  0.085600  0.138700  1.0  -0.0281
  C  C355  1  0.732200  0.023200  0.139300  1.0  -0.0341
  C  C356  1  0.784200  0.966100  0.141940  1.0  -0.1374
  C  C357  1  0.875300  0.971800  0.141840  1.0  -0.0353
  C  C358  1  0.914600  0.034900  0.140930  1.0  -0.0294
  C  C359  1  0.740500  0.898100  0.144580  1.0  0.6808
  C  C360  1  0.902800  0.160500  0.141460  1.0  0.6583
  C  C361  1  0.366500  0.741200  0.237280  1.0  0.1887
  C  C362  1  0.369300  0.740900  0.281540  1.0  -0.2176
  C  C363  1  0.409800  0.688400  0.302250  1.0  -0.0397
  C  C364  1  0.444100  0.637700  0.277170  1.0  -0.1152
  C  C365  1  0.438400  0.641600  0.233210  1.0  0.1733
  C  C366  1  0.419000  0.682400  0.350200  1.0  0.6002
  C  C367  1  0.378000  0.787900  0.435760  1.0  0.0202
  C  C368  1  0.378800  0.790900  0.482360  1.0  0.0811
  C  C369  1  0.384300  0.850500  0.504300  1.0  -0.1585
  C  C370  1  0.386900  0.851500  0.548800  1.0  0.1837
  C  C371  1  0.372500  0.739700  0.550800  1.0  0.1865
  C  C372  1  0.371300  0.734600  0.506900  1.0  -0.1844
  C  C373  1  0.136700  0.408300  0.140420  1.0  -0.1613
  C  C374  1  0.228400  0.414400  0.138700  1.0  -0.0279
  C  C375  1  0.267800  0.476800  0.139300  1.0  -0.0334
  C  C376  1  0.215800  0.533900  0.141940  1.0  -0.1379
  C  C377  1  0.124700  0.528200  0.141840  1.0  -0.0348
  C  C378  1  0.085400  0.465100  0.140930  1.0  -0.0305
  C  C379  1  0.259500  0.601900  0.144580  1.0  0.6806
  C  C380  1  0.097200  0.339500  0.141460  1.0  0.6567
  C  C381  1  0.866500  0.241200  0.737280  1.0  0.1887
  C  C382  1  0.869300  0.240900  0.781540  1.0  -0.2176
  C  C383  1  0.909800  0.188400  0.802250  1.0  -0.0397
  C  C384  1  0.944100  0.137700  0.777170  1.0  -0.1152
  C  C385  1  0.938400  0.141600  0.733210  1.0  0.1733
  C  C386  1  0.919000  0.182400  0.850200  1.0  0.6002
  C  C387  1  0.878000  0.287900  0.935760  1.0  0.0202
  C  C388  1  0.878800  0.290900  0.982360  1.0  0.0811
  C  C389  1  0.884300  0.350500  0.004300  1.0  -0.1585
  C  C390  1  0.886900  0.351500  0.048800  1.0  0.1837
  C  C391  1  0.872500  0.239700  0.050800  1.0  0.1865
  C  C392  1  0.871300  0.234600  0.006900  1.0  -0.1844
  C  C393  1  0.636700  0.908300  0.640420  1.0  -0.1613
  C  C394  1  0.728400  0.914400  0.638700  1.0  -0.0279
  C  C395  1  0.767800  0.976800  0.639300  1.0  -0.0334
  C  C396  1  0.715800  0.033900  0.641940  1.0  -0.1379
  C  C397  1  0.624700  0.028200  0.641840  1.0  -0.0348
  C  C398  1  0.585400  0.965100  0.640930  1.0  -0.0305
  C  C399  1  0.759500  0.101900  0.644580  1.0  0.6806
  C  C400  1  0.597200  0.839500  0.641460  1.0  0.6567
  C  C401  1  0.866500  0.741200  0.262720  1.0  0.1886
  C  C402  1  0.869300  0.740900  0.218460  1.0  -0.2176
  C  C403  1  0.909800  0.688400  0.197750  1.0  -0.0391
  C  C404  1  0.944100  0.637700  0.222830  1.0  -0.1145
  C  C405  1  0.938400  0.641600  0.266790  1.0  0.1739
  C  C406  1  0.919000  0.682400  0.149800  1.0  0.5991
  C  C407  1  0.878000  0.787900  0.064240  1.0  0.0195
  C  C408  1  0.878800  0.790900  0.017640  1.0  0.0826
  C  C409  1  0.884300  0.850500  0.995700  1.0  -0.1592
  C  C410  1  0.886900  0.851500  0.951200  1.0  0.1853
  C  C411  1  0.872500  0.739700  0.949200  1.0  0.1859
  C  C412  1  0.871300  0.734600  0.993100  1.0  -0.1842
  C  C413  1  0.636700  0.408300  0.359580  1.0  -0.1611
  C  C414  1  0.728400  0.414400  0.361300  1.0  -0.0279
  C  C415  1  0.767800  0.476800  0.360700  1.0  -0.0333
  C  C416  1  0.715800  0.533900  0.358060  1.0  -0.1376
  C  C417  1  0.624700  0.528200  0.358160  1.0  -0.0348
  C  C418  1  0.585400  0.465100  0.359070  1.0  -0.0304
  C  C419  1  0.759500  0.601900  0.355420  1.0  0.6805
  C  C420  1  0.597200  0.339500  0.358540  1.0  0.658
  C  C421  1  0.366500  0.241200  0.762720  1.0  0.1886
  C  C422  1  0.369300  0.240900  0.718460  1.0  -0.2176
  C  C423  1  0.409800  0.188400  0.697750  1.0  -0.0391
  C  C424  1  0.444100  0.137700  0.722830  1.0  -0.1145
  C  C425  1  0.438400  0.141600  0.766790  1.0  0.1739
  C  C426  1  0.419000  0.182400  0.649800  1.0  0.5991
  C  C427  1  0.378000  0.287900  0.564240  1.0  0.0195
  C  C428  1  0.378800  0.290900  0.517640  1.0  0.0826
  C  C429  1  0.384300  0.350500  0.495700  1.0  -0.1592
  C  C430  1  0.386900  0.351500  0.451200  1.0  0.1853
  C  C431  1  0.372500  0.239700  0.449200  1.0  0.1859
  C  C432  1  0.371300  0.234600  0.493100  1.0  -0.1842
  C  C433  1  0.136700  0.908300  0.859580  1.0  -0.1611
  C  C434  1  0.228400  0.914400  0.861300  1.0  -0.0279
  C  C435  1  0.267800  0.976800  0.860700  1.0  -0.0333
  C  C436  1  0.215800  0.033900  0.858060  1.0  -0.1376
  C  C437  1  0.124700  0.028200  0.858160  1.0  -0.0348
  C  C438  1  0.085400  0.965100  0.859070  1.0  -0.0304
  C  C439  1  0.259500  0.101900  0.855420  1.0  0.6805
  C  C440  1  0.097200  0.839500  0.858540  1.0  0.658
  C  C441  1  0.633500  0.258800  0.762720  1.0  0.1889
  C  C442  1  0.630700  0.259100  0.718460  1.0  -0.2177
  C  C443  1  0.590200  0.311600  0.697750  1.0  -0.0382
  C  C444  1  0.555900  0.362300  0.722830  1.0  -0.1151
  C  C445  1  0.561600  0.358400  0.766790  1.0  0.1737
  C  C446  1  0.581000  0.317600  0.649800  1.0  0.6
  C  C447  1  0.622000  0.212100  0.564240  1.0  0.0203
  C  C448  1  0.621200  0.209100  0.517640  1.0  0.0827
  C  C449  1  0.615700  0.149500  0.495700  1.0  -0.1584
  C  C450  1  0.613100  0.148500  0.451200  1.0  0.1844
  C  C451  1  0.627500  0.260300  0.449200  1.0  0.1855
  C  C452  1  0.628700  0.265400  0.493100  1.0  -0.1847
  C  C453  1  0.863300  0.591700  0.859580  1.0  -0.1612
  C  C454  1  0.771600  0.585600  0.861300  1.0  -0.028
  C  C455  1  0.732200  0.523200  0.860700  1.0  -0.0339
  C  C456  1  0.784200  0.466100  0.858060  1.0  -0.1376
  C  C457  1  0.875300  0.471800  0.858160  1.0  -0.0351
  C  C458  1  0.914600  0.534900  0.859070  1.0  -0.0293
  C  C459  1  0.740500  0.398100  0.855420  1.0  0.6807
  C  C460  1  0.902800  0.660500  0.858540  1.0  0.6571
  C  C461  1  0.133500  0.758800  0.262720  1.0  0.1889
  C  C462  1  0.130700  0.759100  0.218460  1.0  -0.2177
  C  C463  1  0.090200  0.811600  0.197750  1.0  -0.0382
  C  C464  1  0.055900  0.862300  0.222830  1.0  -0.1151
  C  C465  1  0.061600  0.858400  0.266790  1.0  0.1737
  C  C466  1  0.081000  0.817600  0.149800  1.0  0.6
  C  C467  1  0.122000  0.712100  0.064240  1.0  0.0203
  C  C468  1  0.121200  0.709100  0.017640  1.0  0.0827
  C  C469  1  0.115700  0.649500  0.995700  1.0  -0.1584
  C  C470  1  0.113100  0.648500  0.951200  1.0  0.1844
  C  C471  1  0.127500  0.760300  0.949200  1.0  0.1855
  C  C472  1  0.128700  0.765400  0.993100  1.0  -0.1847
  C  C473  1  0.363300  0.091700  0.359580  1.0  -0.1612
  C  C474  1  0.271600  0.085600  0.361300  1.0  -0.028
  C  C475  1  0.232200  0.023200  0.360700  1.0  -0.0339
  C  C476  1  0.284200  0.966100  0.358060  1.0  -0.1376
  C  C477  1  0.375300  0.971800  0.358160  1.0  -0.0351
  C  C478  1  0.414600  0.034900  0.359070  1.0  -0.0293
  C  C479  1  0.240500  0.898100  0.355420  1.0  0.6807
  C  C480  1  0.402800  0.160500  0.358540  1.0  0.6571
  C  C481  1  0.866500  0.758800  0.762720  1.0  0.1888
  C  C482  1  0.869300  0.759100  0.718460  1.0  -0.2183
  C  C483  1  0.909800  0.811600  0.697750  1.0  -0.0384
  C  C484  1  0.944100  0.862300  0.722830  1.0  -0.115
  C  C485  1  0.938400  0.858400  0.766790  1.0  0.1741
  C  C486  1  0.919000  0.817600  0.649800  1.0  0.5991
  C  C487  1  0.878000  0.712100  0.564240  1.0  0.0205
  C  C488  1  0.878800  0.709100  0.517640  1.0  0.0831
  C  C489  1  0.884300  0.649500  0.495700  1.0  -0.159
  C  C490  1  0.886900  0.648500  0.451200  1.0  0.1845
  C  C491  1  0.872500  0.760300  0.449200  1.0  0.185
  C  C492  1  0.871300  0.765400  0.493100  1.0  -0.1851
  C  C493  1  0.636700  0.091700  0.859580  1.0  -0.1606
  C  C494  1  0.728400  0.085600  0.861300  1.0  -0.0287
  C  C495  1  0.767800  0.023200  0.860700  1.0  -0.0335
  C  C496  1  0.715800  0.966100  0.858060  1.0  -0.1373
  C  C497  1  0.624700  0.971800  0.858160  1.0  -0.0348
  C  C498  1  0.585400  0.034900  0.859070  1.0  -0.03
  C  C499  1  0.759500  0.898100  0.855420  1.0  0.6807
  C  C500  1  0.597200  0.160500  0.858540  1.0  0.6583
  C  C501  1  0.366500  0.258800  0.262720  1.0  0.1888
  C  C502  1  0.369300  0.259100  0.218460  1.0  -0.2183
  C  C503  1  0.409800  0.311600  0.197750  1.0  -0.0384
  C  C504  1  0.444100  0.362300  0.222830  1.0  -0.115
  C  C505  1  0.438400  0.358400  0.266790  1.0  0.1741
  C  C506  1  0.419000  0.317600  0.149800  1.0  0.5991
  C  C507  1  0.378000  0.212100  0.064240  1.0  0.0205
  C  C508  1  0.378800  0.209100  0.017640  1.0  0.0831
  C  C509  1  0.384300  0.149500  0.995700  1.0  -0.159
  C  C510  1  0.386900  0.148500  0.951200  1.0  0.1845
  C  C511  1  0.372500  0.260300  0.949200  1.0  0.185
  C  C512  1  0.371300  0.265400  0.993100  1.0  -0.1851
  C  C513  1  0.136700  0.591700  0.359580  1.0  -0.1606
  C  C514  1  0.228400  0.585600  0.361300  1.0  -0.0287
  C  C515  1  0.267800  0.523200  0.360700  1.0  -0.0335
  C  C516  1  0.215800  0.466100  0.358060  1.0  -0.1373
  C  C517  1  0.124700  0.471800  0.358160  1.0  -0.0348
  C  C518  1  0.085400  0.534900  0.359070  1.0  -0.03
  C  C519  1  0.259500  0.398100  0.355420  1.0  0.6807
  C  C520  1  0.097200  0.660500  0.358540  1.0  0.6583
  C  C521  1  0.633500  0.241200  0.262720  1.0  0.1884
  C  C522  1  0.630700  0.240900  0.218460  1.0  -0.2175
  C  C523  1  0.590200  0.188400  0.197750  1.0  -0.0389
  C  C524  1  0.555900  0.137700  0.222830  1.0  -0.1142
  C  C525  1  0.561600  0.141600  0.266790  1.0  0.174
  C  C526  1  0.581000  0.182400  0.149800  1.0  0.5999
  C  C527  1  0.622000  0.287900  0.064240  1.0  0.0196
  C  C528  1  0.621200  0.290900  0.017640  1.0  0.0822
  C  C529  1  0.615700  0.350500  0.995700  1.0  -0.1598
  C  C530  1  0.613100  0.351500  0.951200  1.0  0.1845
  C  C531  1  0.627500  0.239700  0.949200  1.0  0.1864
  C  C532  1  0.628700  0.234600  0.993100  1.0  -0.184
  C  C533  1  0.863300  0.908300  0.359580  1.0  -0.1615
  C  C534  1  0.771600  0.914400  0.361300  1.0  -0.0282
  C  C535  1  0.732200  0.976800  0.360700  1.0  -0.0335
  C  C536  1  0.784200  0.033900  0.358060  1.0  -0.1386
  C  C537  1  0.875300  0.028200  0.358160  1.0  -0.0349
  C  C538  1  0.914600  0.965100  0.359070  1.0  -0.0295
  C  C539  1  0.740500  0.101900  0.355420  1.0  0.6806
  C  C540  1  0.902800  0.839500  0.358540  1.0  0.6569
  C  C541  1  0.133500  0.741200  0.762720  1.0  0.1884
  C  C542  1  0.130700  0.740900  0.718460  1.0  -0.2175
  C  C543  1  0.090200  0.688400  0.697750  1.0  -0.0389
  C  C544  1  0.055900  0.637700  0.722830  1.0  -0.1142
  C  C545  1  0.061600  0.641600  0.766790  1.0  0.174
  C  C546  1  0.081000  0.682400  0.649800  1.0  0.5999
  C  C547  1  0.122000  0.787900  0.564240  1.0  0.0196
  C  C548  1  0.121200  0.790900  0.517640  1.0  0.0822
  C  C549  1  0.115700  0.850500  0.495700  1.0  -0.1598
  C  C550  1  0.113100  0.851500  0.451200  1.0  0.1845
  C  C551  1  0.127500  0.739700  0.449200  1.0  0.1864
  C  C552  1  0.128700  0.734600  0.493100  1.0  -0.184
  C  C553  1  0.363300  0.408300  0.859580  1.0  -0.1615
  C  C554  1  0.271600  0.414400  0.861300  1.0  -0.0282
  C  C555  1  0.232200  0.476800  0.860700  1.0  -0.0335
  C  C556  1  0.284200  0.533900  0.858060  1.0  -0.1386
  C  C557  1  0.375300  0.528200  0.858160  1.0  -0.0349
  C  C558  1  0.414600  0.465100  0.859070  1.0  -0.0295
  C  C559  1  0.240500  0.601900  0.855420  1.0  0.6806
  C  C560  1  0.402800  0.339500  0.858540  1.0  0.6569
  N  N561  1  0.099400  0.193300  0.212840  1.0  -0.3367
  N  N562  1  0.110500  0.235500  0.372560  1.0  -0.2251
  N  N563  1  0.108300  0.232600  0.416700  1.0  -0.258
  N  N564  1  0.119700  0.297600  0.571860  1.0  -0.3151
  N  N565  1  0.599400  0.693300  0.712840  1.0  -0.3367
  N  N566  1  0.610500  0.735500  0.872560  1.0  -0.2251
  N  N567  1  0.608300  0.732600  0.916700  1.0  -0.258
  N  N568  1  0.619700  0.797600  0.071860  1.0  -0.3151
  N  N569  1  0.400600  0.806700  0.712840  1.0  -0.3371
  N  N570  1  0.389500  0.764500  0.872560  1.0  -0.2264
  N  N571  1  0.391700  0.767400  0.916700  1.0  -0.2598
  N  N572  1  0.380300  0.702400  0.071860  1.0  -0.3152
  N  N573  1  0.900600  0.306700  0.212840  1.0  -0.3371
  N  N574  1  0.889500  0.264500  0.372560  1.0  -0.2264
  N  N575  1  0.891700  0.267400  0.416700  1.0  -0.2598
  N  N576  1  0.880300  0.202400  0.571860  1.0  -0.3152
  N  N577  1  0.099400  0.306700  0.712840  1.0  -0.3369
  N  N578  1  0.110500  0.264500  0.872560  1.0  -0.2254
  N  N579  1  0.108300  0.267400  0.916700  1.0  -0.26
  N  N580  1  0.119700  0.202400  0.071860  1.0  -0.315
  N  N581  1  0.599400  0.806700  0.212840  1.0  -0.3369
  N  N582  1  0.610500  0.764500  0.372560  1.0  -0.2254
  N  N583  1  0.608300  0.767400  0.416700  1.0  -0.26
  N  N584  1  0.619700  0.702400  0.571860  1.0  -0.315
  N  N585  1  0.400600  0.693300  0.212840  1.0  -0.3371
  N  N586  1  0.389500  0.735500  0.372560  1.0  -0.2257
  N  N587  1  0.391700  0.732600  0.416700  1.0  -0.2583
  N  N588  1  0.380300  0.797600  0.571860  1.0  -0.3152
  N  N589  1  0.900600  0.193300  0.712840  1.0  -0.3371
  N  N590  1  0.889500  0.235500  0.872560  1.0  -0.2257
  N  N591  1  0.891700  0.232600  0.916700  1.0  -0.2583
  N  N592  1  0.880300  0.297600  0.071860  1.0  -0.3152
  N  N593  1  0.900600  0.693300  0.287160  1.0  -0.3365
  N  N594  1  0.889500  0.735500  0.127440  1.0  -0.2266
  N  N595  1  0.891700  0.732600  0.083300  1.0  -0.2588
  N  N596  1  0.880300  0.797600  0.928140  1.0  -0.3178
  N  N597  1  0.400600  0.193300  0.787160  1.0  -0.3365
  N  N598  1  0.389500  0.235500  0.627440  1.0  -0.2266
  N  N599  1  0.391700  0.232600  0.583300  1.0  -0.2588
  N  N600  1  0.380300  0.297600  0.428140  1.0  -0.3178
  N  N601  1  0.599400  0.306700  0.787160  1.0  -0.3358
  N  N602  1  0.610500  0.264500  0.627440  1.0  -0.2258
  N  N603  1  0.608300  0.267400  0.583300  1.0  -0.2592
  N  N604  1  0.619700  0.202400  0.428140  1.0  -0.3166
  N  N605  1  0.099400  0.806700  0.287160  1.0  -0.3358
  N  N606  1  0.110500  0.764500  0.127440  1.0  -0.2258
  N  N607  1  0.108300  0.767400  0.083300  1.0  -0.2592
  N  N608  1  0.119700  0.702400  0.928140  1.0  -0.3166
  N  N609  1  0.900600  0.806700  0.787160  1.0  -0.3365
  N  N610  1  0.889500  0.764500  0.627440  1.0  -0.2268
  N  N611  1  0.891700  0.767400  0.583300  1.0  -0.2589
  N  N612  1  0.880300  0.702400  0.428140  1.0  -0.3168
  N  N613  1  0.400600  0.306700  0.287160  1.0  -0.3365
  N  N614  1  0.389500  0.264500  0.127440  1.0  -0.2268
  N  N615  1  0.391700  0.267400  0.083300  1.0  -0.2589
  N  N616  1  0.380300  0.202400  0.928140  1.0  -0.3168
  N  N617  1  0.599400  0.193300  0.287160  1.0  -0.3358
  N  N618  1  0.610500  0.235500  0.127440  1.0  -0.2261
  N  N619  1  0.608300  0.232600  0.083300  1.0  -0.2588
  N  N620  1  0.619700  0.297600  0.928140  1.0  -0.3177
  N  N621  1  0.099400  0.693300  0.787160  1.0  -0.3358
  N  N622  1  0.110500  0.735500  0.627440  1.0  -0.2261
  N  N623  1  0.108300  0.732600  0.583300  1.0  -0.2588
  N  N624  1  0.119700  0.797600  0.428140  1.0  -0.3177
  O  O625  1  0.048600  0.132600  0.366380  1.0  -0.541
  O  O626  1  0.156700  0.102360  0.141230  1.0  -0.5971
  O  O627  1  0.285400  0.153300  0.149830  1.0  -0.5749
  O  O628  1  0.483100  0.834200  0.136770  1.0  -0.6067
  O  O629  1  0.350100  0.790430  0.146640  1.0  -0.5816
  O  O630  1  0.548600  0.632600  0.866380  1.0  -0.541
  O  O631  1  0.656700  0.602360  0.641230  1.0  -0.5971
  O  O632  1  0.785400  0.653300  0.649830  1.0  -0.5749
  O  O633  1  0.983100  0.334200  0.636770  1.0  -0.6067
  O  O634  1  0.850100  0.290430  0.646640  1.0  -0.5816
  O  O635  1  0.451400  0.867400  0.866380  1.0  -0.5421
  O  O636  1  0.343300  0.897640  0.641230  1.0  -0.5966
  O  O637  1  0.214600  0.846700  0.649830  1.0  -0.5748
  O  O638  1  0.016900  0.165800  0.636770  1.0  -0.6075
  O  O639  1  0.149900  0.209570  0.646640  1.0  -0.5831
  O  O640  1  0.951400  0.367400  0.366380  1.0  -0.5421
  O  O641  1  0.843300  0.397640  0.141230  1.0  -0.5966
  O  O642  1  0.714600  0.346700  0.149830  1.0  -0.5748
  O  O643  1  0.516900  0.665800  0.136770  1.0  -0.6075
  O  O644  1  0.649900  0.709570  0.146640  1.0  -0.5831
  O  O645  1  0.048600  0.367400  0.866380  1.0  -0.5416
  O  O646  1  0.156700  0.397640  0.641230  1.0  -0.5965
  O  O647  1  0.285400  0.346700  0.649830  1.0  -0.5752
  O  O648  1  0.483100  0.665800  0.636770  1.0  -0.6067
  O  O649  1  0.350100  0.709570  0.646640  1.0  -0.5817
  O  O650  1  0.548600  0.867400  0.366380  1.0  -0.5416
  O  O651  1  0.656700  0.897640  0.141230  1.0  -0.5965
  O  O652  1  0.785400  0.846700  0.149830  1.0  -0.5752
  O  O653  1  0.983100  0.165800  0.136770  1.0  -0.6067
  O  O654  1  0.850100  0.209570  0.146640  1.0  -0.5817
  O  O655  1  0.451400  0.632600  0.366380  1.0  -0.5414
  O  O656  1  0.343300  0.602360  0.141230  1.0  -0.5967
  O  O657  1  0.214600  0.653300  0.149830  1.0  -0.575
  O  O658  1  0.016900  0.334200  0.136770  1.0  -0.6076
  O  O659  1  0.149900  0.290430  0.146640  1.0  -0.5819
  O  O660  1  0.951400  0.132600  0.866380  1.0  -0.5414
  O  O661  1  0.843300  0.102360  0.641230  1.0  -0.5967
  O  O662  1  0.714600  0.153300  0.649830  1.0  -0.575
  O  O663  1  0.516900  0.834200  0.636770  1.0  -0.6076
  O  O664  1  0.649900  0.790430  0.646640  1.0  -0.5819
  O  O665  1  0.951400  0.632600  0.133620  1.0  -0.5418
  O  O666  1  0.843300  0.602360  0.358770  1.0  -0.5968
  O  O667  1  0.714600  0.653300  0.350170  1.0  -0.5749
  O  O668  1  0.516900  0.334200  0.363230  1.0  -0.6075
  O  O669  1  0.649900  0.290430  0.353360  1.0  -0.5807
  O  O670  1  0.451400  0.132600  0.633620  1.0  -0.5418
  O  O671  1  0.343300  0.102360  0.858770  1.0  -0.5968
  O  O672  1  0.214600  0.153300  0.850170  1.0  -0.5749
  O  O673  1  0.016900  0.834200  0.863230  1.0  -0.6075
  O  O674  1  0.149900  0.790430  0.853360  1.0  -0.5807
  O  O675  1  0.548600  0.367400  0.633620  1.0  -0.5413
  O  O676  1  0.656700  0.397640  0.858770  1.0  -0.5966
  O  O677  1  0.785400  0.346700  0.850170  1.0  -0.5747
  O  O678  1  0.983100  0.665800  0.863230  1.0  -0.6067
  O  O679  1  0.850100  0.709570  0.853360  1.0  -0.5835
  O  O680  1  0.048600  0.867400  0.133620  1.0  -0.5413
  O  O681  1  0.156700  0.897640  0.358770  1.0  -0.5966
  O  O682  1  0.285400  0.846700  0.350170  1.0  -0.5747
  O  O683  1  0.483100  0.165800  0.363230  1.0  -0.6067
  O  O684  1  0.350100  0.209570  0.353360  1.0  -0.5835
  O  O685  1  0.951400  0.867400  0.633620  1.0  -0.5421
  O  O686  1  0.843300  0.897640  0.858770  1.0  -0.5966
  O  O687  1  0.714600  0.846700  0.850170  1.0  -0.5742
  O  O688  1  0.516900  0.165800  0.863230  1.0  -0.6072
  O  O689  1  0.649900  0.209570  0.853360  1.0  -0.5812
  O  O690  1  0.451400  0.367400  0.133620  1.0  -0.5421
  O  O691  1  0.343300  0.397640  0.358770  1.0  -0.5966
  O  O692  1  0.214600  0.346700  0.350170  1.0  -0.5742
  O  O693  1  0.016900  0.665800  0.363230  1.0  -0.6072
  O  O694  1  0.149900  0.709570  0.353360  1.0  -0.5812
  O  O695  1  0.548600  0.132600  0.133620  1.0  -0.5412
  O  O696  1  0.656700  0.102360  0.358770  1.0  -0.5972
  O  O697  1  0.785400  0.153300  0.350170  1.0  -0.575
  O  O698  1  0.983100  0.834200  0.363230  1.0  -0.6068
  O  O699  1  0.850100  0.790430  0.353360  1.0  -0.5825
  O  O700  1  0.048600  0.632600  0.633620  1.0  -0.5412
  O  O701  1  0.156700  0.602360  0.858770  1.0  -0.5972
  O  O702  1  0.285400  0.653300  0.850170  1.0  -0.575
  O  O703  1  0.483100  0.334200  0.863230  1.0  -0.6068
  O  O704  1  0.350100  0.290430  0.853360  1.0  -0.5825
