# generated using pymatgen
data_Ni2H19C32(N2O)4
_symmetry_space_group_name_H-M   'P 1'
_cell_length_a   30.23800000
_cell_length_b   30.23800000
_cell_length_c   30.23800000
_cell_angle_alpha   60.00000000
_cell_angle_beta   60.00000000
_cell_angle_gamma   60.00000000
_symmetry_Int_Tables_number   1
_chemical_formula_structural   Ni2H19C32(N2O)4
_chemical_formula_sum   'Ni24 H228 C384 N96 O48'
_cell_volume   19549.88424441
_cell_formula_units_Z   12
loop_
 _symmetry_equiv_pos_site_id
 _symmetry_equiv_pos_as_xyz
  1  'x, y, z'
loop_
 _atom_site_type_symbol
 _atom_site_label
 _atom_site_symmetry_multiplicity
 _atom_site_fract_x
 _atom_site_fract_y
 _atom_site_fract_z
 _atom_site_occupancy
 _atom_site_charge
  Ni  Ni1  1  0.891100  0.155350  0.394210  1.0  0.4038
  Ni  Ni2  1  0.155350  0.891100  0.559340  1.0  0.4063
  Ni  Ni3  1  0.394210  0.559340  0.891100  1.0  0.4056
  Ni  Ni4  1  0.559340  0.394210  0.155350  1.0  0.4031
  Ni  Ni5  1  0.891100  0.394210  0.559340  1.0  0.4036
  Ni  Ni6  1  0.155350  0.559340  0.394210  1.0  0.4068
  Ni  Ni7  1  0.394210  0.891100  0.155350  1.0  0.4044
  Ni  Ni8  1  0.559340  0.155350  0.891100  1.0  0.4051
  Ni  Ni9  1  0.891100  0.559340  0.155350  1.0  0.4026
  Ni  Ni10  1  0.155350  0.394210  0.891100  1.0  0.4053
  Ni  Ni11  1  0.394210  0.155350  0.559340  1.0  0.4034
  Ni  Ni12  1  0.559340  0.891100  0.394210  1.0  0.4065
  Ni  Ni13  1  0.391100  0.655350  0.059340  1.0  0.4039
  Ni  Ni14  1  0.655350  0.391100  0.894210  1.0  0.4057
  Ni  Ni15  1  0.894210  0.059340  0.655350  1.0  0.4021
  Ni  Ni16  1  0.059340  0.894210  0.391100  1.0  0.4066
  Ni  Ni17  1  0.391100  0.894210  0.655350  1.0  0.4039
  Ni  Ni18  1  0.655350  0.059340  0.391100  1.0  0.4068
  Ni  Ni19  1  0.894210  0.391100  0.059340  1.0  0.4041
  Ni  Ni20  1  0.059340  0.655350  0.894210  1.0  0.4052
  Ni  Ni21  1  0.391100  0.059340  0.894210  1.0  0.4054
  Ni  Ni22  1  0.655350  0.894210  0.059340  1.0  0.4043
  Ni  Ni23  1  0.894210  0.655350  0.391100  1.0  0.4042
  Ni  Ni24  1  0.059340  0.391100  0.655350  1.0  0.4034
  H  H25  1  0.883200  0.960600  0.525200  1.0  0.1161
  H  H26  1  0.010300  0.090100  0.369500  1.0  0.0744
  H  H27  1  0.091900  0.088700  0.297700  1.0  0.0874
  H  H28  1  0.015100  0.230900  0.211300  1.0  0.1126
  H  H29  1  0.935700  0.224300  0.278700  1.0  0.066
  H  H30  1  0.782600  0.161600  0.410800  1.0  0.081
  H  H31  1  0.697700  0.163700  0.475700  1.0  0.1044
  H  H32  1  0.749700  0.157900  0.576500  1.0  0.1089
  H  H33  1  0.831700  0.153700  0.511300  1.0  0.0769
  H  H34  1  0.960600  0.883200  0.631000  1.0  0.1169
  H  H35  1  0.090100  0.010300  0.530100  1.0  0.0736
  H  H36  1  0.088700  0.091900  0.521700  1.0  0.0873
  H  H37  1  0.230900  0.015100  0.542700  1.0  0.1107
  H  H38  1  0.224300  0.935700  0.561300  1.0  0.066
  H  H39  1  0.161600  0.782600  0.645000  1.0  0.0817
  H  H40  1  0.163700  0.697700  0.662900  1.0  0.1007
  H  H41  1  0.157900  0.749700  0.515900  1.0  0.109
  H  H42  1  0.153700  0.831700  0.503300  1.0  0.076
  H  H43  1  0.525200  0.631000  0.883200  1.0  0.116
  H  H44  1  0.369500  0.530100  0.010300  1.0  0.0744
  H  H45  1  0.297700  0.521700  0.091900  1.0  0.0875
  H  H46  1  0.211300  0.542700  0.015100  1.0  0.1121
  H  H47  1  0.278700  0.561300  0.935700  1.0  0.0644
  H  H48  1  0.410800  0.645000  0.782600  1.0  0.083
  H  H49  1  0.475700  0.662900  0.697700  1.0  0.103
  H  H50  1  0.576500  0.515900  0.749700  1.0  0.1073
  H  H51  1  0.511300  0.503300  0.831700  1.0  0.0756
  H  H52  1  0.631000  0.525200  0.960600  1.0  0.1169
  H  H53  1  0.530100  0.369500  0.090100  1.0  0.0742
  H  H54  1  0.521700  0.297700  0.088700  1.0  0.0893
  H  H55  1  0.542700  0.211300  0.230900  1.0  0.1122
  H  H56  1  0.561300  0.278700  0.224300  1.0  0.0651
  H  H57  1  0.645000  0.410800  0.161600  1.0  0.0827
  H  H58  1  0.662900  0.475700  0.163700  1.0  0.1046
  H  H59  1  0.515900  0.576500  0.157900  1.0  0.1089
  H  H60  1  0.503300  0.511300  0.153700  1.0  0.0771
  H  H61  1  0.883200  0.525200  0.631000  1.0  0.1177
  H  H62  1  0.010300  0.369500  0.530100  1.0  0.0744
  H  H63  1  0.091900  0.297700  0.521700  1.0  0.0893
  H  H64  1  0.015100  0.211300  0.542700  1.0  0.1125
  H  H65  1  0.935700  0.278700  0.561300  1.0  0.0684
  H  H66  1  0.782600  0.410800  0.645000  1.0  0.0818
  H  H67  1  0.697700  0.475700  0.662900  1.0  0.1026
  H  H68  1  0.749700  0.576500  0.515900  1.0  0.1087
  H  H69  1  0.831700  0.511300  0.503300  1.0  0.0779
  H  H70  1  0.960600  0.631000  0.525200  1.0  0.1166
  H  H71  1  0.090100  0.530100  0.369500  1.0  0.0742
  H  H72  1  0.088700  0.521700  0.297700  1.0  0.0867
  H  H73  1  0.230900  0.542700  0.211300  1.0  0.1114
  H  H74  1  0.224300  0.561300  0.278700  1.0  0.0656
  H  H75  1  0.161600  0.645000  0.410800  1.0  0.0823
  H  H76  1  0.163700  0.662900  0.475700  1.0  0.1044
  H  H77  1  0.157900  0.515900  0.576500  1.0  0.1073
  H  H78  1  0.153700  0.503300  0.511300  1.0  0.0757
  H  H79  1  0.525200  0.883200  0.960600  1.0  0.1166
  H  H80  1  0.369500  0.010300  0.090100  1.0  0.0739
  H  H81  1  0.297700  0.091900  0.088700  1.0  0.0875
  H  H82  1  0.211300  0.015100  0.230900  1.0  0.1117
  H  H83  1  0.278700  0.935700  0.224300  1.0  0.0665
  H  H84  1  0.410800  0.782600  0.161600  1.0  0.0823
  H  H85  1  0.475700  0.697700  0.163700  1.0  0.1017
  H  H86  1  0.576500  0.749700  0.157900  1.0  0.1098
  H  H87  1  0.511300  0.831700  0.153700  1.0  0.0775
  H  H88  1  0.631000  0.960600  0.883200  1.0  0.1166
  H  H89  1  0.530100  0.090100  0.010300  1.0  0.0743
  H  H90  1  0.521700  0.088700  0.091900  1.0  0.0875
  H  H91  1  0.542700  0.230900  0.015100  1.0  0.113
  H  H92  1  0.561300  0.224300  0.935700  1.0  0.0644
  H  H93  1  0.645000  0.161600  0.782600  1.0  0.0821
  H  H94  1  0.662900  0.163700  0.697700  1.0  0.1041
  H  H95  1  0.515900  0.157900  0.749700  1.0  0.1093
  H  H96  1  0.503300  0.153700  0.831700  1.0  0.0766
  H  H97  1  0.883200  0.631000  0.960600  1.0  0.1163
  H  H98  1  0.010300  0.530100  0.090100  1.0  0.0773
  H  H99  1  0.091900  0.521700  0.088700  1.0  0.0871
  H  H100  1  0.015100  0.542700  0.230900  1.0  0.1124
  H  H101  1  0.935700  0.561300  0.224300  1.0  0.0664
  H  H102  1  0.782600  0.645000  0.161600  1.0  0.0821
  H  H103  1  0.697700  0.662900  0.163700  1.0  0.105
  H  H104  1  0.749700  0.515900  0.157900  1.0  0.1073
  H  H105  1  0.831700  0.503300  0.153700  1.0  0.0772
  H  H106  1  0.960600  0.525200  0.883200  1.0  0.117
  H  H107  1  0.090100  0.369500  0.010300  1.0  0.0751
  H  H108  1  0.088700  0.297700  0.091900  1.0  0.0863
  H  H109  1  0.230900  0.211300  0.015100  1.0  0.1113
  H  H110  1  0.224300  0.278700  0.935700  1.0  0.0667
  H  H111  1  0.161600  0.410800  0.782600  1.0  0.0822
  H  H112  1  0.163700  0.475700  0.697700  1.0  0.1036
  H  H113  1  0.157900  0.576500  0.749700  1.0  0.1082
  H  H114  1  0.153700  0.511300  0.831700  1.0  0.077
  H  H115  1  0.525200  0.960600  0.631000  1.0  0.1175
  H  H116  1  0.369500  0.090100  0.530100  1.0  0.0745
  H  H117  1  0.297700  0.088700  0.521700  1.0  0.0861
  H  H118  1  0.211300  0.230900  0.542700  1.0  0.1121
  H  H119  1  0.278700  0.224300  0.561300  1.0  0.0647
  H  H120  1  0.410800  0.161600  0.645000  1.0  0.0843
  H  H121  1  0.475700  0.163700  0.662900  1.0  0.1044
  H  H122  1  0.576500  0.157900  0.515900  1.0  0.1086
  H  H123  1  0.511300  0.153700  0.503300  1.0  0.0786
  H  H124  1  0.631000  0.883200  0.525200  1.0  0.1167
  H  H125  1  0.530100  0.010300  0.369500  1.0  0.0757
  H  H126  1  0.521700  0.091900  0.297700  1.0  0.0862
  H  H127  1  0.542700  0.015100  0.211300  1.0  0.1127
  H  H128  1  0.561300  0.935700  0.278700  1.0  0.0652
  H  H129  1  0.645000  0.782600  0.410800  1.0  0.0817
  H  H130  1  0.662900  0.697700  0.475700  1.0  0.1046
  H  H131  1  0.515900  0.749700  0.576500  1.0  0.1077
  H  H132  1  0.503300  0.831700  0.511300  1.0  0.0757
  H  H133  1  0.383200  0.460600  0.131000  1.0  0.1171
  H  H134  1  0.510300  0.590100  0.030100  1.0  0.0741
  H  H135  1  0.591900  0.588700  0.021700  1.0  0.0875
  H  H136  1  0.515100  0.730900  0.042700  1.0  0.1123
  H  H137  1  0.435700  0.724300  0.061300  1.0  0.0658
  H  H138  1  0.282600  0.661600  0.145000  1.0  0.082
  H  H139  1  0.197700  0.663700  0.162900  1.0  0.1045
  H  H140  1  0.249700  0.657900  0.015900  1.0  0.1091
  H  H141  1  0.331700  0.653700  0.003300  1.0  0.0772
  H  H142  1  0.460600  0.383200  0.025200  1.0  0.1154
  H  H143  1  0.590100  0.510300  0.869500  1.0  0.074
  H  H144  1  0.588700  0.591900  0.797700  1.0  0.0871
  H  H145  1  0.730900  0.515100  0.711300  1.0  0.1106
  H  H146  1  0.724300  0.435700  0.778700  1.0  0.0665
  H  H147  1  0.661600  0.282600  0.910800  1.0  0.0817
  H  H148  1  0.663700  0.197700  0.975700  1.0  0.1012
  H  H149  1  0.657900  0.249700  0.076500  1.0  0.1084
  H  H150  1  0.653700  0.331700  0.011300  1.0  0.0725
  H  H151  1  0.025200  0.131000  0.460600  1.0  0.115
  H  H152  1  0.869500  0.030100  0.590100  1.0  0.0742
  H  H153  1  0.797700  0.021700  0.588700  1.0  0.0883
  H  H154  1  0.711300  0.042700  0.730900  1.0  0.1118
  H  H155  1  0.778700  0.061300  0.724300  1.0  0.0648
  H  H156  1  0.910800  0.145000  0.661600  1.0  0.0838
  H  H157  1  0.975700  0.162900  0.663700  1.0  0.1031
  H  H158  1  0.076500  0.015900  0.657900  1.0  0.1082
  H  H159  1  0.011300  0.003300  0.653700  1.0  0.0758
  H  H160  1  0.131000  0.025200  0.383200  1.0  0.1167
  H  H161  1  0.030100  0.869500  0.510300  1.0  0.0746
  H  H162  1  0.021700  0.797700  0.591900  1.0  0.0888
  H  H163  1  0.042700  0.711300  0.515100  1.0  0.1117
  H  H164  1  0.061300  0.778700  0.435700  1.0  0.0647
  H  H165  1  0.145000  0.910800  0.282600  1.0  0.0822
  H  H166  1  0.162900  0.975700  0.197700  1.0  0.1039
  H  H167  1  0.015900  0.076500  0.249700  1.0  0.1093
  H  H168  1  0.003300  0.011300  0.331700  1.0  0.0761
  H  H169  1  0.383200  0.025200  0.460600  1.0  0.1176
  H  H170  1  0.510300  0.869500  0.590100  1.0  0.0744
  H  H171  1  0.591900  0.797700  0.588700  1.0  0.0898
  H  H172  1  0.515100  0.711300  0.730900  1.0  0.1129
  H  H173  1  0.435700  0.778700  0.724300  1.0  0.0675
  H  H174  1  0.282600  0.910800  0.661600  1.0  0.0816
  H  H175  1  0.197700  0.975700  0.663700  1.0  0.1023
  H  H176  1  0.249700  0.076500  0.657900  1.0  0.1083
  H  H177  1  0.331700  0.011300  0.653700  1.0  0.0749
  H  H178  1  0.460600  0.131000  0.383200  1.0  0.1169
  H  H179  1  0.590100  0.030100  0.510300  1.0  0.074
  H  H180  1  0.588700  0.021700  0.591900  1.0  0.0872
  H  H181  1  0.730900  0.042700  0.515100  1.0  0.1115
  H  H182  1  0.724300  0.061300  0.435700  1.0  0.0661
  H  H183  1  0.661600  0.145000  0.282600  1.0  0.0821
  H  H184  1  0.663700  0.162900  0.197700  1.0  0.1043
  H  H185  1  0.657900  0.015900  0.249700  1.0  0.1076
  H  H186  1  0.653700  0.003300  0.331700  1.0  0.0751
  H  H187  1  0.025200  0.383200  0.131000  1.0  0.1172
  H  H188  1  0.869500  0.510300  0.030100  1.0  0.074
  H  H189  1  0.797700  0.591900  0.021700  1.0  0.0871
  H  H190  1  0.711300  0.515100  0.042700  1.0  0.1119
  H  H191  1  0.778700  0.435700  0.061300  1.0  0.0667
  H  H192  1  0.910800  0.282600  0.145000  1.0  0.0824
  H  H193  1  0.975700  0.197700  0.162900  1.0  0.1021
  H  H194  1  0.076500  0.249700  0.015900  1.0  0.1099
  H  H195  1  0.011300  0.331700  0.003300  1.0  0.0772
  H  H196  1  0.131000  0.460600  0.025200  1.0  0.1167
  H  H197  1  0.030100  0.590100  0.869500  1.0  0.0743
  H  H198  1  0.021700  0.588700  0.797700  1.0  0.0873
  H  H199  1  0.042700  0.730900  0.711300  1.0  0.1127
  H  H200  1  0.061300  0.724300  0.778700  1.0  0.0649
  H  H201  1  0.145000  0.661600  0.910800  1.0  0.0821
  H  H202  1  0.162900  0.663700  0.975700  1.0  0.104
  H  H203  1  0.015900  0.657900  0.076500  1.0  0.1096
  H  H204  1  0.003300  0.653700  0.011300  1.0  0.0767
  H  H205  1  0.383200  0.131000  0.025200  1.0  0.1168
  H  H206  1  0.510300  0.030100  0.869500  1.0  0.0762
  H  H207  1  0.591900  0.021700  0.797700  1.0  0.0873
  H  H208  1  0.515100  0.042700  0.711300  1.0  0.1126
  H  H209  1  0.435700  0.061300  0.778700  1.0  0.0665
  H  H210  1  0.282600  0.145000  0.910800  1.0  0.0812
  H  H211  1  0.197700  0.162900  0.975700  1.0  0.1055
  H  H212  1  0.249700  0.015900  0.076500  1.0  0.1075
  H  H213  1  0.331700  0.003300  0.011300  1.0  0.0758
  H  H214  1  0.460600  0.025200  0.131000  1.0  0.1173
  H  H215  1  0.590100  0.869500  0.030100  1.0  0.0749
  H  H216  1  0.588700  0.797700  0.021700  1.0  0.0865
  H  H217  1  0.730900  0.711300  0.042700  1.0  0.1115
  H  H218  1  0.724300  0.778700  0.061300  1.0  0.0665
  H  H219  1  0.661600  0.910800  0.145000  1.0  0.0826
  H  H220  1  0.663700  0.975700  0.162900  1.0  0.1035
  H  H221  1  0.657900  0.076500  0.015900  1.0  0.1086
  H  H222  1  0.653700  0.011300  0.003300  1.0  0.0778
  H  H223  1  0.025200  0.460600  0.383200  1.0  0.1174
  H  H224  1  0.869500  0.590100  0.510300  1.0  0.0746
  H  H225  1  0.797700  0.588700  0.591900  1.0  0.0862
  H  H226  1  0.711300  0.730900  0.515100  1.0  0.1117
  H  H227  1  0.778700  0.724300  0.435700  1.0  0.0652
  H  H228  1  0.910800  0.661600  0.282600  1.0  0.0844
  H  H229  1  0.975700  0.663700  0.197700  1.0  0.104
  H  H230  1  0.076500  0.657900  0.249700  1.0  0.109
  H  H231  1  0.011300  0.653700  0.331700  1.0  0.074
  H  H232  1  0.131000  0.383200  0.460600  1.0  0.1162
  H  H233  1  0.030100  0.510300  0.590100  1.0  0.0765
  H  H234  1  0.021700  0.591900  0.588700  1.0  0.0863
  H  H235  1  0.042700  0.515100  0.730900  1.0  0.1125
  H  H236  1  0.061300  0.435700  0.724300  1.0  0.0658
  H  H237  1  0.145000  0.282600  0.661600  1.0  0.0821
  H  H238  1  0.162900  0.197700  0.663700  1.0  0.1041
  H  H239  1  0.015900  0.249700  0.657900  1.0  0.1078
  H  H240  1  0.003300  0.331700  0.653700  1.0  0.0765
  H  H241  1  0.895800  0.895800  0.604200  1.0  0.0963
  H  H242  1  0.604200  0.604200  0.895800  1.0  0.0971
  H  H243  1  0.895800  0.604200  0.604200  1.0  0.0983
  H  H244  1  0.604200  0.895800  0.895800  1.0  0.0975
  H  H245  1  0.895800  0.604200  0.895800  1.0  0.0976
  H  H246  1  0.604200  0.895800  0.604200  1.0  0.0983
  H  H247  1  0.395800  0.395800  0.104200  1.0  0.0963
  H  H248  1  0.104200  0.104200  0.395800  1.0  0.0971
  H  H249  1  0.395800  0.104200  0.395800  1.0  0.0976
  H  H250  1  0.104200  0.395800  0.104200  1.0  0.0983
  H  H251  1  0.395800  0.104200  0.104200  1.0  0.0983
  H  H252  1  0.104200  0.395800  0.395800  1.0  0.0975
  C  C253  1  0.928970  0.034210  0.453350  1.0  0.7061
  C  C254  1  0.941690  0.990190  0.502450  1.0  -0.0821
  C  C255  1  0.909800  0.956340  0.535540  1.0  -0.0962
  C  C256  1  0.010790  0.118350  0.336550  1.0  0.1296
  C  C257  1  0.060610  0.117810  0.293290  1.0  -0.1479
  C  C258  1  0.063150  0.158370  0.246570  1.0  -0.0585
  C  C259  1  0.015030  0.200590  0.242370  1.0  -0.1818
  C  C260  1  0.967700  0.197400  0.283920  1.0  0.1605
  C  C261  1  0.113130  0.158990  0.199430  1.0  0.3788
  C  C262  1  0.775930  0.160070  0.445030  1.0  0.1226
  C  C263  1  0.724260  0.162580  0.483720  1.0  -0.0603
  C  C264  1  0.712730  0.163310  0.533110  1.0  0.1948
  C  C265  1  0.755000  0.158860  0.542980  1.0  -0.1366
  C  C266  1  0.804190  0.155850  0.503850  1.0  0.1887
  C  C267  1  0.658180  0.166280  0.574000  1.0  0.3497
  C  C268  1  0.034210  0.928970  0.583470  1.0  0.7043
  C  C269  1  0.990190  0.941690  0.565670  1.0  -0.0832
  C  C270  1  0.956340  0.909800  0.598320  1.0  -0.0961
  C  C271  1  0.118350  0.010790  0.534310  1.0  0.1316
  C  C272  1  0.117810  0.060610  0.528290  1.0  -0.146
  C  C273  1  0.158370  0.063150  0.531910  1.0  -0.0597
  C  C274  1  0.200590  0.015030  0.542010  1.0  -0.175
  C  C275  1  0.197400  0.967700  0.550980  1.0  0.161
  C  C276  1  0.158990  0.113130  0.528450  1.0  0.3763
  C  C277  1  0.160070  0.775930  0.618970  1.0  0.126
  C  C278  1  0.162580  0.724260  0.629440  1.0  -0.0543
  C  C279  1  0.163310  0.712730  0.590850  1.0  0.1912
  C  C280  1  0.158860  0.755000  0.543160  1.0  -0.1312
  C  C281  1  0.155850  0.804190  0.536110  1.0  0.1897
  C  C282  1  0.166280  0.658180  0.601540  1.0  0.347
  C  C283  1  0.453350  0.583470  0.928970  1.0  0.6999
  C  C284  1  0.502450  0.565670  0.941690  1.0  -0.082
  C  C285  1  0.535540  0.598320  0.909800  1.0  -0.0971
  C  C286  1  0.336550  0.534310  0.010790  1.0  0.1317
  C  C287  1  0.293290  0.528290  0.060610  1.0  -0.1446
  C  C288  1  0.246570  0.531910  0.063150  1.0  -0.0568
  C  C289  1  0.242370  0.542010  0.015030  1.0  -0.1778
  C  C290  1  0.283920  0.550980  0.967700  1.0  0.1578
  C  C291  1  0.199430  0.528450  0.113130  1.0  0.3749
  C  C292  1  0.445030  0.618970  0.775930  1.0  0.1262
  C  C293  1  0.483720  0.629440  0.724260  1.0  -0.0555
  C  C294  1  0.533110  0.590850  0.712730  1.0  0.1925
  C  C295  1  0.542980  0.543160  0.755000  1.0  -0.1292
  C  C296  1  0.503850  0.536110  0.804190  1.0  0.1935
  C  C297  1  0.574000  0.601540  0.658180  1.0  0.3521
  C  C298  1  0.583470  0.453350  0.034210  1.0  0.6998
  C  C299  1  0.565670  0.502450  0.990190  1.0  -0.0795
  C  C300  1  0.598320  0.535540  0.956340  1.0  -0.1013
  C  C301  1  0.534310  0.336550  0.118350  1.0  0.1306
  C  C302  1  0.528290  0.293290  0.117810  1.0  -0.1463
  C  C303  1  0.531910  0.246570  0.158370  1.0  -0.0579
  C  C304  1  0.542010  0.242370  0.200590  1.0  -0.1803
  C  C305  1  0.550980  0.283920  0.197400  1.0  0.1561
  C  C306  1  0.528450  0.199430  0.158990  1.0  0.3732
  C  C307  1  0.618970  0.445030  0.160070  1.0  0.1244
  C  C308  1  0.629440  0.483720  0.162580  1.0  -0.0615
  C  C309  1  0.590850  0.533110  0.163310  1.0  0.1935
  C  C310  1  0.543160  0.542980  0.158860  1.0  -0.1308
  C  C311  1  0.536110  0.503850  0.155850  1.0  0.1944
  C  C312  1  0.601540  0.574000  0.166280  1.0  0.3528
  C  C313  1  0.928970  0.453350  0.583470  1.0  0.6989
  C  C314  1  0.941690  0.502450  0.565670  1.0  -0.0802
  C  C315  1  0.909800  0.535540  0.598320  1.0  -0.1002
  C  C316  1  0.010790  0.336550  0.534310  1.0  0.1321
  C  C317  1  0.060610  0.293290  0.528290  1.0  -0.1495
  C  C318  1  0.063150  0.246570  0.531910  1.0  -0.0563
  C  C319  1  0.015030  0.242370  0.542010  1.0  -0.1771
  C  C320  1  0.967700  0.283920  0.550980  1.0  0.1595
  C  C321  1  0.113130  0.199430  0.528450  1.0  0.3771
  C  C322  1  0.775930  0.445030  0.618970  1.0  0.1237
  C  C323  1  0.724260  0.483720  0.629440  1.0  -0.0569
  C  C324  1  0.712730  0.533110  0.590850  1.0  0.1907
  C  C325  1  0.755000  0.542980  0.543160  1.0  -0.1344
  C  C326  1  0.804190  0.503850  0.536110  1.0  0.1898
  C  C327  1  0.658180  0.574000  0.601540  1.0  0.3525
  C  C328  1  0.034210  0.583470  0.453350  1.0  0.6975
  C  C329  1  0.990190  0.565670  0.502450  1.0  -0.0824
  C  C330  1  0.956340  0.598320  0.535540  1.0  -0.0981
  C  C331  1  0.118350  0.534310  0.336550  1.0  0.1338
  C  C332  1  0.117810  0.528290  0.293290  1.0  -0.1482
  C  C333  1  0.158370  0.531910  0.246570  1.0  -0.0578
  C  C334  1  0.200590  0.542010  0.242370  1.0  -0.1755
  C  C335  1  0.197400  0.550980  0.283920  1.0  0.1623
  C  C336  1  0.158990  0.528450  0.199430  1.0  0.3753
  C  C337  1  0.160070  0.618970  0.445030  1.0  0.1219
  C  C338  1  0.162580  0.629440  0.483720  1.0  -0.0552
  C  C339  1  0.163310  0.590850  0.533110  1.0  0.1882
  C  C340  1  0.158860  0.543160  0.542980  1.0  -0.1259
  C  C341  1  0.155850  0.536110  0.503850  1.0  0.1929
  C  C342  1  0.166280  0.601540  0.574000  1.0  0.346
  C  C343  1  0.453350  0.928970  0.034210  1.0  0.6969
  C  C344  1  0.502450  0.941690  0.990190  1.0  -0.0835
  C  C345  1  0.535540  0.909800  0.956340  1.0  -0.0959
  C  C346  1  0.336550  0.010790  0.118350  1.0  0.1307
  C  C347  1  0.293290  0.060610  0.117810  1.0  -0.148
  C  C348  1  0.246570  0.063150  0.158370  1.0  -0.0542
  C  C349  1  0.242370  0.015030  0.200590  1.0  -0.18
  C  C350  1  0.283920  0.967700  0.197400  1.0  0.1583
  C  C351  1  0.199430  0.113130  0.158990  1.0  0.3808
  C  C352  1  0.445030  0.775930  0.160070  1.0  0.1278
  C  C353  1  0.483720  0.724260  0.162580  1.0  -0.0546
  C  C354  1  0.533110  0.712730  0.163310  1.0  0.1982
  C  C355  1  0.542980  0.755000  0.158860  1.0  -0.1332
  C  C356  1  0.503850  0.804190  0.155850  1.0  0.1886
  C  C357  1  0.574000  0.658180  0.166280  1.0  0.3564
  C  C358  1  0.583470  0.034210  0.928970  1.0  0.6959
  C  C359  1  0.565670  0.990190  0.941690  1.0  -0.0767
  C  C360  1  0.598320  0.956340  0.909800  1.0  -0.0977
  C  C361  1  0.534310  0.118350  0.010790  1.0  0.1343
  C  C362  1  0.528290  0.117810  0.060610  1.0  -0.1497
  C  C363  1  0.531910  0.158370  0.063150  1.0  -0.0567
  C  C364  1  0.542010  0.200590  0.015030  1.0  -0.1807
  C  C365  1  0.550980  0.197400  0.967700  1.0  0.161
  C  C366  1  0.528450  0.158990  0.113130  1.0  0.3734
  C  C367  1  0.618970  0.160070  0.775930  1.0  0.1243
  C  C368  1  0.629440  0.162580  0.724260  1.0  -0.0599
  C  C369  1  0.590850  0.163310  0.712730  1.0  0.1982
  C  C370  1  0.543160  0.158860  0.755000  1.0  -0.1297
  C  C371  1  0.536110  0.155850  0.804190  1.0  0.1891
  C  C372  1  0.601540  0.166280  0.658180  1.0  0.3501
  C  C373  1  0.928970  0.583470  0.034210  1.0  0.7021
  C  C374  1  0.941690  0.565670  0.990190  1.0  -0.0812
  C  C375  1  0.909800  0.598320  0.956340  1.0  -0.0965
  C  C376  1  0.010790  0.534310  0.118350  1.0  0.1307
  C  C377  1  0.060610  0.528290  0.117810  1.0  -0.1484
  C  C378  1  0.063150  0.531910  0.158370  1.0  -0.0571
  C  C379  1  0.015030  0.542010  0.200590  1.0  -0.1738
  C  C380  1  0.967700  0.550980  0.197400  1.0  0.1577
  C  C381  1  0.113130  0.528450  0.158990  1.0  0.3748
  C  C382  1  0.775930  0.618970  0.160070  1.0  0.1212
  C  C383  1  0.724260  0.629440  0.162580  1.0  -0.0616
  C  C384  1  0.712730  0.590850  0.163310  1.0  0.195
  C  C385  1  0.755000  0.543160  0.158860  1.0  -0.1312
  C  C386  1  0.804190  0.536110  0.155850  1.0  0.187
  C  C387  1  0.658180  0.601540  0.166280  1.0  0.3543
  C  C388  1  0.034210  0.453350  0.928970  1.0  0.7026
  C  C389  1  0.990190  0.502450  0.941690  1.0  -0.0816
  C  C390  1  0.956340  0.535540  0.909800  1.0  -0.0937
  C  C391  1  0.118350  0.336550  0.010790  1.0  0.1319
  C  C392  1  0.117810  0.293290  0.060610  1.0  -0.1439
  C  C393  1  0.158370  0.246570  0.063150  1.0  -0.0557
  C  C394  1  0.200590  0.242370  0.015030  1.0  -0.1781
  C  C395  1  0.197400  0.283920  0.967700  1.0  0.159
  C  C396  1  0.158990  0.199430  0.113130  1.0  0.3774
  C  C397  1  0.160070  0.445030  0.775930  1.0  0.1222
  C  C398  1  0.162580  0.483720  0.724260  1.0  -0.0591
  C  C399  1  0.163310  0.533110  0.712730  1.0  0.1892
  C  C400  1  0.158860  0.542980  0.755000  1.0  -0.1277
  C  C401  1  0.155850  0.503850  0.804190  1.0  0.1894
  C  C402  1  0.166280  0.574000  0.658180  1.0  0.3471
  C  C403  1  0.453350  0.034210  0.583470  1.0  0.7029
  C  C404  1  0.502450  0.990190  0.565670  1.0  -0.0831
  C  C405  1  0.535540  0.956340  0.598320  1.0  -0.093
  C  C406  1  0.336550  0.118350  0.534310  1.0  0.1304
  C  C407  1  0.293290  0.117810  0.528290  1.0  -0.1485
  C  C408  1  0.246570  0.158370  0.531910  1.0  -0.056
  C  C409  1  0.242370  0.200590  0.542010  1.0  -0.1768
  C  C410  1  0.283920  0.197400  0.550980  1.0  0.1613
  C  C411  1  0.199430  0.158990  0.528450  1.0  0.3739
  C  C412  1  0.445030  0.160070  0.618970  1.0  0.1293
  C  C413  1  0.483720  0.162580  0.629440  1.0  -0.0574
  C  C414  1  0.533110  0.163310  0.590850  1.0  0.192
  C  C415  1  0.542980  0.158860  0.543160  1.0  -0.13
  C  C416  1  0.503850  0.155850  0.536110  1.0  0.1869
  C  C417  1  0.574000  0.166280  0.601540  1.0  0.3514
  C  C418  1  0.583470  0.928970  0.453350  1.0  0.698
  C  C419  1  0.565670  0.941690  0.502450  1.0  -0.0785
  C  C420  1  0.598320  0.909800  0.535540  1.0  -0.0983
  C  C421  1  0.534310  0.010790  0.336550  1.0  0.1319
  C  C422  1  0.528290  0.060610  0.293290  1.0  -0.146
  C  C423  1  0.531910  0.063150  0.246570  1.0  -0.0595
  C  C424  1  0.542010  0.015030  0.242370  1.0  -0.1744
  C  C425  1  0.550980  0.967700  0.283920  1.0  0.1606
  C  C426  1  0.528450  0.113130  0.199430  1.0  0.3742
  C  C427  1  0.618970  0.775930  0.445030  1.0  0.1229
  C  C428  1  0.629440  0.724260  0.483720  1.0  -0.0608
  C  C429  1  0.590850  0.712730  0.533110  1.0  0.1889
  C  C430  1  0.543160  0.755000  0.542980  1.0  -0.1277
  C  C431  1  0.536110  0.804190  0.503850  1.0  0.1902
  C  C432  1  0.601540  0.658180  0.574000  1.0  0.3545
  C  C433  1  0.428970  0.534210  0.083470  1.0  0.7048
  C  C434  1  0.441690  0.490190  0.065670  1.0  -0.0825
  C  C435  1  0.409800  0.456340  0.098320  1.0  -0.0957
  C  C436  1  0.510790  0.618350  0.034310  1.0  0.1298
  C  C437  1  0.560610  0.617810  0.028290  1.0  -0.1478
  C  C438  1  0.563150  0.658370  0.031910  1.0  -0.0591
  C  C439  1  0.515030  0.700590  0.042010  1.0  -0.1809
  C  C440  1  0.467700  0.697400  0.050980  1.0  0.1601
  C  C441  1  0.613130  0.658990  0.028450  1.0  0.3757
  C  C442  1  0.275930  0.660070  0.118970  1.0  0.1235
  C  C443  1  0.224260  0.662580  0.129440  1.0  -0.0602
  C  C444  1  0.212730  0.663310  0.090850  1.0  0.1872
  C  C445  1  0.255000  0.658860  0.043160  1.0  -0.1329
  C  C446  1  0.304190  0.655850  0.036110  1.0  0.1876
  C  C447  1  0.158180  0.666280  0.101540  1.0  0.3483
  C  C448  1  0.534210  0.428970  0.953350  1.0  0.7027
  C  C449  1  0.490190  0.441690  0.002450  1.0  -0.0832
  C  C450  1  0.456340  0.409800  0.035540  1.0  -0.0963
  C  C451  1  0.618350  0.510790  0.836550  1.0  0.1323
  C  C452  1  0.617810  0.560610  0.793290  1.0  -0.1458
  C  C453  1  0.658370  0.563150  0.746570  1.0  -0.0598
  C  C454  1  0.700590  0.515030  0.742370  1.0  -0.1768
  C  C455  1  0.697400  0.467700  0.783920  1.0  0.1617
  C  C456  1  0.658990  0.613130  0.699430  1.0  0.3802
  C  C457  1  0.660070  0.275930  0.945030  1.0  0.1255
  C  C458  1  0.662580  0.224260  0.983720  1.0  -0.0542
  C  C459  1  0.663310  0.212730  0.033110  1.0  0.1889
  C  C460  1  0.658860  0.255000  0.042980  1.0  -0.137
  C  C461  1  0.655850  0.304190  0.003850  1.0  0.1892
  C  C462  1  0.666280  0.158180  0.074000  1.0  0.3417
  C  C463  1  0.953350  0.083470  0.534210  1.0  0.6987
  C  C464  1  0.002450  0.065670  0.490190  1.0  -0.0835
  C  C465  1  0.035540  0.098320  0.456340  1.0  -0.0965
  C  C466  1  0.836550  0.034310  0.618350  1.0  0.1309
  C  C467  1  0.793290  0.028290  0.617810  1.0  -0.1449
  C  C468  1  0.746570  0.031910  0.658370  1.0  -0.0563
  C  C469  1  0.742370  0.042010  0.700590  1.0  -0.1799
  C  C470  1  0.783920  0.050980  0.697400  1.0  0.1575
  C  C471  1  0.699430  0.028450  0.658990  1.0  0.3748
  C  C472  1  0.945030  0.118970  0.660070  1.0  0.126
  C  C473  1  0.983720  0.129440  0.662580  1.0  -0.0558
  C  C474  1  0.033110  0.090850  0.663310  1.0  0.1728
  C  C475  1  0.042980  0.043160  0.658860  1.0  -0.1549
  C  C476  1  0.003850  0.036110  0.655850  1.0  0.1896
  C  C477  1  0.074000  0.101540  0.666280  1.0  0.3269
  C  C478  1  0.083470  0.953350  0.428970  1.0  0.6979
  C  C479  1  0.065670  0.002450  0.441690  1.0  -0.0779
  C  C480  1  0.098320  0.035540  0.409800  1.0  -0.1011
  C  C481  1  0.034310  0.836550  0.510790  1.0  0.1314
  C  C482  1  0.028290  0.793290  0.560610  1.0  -0.1447
  C  C483  1  0.031910  0.746570  0.563150  1.0  -0.0576
  C  C484  1  0.042010  0.742370  0.515030  1.0  -0.1775
  C  C485  1  0.050980  0.783920  0.467700  1.0  0.1562
  C  C486  1  0.028450  0.699430  0.613130  1.0  0.3732
  C  C487  1  0.118970  0.945030  0.275930  1.0  0.1238
  C  C488  1  0.129440  0.983720  0.224260  1.0  -0.0597
  C  C489  1  0.090850  0.033110  0.212730  1.0  0.1708
  C  C490  1  0.043160  0.042980  0.255000  1.0  -0.1554
  C  C491  1  0.036110  0.003850  0.304190  1.0  0.1904
  C  C492  1  0.101540  0.074000  0.158180  1.0  0.3213
  C  C493  1  0.428970  0.953350  0.534210  1.0  0.6987
  C  C494  1  0.441690  0.002450  0.490190  1.0  -0.0813
  C  C495  1  0.409800  0.035540  0.456340  1.0  -0.0981
  C  C496  1  0.510790  0.836550  0.618350  1.0  0.1317
  C  C497  1  0.560610  0.793290  0.617810  1.0  -0.1498
  C  C498  1  0.563150  0.746570  0.658370  1.0  -0.0534
  C  C499  1  0.515030  0.742370  0.700590  1.0  -0.1808
  C  C500  1  0.467700  0.783920  0.697400  1.0  0.1587
  C  C501  1  0.613130  0.699430  0.658990  1.0  0.3788
  C  C502  1  0.275930  0.945030  0.660070  1.0  0.124
  C  C503  1  0.224260  0.983720  0.662580  1.0  -0.056
  C  C504  1  0.212730  0.033110  0.663310  1.0  0.1933
  C  C505  1  0.255000  0.042980  0.658860  1.0  -0.1388
  C  C506  1  0.304190  0.003850  0.655850  1.0  0.1894
  C  C507  1  0.158180  0.074000  0.666280  1.0  0.3477
  C  C508  1  0.534210  0.083470  0.428970  1.0  0.6976
  C  C509  1  0.490190  0.065670  0.441690  1.0  -0.0821
  C  C510  1  0.456340  0.098320  0.409800  1.0  -0.0988
  C  C511  1  0.618350  0.034310  0.510790  1.0  0.1333
  C  C512  1  0.617810  0.028290  0.560610  1.0  -0.1479
  C  C513  1  0.658370  0.031910  0.563150  1.0  -0.0577
  C  C514  1  0.700590  0.042010  0.515030  1.0  -0.1752
  C  C515  1  0.697400  0.050980  0.467700  1.0  0.1628
  C  C516  1  0.658990  0.028450  0.613130  1.0  0.3754
  C  C517  1  0.660070  0.118970  0.275930  1.0  0.1234
  C  C518  1  0.662580  0.129440  0.224260  1.0  -0.0556
  C  C519  1  0.663310  0.090850  0.212730  1.0  0.1828
  C  C520  1  0.658860  0.043160  0.255000  1.0  -0.1233
  C  C521  1  0.655850  0.036110  0.304190  1.0  0.1921
  C  C522  1  0.666280  0.101540  0.158180  1.0  0.3445
  C  C523  1  0.953350  0.428970  0.083470  1.0  0.697
  C  C524  1  0.002450  0.441690  0.065670  1.0  -0.0826
  C  C525  1  0.035540  0.409800  0.098320  1.0  -0.0992
  C  C526  1  0.836550  0.510790  0.034310  1.0  0.1307
  C  C527  1  0.793290  0.560610  0.028290  1.0  -0.1485
  C  C528  1  0.746570  0.563150  0.031910  1.0  -0.0553
  C  C529  1  0.742370  0.515030  0.042010  1.0  -0.1766
  C  C530  1  0.783920  0.467700  0.050980  1.0  0.1593
  C  C531  1  0.699430  0.613130  0.028450  1.0  0.3771
  C  C532  1  0.945030  0.275930  0.118970  1.0  0.1281
  C  C533  1  0.983720  0.224260  0.129440  1.0  -0.054
  C  C534  1  0.033110  0.212730  0.090850  1.0  0.1664
  C  C535  1  0.042980  0.255000  0.043160  1.0  -0.1553
  C  C536  1  0.003850  0.304190  0.036110  1.0  0.1859
  C  C537  1  0.074000  0.158180  0.101540  1.0  0.3242
  C  C538  1  0.083470  0.534210  0.953350  1.0  0.6955
  C  C539  1  0.065670  0.490190  0.002450  1.0  -0.0765
  C  C540  1  0.098320  0.456340  0.035540  1.0  -0.0976
  C  C541  1  0.034310  0.618350  0.836550  1.0  0.1345
  C  C542  1  0.028290  0.617810  0.793290  1.0  -0.15
  C  C543  1  0.031910  0.658370  0.746570  1.0  -0.0583
  C  C544  1  0.042010  0.700590  0.742370  1.0  -0.181
  C  C545  1  0.050980  0.697400  0.783920  1.0  0.1608
  C  C546  1  0.028450  0.658990  0.699430  1.0  0.3736
  C  C547  1  0.118970  0.660070  0.945030  1.0  0.1234
  C  C548  1  0.129440  0.662580  0.983720  1.0  -0.0584
  C  C549  1  0.090850  0.663310  0.033110  1.0  0.174
  C  C550  1  0.043160  0.658860  0.042980  1.0  -0.1528
  C  C551  1  0.036110  0.655850  0.003850  1.0  0.1859
  C  C552  1  0.101540  0.666280  0.074000  1.0  0.3238
  C  C553  1  0.428970  0.083470  0.953350  1.0  0.7033
  C  C554  1  0.441690  0.065670  0.002450  1.0  -0.0805
  C  C555  1  0.409800  0.098320  0.035540  1.0  -0.0961
  C  C556  1  0.510790  0.034310  0.836550  1.0  0.1313
  C  C557  1  0.560610  0.028290  0.793290  1.0  -0.148
  C  C558  1  0.563150  0.031910  0.746570  1.0  -0.0581
  C  C559  1  0.515030  0.042010  0.742370  1.0  -0.1729
  C  C560  1  0.467700  0.050980  0.783920  1.0  0.1577
  C  C561  1  0.613130  0.028450  0.699430  1.0  0.375
  C  C562  1  0.275930  0.118970  0.945030  1.0  0.1213
  C  C563  1  0.224260  0.129440  0.983720  1.0  -0.0604
  C  C564  1  0.212730  0.090850  0.033110  1.0  0.1674
  C  C565  1  0.255000  0.043160  0.042980  1.0  -0.1541
  C  C566  1  0.304190  0.036110  0.003850  1.0  0.1832
  C  C567  1  0.158180  0.101540  0.074000  1.0  0.3214
  C  C568  1  0.534210  0.953350  0.083470  1.0  0.7046
  C  C569  1  0.490190  0.002450  0.065670  1.0  -0.0818
  C  C570  1  0.456340  0.035540  0.098320  1.0  -0.0945
  C  C571  1  0.618350  0.836550  0.034310  1.0  0.1316
  C  C572  1  0.617810  0.793290  0.028290  1.0  -0.1447
  C  C573  1  0.658370  0.746570  0.031910  1.0  -0.0547
  C  C574  1  0.700590  0.742370  0.042010  1.0  -0.1782
  C  C575  1  0.697400  0.783920  0.050980  1.0  0.1589
  C  C576  1  0.658990  0.699430  0.028450  1.0  0.3746
  C  C577  1  0.660070  0.945030  0.118970  1.0  0.1226
  C  C578  1  0.662580  0.983720  0.129440  1.0  -0.0612
  C  C579  1  0.663310  0.033110  0.090850  1.0  0.1664
  C  C580  1  0.658860  0.042980  0.043160  1.0  -0.1509
  C  C581  1  0.655850  0.003850  0.036110  1.0  0.1859
  C  C582  1  0.666280  0.074000  0.101540  1.0  0.3225
  C  C583  1  0.953350  0.534210  0.428970  1.0  0.7045
  C  C584  1  0.002450  0.490190  0.441690  1.0  -0.0821
  C  C585  1  0.035540  0.456340  0.409800  1.0  -0.0897
  C  C586  1  0.836550  0.618350  0.510790  1.0  0.1306
  C  C587  1  0.793290  0.617810  0.560610  1.0  -0.1477
  C  C588  1  0.746570  0.658370  0.563150  1.0  -0.0573
  C  C589  1  0.742370  0.700590  0.515030  1.0  -0.177
  C  C590  1  0.783920  0.697400  0.467700  1.0  0.1613
  C  C591  1  0.699430  0.658990  0.613130  1.0  0.3774
  C  C592  1  0.945030  0.660070  0.275930  1.0  0.1286
  C  C593  1  0.983720  0.662580  0.224260  1.0  -0.0591
  C  C594  1  0.033110  0.663310  0.212730  1.0  0.1914
  C  C595  1  0.042980  0.658860  0.255000  1.0  -0.1345
  C  C596  1  0.003850  0.655850  0.304190  1.0  0.1861
  C  C597  1  0.074000  0.666280  0.158180  1.0  0.3456
  C  C598  1  0.083470  0.428970  0.534210  1.0  0.6994
  C  C599  1  0.065670  0.441690  0.490190  1.0  -0.0798
  C  C600  1  0.098320  0.409800  0.456340  1.0  -0.0984
  C  C601  1  0.034310  0.510790  0.618350  1.0  0.1314
  C  C602  1  0.028290  0.560610  0.617810  1.0  -0.1458
  C  C603  1  0.031910  0.563150  0.658370  1.0  -0.0579
  C  C604  1  0.042010  0.515030  0.700590  1.0  -0.175
  C  C605  1  0.050980  0.467700  0.697400  1.0  0.1604
  C  C606  1  0.028450  0.613130  0.658990  1.0  0.3737
  C  C607  1  0.118970  0.275930  0.660070  1.0  0.1229
  C  C608  1  0.129440  0.224260  0.662580  1.0  -0.0606
  C  C609  1  0.090850  0.212730  0.663310  1.0  0.1899
  C  C610  1  0.043160  0.255000  0.658860  1.0  -0.1247
  C  C611  1  0.036110  0.304190  0.655850  1.0  0.1894
  C  C612  1  0.101540  0.158180  0.666280  1.0  0.3536
  C  C613  1  0.982490  0.982490  0.517510  1.0  -0.0554
  C  C614  1  0.917520  0.917520  0.582480  1.0  -0.0621
  C  C615  1  0.517510  0.517510  0.982490  1.0  -0.0551
  C  C616  1  0.582480  0.582480  0.917520  1.0  -0.0594
  C  C617  1  0.982490  0.517510  0.517510  1.0  -0.0557
  C  C618  1  0.917520  0.582480  0.582480  1.0  -0.0589
  C  C619  1  0.517510  0.982490  0.982490  1.0  -0.0551
  C  C620  1  0.582480  0.917520  0.917520  1.0  -0.0595
  C  C621  1  0.982490  0.517510  0.982490  1.0  -0.056
  C  C622  1  0.917520  0.582480  0.917520  1.0  -0.0581
  C  C623  1  0.517510  0.982490  0.517510  1.0  -0.0551
  C  C624  1  0.582480  0.917520  0.582480  1.0  -0.0602
  C  C625  1  0.482490  0.482490  0.017510  1.0  -0.0554
  C  C626  1  0.417520  0.417520  0.082480  1.0  -0.0621
  C  C627  1  0.017510  0.017510  0.482490  1.0  -0.0551
  C  C628  1  0.082480  0.082480  0.417520  1.0  -0.0594
  C  C629  1  0.482490  0.017510  0.482490  1.0  -0.056
  C  C630  1  0.417520  0.082480  0.417520  1.0  -0.0581
  C  C631  1  0.017510  0.482490  0.017510  1.0  -0.0551
  C  C632  1  0.082480  0.417520  0.082480  1.0  -0.0602
  C  C633  1  0.482490  0.017510  0.017510  1.0  -0.0557
  C  C634  1  0.417520  0.082480  0.082480  1.0  -0.0589
  C  C635  1  0.017510  0.482490  0.482490  1.0  -0.0551
  C  C636  1  0.082480  0.417520  0.417520  1.0  -0.0595
  N  N637  1  0.964890  0.157950  0.331410  1.0  -0.2969
  N  N638  1  0.112550  0.203150  0.156090  1.0  -0.4951
  N  N639  1  0.815430  0.155730  0.455910  1.0  -0.3753
  N  N640  1  0.622330  0.165330  0.561830  1.0  -0.3744
  N  N641  1  0.157950  0.964890  0.545750  1.0  -0.2909
  N  N642  1  0.203150  0.112550  0.528210  1.0  -0.4953
  N  N643  1  0.155730  0.815430  0.572930  1.0  -0.3674
  N  N644  1  0.165330  0.622330  0.650510  1.0  -0.3733
  N  N645  1  0.331410  0.545750  0.964890  1.0  -0.3004
  N  N646  1  0.156090  0.528210  0.112550  1.0  -0.4983
  N  N647  1  0.455910  0.572930  0.815430  1.0  -0.3694
  N  N648  1  0.561830  0.650510  0.622330  1.0  -0.3674
  N  N649  1  0.545750  0.331410  0.157950  1.0  -0.2961
  N  N650  1  0.528210  0.156090  0.203150  1.0  -0.4968
  N  N651  1  0.572930  0.455910  0.155730  1.0  -0.3655
  N  N652  1  0.650510  0.561830  0.165330  1.0  -0.37
  N  N653  1  0.964890  0.331410  0.545750  1.0  -0.2933
  N  N654  1  0.112550  0.156090  0.528210  1.0  -0.4974
  N  N655  1  0.815430  0.455910  0.572930  1.0  -0.3637
  N  N656  1  0.622330  0.561830  0.650510  1.0  -0.3695
  N  N657  1  0.157950  0.545750  0.331410  1.0  -0.2998
  N  N658  1  0.203150  0.528210  0.156090  1.0  -0.498
  N  N659  1  0.155730  0.572930  0.455910  1.0  -0.3714
  N  N660  1  0.165330  0.650510  0.561830  1.0  -0.3699
  N  N661  1  0.331410  0.964890  0.157950  1.0  -0.2864
  N  N662  1  0.156090  0.112550  0.203150  1.0  -0.4983
  N  N663  1  0.455910  0.815430  0.155730  1.0  -0.3644
  N  N664  1  0.561830  0.622330  0.165330  1.0  -0.3691
  N  N665  1  0.545750  0.157950  0.964890  1.0  -0.3056
  N  N666  1  0.528210  0.203150  0.112550  1.0  -0.501
  N  N667  1  0.572930  0.155730  0.815430  1.0  -0.3636
  N  N668  1  0.650510  0.165330  0.622330  1.0  -0.3696
  N  N669  1  0.964890  0.545750  0.157950  1.0  -0.2977
  N  N670  1  0.112550  0.528210  0.203150  1.0  -0.5004
  N  N671  1  0.815430  0.572930  0.155730  1.0  -0.3681
  N  N672  1  0.622330  0.650510  0.165330  1.0  -0.3684
  N  N673  1  0.157950  0.331410  0.964890  1.0  -0.299
  N  N674  1  0.203150  0.156090  0.112550  1.0  -0.4995
  N  N675  1  0.155730  0.455910  0.815430  1.0  -0.3645
  N  N676  1  0.165330  0.561830  0.622330  1.0  -0.3691
  N  N677  1  0.331410  0.157950  0.545750  1.0  -0.3
  N  N678  1  0.156090  0.203150  0.528210  1.0  -0.5006
  N  N679  1  0.455910  0.155730  0.572930  1.0  -0.3678
  N  N680  1  0.561830  0.165330  0.650510  1.0  -0.367
  N  N681  1  0.545750  0.964890  0.331410  1.0  -0.2893
  N  N682  1  0.528210  0.112550  0.156090  1.0  -0.5008
  N  N683  1  0.572930  0.815430  0.455910  1.0  -0.3686
  N  N684  1  0.650510  0.622330  0.561830  1.0  -0.3673
  N  N685  1  0.464890  0.657950  0.045750  1.0  -0.297
  N  N686  1  0.612550  0.703150  0.028210  1.0  -0.4932
  N  N687  1  0.315430  0.655730  0.072930  1.0  -0.3737
  N  N688  1  0.122330  0.665330  0.150510  1.0  -0.3717
  N  N689  1  0.657950  0.464890  0.831410  1.0  -0.2901
  N  N690  1  0.703150  0.612550  0.656090  1.0  -0.4943
  N  N691  1  0.655730  0.315430  0.955910  1.0  -0.368
  N  N692  1  0.665330  0.122330  0.061830  1.0  -0.3715
  N  N693  1  0.831410  0.045750  0.657950  1.0  -0.2993
  N  N694  1  0.656090  0.028210  0.703150  1.0  -0.4997
  N  N695  1  0.955910  0.072930  0.655730  1.0  -0.369
  N  N696  1  0.061830  0.150510  0.665330  1.0  -0.3686
  N  N697  1  0.045750  0.831410  0.464890  1.0  -0.2961
  N  N698  1  0.028210  0.656090  0.612550  1.0  -0.497
  N  N699  1  0.072930  0.955910  0.315430  1.0  -0.3661
  N  N700  1  0.150510  0.061830  0.122330  1.0  -0.3688
  N  N701  1  0.464890  0.831410  0.657950  1.0  -0.2953
  N  N702  1  0.612550  0.656090  0.703150  1.0  -0.4972
  N  N703  1  0.315430  0.955910  0.655730  1.0  -0.3629
  N  N704  1  0.122330  0.061830  0.665330  1.0  -0.3704
  N  N705  1  0.657950  0.045750  0.464890  1.0  -0.3029
  N  N706  1  0.703150  0.028210  0.612550  1.0  -0.4981
  N  N707  1  0.655730  0.072930  0.315430  1.0  -0.3649
  N  N708  1  0.665330  0.150510  0.122330  1.0  -0.3709
  N  N709  1  0.831410  0.464890  0.045750  1.0  -0.285
  N  N710  1  0.656090  0.612550  0.028210  1.0  -0.5003
  N  N711  1  0.955910  0.315430  0.072930  1.0  -0.3632
  N  N712  1  0.061830  0.122330  0.150510  1.0  -0.3694
  N  N713  1  0.045750  0.657950  0.831410  1.0  -0.3
  N  N714  1  0.028210  0.703150  0.656090  1.0  -0.5014
  N  N715  1  0.072930  0.655730  0.955910  1.0  -0.3734
  N  N716  1  0.150510  0.665330  0.061830  1.0  -0.3692
  N  N717  1  0.464890  0.045750  0.831410  1.0  -0.2981
  N  N718  1  0.612550  0.028210  0.656090  1.0  -0.4999
  N  N719  1  0.315430  0.072930  0.955910  1.0  -0.3731
  N  N720  1  0.122330  0.150510  0.061830  1.0  -0.3672
  N  N721  1  0.657950  0.831410  0.045750  1.0  -0.2969
  N  N722  1  0.703150  0.656090  0.028210  1.0  -0.5005
  N  N723  1  0.655730  0.955910  0.072930  1.0  -0.3662
  N  N724  1  0.665330  0.061830  0.150510  1.0  -0.3698
  N  N725  1  0.831410  0.657950  0.464890  1.0  -0.3042
  N  N726  1  0.656090  0.703150  0.612550  1.0  -0.5012
  N  N727  1  0.955910  0.655730  0.315430  1.0  -0.3666
  N  N728  1  0.061830  0.665330  0.122330  1.0  -0.3664
  N  N729  1  0.045750  0.464890  0.657950  1.0  -0.2878
  N  N730  1  0.028210  0.612550  0.703150  1.0  -0.5004
  N  N731  1  0.072930  0.315430  0.655730  1.0  -0.3649
  N  N732  1  0.150510  0.122330  0.665330  1.0  -0.3675
  O  O733  1  0.924860  0.081080  0.444900  1.0  -0.5998
  O  O734  1  0.921990  0.023230  0.422790  1.0  -0.5531
  O  O735  1  0.081080  0.924860  0.549160  1.0  -0.5984
  O  O736  1  0.023230  0.921990  0.631990  1.0  -0.5499
  O  O737  1  0.444900  0.549160  0.924860  1.0  -0.6004
  O  O738  1  0.422790  0.631990  0.921990  1.0  -0.5411
  O  O739  1  0.549160  0.444900  0.081080  1.0  -0.601
  O  O740  1  0.631990  0.422790  0.023230  1.0  -0.5438
  O  O741  1  0.924860  0.444900  0.549160  1.0  -0.5988
  O  O742  1  0.921990  0.422790  0.631990  1.0  -0.5473
  O  O743  1  0.081080  0.549160  0.444900  1.0  -0.5988
  O  O744  1  0.023230  0.631990  0.422790  1.0  -0.5401
  O  O745  1  0.444900  0.924860  0.081080  1.0  -0.5994
  O  O746  1  0.422790  0.921990  0.023230  1.0  -0.5509
  O  O747  1  0.549160  0.081080  0.924860  1.0  -0.5991
  O  O748  1  0.631990  0.023230  0.921990  1.0  -0.5453
  O  O749  1  0.924860  0.549160  0.081080  1.0  -0.6004
  O  O750  1  0.921990  0.631990  0.023230  1.0  -0.5423
  O  O751  1  0.081080  0.444900  0.924860  1.0  -0.598
  O  O752  1  0.023230  0.422790  0.921990  1.0  -0.551
  O  O753  1  0.444900  0.081080  0.549160  1.0  -0.5991
  O  O754  1  0.422790  0.023230  0.631990  1.0  -0.5487
  O  O755  1  0.549160  0.924860  0.444900  1.0  -0.5991
  O  O756  1  0.631990  0.921990  0.422790  1.0  -0.5465
  O  O757  1  0.424860  0.581080  0.049160  1.0  -0.601
  O  O758  1  0.421990  0.523230  0.131990  1.0  -0.5495
  O  O759  1  0.581080  0.424860  0.944900  1.0  -0.5989
  O  O760  1  0.523230  0.421990  0.922790  1.0  -0.5506
  O  O761  1  0.944900  0.049160  0.581080  1.0  -0.6031
  O  O762  1  0.922790  0.131990  0.523230  1.0  -0.5409
  O  O763  1  0.049160  0.944900  0.424860  1.0  -0.6007
  O  O764  1  0.131990  0.922790  0.421990  1.0  -0.5441
  O  O765  1  0.424860  0.944900  0.581080  1.0  -0.6
  O  O766  1  0.421990  0.922790  0.523230  1.0  -0.5509
  O  O767  1  0.581080  0.049160  0.424860  1.0  -0.5998
  O  O768  1  0.523230  0.131990  0.421990  1.0  -0.5413
  O  O769  1  0.944900  0.424860  0.049160  1.0  -0.6002
  O  O770  1  0.922790  0.421990  0.131990  1.0  -0.5478
  O  O771  1  0.049160  0.581080  0.944900  1.0  -0.6002
  O  O772  1  0.131990  0.523230  0.922790  1.0  -0.5441
  O  O773  1  0.424860  0.049160  0.944900  1.0  -0.6003
  O  O774  1  0.421990  0.131990  0.922790  1.0  -0.5418
  O  O775  1  0.581080  0.944900  0.049160  1.0  -0.5993
  O  O776  1  0.523230  0.922790  0.131990  1.0  -0.5482
  O  O777  1  0.944900  0.581080  0.424860  1.0  -0.5999
  O  O778  1  0.922790  0.523230  0.421990  1.0  -0.5539
  O  O779  1  0.049160  0.424860  0.581080  1.0  -0.6018
  O  O780  1  0.131990  0.421990  0.523230  1.0  -0.5465
