# generated using pymatgen
data_Ni2H28C40N3O8
_symmetry_space_group_name_H-M   'P 1'
_cell_length_a   26.81600000
_cell_length_b   26.81600000
_cell_length_c   26.81600000
_cell_angle_alpha   90.00000000
_cell_angle_beta   90.00000000
_cell_angle_gamma   90.00000000
_symmetry_Int_Tables_number   1
_chemical_formula_structural   Ni2H28C40N3O8
_chemical_formula_sum   'Ni24 H336 C480 N36 O96'
_cell_volume   19283.32810650
_cell_formula_units_Z   12
loop_
 _symmetry_equiv_pos_site_id
 _symmetry_equiv_pos_as_xyz
  1  'x, y, z'
loop_
 _atom_site_type_symbol
 _atom_site_label
 _atom_site_symmetry_multiplicity
 _atom_site_fract_x
 _atom_site_fract_y
 _atom_site_fract_z
 _atom_site_occupancy
 _atom_site_charge
  Ni  Ni1  1  0.500000  0.000000  0.221630  1.0  0.9023
  Ni  Ni2  1  0.500000  0.000000  0.115490  1.0  0.6574
  Ni  Ni3  1  0.500000  0.000000  0.778370  1.0  0.9022
  Ni  Ni4  1  0.500000  0.000000  0.884510  1.0  0.657
  Ni  Ni5  1  0.221630  0.500000  0.000000  1.0  0.9021
  Ni  Ni6  1  0.115490  0.500000  0.000000  1.0  0.6635
  Ni  Ni7  1  0.778370  0.500000  0.000000  1.0  0.9017
  Ni  Ni8  1  0.884510  0.500000  0.000000  1.0  0.6628
  Ni  Ni9  1  0.000000  0.221630  0.500000  1.0  0.9016
  Ni  Ni10  1  0.000000  0.115490  0.500000  1.0  0.6547
  Ni  Ni11  1  0.000000  0.778370  0.500000  1.0  0.9016
  Ni  Ni12  1  0.000000  0.884510  0.500000  1.0  0.65
  Ni  Ni13  1  0.000000  0.500000  0.721630  1.0  0.9023
  Ni  Ni14  1  0.000000  0.500000  0.615490  1.0  0.6574
  Ni  Ni15  1  0.000000  0.500000  0.278370  1.0  0.9022
  Ni  Ni16  1  0.000000  0.500000  0.384510  1.0  0.657
  Ni  Ni17  1  0.721630  0.000000  0.500000  1.0  0.9021
  Ni  Ni18  1  0.615490  0.000000  0.500000  1.0  0.6635
  Ni  Ni19  1  0.278370  0.000000  0.500000  1.0  0.9017
  Ni  Ni20  1  0.384510  0.000000  0.500000  1.0  0.6628
  Ni  Ni21  1  0.500000  0.721630  0.000000  1.0  0.9016
  Ni  Ni22  1  0.500000  0.615490  0.000000  1.0  0.6547
  Ni  Ni23  1  0.500000  0.278370  0.000000  1.0  0.9016
  Ni  Ni24  1  0.500000  0.384510  0.000000  1.0  0.65
  H  H25  1  0.593400  0.029200  0.304500  1.0  0.1016
  H  H26  1  0.742600  0.225800  0.139500  1.0  0.1225
  H  H27  1  0.630700  0.106300  0.101700  1.0  0.1263
  H  H28  1  0.701800  0.153000  0.113300  1.0  0.1251
  H  H29  1  0.688500  0.138000  0.260900  1.0  0.1149
  H  H30  1  0.614700  0.094800  0.250200  1.0  0.1196
  H  H31  1  0.406600  0.970800  0.304500  1.0  0.1001
  H  H32  1  0.257400  0.774200  0.139500  1.0  0.1227
  H  H33  1  0.369300  0.893700  0.101700  1.0  0.1261
  H  H34  1  0.298200  0.847000  0.113300  1.0  0.1241
  H  H35  1  0.311500  0.862000  0.260900  1.0  0.116
  H  H36  1  0.385300  0.905200  0.250200  1.0  0.1197
  H  H37  1  0.406600  0.029200  0.695500  1.0  0.1037
  H  H38  1  0.257400  0.225800  0.860500  1.0  0.1225
  H  H39  1  0.369300  0.106300  0.898300  1.0  0.1262
  H  H40  1  0.298200  0.153000  0.886700  1.0  0.1241
  H  H41  1  0.311500  0.138000  0.739100  1.0  0.1165
  H  H42  1  0.385300  0.094800  0.749800  1.0  0.1194
  H  H43  1  0.593400  0.970800  0.695500  1.0  0.0995
  H  H44  1  0.742600  0.774200  0.860500  1.0  0.122
  H  H45  1  0.630700  0.893700  0.898300  1.0  0.1259
  H  H46  1  0.701800  0.847000  0.886700  1.0  0.1234
  H  H47  1  0.688500  0.862000  0.739100  1.0  0.1166
  H  H48  1  0.614700  0.905200  0.749800  1.0  0.1192
  H  H49  1  0.304500  0.593400  0.029200  1.0  0.1036
  H  H50  1  0.139500  0.742600  0.225800  1.0  0.1205
  H  H51  1  0.101700  0.630700  0.106300  1.0  0.125
  H  H52  1  0.113300  0.701800  0.153000  1.0  0.123
  H  H53  1  0.260900  0.688500  0.138000  1.0  0.118
  H  H54  1  0.250200  0.614700  0.094800  1.0  0.119
  H  H55  1  0.304500  0.406600  0.970800  1.0  0.1024
  H  H56  1  0.139500  0.257400  0.774200  1.0  0.1208
  H  H57  1  0.101700  0.369300  0.893700  1.0  0.1254
  H  H58  1  0.113300  0.298200  0.847000  1.0  0.1233
  H  H59  1  0.260900  0.311500  0.862000  1.0  0.1181
  H  H60  1  0.250200  0.385300  0.905200  1.0  0.1186
  H  H61  1  0.695500  0.406600  0.029200  1.0  0.1018
  H  H62  1  0.860500  0.257400  0.225800  1.0  0.1207
  H  H63  1  0.898300  0.369300  0.106300  1.0  0.1258
  H  H64  1  0.886700  0.298200  0.153000  1.0  0.1236
  H  H65  1  0.739100  0.311500  0.138000  1.0  0.1177
  H  H66  1  0.749800  0.385300  0.094800  1.0  0.1187
  H  H67  1  0.695500  0.593400  0.970800  1.0  0.1033
  H  H68  1  0.860500  0.742600  0.774200  1.0  0.121
  H  H69  1  0.898300  0.630700  0.893700  1.0  0.1253
  H  H70  1  0.886700  0.701800  0.847000  1.0  0.1238
  H  H71  1  0.739100  0.688500  0.862000  1.0  0.1177
  H  H72  1  0.749800  0.614700  0.905200  1.0  0.1185
  H  H73  1  0.029200  0.304500  0.593400  1.0  0.1014
  H  H74  1  0.225800  0.139500  0.742600  1.0  0.1194
  H  H75  1  0.106300  0.101700  0.630700  1.0  0.1261
  H  H76  1  0.153000  0.113300  0.701800  1.0  0.1228
  H  H77  1  0.138000  0.260900  0.688500  1.0  0.1167
  H  H78  1  0.094800  0.250200  0.614700  1.0  0.118
  H  H79  1  0.970800  0.304500  0.406600  1.0  0.0994
  H  H80  1  0.774200  0.139500  0.257400  1.0  0.1199
  H  H81  1  0.893700  0.101700  0.369300  1.0  0.1269
  H  H82  1  0.847000  0.113300  0.298200  1.0  0.1223
  H  H83  1  0.862000  0.260900  0.311500  1.0  0.1167
  H  H84  1  0.905200  0.250200  0.385300  1.0  0.1171
  H  H85  1  0.029200  0.695500  0.406600  1.0  0.1013
  H  H86  1  0.225800  0.860500  0.257400  1.0  0.1191
  H  H87  1  0.106300  0.898300  0.369300  1.0  0.1262
  H  H88  1  0.153000  0.886700  0.298200  1.0  0.1227
  H  H89  1  0.138000  0.739100  0.311500  1.0  0.1163
  H  H90  1  0.094800  0.749800  0.385300  1.0  0.1172
  H  H91  1  0.970800  0.695500  0.593400  1.0  0.1001
  H  H92  1  0.774200  0.860500  0.742600  1.0  0.1195
  H  H93  1  0.893700  0.898300  0.630700  1.0  0.1262
  H  H94  1  0.847000  0.886700  0.701800  1.0  0.1221
  H  H95  1  0.862000  0.739100  0.688500  1.0  0.1163
  H  H96  1  0.905200  0.749800  0.614700  1.0  0.1177
  H  H97  1  0.406600  0.970800  0.695500  1.0  0.1005
  H  H98  1  0.257400  0.774200  0.860500  1.0  0.1224
  H  H99  1  0.369300  0.893700  0.898300  1.0  0.1261
  H  H100  1  0.298200  0.847000  0.886700  1.0  0.1242
  H  H101  1  0.311500  0.862000  0.739100  1.0  0.1167
  H  H102  1  0.385300  0.905200  0.749800  1.0  0.1195
  H  H103  1  0.593400  0.029200  0.695500  1.0  0.1018
  H  H104  1  0.742600  0.225800  0.860500  1.0  0.1223
  H  H105  1  0.630700  0.106300  0.898300  1.0  0.1257
  H  H106  1  0.701800  0.153000  0.886700  1.0  0.1236
  H  H107  1  0.688500  0.138000  0.739100  1.0  0.1153
  H  H108  1  0.614700  0.094800  0.749800  1.0  0.1191
  H  H109  1  0.593400  0.970800  0.304500  1.0  0.0988
  H  H110  1  0.742600  0.774200  0.139500  1.0  0.1228
  H  H111  1  0.630700  0.893700  0.101700  1.0  0.1264
  H  H112  1  0.701800  0.847000  0.113300  1.0  0.1248
  H  H113  1  0.688500  0.862000  0.260900  1.0  0.1161
  H  H114  1  0.614700  0.905200  0.250200  1.0  0.1196
  H  H115  1  0.406600  0.029200  0.304500  1.0  0.1039
  H  H116  1  0.257400  0.225800  0.139500  1.0  0.1222
  H  H117  1  0.369300  0.106300  0.101700  1.0  0.1259
  H  H118  1  0.298200  0.153000  0.113300  1.0  0.1243
  H  H119  1  0.311500  0.138000  0.260900  1.0  0.116
  H  H120  1  0.385300  0.094800  0.250200  1.0  0.1198
  H  H121  1  0.695500  0.406600  0.970800  1.0  0.1015
  H  H122  1  0.860500  0.257400  0.774200  1.0  0.121
  H  H123  1  0.898300  0.369300  0.893700  1.0  0.1259
  H  H124  1  0.886700  0.298200  0.847000  1.0  0.1236
  H  H125  1  0.739100  0.311500  0.862000  1.0  0.1177
  H  H126  1  0.749800  0.385300  0.905200  1.0  0.1184
  H  H127  1  0.695500  0.593400  0.029200  1.0  0.1031
  H  H128  1  0.860500  0.742600  0.225800  1.0  0.1207
  H  H129  1  0.898300  0.630700  0.106300  1.0  0.1253
  H  H130  1  0.886700  0.701800  0.153000  1.0  0.1236
  H  H131  1  0.739100  0.688500  0.138000  1.0  0.1179
  H  H132  1  0.749800  0.614700  0.094800  1.0  0.1187
  H  H133  1  0.304500  0.593400  0.970800  1.0  0.1046
  H  H134  1  0.139500  0.742600  0.774200  1.0  0.1207
  H  H135  1  0.101700  0.630700  0.893700  1.0  0.1251
  H  H136  1  0.113300  0.701800  0.847000  1.0  0.1233
  H  H137  1  0.260900  0.688500  0.862000  1.0  0.1181
  H  H138  1  0.250200  0.614700  0.905200  1.0  0.1187
  H  H139  1  0.304500  0.406600  0.029200  1.0  0.102
  H  H140  1  0.139500  0.257400  0.225800  1.0  0.1206
  H  H141  1  0.101700  0.369300  0.106300  1.0  0.1252
  H  H142  1  0.113300  0.298200  0.153000  1.0  0.1232
  H  H143  1  0.260900  0.311500  0.138000  1.0  0.1178
  H  H144  1  0.250200  0.385300  0.094800  1.0  0.1189
  H  H145  1  0.970800  0.695500  0.406600  1.0  0.1004
  H  H146  1  0.774200  0.860500  0.257400  1.0  0.1193
  H  H147  1  0.893700  0.898300  0.369300  1.0  0.1266
  H  H148  1  0.847000  0.886700  0.298200  1.0  0.1226
  H  H149  1  0.862000  0.739100  0.311500  1.0  0.1167
  H  H150  1  0.905200  0.749800  0.385300  1.0  0.1174
  H  H151  1  0.029200  0.695500  0.593400  1.0  0.1012
  H  H152  1  0.225800  0.860500  0.742600  1.0  0.1191
  H  H153  1  0.106300  0.898300  0.630700  1.0  0.1264
  H  H154  1  0.153000  0.886700  0.701800  1.0  0.1222
  H  H155  1  0.138000  0.739100  0.688500  1.0  0.1163
  H  H156  1  0.094800  0.749800  0.614700  1.0  0.1176
  H  H157  1  0.970800  0.304500  0.593400  1.0  0.0997
  H  H158  1  0.774200  0.139500  0.742600  1.0  0.1201
  H  H159  1  0.893700  0.101700  0.630700  1.0  0.1258
  H  H160  1  0.847000  0.113300  0.701800  1.0  0.1229
  H  H161  1  0.862000  0.260900  0.688500  1.0  0.1165
  H  H162  1  0.905200  0.250200  0.614700  1.0  0.1179
  H  H163  1  0.029200  0.304500  0.406600  1.0  0.1007
  H  H164  1  0.225800  0.139500  0.257400  1.0  0.1193
  H  H165  1  0.106300  0.101700  0.369300  1.0  0.1267
  H  H166  1  0.153000  0.113300  0.298200  1.0  0.122
  H  H167  1  0.138000  0.260900  0.311500  1.0  0.1166
  H  H168  1  0.094800  0.250200  0.385300  1.0  0.117
  H  H169  1  0.543400  0.000000  0.397800  1.0  0.3081
  H  H170  1  0.598100  0.000000  0.354900  1.0  0.1174
  H  H171  1  0.456600  0.000000  0.397800  1.0  0.3076
  H  H172  1  0.401900  0.000000  0.354900  1.0  0.118
  H  H173  1  0.456600  0.000000  0.602200  1.0  0.3076
  H  H174  1  0.401900  0.000000  0.645100  1.0  0.1161
  H  H175  1  0.543400  0.000000  0.602200  1.0  0.3076
  H  H176  1  0.598100  0.000000  0.645100  1.0  0.1167
  H  H177  1  0.397800  0.543400  0.000000  1.0  0.315
  H  H178  1  0.354900  0.598100  0.000000  1.0  0.1188
  H  H179  1  0.397800  0.456600  0.000000  1.0  0.3153
  H  H180  1  0.354900  0.401900  0.000000  1.0  0.1179
  H  H181  1  0.602200  0.456600  0.000000  1.0  0.3068
  H  H182  1  0.645100  0.401900  0.000000  1.0  0.1163
  H  H183  1  0.602200  0.543400  0.000000  1.0  0.3062
  H  H184  1  0.645100  0.598100  0.000000  1.0  0.1179
  H  H185  1  0.000000  0.397800  0.543400  1.0  0.3079
  H  H186  1  0.000000  0.354900  0.598100  1.0  0.1174
  H  H187  1  0.000000  0.397800  0.456600  1.0  0.3083
  H  H188  1  0.000000  0.354900  0.401900  1.0  0.1167
  H  H189  1  0.000000  0.602200  0.456600  1.0  0.3049
  H  H190  1  0.000000  0.645100  0.401900  1.0  0.1157
  H  H191  1  0.000000  0.602200  0.543400  1.0  0.3045
  H  H192  1  0.000000  0.645100  0.598100  1.0  0.1163
  H  H193  1  0.093400  0.529200  0.804500  1.0  0.1016
  H  H194  1  0.242600  0.725800  0.639500  1.0  0.1225
  H  H195  1  0.130700  0.606300  0.601700  1.0  0.1263
  H  H196  1  0.201800  0.653000  0.613300  1.0  0.1251
  H  H197  1  0.188500  0.638000  0.760900  1.0  0.1149
  H  H198  1  0.114700  0.594800  0.750200  1.0  0.1196
  H  H199  1  0.906600  0.470800  0.804500  1.0  0.1001
  H  H200  1  0.757400  0.274200  0.639500  1.0  0.1227
  H  H201  1  0.869300  0.393700  0.601700  1.0  0.1261
  H  H202  1  0.798200  0.347000  0.613300  1.0  0.1241
  H  H203  1  0.811500  0.362000  0.760900  1.0  0.116
  H  H204  1  0.885300  0.405200  0.750200  1.0  0.1197
  H  H205  1  0.906600  0.529200  0.195500  1.0  0.1037
  H  H206  1  0.757400  0.725800  0.360500  1.0  0.1225
  H  H207  1  0.869300  0.606300  0.398300  1.0  0.1262
  H  H208  1  0.798200  0.653000  0.386700  1.0  0.1241
  H  H209  1  0.811500  0.638000  0.239100  1.0  0.1165
  H  H210  1  0.885300  0.594800  0.249800  1.0  0.1194
  H  H211  1  0.093400  0.470800  0.195500  1.0  0.0995
  H  H212  1  0.242600  0.274200  0.360500  1.0  0.122
  H  H213  1  0.130700  0.393700  0.398300  1.0  0.1259
  H  H214  1  0.201800  0.347000  0.386700  1.0  0.1234
  H  H215  1  0.188500  0.362000  0.239100  1.0  0.1166
  H  H216  1  0.114700  0.405200  0.249800  1.0  0.1192
  H  H217  1  0.804500  0.093400  0.529200  1.0  0.1036
  H  H218  1  0.639500  0.242600  0.725800  1.0  0.1205
  H  H219  1  0.601700  0.130700  0.606300  1.0  0.125
  H  H220  1  0.613300  0.201800  0.653000  1.0  0.123
  H  H221  1  0.760900  0.188500  0.638000  1.0  0.118
  H  H222  1  0.750200  0.114700  0.594800  1.0  0.119
  H  H223  1  0.804500  0.906600  0.470800  1.0  0.1024
  H  H224  1  0.639500  0.757400  0.274200  1.0  0.1208
  H  H225  1  0.601700  0.869300  0.393700  1.0  0.1254
  H  H226  1  0.613300  0.798200  0.347000  1.0  0.1233
  H  H227  1  0.760900  0.811500  0.362000  1.0  0.1181
  H  H228  1  0.750200  0.885300  0.405200  1.0  0.1186
  H  H229  1  0.195500  0.906600  0.529200  1.0  0.1018
  H  H230  1  0.360500  0.757400  0.725800  1.0  0.1207
  H  H231  1  0.398300  0.869300  0.606300  1.0  0.1258
  H  H232  1  0.386700  0.798200  0.653000  1.0  0.1236
  H  H233  1  0.239100  0.811500  0.638000  1.0  0.1177
  H  H234  1  0.249800  0.885300  0.594800  1.0  0.1187
  H  H235  1  0.195500  0.093400  0.470800  1.0  0.1033
  H  H236  1  0.360500  0.242600  0.274200  1.0  0.121
  H  H237  1  0.398300  0.130700  0.393700  1.0  0.1253
  H  H238  1  0.386700  0.201800  0.347000  1.0  0.1238
  H  H239  1  0.239100  0.188500  0.362000  1.0  0.1177
  H  H240  1  0.249800  0.114700  0.405200  1.0  0.1185
  H  H241  1  0.529200  0.804500  0.093400  1.0  0.1014
  H  H242  1  0.725800  0.639500  0.242600  1.0  0.1194
  H  H243  1  0.606300  0.601700  0.130700  1.0  0.1261
  H  H244  1  0.653000  0.613300  0.201800  1.0  0.1228
  H  H245  1  0.638000  0.760900  0.188500  1.0  0.1167
  H  H246  1  0.594800  0.750200  0.114700  1.0  0.118
  H  H247  1  0.470800  0.804500  0.906600  1.0  0.0994
  H  H248  1  0.274200  0.639500  0.757400  1.0  0.1199
  H  H249  1  0.393700  0.601700  0.869300  1.0  0.1269
  H  H250  1  0.347000  0.613300  0.798200  1.0  0.1223
  H  H251  1  0.362000  0.760900  0.811500  1.0  0.1167
  H  H252  1  0.405200  0.750200  0.885300  1.0  0.1171
  H  H253  1  0.529200  0.195500  0.906600  1.0  0.1013
  H  H254  1  0.725800  0.360500  0.757400  1.0  0.1191
  H  H255  1  0.606300  0.398300  0.869300  1.0  0.1262
  H  H256  1  0.653000  0.386700  0.798200  1.0  0.1227
  H  H257  1  0.638000  0.239100  0.811500  1.0  0.1163
  H  H258  1  0.594800  0.249800  0.885300  1.0  0.1172
  H  H259  1  0.470800  0.195500  0.093400  1.0  0.1001
  H  H260  1  0.274200  0.360500  0.242600  1.0  0.1195
  H  H261  1  0.393700  0.398300  0.130700  1.0  0.1262
  H  H262  1  0.347000  0.386700  0.201800  1.0  0.1221
  H  H263  1  0.362000  0.239100  0.188500  1.0  0.1163
  H  H264  1  0.405200  0.249800  0.114700  1.0  0.1177
  H  H265  1  0.906600  0.470800  0.195500  1.0  0.1005
  H  H266  1  0.757400  0.274200  0.360500  1.0  0.1224
  H  H267  1  0.869300  0.393700  0.398300  1.0  0.1261
  H  H268  1  0.798200  0.347000  0.386700  1.0  0.1242
  H  H269  1  0.811500  0.362000  0.239100  1.0  0.1167
  H  H270  1  0.885300  0.405200  0.249800  1.0  0.1195
  H  H271  1  0.093400  0.529200  0.195500  1.0  0.1018
  H  H272  1  0.242600  0.725800  0.360500  1.0  0.1223
  H  H273  1  0.130700  0.606300  0.398300  1.0  0.1257
  H  H274  1  0.201800  0.653000  0.386700  1.0  0.1236
  H  H275  1  0.188500  0.638000  0.239100  1.0  0.1153
  H  H276  1  0.114700  0.594800  0.249800  1.0  0.1191
  H  H277  1  0.093400  0.470800  0.804500  1.0  0.0988
  H  H278  1  0.242600  0.274200  0.639500  1.0  0.1228
  H  H279  1  0.130700  0.393700  0.601700  1.0  0.1264
  H  H280  1  0.201800  0.347000  0.613300  1.0  0.1248
  H  H281  1  0.188500  0.362000  0.760900  1.0  0.1161
  H  H282  1  0.114700  0.405200  0.750200  1.0  0.1196
  H  H283  1  0.906600  0.529200  0.804500  1.0  0.1039
  H  H284  1  0.757400  0.725800  0.639500  1.0  0.1222
  H  H285  1  0.869300  0.606300  0.601700  1.0  0.1259
  H  H286  1  0.798200  0.653000  0.613300  1.0  0.1243
  H  H287  1  0.811500  0.638000  0.760900  1.0  0.116
  H  H288  1  0.885300  0.594800  0.750200  1.0  0.1198
  H  H289  1  0.195500  0.906600  0.470800  1.0  0.1015
  H  H290  1  0.360500  0.757400  0.274200  1.0  0.121
  H  H291  1  0.398300  0.869300  0.393700  1.0  0.1259
  H  H292  1  0.386700  0.798200  0.347000  1.0  0.1236
  H  H293  1  0.239100  0.811500  0.362000  1.0  0.1177
  H  H294  1  0.249800  0.885300  0.405200  1.0  0.1184
  H  H295  1  0.195500  0.093400  0.529200  1.0  0.1031
  H  H296  1  0.360500  0.242600  0.725800  1.0  0.1207
  H  H297  1  0.398300  0.130700  0.606300  1.0  0.1253
  H  H298  1  0.386700  0.201800  0.653000  1.0  0.1236
  H  H299  1  0.239100  0.188500  0.638000  1.0  0.1179
  H  H300  1  0.249800  0.114700  0.594800  1.0  0.1187
  H  H301  1  0.804500  0.093400  0.470800  1.0  0.1046
  H  H302  1  0.639500  0.242600  0.274200  1.0  0.1207
  H  H303  1  0.601700  0.130700  0.393700  1.0  0.1251
  H  H304  1  0.613300  0.201800  0.347000  1.0  0.1233
  H  H305  1  0.760900  0.188500  0.362000  1.0  0.1181
  H  H306  1  0.750200  0.114700  0.405200  1.0  0.1187
  H  H307  1  0.804500  0.906600  0.529200  1.0  0.102
  H  H308  1  0.639500  0.757400  0.725800  1.0  0.1206
  H  H309  1  0.601700  0.869300  0.606300  1.0  0.1252
  H  H310  1  0.613300  0.798200  0.653000  1.0  0.1232
  H  H311  1  0.760900  0.811500  0.638000  1.0  0.1178
  H  H312  1  0.750200  0.885300  0.594800  1.0  0.1189
  H  H313  1  0.470800  0.195500  0.906600  1.0  0.1004
  H  H314  1  0.274200  0.360500  0.757400  1.0  0.1193
  H  H315  1  0.393700  0.398300  0.869300  1.0  0.1266
  H  H316  1  0.347000  0.386700  0.798200  1.0  0.1226
  H  H317  1  0.362000  0.239100  0.811500  1.0  0.1167
  H  H318  1  0.405200  0.249800  0.885300  1.0  0.1174
  H  H319  1  0.529200  0.195500  0.093400  1.0  0.1012
  H  H320  1  0.725800  0.360500  0.242600  1.0  0.1191
  H  H321  1  0.606300  0.398300  0.130700  1.0  0.1264
  H  H322  1  0.653000  0.386700  0.201800  1.0  0.1222
  H  H323  1  0.638000  0.239100  0.188500  1.0  0.1163
  H  H324  1  0.594800  0.249800  0.114700  1.0  0.1176
  H  H325  1  0.470800  0.804500  0.093400  1.0  0.0997
  H  H326  1  0.274200  0.639500  0.242600  1.0  0.1201
  H  H327  1  0.393700  0.601700  0.130700  1.0  0.1258
  H  H328  1  0.347000  0.613300  0.201800  1.0  0.1229
  H  H329  1  0.362000  0.760900  0.188500  1.0  0.1165
  H  H330  1  0.405200  0.750200  0.114700  1.0  0.1179
  H  H331  1  0.529200  0.804500  0.906600  1.0  0.1007
  H  H332  1  0.725800  0.639500  0.757400  1.0  0.1193
  H  H333  1  0.606300  0.601700  0.869300  1.0  0.1267
  H  H334  1  0.653000  0.613300  0.798200  1.0  0.122
  H  H335  1  0.638000  0.760900  0.811500  1.0  0.1166
  H  H336  1  0.594800  0.750200  0.885300  1.0  0.117
  H  H337  1  0.043400  0.500000  0.897800  1.0  0.3081
  H  H338  1  0.098100  0.500000  0.854900  1.0  0.1174
  H  H339  1  0.956600  0.500000  0.897800  1.0  0.3076
  H  H340  1  0.901900  0.500000  0.854900  1.0  0.118
  H  H341  1  0.956600  0.500000  0.102200  1.0  0.3076
  H  H342  1  0.901900  0.500000  0.145100  1.0  0.1161
  H  H343  1  0.043400  0.500000  0.102200  1.0  0.3076
  H  H344  1  0.098100  0.500000  0.145100  1.0  0.1167
  H  H345  1  0.897800  0.043400  0.500000  1.0  0.315
  H  H346  1  0.854900  0.098100  0.500000  1.0  0.1188
  H  H347  1  0.897800  0.956600  0.500000  1.0  0.3153
  H  H348  1  0.854900  0.901900  0.500000  1.0  0.1179
  H  H349  1  0.102200  0.956600  0.500000  1.0  0.3068
  H  H350  1  0.145100  0.901900  0.500000  1.0  0.1163
  H  H351  1  0.102200  0.043400  0.500000  1.0  0.3062
  H  H352  1  0.145100  0.098100  0.500000  1.0  0.1179
  H  H353  1  0.500000  0.897800  0.043400  1.0  0.3079
  H  H354  1  0.500000  0.854900  0.098100  1.0  0.1174
  H  H355  1  0.500000  0.897800  0.956600  1.0  0.3083
  H  H356  1  0.500000  0.854900  0.901900  1.0  0.1167
  H  H357  1  0.500000  0.102200  0.956600  1.0  0.3049
  H  H358  1  0.500000  0.145100  0.901900  1.0  0.1157
  H  H359  1  0.500000  0.102200  0.043400  1.0  0.3045
  H  H360  1  0.500000  0.145100  0.098100  1.0  0.1163
  C  C361  1  0.570000  0.064000  0.170200  1.0  0.7047
  C  C362  1  0.750800  0.177700  0.197500  1.0  0.0002
  C  C363  1  0.762400  0.218900  0.167200  1.0  -0.1186
  C  C364  1  0.615500  0.094900  0.174900  1.0  -0.1371
  C  C365  1  0.642100  0.112800  0.133800  1.0  -0.0676
  C  C366  1  0.685200  0.140000  0.140900  1.0  -0.0962
  C  C367  1  0.704400  0.148600  0.188400  1.0  0.0686
  C  C368  1  0.677000  0.131600  0.228800  1.0  -0.1153
  C  C369  1  0.632700  0.105400  0.222500  1.0  -0.0896
  C  C370  1  0.430000  0.936000  0.170200  1.0  0.703
  C  C371  1  0.249200  0.822300  0.197500  1.0  0.0012
  C  C372  1  0.237600  0.781100  0.167200  1.0  -0.1173
  C  C373  1  0.384500  0.905100  0.174900  1.0  -0.1355
  C  C374  1  0.357900  0.887200  0.133800  1.0  -0.0701
  C  C375  1  0.314800  0.860000  0.140900  1.0  -0.0937
  C  C376  1  0.295600  0.851400  0.188400  1.0  0.0684
  C  C377  1  0.323000  0.868400  0.228800  1.0  -0.1136
  C  C378  1  0.367300  0.894600  0.222500  1.0  -0.0871
  C  C379  1  0.430000  0.064000  0.829800  1.0  0.7035
  C  C380  1  0.249200  0.177700  0.802500  1.0  -0.0005
  C  C381  1  0.237600  0.218900  0.832800  1.0  -0.1188
  C  C382  1  0.384500  0.094900  0.825100  1.0  -0.136
  C  C383  1  0.357900  0.112800  0.866200  1.0  -0.0742
  C  C384  1  0.314800  0.140000  0.859100  1.0  -0.0962
  C  C385  1  0.295600  0.148600  0.811600  1.0  0.0685
  C  C386  1  0.323000  0.131600  0.771200  1.0  -0.1148
  C  C387  1  0.367300  0.105400  0.777500  1.0  -0.0893
  C  C388  1  0.570000  0.936000  0.829800  1.0  0.7052
  C  C389  1  0.750800  0.822300  0.802500  1.0  0.0004
  C  C390  1  0.762400  0.781100  0.832800  1.0  -0.1167
  C  C391  1  0.615500  0.905100  0.825100  1.0  -0.1363
  C  C392  1  0.642100  0.887200  0.866200  1.0  -0.0697
  C  C393  1  0.685200  0.860000  0.859100  1.0  -0.0949
  C  C394  1  0.704400  0.851400  0.811600  1.0  0.0699
  C  C395  1  0.677000  0.868400  0.771200  1.0  -0.1139
  C  C396  1  0.632700  0.894600  0.777500  1.0  -0.0869
  C  C397  1  0.170200  0.570000  0.064000  1.0  0.7047
  C  C398  1  0.197500  0.750800  0.177700  1.0  0.0005
  C  C399  1  0.167200  0.762400  0.218900  1.0  -0.12
  C  C400  1  0.174900  0.615500  0.094900  1.0  -0.1382
  C  C401  1  0.133800  0.642100  0.112800  1.0  -0.064
  C  C402  1  0.140900  0.685200  0.140000  1.0  -0.0955
  C  C403  1  0.188400  0.704400  0.148600  1.0  0.0681
  C  C404  1  0.228800  0.677000  0.131600  1.0  -0.1086
  C  C405  1  0.222500  0.632700  0.105400  1.0  -0.0896
  C  C406  1  0.170200  0.430000  0.936000  1.0  0.7058
  C  C407  1  0.197500  0.249200  0.822300  1.0  0.0018
  C  C408  1  0.167200  0.237600  0.781100  1.0  -0.1207
  C  C409  1  0.174900  0.384500  0.905100  1.0  -0.1379
  C  C410  1  0.133800  0.357900  0.887200  1.0  -0.0666
  C  C411  1  0.140900  0.314800  0.860000  1.0  -0.0943
  C  C412  1  0.188400  0.295600  0.851400  1.0  0.0684
  C  C413  1  0.228800  0.323000  0.868400  1.0  -0.1104
  C  C414  1  0.222500  0.367300  0.894600  1.0  -0.0884
  C  C415  1  0.829800  0.430000  0.064000  1.0  0.7066
  C  C416  1  0.802500  0.249200  0.177700  1.0  0.0004
  C  C417  1  0.832800  0.237600  0.218900  1.0  -0.119
  C  C418  1  0.825100  0.384500  0.094900  1.0  -0.1381
  C  C419  1  0.866200  0.357900  0.112800  1.0  -0.0693
  C  C420  1  0.859100  0.314800  0.140000  1.0  -0.0931
  C  C421  1  0.811600  0.295600  0.148600  1.0  0.0666
  C  C422  1  0.771200  0.323000  0.131600  1.0  -0.1106
  C  C423  1  0.777500  0.367300  0.105400  1.0  -0.0882
  C  C424  1  0.829800  0.570000  0.936000  1.0  0.7073
  C  C425  1  0.802500  0.750800  0.822300  1.0  0.0007
  C  C426  1  0.832800  0.762400  0.781100  1.0  -0.1188
  C  C427  1  0.825100  0.615500  0.905100  1.0  -0.1381
  C  C428  1  0.866200  0.642100  0.887200  1.0  -0.0675
  C  C429  1  0.859100  0.685200  0.860000  1.0  -0.0927
  C  C430  1  0.811600  0.704400  0.851400  1.0  0.0686
  C  C431  1  0.771200  0.677000  0.868400  1.0  -0.113
  C  C432  1  0.777500  0.632700  0.894600  1.0  -0.089
  C  C433  1  0.064000  0.170200  0.570000  1.0  0.706
  C  C434  1  0.177700  0.197500  0.750800  1.0  0.0009
  C  C435  1  0.218900  0.167200  0.762400  1.0  -0.1186
  C  C436  1  0.094900  0.174900  0.615500  1.0  -0.1395
  C  C437  1  0.112800  0.133800  0.642100  1.0  -0.067
  C  C438  1  0.140000  0.140900  0.685200  1.0  -0.0976
  C  C439  1  0.148600  0.188400  0.704400  1.0  0.0706
  C  C440  1  0.131600  0.228800  0.677000  1.0  -0.1092
  C  C441  1  0.105400  0.222500  0.632700  1.0  -0.0893
  C  C442  1  0.936000  0.170200  0.430000  1.0  0.7055
  C  C443  1  0.822300  0.197500  0.249200  1.0  0.0006
  C  C444  1  0.781100  0.167200  0.237600  1.0  -0.1186
  C  C445  1  0.905100  0.174900  0.384500  1.0  -0.1402
  C  C446  1  0.887200  0.133800  0.357900  1.0  -0.0689
  C  C447  1  0.860000  0.140900  0.314800  1.0  -0.0973
  C  C448  1  0.851400  0.188400  0.295600  1.0  0.0696
  C  C449  1  0.868400  0.228800  0.323000  1.0  -0.1092
  C  C450  1  0.894600  0.222500  0.367300  1.0  -0.087
  C  C451  1  0.064000  0.829800  0.430000  1.0  0.7065
  C  C452  1  0.177700  0.802500  0.249200  1.0  0.0007
  C  C453  1  0.218900  0.832800  0.237600  1.0  -0.1171
  C  C454  1  0.094900  0.825100  0.384500  1.0  -0.1387
  C  C455  1  0.112800  0.866200  0.357900  1.0  -0.0696
  C  C456  1  0.140000  0.859100  0.314800  1.0  -0.0975
  C  C457  1  0.148600  0.811600  0.295600  1.0  0.0697
  C  C458  1  0.131600  0.771200  0.323000  1.0  -0.109
  C  C459  1  0.105400  0.777500  0.367300  1.0  -0.0881
  C  C460  1  0.936000  0.829800  0.570000  1.0  0.7055
  C  C461  1  0.822300  0.802500  0.750800  1.0  0.0007
  C  C462  1  0.781100  0.832800  0.762400  1.0  -0.1154
  C  C463  1  0.905100  0.825100  0.615500  1.0  -0.1395
  C  C464  1  0.887200  0.866200  0.642100  1.0  -0.0722
  C  C465  1  0.860000  0.859100  0.685200  1.0  -0.0967
  C  C466  1  0.851400  0.811600  0.704400  1.0  0.0693
  C  C467  1  0.868400  0.771200  0.677000  1.0  -0.1094
  C  C468  1  0.894600  0.777500  0.632700  1.0  -0.0895
  C  C469  1  0.430000  0.936000  0.829800  1.0  0.7037
  C  C470  1  0.249200  0.822300  0.802500  1.0  -0.001
  C  C471  1  0.237600  0.781100  0.832800  1.0  -0.1187
  C  C472  1  0.384500  0.905100  0.825100  1.0  -0.1355
  C  C473  1  0.357900  0.887200  0.866200  1.0  -0.0734
  C  C474  1  0.314800  0.860000  0.859100  1.0  -0.0963
  C  C475  1  0.295600  0.851400  0.811600  1.0  0.0694
  C  C476  1  0.323000  0.868400  0.771200  1.0  -0.1143
  C  C477  1  0.367300  0.894600  0.777500  1.0  -0.0893
  C  C478  1  0.570000  0.064000  0.829800  1.0  0.7052
  C  C479  1  0.750800  0.177700  0.802500  1.0  0.0006
  C  C480  1  0.762400  0.218900  0.832800  1.0  -0.1172
  C  C481  1  0.615500  0.094900  0.825100  1.0  -0.1372
  C  C482  1  0.642100  0.112800  0.866200  1.0  -0.0709
  C  C483  1  0.685200  0.140000  0.859100  1.0  -0.0957
  C  C484  1  0.704400  0.148600  0.811600  1.0  0.0694
  C  C485  1  0.677000  0.131600  0.771200  1.0  -0.1144
  C  C486  1  0.632700  0.105400  0.777500  1.0  -0.0871
  C  C487  1  0.570000  0.936000  0.170200  1.0  0.7047
  C  C488  1  0.750800  0.822300  0.197500  1.0  0.001
  C  C489  1  0.762400  0.781100  0.167200  1.0  -0.1176
  C  C490  1  0.615500  0.905100  0.174900  1.0  -0.1359
  C  C491  1  0.642100  0.887200  0.133800  1.0  -0.0685
  C  C492  1  0.685200  0.860000  0.140900  1.0  -0.0958
  C  C493  1  0.704400  0.851400  0.188400  1.0  0.0692
  C  C494  1  0.677000  0.868400  0.228800  1.0  -0.1131
  C  C495  1  0.632700  0.894600  0.222500  1.0  -0.09
  C  C496  1  0.430000  0.064000  0.170200  1.0  0.703
  C  C497  1  0.249200  0.177700  0.197500  1.0  -0.0
  C  C498  1  0.237600  0.218900  0.167200  1.0  -0.1187
  C  C499  1  0.384500  0.094900  0.174900  1.0  -0.136
  C  C500  1  0.357900  0.112800  0.133800  1.0  -0.069
  C  C501  1  0.314800  0.140000  0.140900  1.0  -0.0935
  C  C502  1  0.295600  0.148600  0.188400  1.0  0.0677
  C  C503  1  0.323000  0.131600  0.228800  1.0  -0.1158
  C  C504  1  0.367300  0.105400  0.222500  1.0  -0.0868
  C  C505  1  0.829800  0.430000  0.936000  1.0  0.7074
  C  C506  1  0.802500  0.249200  0.822300  1.0  0.0016
  C  C507  1  0.832800  0.237600  0.781100  1.0  -0.1192
  C  C508  1  0.825100  0.384500  0.905100  1.0  -0.1386
  C  C509  1  0.866200  0.357900  0.887200  1.0  -0.0701
  C  C510  1  0.859100  0.314800  0.860000  1.0  -0.0934
  C  C511  1  0.811600  0.295600  0.851400  1.0  0.0694
  C  C512  1  0.771200  0.323000  0.868400  1.0  -0.1126
  C  C513  1  0.777500  0.367300  0.894600  1.0  -0.0874
  C  C514  1  0.829800  0.570000  0.064000  1.0  0.7062
  C  C515  1  0.802500  0.750800  0.177700  1.0  -0.0003
  C  C516  1  0.832800  0.762400  0.218900  1.0  -0.1186
  C  C517  1  0.825100  0.615500  0.094900  1.0  -0.1386
  C  C518  1  0.866200  0.642100  0.112800  1.0  -0.0664
  C  C519  1  0.859100  0.685200  0.140000  1.0  -0.0917
  C  C520  1  0.811600  0.704400  0.148600  1.0  0.0677
  C  C521  1  0.771200  0.677000  0.131600  1.0  -0.1109
  C  C522  1  0.777500  0.632700  0.105400  1.0  -0.0895
  C  C523  1  0.170200  0.570000  0.936000  1.0  0.7057
  C  C524  1  0.197500  0.750800  0.822300  1.0  0.0009
  C  C525  1  0.167200  0.762400  0.781100  1.0  -0.1206
  C  C526  1  0.174900  0.615500  0.905100  1.0  -0.1375
  C  C527  1  0.133800  0.642100  0.887200  1.0  -0.0651
  C  C528  1  0.140900  0.685200  0.860000  1.0  -0.0943
  C  C529  1  0.188400  0.704400  0.851400  1.0  0.0671
  C  C530  1  0.228800  0.677000  0.868400  1.0  -0.1108
  C  C531  1  0.222500  0.632700  0.894600  1.0  -0.089
  C  C532  1  0.170200  0.430000  0.064000  1.0  0.7051
  C  C533  1  0.197500  0.249200  0.177700  1.0  0.001
  C  C534  1  0.167200  0.237600  0.218900  1.0  -0.1205
  C  C535  1  0.174900  0.384500  0.094900  1.0  -0.1378
  C  C536  1  0.133800  0.357900  0.112800  1.0  -0.0656
  C  C537  1  0.140900  0.314800  0.140000  1.0  -0.0959
  C  C538  1  0.188400  0.295600  0.148600  1.0  0.0662
  C  C539  1  0.228800  0.323000  0.131600  1.0  -0.1084
  C  C540  1  0.222500  0.367300  0.105400  1.0  -0.0893
  C  C541  1  0.936000  0.829800  0.430000  1.0  0.7058
  C  C542  1  0.822300  0.802500  0.249200  1.0  0.0003
  C  C543  1  0.781100  0.832800  0.237600  1.0  -0.1165
  C  C544  1  0.905100  0.825100  0.384500  1.0  -0.1399
  C  C545  1  0.887200  0.866200  0.357900  1.0  -0.0726
  C  C546  1  0.860000  0.859100  0.314800  1.0  -0.0987
  C  C547  1  0.851400  0.811600  0.295600  1.0  0.0701
  C  C548  1  0.868400  0.771200  0.323000  1.0  -0.1094
  C  C549  1  0.894600  0.777500  0.367300  1.0  -0.0896
  C  C550  1  0.064000  0.829800  0.570000  1.0  0.7062
  C  C551  1  0.177700  0.802500  0.750800  1.0  0.0003
  C  C552  1  0.218900  0.832800  0.762400  1.0  -0.1166
  C  C553  1  0.094900  0.825100  0.615500  1.0  -0.1393
  C  C554  1  0.112800  0.866200  0.642100  1.0  -0.0698
  C  C555  1  0.140000  0.859100  0.685200  1.0  -0.0958
  C  C556  1  0.148600  0.811600  0.704400  1.0  0.0704
  C  C557  1  0.131600  0.771200  0.677000  1.0  -0.1092
  C  C558  1  0.105400  0.777500  0.632700  1.0  -0.088
  C  C559  1  0.936000  0.170200  0.570000  1.0  0.7053
  C  C560  1  0.822300  0.197500  0.750800  1.0  0.0012
  C  C561  1  0.781100  0.167200  0.762400  1.0  -0.1189
  C  C562  1  0.905100  0.174900  0.615500  1.0  -0.1398
  C  C563  1  0.887200  0.133800  0.642100  1.0  -0.069
  C  C564  1  0.860000  0.140900  0.685200  1.0  -0.097
  C  C565  1  0.851400  0.188400  0.704400  1.0  0.0695
  C  C566  1  0.868400  0.228800  0.677000  1.0  -0.1094
  C  C567  1  0.894600  0.222500  0.632700  1.0  -0.0864
  C  C568  1  0.064000  0.170200  0.430000  1.0  0.7063
  C  C569  1  0.177700  0.197500  0.249200  1.0  0.0008
  C  C570  1  0.218900  0.167200  0.237600  1.0  -0.118
  C  C571  1  0.094900  0.174900  0.384500  1.0  -0.1388
  C  C572  1  0.112800  0.133800  0.357900  1.0  -0.0664
  C  C573  1  0.140000  0.140900  0.314800  1.0  -0.0978
  C  C574  1  0.148600  0.188400  0.295600  1.0  0.0697
  C  C575  1  0.131600  0.228800  0.323000  1.0  -0.1088
  C  C576  1  0.105400  0.222500  0.367300  1.0  -0.0899
  C  C577  1  0.535200  0.000000  0.326900  1.0  0.2714
  C  C578  1  0.583100  0.000000  0.322400  1.0  -0.3662
  C  C579  1  0.464800  0.000000  0.326900  1.0  0.2729
  C  C580  1  0.416900  0.000000  0.322400  1.0  -0.3653
  C  C581  1  0.464800  0.000000  0.673100  1.0  0.2739
  C  C582  1  0.416900  0.000000  0.677600  1.0  -0.3647
  C  C583  1  0.535200  0.000000  0.673100  1.0  0.2734
  C  C584  1  0.583100  0.000000  0.677600  1.0  -0.3659
  C  C585  1  0.326900  0.535200  0.000000  1.0  0.2721
  C  C586  1  0.322400  0.583100  0.000000  1.0  -0.3657
  C  C587  1  0.326900  0.464800  0.000000  1.0  0.2726
  C  C588  1  0.322400  0.416900  0.000000  1.0  -0.364
  C  C589  1  0.673100  0.464800  0.000000  1.0  0.2769
  C  C590  1  0.677600  0.416900  0.000000  1.0  -0.365
  C  C591  1  0.673100  0.535200  0.000000  1.0  0.2781
  C  C592  1  0.677600  0.583100  0.000000  1.0  -0.3663
  C  C593  1  0.000000  0.326900  0.535200  1.0  0.2752
  C  C594  1  0.000000  0.322400  0.583100  1.0  -0.3663
  C  C595  1  0.000000  0.326900  0.464800  1.0  0.2743
  C  C596  1  0.000000  0.322400  0.416900  1.0  -0.3675
  C  C597  1  0.000000  0.673100  0.464800  1.0  0.273
  C  C598  1  0.000000  0.677600  0.416900  1.0  -0.3673
  C  C599  1  0.000000  0.673100  0.535200  1.0  0.2731
  C  C600  1  0.000000  0.677600  0.583100  1.0  -0.3668
  C  C601  1  0.070000  0.564000  0.670200  1.0  0.7047
  C  C602  1  0.250800  0.677700  0.697500  1.0  0.0002
  C  C603  1  0.262400  0.718900  0.667200  1.0  -0.1186
  C  C604  1  0.115500  0.594900  0.674900  1.0  -0.1371
  C  C605  1  0.142100  0.612800  0.633800  1.0  -0.0676
  C  C606  1  0.185200  0.640000  0.640900  1.0  -0.0962
  C  C607  1  0.204400  0.648600  0.688400  1.0  0.0686
  C  C608  1  0.177000  0.631600  0.728800  1.0  -0.1153
  C  C609  1  0.132700  0.605400  0.722500  1.0  -0.0896
  C  C610  1  0.930000  0.436000  0.670200  1.0  0.703
  C  C611  1  0.749200  0.322300  0.697500  1.0  0.0012
  C  C612  1  0.737600  0.281100  0.667200  1.0  -0.1173
  C  C613  1  0.884500  0.405100  0.674900  1.0  -0.1355
  C  C614  1  0.857900  0.387200  0.633800  1.0  -0.0701
  C  C615  1  0.814800  0.360000  0.640900  1.0  -0.0937
  C  C616  1  0.795600  0.351400  0.688400  1.0  0.0684
  C  C617  1  0.823000  0.368400  0.728800  1.0  -0.1136
  C  C618  1  0.867300  0.394600  0.722500  1.0  -0.0871
  C  C619  1  0.930000  0.564000  0.329800  1.0  0.7035
  C  C620  1  0.749200  0.677700  0.302500  1.0  -0.0005
  C  C621  1  0.737600  0.718900  0.332800  1.0  -0.1188
  C  C622  1  0.884500  0.594900  0.325100  1.0  -0.136
  C  C623  1  0.857900  0.612800  0.366200  1.0  -0.0742
  C  C624  1  0.814800  0.640000  0.359100  1.0  -0.0962
  C  C625  1  0.795600  0.648600  0.311600  1.0  0.0685
  C  C626  1  0.823000  0.631600  0.271200  1.0  -0.1148
  C  C627  1  0.867300  0.605400  0.277500  1.0  -0.0893
  C  C628  1  0.070000  0.436000  0.329800  1.0  0.7052
  C  C629  1  0.250800  0.322300  0.302500  1.0  0.0004
  C  C630  1  0.262400  0.281100  0.332800  1.0  -0.1167
  C  C631  1  0.115500  0.405100  0.325100  1.0  -0.1363
  C  C632  1  0.142100  0.387200  0.366200  1.0  -0.0697
  C  C633  1  0.185200  0.360000  0.359100  1.0  -0.0949
  C  C634  1  0.204400  0.351400  0.311600  1.0  0.0699
  C  C635  1  0.177000  0.368400  0.271200  1.0  -0.1139
  C  C636  1  0.132700  0.394600  0.277500  1.0  -0.0869
  C  C637  1  0.670200  0.070000  0.564000  1.0  0.7047
  C  C638  1  0.697500  0.250800  0.677700  1.0  0.0005
  C  C639  1  0.667200  0.262400  0.718900  1.0  -0.12
  C  C640  1  0.674900  0.115500  0.594900  1.0  -0.1382
  C  C641  1  0.633800  0.142100  0.612800  1.0  -0.064
  C  C642  1  0.640900  0.185200  0.640000  1.0  -0.0955
  C  C643  1  0.688400  0.204400  0.648600  1.0  0.0681
  C  C644  1  0.728800  0.177000  0.631600  1.0  -0.1086
  C  C645  1  0.722500  0.132700  0.605400  1.0  -0.0896
  C  C646  1  0.670200  0.930000  0.436000  1.0  0.7058
  C  C647  1  0.697500  0.749200  0.322300  1.0  0.0018
  C  C648  1  0.667200  0.737600  0.281100  1.0  -0.1207
  C  C649  1  0.674900  0.884500  0.405100  1.0  -0.1379
  C  C650  1  0.633800  0.857900  0.387200  1.0  -0.0666
  C  C651  1  0.640900  0.814800  0.360000  1.0  -0.0943
  C  C652  1  0.688400  0.795600  0.351400  1.0  0.0684
  C  C653  1  0.728800  0.823000  0.368400  1.0  -0.1104
  C  C654  1  0.722500  0.867300  0.394600  1.0  -0.0884
  C  C655  1  0.329800  0.930000  0.564000  1.0  0.7066
  C  C656  1  0.302500  0.749200  0.677700  1.0  0.0004
  C  C657  1  0.332800  0.737600  0.718900  1.0  -0.119
  C  C658  1  0.325100  0.884500  0.594900  1.0  -0.1381
  C  C659  1  0.366200  0.857900  0.612800  1.0  -0.0693
  C  C660  1  0.359100  0.814800  0.640000  1.0  -0.0931
  C  C661  1  0.311600  0.795600  0.648600  1.0  0.0666
  C  C662  1  0.271200  0.823000  0.631600  1.0  -0.1106
  C  C663  1  0.277500  0.867300  0.605400  1.0  -0.0882
  C  C664  1  0.329800  0.070000  0.436000  1.0  0.7073
  C  C665  1  0.302500  0.250800  0.322300  1.0  0.0007
  C  C666  1  0.332800  0.262400  0.281100  1.0  -0.1188
  C  C667  1  0.325100  0.115500  0.405100  1.0  -0.1381
  C  C668  1  0.366200  0.142100  0.387200  1.0  -0.0675
  C  C669  1  0.359100  0.185200  0.360000  1.0  -0.0927
  C  C670  1  0.311600  0.204400  0.351400  1.0  0.0686
  C  C671  1  0.271200  0.177000  0.368400  1.0  -0.113
  C  C672  1  0.277500  0.132700  0.394600  1.0  -0.089
  C  C673  1  0.564000  0.670200  0.070000  1.0  0.706
  C  C674  1  0.677700  0.697500  0.250800  1.0  0.0009
  C  C675  1  0.718900  0.667200  0.262400  1.0  -0.1186
  C  C676  1  0.594900  0.674900  0.115500  1.0  -0.1395
  C  C677  1  0.612800  0.633800  0.142100  1.0  -0.067
  C  C678  1  0.640000  0.640900  0.185200  1.0  -0.0976
  C  C679  1  0.648600  0.688400  0.204400  1.0  0.0706
  C  C680  1  0.631600  0.728800  0.177000  1.0  -0.1092
  C  C681  1  0.605400  0.722500  0.132700  1.0  -0.0893
  C  C682  1  0.436000  0.670200  0.930000  1.0  0.7055
  C  C683  1  0.322300  0.697500  0.749200  1.0  0.0006
  C  C684  1  0.281100  0.667200  0.737600  1.0  -0.1186
  C  C685  1  0.405100  0.674900  0.884500  1.0  -0.1402
  C  C686  1  0.387200  0.633800  0.857900  1.0  -0.0689
  C  C687  1  0.360000  0.640900  0.814800  1.0  -0.0973
  C  C688  1  0.351400  0.688400  0.795600  1.0  0.0696
  C  C689  1  0.368400  0.728800  0.823000  1.0  -0.1092
  C  C690  1  0.394600  0.722500  0.867300  1.0  -0.087
  C  C691  1  0.564000  0.329800  0.930000  1.0  0.7065
  C  C692  1  0.677700  0.302500  0.749200  1.0  0.0007
  C  C693  1  0.718900  0.332800  0.737600  1.0  -0.1171
  C  C694  1  0.594900  0.325100  0.884500  1.0  -0.1387
  C  C695  1  0.612800  0.366200  0.857900  1.0  -0.0696
  C  C696  1  0.640000  0.359100  0.814800  1.0  -0.0975
  C  C697  1  0.648600  0.311600  0.795600  1.0  0.0697
  C  C698  1  0.631600  0.271200  0.823000  1.0  -0.109
  C  C699  1  0.605400  0.277500  0.867300  1.0  -0.0881
  C  C700  1  0.436000  0.329800  0.070000  1.0  0.7055
  C  C701  1  0.322300  0.302500  0.250800  1.0  0.0007
  C  C702  1  0.281100  0.332800  0.262400  1.0  -0.1154
  C  C703  1  0.405100  0.325100  0.115500  1.0  -0.1395
  C  C704  1  0.387200  0.366200  0.142100  1.0  -0.0722
  C  C705  1  0.360000  0.359100  0.185200  1.0  -0.0967
  C  C706  1  0.351400  0.311600  0.204400  1.0  0.0693
  C  C707  1  0.368400  0.271200  0.177000  1.0  -0.1094
  C  C708  1  0.394600  0.277500  0.132700  1.0  -0.0895
  C  C709  1  0.930000  0.436000  0.329800  1.0  0.7037
  C  C710  1  0.749200  0.322300  0.302500  1.0  -0.001
  C  C711  1  0.737600  0.281100  0.332800  1.0  -0.1187
  C  C712  1  0.884500  0.405100  0.325100  1.0  -0.1355
  C  C713  1  0.857900  0.387200  0.366200  1.0  -0.0734
  C  C714  1  0.814800  0.360000  0.359100  1.0  -0.0963
  C  C715  1  0.795600  0.351400  0.311600  1.0  0.0694
  C  C716  1  0.823000  0.368400  0.271200  1.0  -0.1143
  C  C717  1  0.867300  0.394600  0.277500  1.0  -0.0893
  C  C718  1  0.070000  0.564000  0.329800  1.0  0.7052
  C  C719  1  0.250800  0.677700  0.302500  1.0  0.0006
  C  C720  1  0.262400  0.718900  0.332800  1.0  -0.1172
  C  C721  1  0.115500  0.594900  0.325100  1.0  -0.1372
  C  C722  1  0.142100  0.612800  0.366200  1.0  -0.0709
  C  C723  1  0.185200  0.640000  0.359100  1.0  -0.0957
  C  C724  1  0.204400  0.648600  0.311600  1.0  0.0694
  C  C725  1  0.177000  0.631600  0.271200  1.0  -0.1144
  C  C726  1  0.132700  0.605400  0.277500  1.0  -0.0871
  C  C727  1  0.070000  0.436000  0.670200  1.0  0.7047
  C  C728  1  0.250800  0.322300  0.697500  1.0  0.001
  C  C729  1  0.262400  0.281100  0.667200  1.0  -0.1176
  C  C730  1  0.115500  0.405100  0.674900  1.0  -0.1359
  C  C731  1  0.142100  0.387200  0.633800  1.0  -0.0685
  C  C732  1  0.185200  0.360000  0.640900  1.0  -0.0958
  C  C733  1  0.204400  0.351400  0.688400  1.0  0.0692
  C  C734  1  0.177000  0.368400  0.728800  1.0  -0.1131
  C  C735  1  0.132700  0.394600  0.722500  1.0  -0.09
  C  C736  1  0.930000  0.564000  0.670200  1.0  0.703
  C  C737  1  0.749200  0.677700  0.697500  1.0  -0.0
  C  C738  1  0.737600  0.718900  0.667200  1.0  -0.1187
  C  C739  1  0.884500  0.594900  0.674900  1.0  -0.136
  C  C740  1  0.857900  0.612800  0.633800  1.0  -0.069
  C  C741  1  0.814800  0.640000  0.640900  1.0  -0.0935
  C  C742  1  0.795600  0.648600  0.688400  1.0  0.0677
  C  C743  1  0.823000  0.631600  0.728800  1.0  -0.1158
  C  C744  1  0.867300  0.605400  0.722500  1.0  -0.0868
  C  C745  1  0.329800  0.930000  0.436000  1.0  0.7074
  C  C746  1  0.302500  0.749200  0.322300  1.0  0.0016
  C  C747  1  0.332800  0.737600  0.281100  1.0  -0.1192
  C  C748  1  0.325100  0.884500  0.405100  1.0  -0.1386
  C  C749  1  0.366200  0.857900  0.387200  1.0  -0.0701
  C  C750  1  0.359100  0.814800  0.360000  1.0  -0.0934
  C  C751  1  0.311600  0.795600  0.351400  1.0  0.0694
  C  C752  1  0.271200  0.823000  0.368400  1.0  -0.1126
  C  C753  1  0.277500  0.867300  0.394600  1.0  -0.0874
  C  C754  1  0.329800  0.070000  0.564000  1.0  0.7062
  C  C755  1  0.302500  0.250800  0.677700  1.0  -0.0003
  C  C756  1  0.332800  0.262400  0.718900  1.0  -0.1186
  C  C757  1  0.325100  0.115500  0.594900  1.0  -0.1386
  C  C758  1  0.366200  0.142100  0.612800  1.0  -0.0664
  C  C759  1  0.359100  0.185200  0.640000  1.0  -0.0917
  C  C760  1  0.311600  0.204400  0.648600  1.0  0.0677
  C  C761  1  0.271200  0.177000  0.631600  1.0  -0.1109
  C  C762  1  0.277500  0.132700  0.605400  1.0  -0.0895
  C  C763  1  0.670200  0.070000  0.436000  1.0  0.7057
  C  C764  1  0.697500  0.250800  0.322300  1.0  0.0009
  C  C765  1  0.667200  0.262400  0.281100  1.0  -0.1206
  C  C766  1  0.674900  0.115500  0.405100  1.0  -0.1375
  C  C767  1  0.633800  0.142100  0.387200  1.0  -0.0651
  C  C768  1  0.640900  0.185200  0.360000  1.0  -0.0943
  C  C769  1  0.688400  0.204400  0.351400  1.0  0.0671
  C  C770  1  0.728800  0.177000  0.368400  1.0  -0.1108
  C  C771  1  0.722500  0.132700  0.394600  1.0  -0.089
  C  C772  1  0.670200  0.930000  0.564000  1.0  0.7051
  C  C773  1  0.697500  0.749200  0.677700  1.0  0.001
  C  C774  1  0.667200  0.737600  0.718900  1.0  -0.1205
  C  C775  1  0.674900  0.884500  0.594900  1.0  -0.1378
  C  C776  1  0.633800  0.857900  0.612800  1.0  -0.0656
  C  C777  1  0.640900  0.814800  0.640000  1.0  -0.0959
  C  C778  1  0.688400  0.795600  0.648600  1.0  0.0662
  C  C779  1  0.728800  0.823000  0.631600  1.0  -0.1084
  C  C780  1  0.722500  0.867300  0.605400  1.0  -0.0893
  C  C781  1  0.436000  0.329800  0.930000  1.0  0.7058
  C  C782  1  0.322300  0.302500  0.749200  1.0  0.0003
  C  C783  1  0.281100  0.332800  0.737600  1.0  -0.1165
  C  C784  1  0.405100  0.325100  0.884500  1.0  -0.1399
  C  C785  1  0.387200  0.366200  0.857900  1.0  -0.0726
  C  C786  1  0.360000  0.359100  0.814800  1.0  -0.0987
  C  C787  1  0.351400  0.311600  0.795600  1.0  0.0701
  C  C788  1  0.368400  0.271200  0.823000  1.0  -0.1094
  C  C789  1  0.394600  0.277500  0.867300  1.0  -0.0896
  C  C790  1  0.564000  0.329800  0.070000  1.0  0.7062
  C  C791  1  0.677700  0.302500  0.250800  1.0  0.0003
  C  C792  1  0.718900  0.332800  0.262400  1.0  -0.1166
  C  C793  1  0.594900  0.325100  0.115500  1.0  -0.1393
  C  C794  1  0.612800  0.366200  0.142100  1.0  -0.0698
  C  C795  1  0.640000  0.359100  0.185200  1.0  -0.0958
  C  C796  1  0.648600  0.311600  0.204400  1.0  0.0704
  C  C797  1  0.631600  0.271200  0.177000  1.0  -0.1092
  C  C798  1  0.605400  0.277500  0.132700  1.0  -0.088
  C  C799  1  0.436000  0.670200  0.070000  1.0  0.7053
  C  C800  1  0.322300  0.697500  0.250800  1.0  0.0012
  C  C801  1  0.281100  0.667200  0.262400  1.0  -0.1189
  C  C802  1  0.405100  0.674900  0.115500  1.0  -0.1398
  C  C803  1  0.387200  0.633800  0.142100  1.0  -0.069
  C  C804  1  0.360000  0.640900  0.185200  1.0  -0.097
  C  C805  1  0.351400  0.688400  0.204400  1.0  0.0695
  C  C806  1  0.368400  0.728800  0.177000  1.0  -0.1094
  C  C807  1  0.394600  0.722500  0.132700  1.0  -0.0864
  C  C808  1  0.564000  0.670200  0.930000  1.0  0.7063
  C  C809  1  0.677700  0.697500  0.749200  1.0  0.0008
  C  C810  1  0.718900  0.667200  0.737600  1.0  -0.118
  C  C811  1  0.594900  0.674900  0.884500  1.0  -0.1388
  C  C812  1  0.612800  0.633800  0.857900  1.0  -0.0664
  C  C813  1  0.640000  0.640900  0.814800  1.0  -0.0978
  C  C814  1  0.648600  0.688400  0.795600  1.0  0.0697
  C  C815  1  0.631600  0.728800  0.823000  1.0  -0.1088
  C  C816  1  0.605400  0.722500  0.867300  1.0  -0.0899
  C  C817  1  0.035200  0.500000  0.826900  1.0  0.2714
  C  C818  1  0.083100  0.500000  0.822400  1.0  -0.3662
  C  C819  1  0.964800  0.500000  0.826900  1.0  0.2729
  C  C820  1  0.916900  0.500000  0.822400  1.0  -0.3653
  C  C821  1  0.964800  0.500000  0.173100  1.0  0.2739
  C  C822  1  0.916900  0.500000  0.177600  1.0  -0.3647
  C  C823  1  0.035200  0.500000  0.173100  1.0  0.2734
  C  C824  1  0.083100  0.500000  0.177600  1.0  -0.3659
  C  C825  1  0.826900  0.035200  0.500000  1.0  0.2721
  C  C826  1  0.822400  0.083100  0.500000  1.0  -0.3657
  C  C827  1  0.826900  0.964800  0.500000  1.0  0.2726
  C  C828  1  0.822400  0.916900  0.500000  1.0  -0.364
  C  C829  1  0.173100  0.964800  0.500000  1.0  0.2769
  C  C830  1  0.177600  0.916900  0.500000  1.0  -0.365
  C  C831  1  0.173100  0.035200  0.500000  1.0  0.2781
  C  C832  1  0.177600  0.083100  0.500000  1.0  -0.3663
  C  C833  1  0.500000  0.826900  0.035200  1.0  0.2752
  C  C834  1  0.500000  0.822400  0.083100  1.0  -0.3663
  C  C835  1  0.500000  0.826900  0.964800  1.0  0.2743
  C  C836  1  0.500000  0.822400  0.916900  1.0  -0.3675
  C  C837  1  0.500000  0.173100  0.964800  1.0  0.273
  C  C838  1  0.500000  0.177600  0.916900  1.0  -0.3673
  C  C839  1  0.500000  0.173100  0.035200  1.0  0.2731
  C  C840  1  0.500000  0.177600  0.083100  1.0  -0.3668
  N  N841  1  0.500000  0.000000  0.296200  1.0  -0.2769
  N  N842  1  0.500000  0.000000  0.703800  1.0  -0.2723
  N  N843  1  0.296200  0.500000  0.000000  1.0  -0.2714
  N  N844  1  0.703800  0.500000  0.000000  1.0  -0.2678
  N  N845  1  0.000000  0.296200  0.500000  1.0  -0.2699
  N  N846  1  0.000000  0.703800  0.500000  1.0  -0.2725
  N  N847  1  0.523700  0.000000  0.372500  1.0  -0.373
  N  N848  1  0.476300  0.000000  0.372500  1.0  -0.3741
  N  N849  1  0.476300  0.000000  0.627500  1.0  -0.3727
  N  N850  1  0.523700  0.000000  0.627500  1.0  -0.3718
  N  N851  1  0.372500  0.523700  0.000000  1.0  -0.3735
  N  N852  1  0.372500  0.476300  0.000000  1.0  -0.3725
  N  N853  1  0.627500  0.476300  0.000000  1.0  -0.3733
  N  N854  1  0.627500  0.523700  0.000000  1.0  -0.3744
  N  N855  1  0.000000  0.372500  0.523700  1.0  -0.3714
  N  N856  1  0.000000  0.372500  0.476300  1.0  -0.3707
  N  N857  1  0.000000  0.627500  0.476300  1.0  -0.3718
  N  N858  1  0.000000  0.627500  0.523700  1.0  -0.3727
  N  N859  1  0.000000  0.500000  0.796200  1.0  -0.2769
  N  N860  1  0.000000  0.500000  0.203800  1.0  -0.2723
  N  N861  1  0.796200  0.000000  0.500000  1.0  -0.2714
  N  N862  1  0.203800  0.000000  0.500000  1.0  -0.2678
  N  N863  1  0.500000  0.796200  0.000000  1.0  -0.2699
  N  N864  1  0.500000  0.203800  0.000000  1.0  -0.2725
  N  N865  1  0.023700  0.500000  0.872500  1.0  -0.373
  N  N866  1  0.976300  0.500000  0.872500  1.0  -0.3741
  N  N867  1  0.976300  0.500000  0.127500  1.0  -0.3727
  N  N868  1  0.023700  0.500000  0.127500  1.0  -0.3718
  N  N869  1  0.872500  0.023700  0.500000  1.0  -0.3735
  N  N870  1  0.872500  0.976300  0.500000  1.0  -0.3725
  N  N871  1  0.127500  0.976300  0.500000  1.0  -0.3733
  N  N872  1  0.127500  0.023700  0.500000  1.0  -0.3751
  N  N873  1  0.500000  0.872500  0.023700  1.0  -0.3714
  N  N874  1  0.500000  0.872500  0.976300  1.0  -0.3707
  N  N875  1  0.500000  0.127500  0.976300  1.0  -0.3718
  N  N876  1  0.500000  0.127500  0.023700  1.0  -0.3733
  O  O877  1  0.554180  0.052560  0.127510  1.0  -0.5807
  O  O878  1  0.551000  0.050800  0.210400  1.0  -0.5858
  O  O879  1  0.445820  0.947440  0.127510  1.0  -0.581
  O  O880  1  0.449000  0.949200  0.210400  1.0  -0.5851
  O  O881  1  0.445820  0.052560  0.872490  1.0  -0.5787
  O  O882  1  0.449000  0.050800  0.789600  1.0  -0.5852
  O  O883  1  0.554180  0.947440  0.872490  1.0  -0.5786
  O  O884  1  0.551000  0.949200  0.789600  1.0  -0.5856
  O  O885  1  0.127510  0.554180  0.052560  1.0  -0.5776
  O  O886  1  0.210400  0.551000  0.050800  1.0  -0.5855
  O  O887  1  0.127510  0.445820  0.947440  1.0  -0.5767
  O  O888  1  0.210400  0.449000  0.949200  1.0  -0.5851
  O  O889  1  0.872490  0.445820  0.052560  1.0  -0.5755
  O  O890  1  0.789600  0.449000  0.050800  1.0  -0.5851
  O  O891  1  0.872490  0.554180  0.947440  1.0  -0.5759
  O  O892  1  0.789600  0.551000  0.949200  1.0  -0.5855
  O  O893  1  0.052560  0.127510  0.554180  1.0  -0.5737
  O  O894  1  0.050800  0.210400  0.551000  1.0  -0.5892
  O  O895  1  0.947440  0.127510  0.445820  1.0  -0.5748
  O  O896  1  0.949200  0.210400  0.449000  1.0  -0.5897
  O  O897  1  0.052560  0.872490  0.445820  1.0  -0.5743
  O  O898  1  0.050800  0.789600  0.449000  1.0  -0.5897
  O  O899  1  0.947440  0.872490  0.554180  1.0  -0.5739
  O  O900  1  0.949200  0.789600  0.551000  1.0  -0.5891
  O  O901  1  0.445820  0.947440  0.872490  1.0  -0.5789
  O  O902  1  0.449000  0.949200  0.789600  1.0  -0.5852
  O  O903  1  0.554180  0.052560  0.872490  1.0  -0.5787
  O  O904  1  0.551000  0.050800  0.789600  1.0  -0.5852
  O  O905  1  0.554180  0.947440  0.127510  1.0  -0.5808
  O  O906  1  0.551000  0.949200  0.210400  1.0  -0.5857
  O  O907  1  0.445820  0.052560  0.127510  1.0  -0.5807
  O  O908  1  0.449000  0.050800  0.210400  1.0  -0.5855
  O  O909  1  0.872490  0.445820  0.947440  1.0  -0.5756
  O  O910  1  0.789600  0.449000  0.949200  1.0  -0.5852
  O  O911  1  0.872490  0.554180  0.052560  1.0  -0.5755
  O  O912  1  0.789600  0.551000  0.050800  1.0  -0.5854
  O  O913  1  0.127510  0.554180  0.947440  1.0  -0.5774
  O  O914  1  0.210400  0.551000  0.949200  1.0  -0.5856
  O  O915  1  0.127510  0.445820  0.052560  1.0  -0.577
  O  O916  1  0.210400  0.449000  0.050800  1.0  -0.5851
  O  O917  1  0.947440  0.872490  0.445820  1.0  -0.5749
  O  O918  1  0.949200  0.789600  0.449000  1.0  -0.5896
  O  O919  1  0.052560  0.872490  0.554180  1.0  -0.5734
  O  O920  1  0.050800  0.789600  0.551000  1.0  -0.5888
  O  O921  1  0.947440  0.127510  0.554180  1.0  -0.5739
  O  O922  1  0.949200  0.210400  0.551000  1.0  -0.5891
  O  O923  1  0.052560  0.127510  0.445820  1.0  -0.5747
  O  O924  1  0.050800  0.210400  0.449000  1.0  -0.5902
  O  O925  1  0.054180  0.552560  0.627510  1.0  -0.5807
  O  O926  1  0.051000  0.550800  0.710400  1.0  -0.5858
  O  O927  1  0.945820  0.447440  0.627510  1.0  -0.581
  O  O928  1  0.949000  0.449200  0.710400  1.0  -0.5851
  O  O929  1  0.945820  0.552560  0.372490  1.0  -0.5787
  O  O930  1  0.949000  0.550800  0.289600  1.0  -0.5852
  O  O931  1  0.054180  0.447440  0.372490  1.0  -0.5786
  O  O932  1  0.051000  0.449200  0.289600  1.0  -0.5856
  O  O933  1  0.627510  0.054180  0.552560  1.0  -0.5776
  O  O934  1  0.710400  0.051000  0.550800  1.0  -0.5855
  O  O935  1  0.627510  0.945820  0.447440  1.0  -0.5767
  O  O936  1  0.710400  0.949000  0.449200  1.0  -0.5851
  O  O937  1  0.372490  0.945820  0.552560  1.0  -0.5755
  O  O938  1  0.289600  0.949000  0.550800  1.0  -0.5851
  O  O939  1  0.372490  0.054180  0.447440  1.0  -0.5759
  O  O940  1  0.289600  0.051000  0.449200  1.0  -0.5855
  O  O941  1  0.552560  0.627510  0.054180  1.0  -0.5737
  O  O942  1  0.550800  0.710400  0.051000  1.0  -0.5892
  O  O943  1  0.447440  0.627510  0.945820  1.0  -0.5748
  O  O944  1  0.449200  0.710400  0.949000  1.0  -0.5897
  O  O945  1  0.552560  0.372490  0.945820  1.0  -0.5743
  O  O946  1  0.550800  0.289600  0.949000  1.0  -0.5897
  O  O947  1  0.447440  0.372490  0.054180  1.0  -0.5739
  O  O948  1  0.449200  0.289600  0.051000  1.0  -0.5891
  O  O949  1  0.945820  0.447440  0.372490  1.0  -0.5789
  O  O950  1  0.949000  0.449200  0.289600  1.0  -0.5852
  O  O951  1  0.054180  0.552560  0.372490  1.0  -0.5787
  O  O952  1  0.051000  0.550800  0.289600  1.0  -0.5852
  O  O953  1  0.054180  0.447440  0.627510  1.0  -0.5808
  O  O954  1  0.051000  0.449200  0.710400  1.0  -0.5857
  O  O955  1  0.945820  0.552560  0.627510  1.0  -0.5807
  O  O956  1  0.949000  0.550800  0.710400  1.0  -0.5855
  O  O957  1  0.372490  0.945820  0.447440  1.0  -0.5755
  O  O958  1  0.289600  0.949000  0.449200  1.0  -0.5852
  O  O959  1  0.372490  0.054180  0.552560  1.0  -0.5755
  O  O960  1  0.289600  0.051000  0.550800  1.0  -0.5854
  O  O961  1  0.627510  0.054180  0.447440  1.0  -0.5774
  O  O962  1  0.710400  0.051000  0.449200  1.0  -0.5856
  O  O963  1  0.627510  0.945820  0.552560  1.0  -0.577
  O  O964  1  0.710400  0.949000  0.550800  1.0  -0.5851
  O  O965  1  0.447440  0.372490  0.945820  1.0  -0.5749
  O  O966  1  0.449200  0.289600  0.949000  1.0  -0.5896
  O  O967  1  0.552560  0.372490  0.054180  1.0  -0.5734
  O  O968  1  0.550800  0.289600  0.051000  1.0  -0.5888
  O  O969  1  0.447440  0.627510  0.054180  1.0  -0.5739
  O  O970  1  0.449200  0.710400  0.051000  1.0  -0.5891
  O  O971  1  0.552560  0.627510  0.945820  1.0  -0.5747
  O  O972  1  0.550800  0.710400  0.949000  1.0  -0.5902
