# generated using pymatgen
data_Cu2H28C26N4Cl
_symmetry_space_group_name_H-M   'P 1'
_cell_length_a   31.15400000
_cell_length_b   18.38500000
_cell_length_c   26.03400000
_cell_angle_alpha   90.00000000
_cell_angle_beta   114.27400000
_cell_angle_gamma   90.00000000
_symmetry_Int_Tables_number   1
_chemical_formula_structural   Cu2H28C26N4Cl
_chemical_formula_sum   'Cu32 H448 C416 N64 Cl16'
_cell_volume   13593.07977073
_cell_formula_units_Z   16
loop_
 _symmetry_equiv_pos_site_id
 _symmetry_equiv_pos_as_xyz
  1  'x, y, z'
loop_
 _atom_site_type_symbol
 _atom_site_label
 _atom_site_symmetry_multiplicity
 _atom_site_fract_x
 _atom_site_fract_y
 _atom_site_fract_z
 _atom_site_occupancy
 _atom_site_charge
  Cu  Cu1  1  0.499980  0.018110  0.499990  1.0  0.2709
  Cu  Cu2  1  0.562890  0.135660  0.565680  1.0  0.3624
  Cu  Cu3  1  0.714370  0.262660  0.088960  1.0  0.278
  Cu  Cu4  1  0.653170  0.386850  0.027450  1.0  0.3245
  Cu  Cu5  1  0.487880  0.492500  0.001270  1.0  0.2443
  Cu  Cu6  1  0.545810  0.373330  0.069190  1.0  0.3734
  Cu  Cu7  1  0.720880  0.234420  0.588700  1.0  0.2668
  Cu  Cu8  1  0.663560  0.118910  0.514170  1.0  0.3372
  Cu  Cu9  1  0.999980  0.518110  0.499990  1.0  0.2709
  Cu  Cu10  1  0.062890  0.635660  0.565680  1.0  0.3624
  Cu  Cu11  1  0.214370  0.762660  0.088960  1.0  0.278
  Cu  Cu12  1  0.153170  0.886850  0.027450  1.0  0.3255
  Cu  Cu13  1  0.987880  0.992500  0.001270  1.0  0.2443
  Cu  Cu14  1  0.045810  0.873330  0.069190  1.0  0.3734
  Cu  Cu15  1  0.220880  0.734420  0.588700  1.0  0.2668
  Cu  Cu16  1  0.163560  0.618910  0.514170  1.0  0.3372
  Cu  Cu17  1  0.499980  0.981890  0.999990  1.0  0.2706
  Cu  Cu18  1  0.562890  0.864340  0.065680  1.0  0.3628
  Cu  Cu19  1  0.714370  0.737340  0.588960  1.0  0.2781
  Cu  Cu20  1  0.653170  0.613150  0.527450  1.0  0.3244
  Cu  Cu21  1  0.487880  0.507500  0.501270  1.0  0.2444
  Cu  Cu22  1  0.545810  0.626670  0.569190  1.0  0.3729
  Cu  Cu23  1  0.720880  0.765580  0.088700  1.0  0.267
  Cu  Cu24  1  0.663560  0.881090  0.014170  1.0  0.3364
  Cu  Cu25  1  0.999980  0.481890  0.999990  1.0  0.2706
  Cu  Cu26  1  0.062890  0.364340  0.065680  1.0  0.3628
  Cu  Cu27  1  0.214370  0.237340  0.588960  1.0  0.2781
  Cu  Cu28  1  0.153170  0.113150  0.527450  1.0  0.3254
  Cu  Cu29  1  0.987880  0.007500  0.501270  1.0  0.2444
  Cu  Cu30  1  0.045810  0.126670  0.569190  1.0  0.3729
  Cu  Cu31  1  0.220880  0.265580  0.088700  1.0  0.267
  Cu  Cu32  1  0.163560  0.381090  0.014170  1.0  0.3364
  H  H33  1  0.499500  0.110800  0.409300  1.0  0.0684
  H  H34  1  0.446400  0.161700  0.326800  1.0  0.1185
  H  H35  1  0.341900  0.089500  0.366900  1.0  0.1072
  H  H36  1  0.397500  0.040700  0.448300  1.0  0.0794
  H  H37  1  0.253000  0.927800  0.068200  1.0  0.0649
  H  H38  1  0.304900  0.012200  0.126800  1.0  0.1171
  H  H39  1  0.197500  0.098900  0.154500  1.0  0.1111
  H  H40  1  0.148600  0.009800  0.096900  1.0  0.0762
  H  H41  1  0.367600  0.184700  0.260900  1.0  0.0753
  H  H42  1  0.329200  0.189800  0.286900  1.0  0.0863
  H  H43  1  0.305700  0.067400  0.260000  1.0  0.0775
  H  H44  1  0.345900  0.058800  0.237000  1.0  0.0745
  H  H45  1  0.270800  0.163500  0.190300  1.0  0.0887
  H  H46  1  0.308400  0.144700  0.164900  1.0  0.0888
  H  H47  1  0.583500  0.937700  0.571500  1.0  0.0759
  H  H48  1  0.603400  0.843300  0.636000  1.0  0.1107
  H  H49  1  0.468700  0.834300  0.616700  1.0  0.1042
  H  H50  1  0.451600  0.930700  0.553800  1.0  0.068
  H  H51  1  0.701700  0.800100  0.943900  1.0  0.0672
  H  H52  1  0.673400  0.743800  0.856300  1.0  0.1107
  H  H53  1  0.541500  0.794200  0.836600  1.0  0.1145
  H  H54  1  0.573000  0.849200  0.924000  1.0  0.0868
  H  H55  1  0.574200  0.733000  0.668400  1.0  0.0926
  H  H56  1  0.522400  0.735100  0.667000  1.0  0.0911
  H  H57  1  0.547500  0.824700  0.739900  1.0  0.0743
  H  H58  1  0.599300  0.823000  0.741200  1.0  0.0779
  H  H59  1  0.556500  0.700900  0.771600  1.0  0.0846
  H  H60  1  0.608500  0.699500  0.773200  1.0  0.0802
  H  H61  1  0.647800  0.090700  0.661200  1.0  0.0754
  H  H62  1  0.671000  0.036100  0.748300  1.0  0.1147
  H  H63  1  0.534100  0.016400  0.719000  1.0  0.1142
  H  H64  1  0.514500  0.072800  0.633200  1.0  0.0671
  H  H65  1  0.757600  0.181300  0.024900  1.0  0.0619
  H  H66  1  0.737200  0.089900  0.957900  1.0  0.1139
  H  H67  1  0.608100  0.085900  0.959500  1.0  0.1219
  H  H68  1  0.631300  0.180000  0.023500  1.0  0.0684
  H  H69  1  0.645300  0.951700  0.809100  1.0  0.0889
  H  H70  1  0.592800  0.962100  0.804900  1.0  0.0903
  H  H71  1  0.663500  0.074800  0.843600  1.0  0.0814
  H  H72  1  0.611500  0.082700  0.841300  1.0  0.0788
  H  H73  1  0.629200  0.989000  0.911100  1.0  0.0923
  H  H74  1  0.681500  0.983800  0.914200  1.0  0.0975
  H  H75  1  0.713900  0.353400  0.179900  1.0  0.0557
  H  H76  1  0.766400  0.404900  0.262600  1.0  0.112
  H  H77  1  0.871600  0.336200  0.222900  1.0  0.1076
  H  H78  1  0.816500  0.286700  0.140700  1.0  0.0845
  H  H79  1  0.946300  0.176600  0.528100  1.0  0.0629
  H  H80  1  0.898100  0.263100  0.467900  1.0  0.1202
  H  H81  1  0.009400  0.332600  0.440000  1.0  0.1139
  H  H82  1  0.054300  0.242300  0.499800  1.0  0.0694
  H  H83  1  0.845400  0.433600  0.326300  1.0  0.0845
  H  H84  1  0.885200  0.431300  0.302400  1.0  0.085
  H  H85  1  0.862100  0.306600  0.353400  1.0  0.0769
  H  H86  1  0.904700  0.309900  0.334100  1.0  0.0759
  H  H87  1  0.939800  0.405300  0.403400  1.0  0.0984
  H  H88  1  0.899400  0.391700  0.425300  1.0  0.0938
  H  H89  1  0.699700  0.320500  0.959200  1.0  0.0668
  H  H90  1  0.678400  0.263800  0.872600  1.0  0.117
  H  H91  1  0.542300  0.301800  0.840900  1.0  0.1074
  H  H92  1  0.566900  0.352500  0.929600  1.0  0.0768
  H  H93  1  0.570800  0.418500  0.559000  1.0  0.075
  H  H94  1  0.595600  0.328300  0.625900  1.0  0.1035
  H  H95  1  0.469900  0.336000  0.636000  1.0  0.1214
  H  H96  1  0.447100  0.426100  0.567100  1.0  0.0698
  H  H97  1  0.576600  0.233500  0.678800  1.0  0.091
  H  H98  1  0.525400  0.232200  0.679500  1.0  0.0875
  H  H99  1  0.598500  0.332900  0.745800  1.0  0.0767
  H  H100  1  0.547900  0.327600  0.747900  1.0  0.072
  H  H101  1  0.567100  0.205100  0.783800  1.0  0.0874
  H  H102  1  0.618900  0.216600  0.786400  1.0  0.0837
  H  H103  1  0.493400  0.396700  0.916000  1.0  0.0726
  H  H104  1  0.443700  0.344900  0.831200  1.0  0.12
  H  H105  1  0.333600  0.419700  0.859400  1.0  0.1093
  H  H106  1  0.385600  0.469400  0.943100  1.0  0.0771
  H  H107  1  0.261700  0.565900  0.552100  1.0  0.0649
  H  H108  1  0.310300  0.478900  0.613700  1.0  0.1224
  H  H109  1  0.203100  0.425600  0.653900  1.0  0.1127
  H  H110  1  0.157500  0.513300  0.590700  1.0  0.0584
  H  H111  1  0.310600  0.358500  0.662600  1.0  0.091
  H  H112  1  0.269900  0.345300  0.684000  1.0  0.0885
  H  H113  1  0.304200  0.439900  0.753700  1.0  0.0718
  H  H114  1  0.346600  0.446000  0.734000  1.0  0.0749
  H  H115  1  0.325700  0.317300  0.782700  1.0  0.0881
  H  H116  1  0.366900  0.321000  0.761000  1.0  0.0831
  H  H117  1  0.637200  0.405400  0.158700  1.0  0.0682
  H  H118  1  0.669300  0.456400  0.247500  1.0  0.1156
  H  H119  1  0.537600  0.501300  0.231000  1.0  0.1178
  H  H120  1  0.508900  0.447200  0.143700  1.0  0.07
  H  H121  1  0.768500  0.327500  0.537000  1.0  0.0694
  H  H122  1  0.749500  0.420700  0.472000  1.0  0.1081
  H  H123  1  0.614800  0.406100  0.453100  1.0  0.1197
  H  H124  1  0.637000  0.311900  0.517700  1.0  0.0698
  H  H125  1  0.601700  0.544300  0.314100  1.0  0.0805
  H  H126  1  0.652900  0.549000  0.313600  1.0  0.0869
  H  H127  1  0.617000  0.422500  0.348700  1.0  0.0748
  H  H128  1  0.667500  0.424800  0.346200  1.0  0.0766
  H  H129  1  0.693500  0.515200  0.417600  1.0  0.0842
  H  H130  1  0.642400  0.517000  0.418900  1.0  0.0865
  H  H131  1  0.823300  0.211100  0.644700  1.0  0.0857
  H  H132  1  0.876300  0.163700  0.729600  1.0  0.0954
  H  H133  1  0.768000  0.091500  0.761200  1.0  0.1203
  H  H134  1  0.717400  0.143500  0.677300  1.0  0.0745
  H  H135  1  0.064900  0.255600  0.983700  1.0  0.068
  H  H136  1  0.015900  0.169200  0.922700  1.0  0.1098
  H  H137  1  0.915600  0.225100  0.975500  1.0  0.1238
  H  H138  1  0.966200  0.311400  0.033200  1.0  0.0659
  H  H139  1  0.883700  0.060100  0.806700  1.0  0.0848
  H  H140  1  0.845400  0.073300  0.831900  1.0  0.0766
  H  H141  1  0.872500  0.194700  0.855800  1.0  0.0718
  H  H142  1  0.910300  0.182800  0.829400  1.0  0.0725
  H  H143  1  0.910900  0.105300  0.925600  1.0  0.0861
  H  H144  1  0.947800  0.090400  0.898500  1.0  0.0848
  H  H145  1  0.999500  0.610800  0.409300  1.0  0.0684
  H  H146  1  0.946400  0.661700  0.326800  1.0  0.1187
  H  H147  1  0.841900  0.589500  0.366900  1.0  0.1072
  H  H148  1  0.897500  0.540700  0.448300  1.0  0.0794
  H  H149  1  0.753000  0.427800  0.068200  1.0  0.0649
  H  H150  1  0.804900  0.512200  0.126800  1.0  0.1171
  H  H151  1  0.697500  0.598900  0.154500  1.0  0.1111
  H  H152  1  0.648600  0.509800  0.096900  1.0  0.0762
  H  H153  1  0.867600  0.684700  0.260900  1.0  0.0753
  H  H154  1  0.829200  0.689800  0.286900  1.0  0.0863
  H  H155  1  0.805700  0.567400  0.260000  1.0  0.0775
  H  H156  1  0.845900  0.558800  0.237000  1.0  0.0745
  H  H157  1  0.770800  0.663500  0.190300  1.0  0.0887
  H  H158  1  0.808400  0.644700  0.164900  1.0  0.0888
  H  H159  1  0.083500  0.437700  0.571500  1.0  0.0759
  H  H160  1  0.103400  0.343300  0.636000  1.0  0.1107
  H  H161  1  0.968700  0.334300  0.616700  1.0  0.1042
  H  H162  1  0.951600  0.430700  0.553800  1.0  0.068
  H  H163  1  0.201700  0.300100  0.943900  1.0  0.0672
  H  H164  1  0.173400  0.243800  0.856300  1.0  0.1107
  H  H165  1  0.041500  0.294200  0.836600  1.0  0.1145
  H  H166  1  0.073000  0.349200  0.924000  1.0  0.0868
  H  H167  1  0.074200  0.233000  0.668400  1.0  0.0926
  H  H168  1  0.022400  0.235100  0.667000  1.0  0.0911
  H  H169  1  0.047500  0.324700  0.739900  1.0  0.0743
  H  H170  1  0.099300  0.323000  0.741200  1.0  0.0779
  H  H171  1  0.056500  0.200900  0.771600  1.0  0.0846
  H  H172  1  0.108500  0.199500  0.773200  1.0  0.0802
  H  H173  1  0.147800  0.590700  0.661200  1.0  0.0754
  H  H174  1  0.171000  0.536100  0.748300  1.0  0.1147
  H  H175  1  0.034100  0.516400  0.719000  1.0  0.1142
  H  H176  1  0.014500  0.572800  0.633200  1.0  0.0671
  H  H177  1  0.257600  0.681300  0.024900  1.0  0.0619
  H  H178  1  0.237200  0.589900  0.957900  1.0  0.1139
  H  H179  1  0.108100  0.585900  0.959500  1.0  0.1219
  H  H180  1  0.131300  0.680000  0.023500  1.0  0.0684
  H  H181  1  0.145300  0.451700  0.809100  1.0  0.0889
  H  H182  1  0.092800  0.462100  0.804900  1.0  0.0903
  H  H183  1  0.163500  0.574800  0.843600  1.0  0.0814
  H  H184  1  0.111500  0.582700  0.841300  1.0  0.0788
  H  H185  1  0.129200  0.489000  0.911100  1.0  0.0923
  H  H186  1  0.181500  0.483800  0.914200  1.0  0.0975
  H  H187  1  0.213900  0.853400  0.179900  1.0  0.0557
  H  H188  1  0.266400  0.904900  0.262600  1.0  0.112
  H  H189  1  0.371600  0.836200  0.222900  1.0  0.1076
  H  H190  1  0.316500  0.786700  0.140700  1.0  0.0845
  H  H191  1  0.446300  0.676600  0.528100  1.0  0.0629
  H  H192  1  0.398100  0.763100  0.467900  1.0  0.1202
  H  H193  1  0.509400  0.832600  0.440000  1.0  0.1139
  H  H194  1  0.554300  0.742300  0.499800  1.0  0.0694
  H  H195  1  0.345400  0.933600  0.326300  1.0  0.0845
  H  H196  1  0.385200  0.931300  0.302400  1.0  0.085
  H  H197  1  0.362100  0.806600  0.353400  1.0  0.0769
  H  H198  1  0.404700  0.809900  0.334100  1.0  0.0759
  H  H199  1  0.439800  0.905300  0.403400  1.0  0.0984
  H  H200  1  0.399400  0.891700  0.425300  1.0  0.0938
  H  H201  1  0.199700  0.820500  0.959200  1.0  0.0668
  H  H202  1  0.178400  0.763800  0.872600  1.0  0.117
  H  H203  1  0.042300  0.801800  0.840900  1.0  0.1074
  H  H204  1  0.066900  0.852500  0.929600  1.0  0.0768
  H  H205  1  0.070800  0.918500  0.559000  1.0  0.075
  H  H206  1  0.095600  0.828300  0.625900  1.0  0.1035
  H  H207  1  0.969900  0.836000  0.636000  1.0  0.1214
  H  H208  1  0.947100  0.926100  0.567100  1.0  0.0698
  H  H209  1  0.076600  0.733500  0.678800  1.0  0.091
  H  H210  1  0.025400  0.732200  0.679500  1.0  0.0875
  H  H211  1  0.098500  0.832900  0.745800  1.0  0.0767
  H  H212  1  0.047900  0.827600  0.747900  1.0  0.072
  H  H213  1  0.067100  0.705100  0.783800  1.0  0.0874
  H  H214  1  0.118900  0.716600  0.786400  1.0  0.0837
  H  H215  1  0.993400  0.896700  0.916000  1.0  0.0726
  H  H216  1  0.943700  0.844900  0.831200  1.0  0.12
  H  H217  1  0.833600  0.919700  0.859400  1.0  0.1103
  H  H218  1  0.885600  0.969400  0.943100  1.0  0.0771
  H  H219  1  0.761700  0.065900  0.552100  1.0  0.0649
  H  H220  1  0.810300  0.978900  0.613700  1.0  0.1224
  H  H221  1  0.703100  0.925600  0.653900  1.0  0.1127
  H  H222  1  0.657500  0.013300  0.590700  1.0  0.0584
  H  H223  1  0.810600  0.858500  0.662600  1.0  0.091
  H  H224  1  0.769900  0.845300  0.684000  1.0  0.0885
  H  H225  1  0.804200  0.939900  0.753700  1.0  0.0718
  H  H226  1  0.846600  0.946000  0.734000  1.0  0.0749
  H  H227  1  0.825700  0.817300  0.782700  1.0  0.0881
  H  H228  1  0.866900  0.821000  0.761000  1.0  0.0831
  H  H229  1  0.137200  0.905400  0.158700  1.0  0.0682
  H  H230  1  0.169300  0.956400  0.247500  1.0  0.1156
  H  H231  1  0.037600  0.001300  0.231000  1.0  0.1178
  H  H232  1  0.008900  0.947200  0.143700  1.0  0.07
  H  H233  1  0.268500  0.827500  0.537000  1.0  0.0694
  H  H234  1  0.249500  0.920700  0.472000  1.0  0.1081
  H  H235  1  0.114800  0.906100  0.453100  1.0  0.1197
  H  H236  1  0.137000  0.811900  0.517700  1.0  0.0698
  H  H237  1  0.101700  0.044300  0.314100  1.0  0.0805
  H  H238  1  0.152900  0.049000  0.313600  1.0  0.0869
  H  H239  1  0.117000  0.922500  0.348700  1.0  0.0748
  H  H240  1  0.167500  0.924800  0.346200  1.0  0.0766
  H  H241  1  0.193500  0.015200  0.417600  1.0  0.0842
  H  H242  1  0.142400  0.017000  0.418900  1.0  0.0865
  H  H243  1  0.323300  0.711100  0.644700  1.0  0.0857
  H  H244  1  0.376300  0.663700  0.729600  1.0  0.0954
  H  H245  1  0.268000  0.591500  0.761200  1.0  0.1203
  H  H246  1  0.217400  0.643500  0.677300  1.0  0.0745
  H  H247  1  0.564900  0.755600  0.983700  1.0  0.068
  H  H248  1  0.515900  0.669200  0.922700  1.0  0.1098
  H  H249  1  0.415600  0.725100  0.975500  1.0  0.1238
  H  H250  1  0.466200  0.811400  0.033200  1.0  0.0659
  H  H251  1  0.383700  0.560100  0.806700  1.0  0.0848
  H  H252  1  0.345400  0.573300  0.831900  1.0  0.0766
  H  H253  1  0.372500  0.694700  0.855800  1.0  0.0718
  H  H254  1  0.410300  0.682800  0.829400  1.0  0.0725
  H  H255  1  0.410900  0.605300  0.925600  1.0  0.0861
  H  H256  1  0.447800  0.590400  0.898500  1.0  0.0848
  H  H257  1  0.499500  0.889200  0.909300  1.0  0.0681
  H  H258  1  0.446400  0.838300  0.826800  1.0  0.12
  H  H259  1  0.341900  0.910500  0.866900  1.0  0.107
  H  H260  1  0.397500  0.959300  0.948300  1.0  0.0793
  H  H261  1  0.253000  0.072200  0.568200  1.0  0.0649
  H  H262  1  0.304900  0.987800  0.626800  1.0  0.1174
  H  H263  1  0.197500  0.901100  0.654500  1.0  0.1117
  H  H264  1  0.148600  0.990200  0.596900  1.0  0.0761
  H  H265  1  0.367600  0.815300  0.760900  1.0  0.0754
  H  H266  1  0.329200  0.810200  0.786900  1.0  0.0868
  H  H267  1  0.305700  0.932600  0.760000  1.0  0.077
  H  H268  1  0.345900  0.941200  0.737000  1.0  0.0753
  H  H269  1  0.270800  0.836500  0.690300  1.0  0.089
  H  H270  1  0.308400  0.855300  0.664900  1.0  0.0889
  H  H271  1  0.583500  0.062300  0.071500  1.0  0.076
  H  H272  1  0.603400  0.156700  0.136000  1.0  0.1108
  H  H273  1  0.468700  0.165700  0.116700  1.0  0.104
  H  H274  1  0.451600  0.069300  0.053800  1.0  0.0681
  H  H275  1  0.701700  0.199900  0.443900  1.0  0.0675
  H  H276  1  0.673400  0.256200  0.356300  1.0  0.1106
  H  H277  1  0.541500  0.205800  0.336600  1.0  0.115
  H  H278  1  0.573000  0.150800  0.424000  1.0  0.0866
  H  H279  1  0.574200  0.267000  0.168400  1.0  0.0931
  H  H280  1  0.522400  0.264900  0.167000  1.0  0.091
  H  H281  1  0.547500  0.175300  0.239900  1.0  0.0747
  H  H282  1  0.599300  0.177000  0.241200  1.0  0.0772
  H  H283  1  0.556500  0.299100  0.271600  1.0  0.0841
  H  H284  1  0.608500  0.300500  0.273200  1.0  0.0802
  H  H285  1  0.647800  0.909300  0.161200  1.0  0.075
  H  H286  1  0.671000  0.963900  0.248300  1.0  0.1144
  H  H287  1  0.534100  0.983600  0.219000  1.0  0.1142
  H  H288  1  0.514500  0.927200  0.133200  1.0  0.0672
  H  H289  1  0.757600  0.818700  0.524900  1.0  0.0614
  H  H290  1  0.737200  0.910100  0.457900  1.0  0.1141
  H  H291  1  0.608100  0.914100  0.459500  1.0  0.1217
  H  H292  1  0.631300  0.820000  0.523500  1.0  0.0685
  H  H293  1  0.645300  0.048300  0.309100  1.0  0.0894
  H  H294  1  0.592800  0.037900  0.304900  1.0  0.09
  H  H295  1  0.663500  0.925200  0.343600  1.0  0.0809
  H  H296  1  0.611500  0.917300  0.341300  1.0  0.0787
  H  H297  1  0.629200  0.011000  0.411100  1.0  0.0922
  H  H298  1  0.681500  0.016200  0.414200  1.0  0.0983
  H  H299  1  0.713900  0.646600  0.679900  1.0  0.0555
  H  H300  1  0.766400  0.595100  0.762600  1.0  0.1121
  H  H301  1  0.871600  0.663800  0.722900  1.0  0.1081
  H  H302  1  0.816500  0.713300  0.640700  1.0  0.0844
  H  H303  1  0.946300  0.823400  0.028100  1.0  0.0628
  H  H304  1  0.898100  0.736900  0.967900  1.0  0.1201
  H  H305  1  0.009400  0.667400  0.940000  1.0  0.1134
  H  H306  1  0.054300  0.757700  0.999800  1.0  0.0696
  H  H307  1  0.845400  0.566400  0.826300  1.0  0.085
  H  H308  1  0.885200  0.568700  0.802400  1.0  0.0849
  H  H309  1  0.862100  0.693400  0.853400  1.0  0.0766
  H  H310  1  0.904700  0.690100  0.834100  1.0  0.0761
  H  H311  1  0.939800  0.594700  0.903400  1.0  0.0982
  H  H312  1  0.899400  0.608300  0.925300  1.0  0.0946
  H  H313  1  0.699700  0.679500  0.459200  1.0  0.0671
  H  H314  1  0.678400  0.736200  0.372600  1.0  0.1171
  H  H315  1  0.542300  0.698200  0.340900  1.0  0.1072
  H  H316  1  0.566900  0.647500  0.429600  1.0  0.0769
  H  H317  1  0.570800  0.581500  0.059000  1.0  0.0751
  H  H318  1  0.595600  0.671700  0.125900  1.0  0.1037
  H  H319  1  0.469900  0.664000  0.136000  1.0  0.1214
  H  H320  1  0.447100  0.573900  0.067100  1.0  0.0705
  H  H321  1  0.576600  0.766500  0.178800  1.0  0.0912
  H  H322  1  0.525400  0.767800  0.179500  1.0  0.0871
  H  H323  1  0.598500  0.667100  0.245800  1.0  0.076
  H  H324  1  0.547900  0.672400  0.247900  1.0  0.0726
  H  H325  1  0.567100  0.794900  0.283800  1.0  0.087
  H  H326  1  0.618900  0.783400  0.286400  1.0  0.0834
  H  H327  1  0.493400  0.603300  0.416000  1.0  0.0726
  H  H328  1  0.443700  0.655100  0.331200  1.0  0.1211
  H  H329  1  0.333600  0.580300  0.359400  1.0  0.1095
  H  H330  1  0.385600  0.530600  0.443100  1.0  0.0775
  H  H331  1  0.261700  0.434100  0.052100  1.0  0.0644
  H  H332  1  0.310300  0.521100  0.113700  1.0  0.1223
  H  H333  1  0.203100  0.574400  0.153900  1.0  0.1127
  H  H334  1  0.157500  0.486700  0.090700  1.0  0.0584
  H  H335  1  0.310600  0.641500  0.162600  1.0  0.0917
  H  H336  1  0.269900  0.654700  0.184000  1.0  0.0884
  H  H337  1  0.304200  0.560100  0.253700  1.0  0.0722
  H  H338  1  0.346600  0.554000  0.234000  1.0  0.0743
  H  H339  1  0.325700  0.682700  0.282700  1.0  0.0874
  H  H340  1  0.366900  0.679000  0.261000  1.0  0.0831
  H  H341  1  0.637200  0.594600  0.658700  1.0  0.0686
  H  H342  1  0.669300  0.543600  0.747500  1.0  0.1157
  H  H343  1  0.537600  0.498700  0.731000  1.0  0.1177
  H  H344  1  0.508900  0.552800  0.643700  1.0  0.0698
  H  H345  1  0.768500  0.672500  0.037000  1.0  0.0694
  H  H346  1  0.749500  0.579300  0.972000  1.0  0.1082
  H  H347  1  0.614800  0.593900  0.953100  1.0  0.1198
  H  H348  1  0.637000  0.688100  0.017700  1.0  0.0696
  H  H349  1  0.601700  0.455700  0.814100  1.0  0.0803
  H  H350  1  0.652900  0.451000  0.813600  1.0  0.0865
  H  H351  1  0.617000  0.577500  0.848700  1.0  0.0751
  H  H352  1  0.667500  0.575200  0.846200  1.0  0.0771
  H  H353  1  0.693500  0.484800  0.917600  1.0  0.0836
  H  H354  1  0.642400  0.483000  0.918900  1.0  0.0871
  H  H355  1  0.823300  0.788900  0.144700  1.0  0.0859
  H  H356  1  0.876300  0.836300  0.229600  1.0  0.0953
  H  H357  1  0.768000  0.908500  0.261200  1.0  0.1202
  H  H358  1  0.717400  0.856500  0.177300  1.0  0.0745
  H  H359  1  0.064900  0.744400  0.483700  1.0  0.0682
  H  H360  1  0.015900  0.830800  0.422700  1.0  0.1102
  H  H361  1  0.915600  0.774900  0.475500  1.0  0.124
  H  H362  1  0.966200  0.688600  0.533200  1.0  0.066
  H  H363  1  0.883700  0.939900  0.306700  1.0  0.0847
  H  H364  1  0.845400  0.926700  0.331900  1.0  0.0761
  H  H365  1  0.872500  0.805300  0.355800  1.0  0.0718
  H  H366  1  0.910300  0.817200  0.329400  1.0  0.0723
  H  H367  1  0.910900  0.894700  0.425600  1.0  0.0851
  H  H368  1  0.947800  0.909600  0.398500  1.0  0.0847
  H  H369  1  0.999500  0.389200  0.909300  1.0  0.0681
  H  H370  1  0.946400  0.338300  0.826800  1.0  0.12
  H  H371  1  0.841900  0.410500  0.866900  1.0  0.107
  H  H372  1  0.897500  0.459300  0.948300  1.0  0.0793
  H  H373  1  0.753000  0.572200  0.568200  1.0  0.0649
  H  H374  1  0.804900  0.487800  0.626800  1.0  0.1174
  H  H375  1  0.697500  0.401100  0.654500  1.0  0.1117
  H  H376  1  0.648600  0.490200  0.596900  1.0  0.0761
  H  H377  1  0.867600  0.315300  0.760900  1.0  0.0754
  H  H378  1  0.829200  0.310200  0.786900  1.0  0.0868
  H  H379  1  0.805700  0.432600  0.760000  1.0  0.077
  H  H380  1  0.845900  0.441200  0.737000  1.0  0.0753
  H  H381  1  0.770800  0.336500  0.690300  1.0  0.089
  H  H382  1  0.808400  0.355300  0.664900  1.0  0.0889
  H  H383  1  0.083500  0.562300  0.071500  1.0  0.076
  H  H384  1  0.103400  0.656700  0.136000  1.0  0.1108
  H  H385  1  0.968700  0.665700  0.116700  1.0  0.104
  H  H386  1  0.951600  0.569300  0.053800  1.0  0.0681
  H  H387  1  0.201700  0.699900  0.443900  1.0  0.0675
  H  H388  1  0.173400  0.756200  0.356300  1.0  0.1106
  H  H389  1  0.041500  0.705800  0.336600  1.0  0.115
  H  H390  1  0.073000  0.650800  0.424000  1.0  0.0866
  H  H391  1  0.074200  0.767000  0.168400  1.0  0.0931
  H  H392  1  0.022400  0.764900  0.167000  1.0  0.091
  H  H393  1  0.047500  0.675300  0.239900  1.0  0.0747
  H  H394  1  0.099300  0.677000  0.241200  1.0  0.0772
  H  H395  1  0.056500  0.799100  0.271600  1.0  0.0841
  H  H396  1  0.108500  0.800500  0.273200  1.0  0.0802
  H  H397  1  0.147800  0.409300  0.161200  1.0  0.075
  H  H398  1  0.171000  0.463900  0.248300  1.0  0.1144
  H  H399  1  0.034100  0.483600  0.219000  1.0  0.1142
  H  H400  1  0.014500  0.427200  0.133200  1.0  0.0672
  H  H401  1  0.257600  0.318700  0.524900  1.0  0.0614
  H  H402  1  0.237200  0.410100  0.457900  1.0  0.1141
  H  H403  1  0.108100  0.414100  0.459500  1.0  0.1217
  H  H404  1  0.131300  0.320000  0.523500  1.0  0.0685
  H  H405  1  0.145300  0.548300  0.309100  1.0  0.0894
  H  H406  1  0.092800  0.537900  0.304900  1.0  0.09
  H  H407  1  0.163500  0.425200  0.343600  1.0  0.0809
  H  H408  1  0.111500  0.417300  0.341300  1.0  0.0787
  H  H409  1  0.129200  0.511000  0.411100  1.0  0.0922
  H  H410  1  0.181500  0.516200  0.414200  1.0  0.0983
  H  H411  1  0.213900  0.146600  0.679900  1.0  0.0555
  H  H412  1  0.266400  0.095100  0.762600  1.0  0.1121
  H  H413  1  0.371600  0.163800  0.722900  1.0  0.1081
  H  H414  1  0.316500  0.213300  0.640700  1.0  0.0844
  H  H415  1  0.446300  0.323400  0.028100  1.0  0.0628
  H  H416  1  0.398100  0.236900  0.967900  1.0  0.1201
  H  H417  1  0.509400  0.167400  0.940000  1.0  0.1134
  H  H418  1  0.554300  0.257700  0.999800  1.0  0.0696
  H  H419  1  0.345400  0.066400  0.826300  1.0  0.085
  H  H420  1  0.385200  0.068700  0.802400  1.0  0.0849
  H  H421  1  0.362100  0.193400  0.853400  1.0  0.0766
  H  H422  1  0.404700  0.190100  0.834100  1.0  0.0761
  H  H423  1  0.439800  0.094700  0.903400  1.0  0.0982
  H  H424  1  0.399400  0.108300  0.925300  1.0  0.0946
  H  H425  1  0.199700  0.179500  0.459200  1.0  0.0671
  H  H426  1  0.178400  0.236200  0.372600  1.0  0.1171
  H  H427  1  0.042300  0.198200  0.340900  1.0  0.1072
  H  H428  1  0.066900  0.147500  0.429600  1.0  0.0769
  H  H429  1  0.070800  0.081500  0.059000  1.0  0.0751
  H  H430  1  0.095600  0.171700  0.125900  1.0  0.1037
  H  H431  1  0.969900  0.164000  0.136000  1.0  0.1214
  H  H432  1  0.947100  0.073900  0.067100  1.0  0.0705
  H  H433  1  0.076600  0.266500  0.178800  1.0  0.0912
  H  H434  1  0.025400  0.267800  0.179500  1.0  0.0871
  H  H435  1  0.098500  0.167100  0.245800  1.0  0.076
  H  H436  1  0.047900  0.172400  0.247900  1.0  0.0726
  H  H437  1  0.067100  0.294900  0.283800  1.0  0.087
  H  H438  1  0.118900  0.283400  0.286400  1.0  0.0834
  H  H439  1  0.993400  0.103300  0.416000  1.0  0.0726
  H  H440  1  0.943700  0.155100  0.331200  1.0  0.1211
  H  H441  1  0.833600  0.080300  0.359400  1.0  0.1104
  H  H442  1  0.885600  0.030600  0.443100  1.0  0.0775
  H  H443  1  0.761700  0.934100  0.052100  1.0  0.0644
  H  H444  1  0.810300  0.021100  0.113700  1.0  0.1223
  H  H445  1  0.703100  0.074400  0.153900  1.0  0.1127
  H  H446  1  0.657500  0.986700  0.090700  1.0  0.0584
  H  H447  1  0.810600  0.141500  0.162600  1.0  0.0917
  H  H448  1  0.769900  0.154700  0.184000  1.0  0.0884
  H  H449  1  0.804200  0.060100  0.253700  1.0  0.0722
  H  H450  1  0.846600  0.054000  0.234000  1.0  0.0743
  H  H451  1  0.825700  0.182700  0.282700  1.0  0.0874
  H  H452  1  0.866900  0.179000  0.261000  1.0  0.0831
  H  H453  1  0.137200  0.094600  0.658700  1.0  0.0686
  H  H454  1  0.169300  0.043600  0.747500  1.0  0.1157
  H  H455  1  0.037600  0.998700  0.731000  1.0  0.1177
  H  H456  1  0.008900  0.052800  0.643700  1.0  0.0698
  H  H457  1  0.268500  0.172500  0.037000  1.0  0.0694
  H  H458  1  0.249500  0.079300  0.972000  1.0  0.1082
  H  H459  1  0.114800  0.093900  0.953100  1.0  0.1198
  H  H460  1  0.137000  0.188100  0.017700  1.0  0.0696
  H  H461  1  0.101700  0.955700  0.814100  1.0  0.0803
  H  H462  1  0.152900  0.951000  0.813600  1.0  0.0865
  H  H463  1  0.117000  0.077500  0.848700  1.0  0.0751
  H  H464  1  0.167500  0.075200  0.846200  1.0  0.0771
  H  H465  1  0.193500  0.984800  0.917600  1.0  0.0836
  H  H466  1  0.142400  0.983000  0.918900  1.0  0.0871
  H  H467  1  0.323300  0.288900  0.144700  1.0  0.0859
  H  H468  1  0.376300  0.336300  0.229600  1.0  0.0953
  H  H469  1  0.268000  0.408500  0.261200  1.0  0.1202
  H  H470  1  0.217400  0.356500  0.177300  1.0  0.0745
  H  H471  1  0.564900  0.244400  0.483700  1.0  0.0682
  H  H472  1  0.515900  0.330800  0.422700  1.0  0.1102
  H  H473  1  0.415600  0.274900  0.475500  1.0  0.124
  H  H474  1  0.466200  0.188600  0.533200  1.0  0.066
  H  H475  1  0.383700  0.439900  0.306700  1.0  0.0847
  H  H476  1  0.345400  0.426700  0.331900  1.0  0.0761
  H  H477  1  0.372500  0.305300  0.355800  1.0  0.0718
  H  H478  1  0.410300  0.317200  0.329400  1.0  0.0723
  H  H479  1  0.410900  0.394700  0.425600  1.0  0.0851
  H  H480  1  0.447800  0.409600  0.398500  1.0  0.0847
  C  C481  1  0.466830  0.105720  0.400270  1.0  0.1546
  C  C482  1  0.435410  0.136170  0.350730  1.0  -0.236
  C  C483  1  0.387550  0.129170  0.336250  1.0  0.1512
  C  C484  1  0.374350  0.093800  0.374470  1.0  -0.2567
  C  C485  1  0.407660  0.064940  0.423060  1.0  0.1388
  C  C486  1  0.241510  0.962900  0.086180  1.0  0.1437
  C  C487  1  0.272770  0.013500  0.121010  1.0  -0.2406
  C  C488  1  0.257190  0.066090  0.147450  1.0  0.1402
  C  C489  1  0.209970  0.063950  0.137470  1.0  -0.1949
  C  C490  1  0.180740  0.010770  0.102540  1.0  0.1545
  C  C491  1  0.351410  0.156740  0.280190  1.0  -0.1931
  C  C492  1  0.323790  0.093550  0.242110  1.0  -0.125
  C  C493  1  0.289810  0.123830  0.184380  1.0  -0.2055
  C  C494  1  0.559780  0.916560  0.580840  1.0  0.1613
  C  C495  1  0.571740  0.859620  0.618930  1.0  -0.1831
  C  C496  1  0.538080  0.826500  0.632360  1.0  0.1462
  C  C497  1  0.492900  0.854600  0.607840  1.0  -0.2208
  C  C498  1  0.482840  0.912400  0.570220  1.0  0.1429
  C  C499  1  0.668720  0.799200  0.921670  1.0  0.1511
  C  C500  1  0.651960  0.765170  0.869370  1.0  -0.2168
  C  C501  1  0.603850  0.762400  0.836180  1.0  0.1322
  C  C502  1  0.574640  0.794700  0.857710  1.0  -0.2416
  C  C503  1  0.593790  0.827700  0.910070  1.0  0.1474
  C  C504  1  0.550770  0.764680  0.673860  1.0  -0.1967
  C  C505  1  0.571060  0.793130  0.734560  1.0  -0.0977
  C  C506  1  0.584550  0.731010  0.777790  1.0  -0.2284
  C  C507  1  0.624240  0.075600  0.673320  1.0  0.1542
  C  C508  1  0.638470  0.042900  0.725460  1.0  -0.256
  C  C509  1  0.605050  0.019880  0.744500  1.0  0.1515
  C  C510  1  0.558360  0.031600  0.708310  1.0  -0.237
  C  C511  1  0.546810  0.065100  0.656800  1.0  0.1439
  C  C512  1  0.726580  0.162100  0.010850  1.0  0.1544
  C  C513  1  0.714760  0.107000  0.971070  1.0  -0.2276
  C  C514  1  0.670350  0.077270  0.950770  1.0  0.139
  C  C515  1  0.638980  0.105300  0.971800  1.0  -0.2442
  C  C516  1  0.653310  0.160900  0.010370  1.0  0.1621
  C  C517  1  0.619850  0.987640  0.802320  1.0  -0.2805
  C  C518  1  0.637470  0.047920  0.847560  1.0  -0.0971
  C  C519  1  0.654820  0.017200  0.907330  1.0  -0.2534
  C  C520  1  0.746590  0.349000  0.189190  1.0  0.1495
  C  C521  1  0.777750  0.379800  0.238700  1.0  -0.2511
  C  C522  1  0.825770  0.373980  0.253480  1.0  0.1536
  C  C523  1  0.839150  0.339580  0.215280  1.0  -0.2088
  C  C524  1  0.806160  0.310040  0.166200  1.0  0.1222
  C  C525  1  0.959450  0.208540  0.509640  1.0  0.1383
  C  C526  1  0.930260  0.260490  0.473820  1.0  -0.2425
  C  C527  1  0.948070  0.308720  0.446590  1.0  0.13
  C  C528  1  0.995360  0.300820  0.457390  1.0  -0.2328
  C  C529  1  0.022090  0.246760  0.493480  1.0  0.1609
  C  C530  1  0.861310  0.401790  0.308910  1.0  -0.1984
  C  C531  1  0.886080  0.338920  0.349720  1.0  -0.1005
  C  C532  1  0.918650  0.368030  0.407900  1.0  -0.2344
  C  C533  1  0.667200  0.315820  0.935270  1.0  0.1569
  C  C534  1  0.654720  0.282160  0.883260  1.0  -0.2221
  C  C535  1  0.607360  0.275450  0.846750  1.0  0.1349
  C  C536  1  0.575000  0.303740  0.864770  1.0  -0.2419
  C  C537  1  0.590070  0.334980  0.917730  1.0  0.1451
  C  C538  1  0.550000  0.401930  0.574920  1.0  0.1497
  C  C539  1  0.564810  0.347900  0.614640  1.0  -0.1889
  C  C540  1  0.535940  0.321600  0.638530  1.0  0.141
  C  C541  1  0.491150  0.352070  0.620600  1.0  -0.2326
  C  C542  1  0.477940  0.406510  0.579760  1.0  0.1407
  C  C543  1  0.552260  0.263960  0.683430  1.0  -0.2648
  C  C544  1  0.572780  0.299070  0.742750  1.0  -0.0907
  C  C545  1  0.591870  0.241790  0.789150  1.0  -0.2228
  C  C546  1  0.460330  0.402010  0.904050  1.0  0.146
  C  C547  1  0.430910  0.370920  0.853190  1.0  -0.2487
  C  C548  1  0.382530  0.378300  0.834740  1.0  0.1508
  C  C549  1  0.366510  0.414870  0.869910  1.0  -0.241
  C  C550  1  0.397740  0.444390  0.919980  1.0  0.1312
  C  C551  1  0.249330  0.536700  0.572970  1.0  0.1477
  C  C552  1  0.278820  0.484400  0.609800  1.0  -0.2389
  C  C553  1  0.261690  0.441200  0.640110  1.0  0.1448
  C  C554  1  0.216190  0.453300  0.633120  1.0  -0.247
  C  C555  1  0.189130  0.506600  0.595260  1.0  0.1563
  C  C556  1  0.291040  0.382500  0.679530  1.0  -0.1984
  C  C557  1  0.323260  0.412300  0.737780  1.0  -0.1067
  C  C558  1  0.349040  0.349820  0.777810  1.0  -0.2069
  C  C559  1  0.616520  0.424790  0.173840  1.0  0.16
  C  C560  1  0.636060  0.455440  0.226910  1.0  -0.2482
  C  C561  1  0.606940  0.484780  0.249930  1.0  0.1563
  C  C562  1  0.558990  0.481350  0.217240  1.0  -0.2558
  C  C563  1  0.542020  0.449280  0.164900  1.0  0.1484
  C  C564  1  0.736700  0.343300  0.519290  1.0  0.1525
  C  C565  1  0.725630  0.399200  0.480860  1.0  -0.2179
  C  C566  1  0.680090  0.424090  0.455310  1.0  0.1227
  C  C567  1  0.646650  0.390500  0.469670  1.0  -0.2358
  C  C568  1  0.660220  0.334450  0.508160  1.0  0.1593
  C  C569  1  0.626420  0.515820  0.308590  1.0  -0.2384
  C  C570  1  0.643810  0.454510  0.352810  1.0  -0.1044
  C  C571  1  0.665590  0.485330  0.412680  1.0  -0.2263
  C  C572  1  0.811740  0.187400  0.668830  1.0  0.1175
  C  C573  1  0.843490  0.158900  0.719650  1.0  -0.1958
  C  C574  1  0.828500  0.124020  0.755690  1.0  0.1255
  C  C575  1  0.780330  0.117010  0.738460  1.0  -0.2411
  C  C576  1  0.750320  0.147500  0.687840  1.0  0.1492
  C  C577  1  0.034090  0.249400  0.981980  1.0  0.1471
  C  C578  1  0.005060  0.197280  0.945630  1.0  -0.2293
  C  C579  1  0.960370  0.186450  0.942920  1.0  0.118
  C  C580  1  0.946250  0.230310  0.976370  1.0  -0.2561
  C  C581  1  0.976780  0.281600  0.010960  1.0  0.1406
  C  C582  1  0.862940  0.097020  0.812260  1.0  -0.1948
  C  C583  1  0.893100  0.158310  0.849110  1.0  -0.1015
  C  C584  1  0.928370  0.128400  0.905590  1.0  -0.2026
  C  C585  1  0.966830  0.605720  0.400270  1.0  0.1546
  C  C586  1  0.935410  0.636170  0.350730  1.0  -0.236
  C  C587  1  0.887550  0.629170  0.336250  1.0  0.1512
  C  C588  1  0.874350  0.593800  0.374470  1.0  -0.2567
  C  C589  1  0.907660  0.564940  0.423060  1.0  0.1388
  C  C590  1  0.741510  0.462900  0.086180  1.0  0.1437
  C  C591  1  0.772770  0.513500  0.121010  1.0  -0.2406
  C  C592  1  0.757190  0.566090  0.147450  1.0  0.1402
  C  C593  1  0.709970  0.563950  0.137470  1.0  -0.1949
  C  C594  1  0.680740  0.510770  0.102540  1.0  0.1545
  C  C595  1  0.851410  0.656740  0.280190  1.0  -0.1931
  C  C596  1  0.823790  0.593550  0.242110  1.0  -0.125
  C  C597  1  0.789810  0.623830  0.184380  1.0  -0.2055
  C  C598  1  0.059780  0.416560  0.580840  1.0  0.1613
  C  C599  1  0.071740  0.359620  0.618930  1.0  -0.1831
  C  C600  1  0.038080  0.326500  0.632360  1.0  0.1462
  C  C601  1  0.992900  0.354600  0.607840  1.0  -0.2208
  C  C602  1  0.982840  0.412400  0.570220  1.0  0.1429
  C  C603  1  0.168720  0.299200  0.921670  1.0  0.1511
  C  C604  1  0.151960  0.265170  0.869370  1.0  -0.2168
  C  C605  1  0.103850  0.262400  0.836180  1.0  0.1322
  C  C606  1  0.074640  0.294700  0.857710  1.0  -0.2416
  C  C607  1  0.093790  0.327700  0.910070  1.0  0.1474
  C  C608  1  0.050770  0.264680  0.673860  1.0  -0.1967
  C  C609  1  0.071060  0.293130  0.734560  1.0  -0.0977
  C  C610  1  0.084550  0.231010  0.777790  1.0  -0.2284
  C  C611  1  0.124240  0.575600  0.673320  1.0  0.1542
  C  C612  1  0.138470  0.542900  0.725460  1.0  -0.256
  C  C613  1  0.105050  0.519880  0.744500  1.0  0.1515
  C  C614  1  0.058360  0.531600  0.708310  1.0  -0.237
  C  C615  1  0.046810  0.565100  0.656800  1.0  0.1439
  C  C616  1  0.226580  0.662100  0.010850  1.0  0.1544
  C  C617  1  0.214760  0.607000  0.971070  1.0  -0.2276
  C  C618  1  0.170350  0.577270  0.950770  1.0  0.139
  C  C619  1  0.138980  0.605300  0.971800  1.0  -0.2442
  C  C620  1  0.153310  0.660900  0.010370  1.0  0.1621
  C  C621  1  0.119850  0.487640  0.802320  1.0  -0.2805
  C  C622  1  0.137470  0.547920  0.847560  1.0  -0.0971
  C  C623  1  0.154820  0.517200  0.907330  1.0  -0.2534
  C  C624  1  0.246590  0.849000  0.189190  1.0  0.1495
  C  C625  1  0.277750  0.879800  0.238700  1.0  -0.2511
  C  C626  1  0.325770  0.873980  0.253480  1.0  0.1536
  C  C627  1  0.339150  0.839580  0.215280  1.0  -0.2088
  C  C628  1  0.306160  0.810040  0.166200  1.0  0.1222
  C  C629  1  0.459450  0.708540  0.509640  1.0  0.1383
  C  C630  1  0.430260  0.760490  0.473820  1.0  -0.2425
  C  C631  1  0.448070  0.808720  0.446590  1.0  0.13
  C  C632  1  0.495360  0.800820  0.457390  1.0  -0.2328
  C  C633  1  0.522090  0.746760  0.493480  1.0  0.1609
  C  C634  1  0.361310  0.901790  0.308910  1.0  -0.1984
  C  C635  1  0.386080  0.838920  0.349720  1.0  -0.1005
  C  C636  1  0.418650  0.868030  0.407900  1.0  -0.2344
  C  C637  1  0.167200  0.815820  0.935270  1.0  0.1569
  C  C638  1  0.154720  0.782160  0.883260  1.0  -0.2221
  C  C639  1  0.107360  0.775450  0.846750  1.0  0.1349
  C  C640  1  0.075000  0.803740  0.864770  1.0  -0.2419
  C  C641  1  0.090070  0.834980  0.917730  1.0  0.1451
  C  C642  1  0.050000  0.901930  0.574920  1.0  0.1497
  C  C643  1  0.064810  0.847900  0.614640  1.0  -0.1889
  C  C644  1  0.035940  0.821600  0.638530  1.0  0.141
  C  C645  1  0.991150  0.852070  0.620600  1.0  -0.2326
  C  C646  1  0.977940  0.906510  0.579760  1.0  0.1407
  C  C647  1  0.052260  0.763960  0.683430  1.0  -0.2648
  C  C648  1  0.072780  0.799070  0.742750  1.0  -0.0907
  C  C649  1  0.091870  0.741790  0.789150  1.0  -0.2228
  C  C650  1  0.960330  0.902010  0.904050  1.0  0.146
  C  C651  1  0.930910  0.870920  0.853190  1.0  -0.2487
  C  C652  1  0.882530  0.878300  0.834740  1.0  0.1508
  C  C653  1  0.866510  0.914870  0.869910  1.0  -0.241
  C  C654  1  0.897740  0.944390  0.919980  1.0  0.1312
  C  C655  1  0.749330  0.036700  0.572970  1.0  0.1477
  C  C656  1  0.778820  0.984400  0.609800  1.0  -0.2389
  C  C657  1  0.761690  0.941200  0.640110  1.0  0.1448
  C  C658  1  0.716190  0.953300  0.633120  1.0  -0.247
  C  C659  1  0.689130  0.006600  0.595260  1.0  0.1563
  C  C660  1  0.791040  0.882500  0.679530  1.0  -0.1984
  C  C661  1  0.823260  0.912300  0.737780  1.0  -0.1067
  C  C662  1  0.849040  0.849820  0.777810  1.0  -0.2069
  C  C663  1  0.116520  0.924790  0.173840  1.0  0.16
  C  C664  1  0.136060  0.955440  0.226910  1.0  -0.2482
  C  C665  1  0.106940  0.984780  0.249930  1.0  0.1563
  C  C666  1  0.058990  0.981350  0.217240  1.0  -0.2558
  C  C667  1  0.042020  0.949280  0.164900  1.0  0.1484
  C  C668  1  0.236700  0.843300  0.519290  1.0  0.1525
  C  C669  1  0.225630  0.899200  0.480860  1.0  -0.2179
  C  C670  1  0.180090  0.924090  0.455310  1.0  0.1227
  C  C671  1  0.146650  0.890500  0.469670  1.0  -0.2358
  C  C672  1  0.160220  0.834450  0.508160  1.0  0.1593
  C  C673  1  0.126420  0.015820  0.308590  1.0  -0.2384
  C  C674  1  0.143810  0.954510  0.352810  1.0  -0.1044
  C  C675  1  0.165590  0.985330  0.412680  1.0  -0.2263
  C  C676  1  0.311740  0.687400  0.668830  1.0  0.1175
  C  C677  1  0.343490  0.658900  0.719650  1.0  -0.1958
  C  C678  1  0.328500  0.624020  0.755690  1.0  0.1255
  C  C679  1  0.280330  0.617010  0.738460  1.0  -0.2411
  C  C680  1  0.250320  0.647500  0.687840  1.0  0.1492
  C  C681  1  0.534090  0.749400  0.981980  1.0  0.1471
  C  C682  1  0.505060  0.697280  0.945630  1.0  -0.2293
  C  C683  1  0.460370  0.686450  0.942920  1.0  0.118
  C  C684  1  0.446250  0.730310  0.976370  1.0  -0.2561
  C  C685  1  0.476780  0.781600  0.010960  1.0  0.1406
  C  C686  1  0.362940  0.597020  0.812260  1.0  -0.1948
  C  C687  1  0.393100  0.658310  0.849110  1.0  -0.1015
  C  C688  1  0.428370  0.628400  0.905590  1.0  -0.2026
  C  C689  1  0.466830  0.894280  0.900270  1.0  0.1559
  C  C690  1  0.435410  0.863830  0.850730  1.0  -0.2359
  C  C691  1  0.387550  0.870830  0.836250  1.0  0.1509
  C  C692  1  0.374350  0.906200  0.874470  1.0  -0.2562
  C  C693  1  0.407660  0.935060  0.923060  1.0  0.1381
  C  C694  1  0.241510  0.037100  0.586180  1.0  0.1432
  C  C695  1  0.272770  0.986500  0.621010  1.0  -0.2408
  C  C696  1  0.257190  0.933910  0.647450  1.0  0.1403
  C  C697  1  0.209970  0.936050  0.637470  1.0  -0.1951
  C  C698  1  0.180740  0.989230  0.602540  1.0  0.1548
  C  C699  1  0.351410  0.843260  0.780190  1.0  -0.1943
  C  C700  1  0.323790  0.906450  0.742110  1.0  -0.1245
  C  C701  1  0.289810  0.876170  0.684380  1.0  -0.205
  C  C702  1  0.559780  0.083440  0.080840  1.0  0.1613
  C  C703  1  0.571740  0.140380  0.118930  1.0  -0.1831
  C  C704  1  0.538080  0.173500  0.132360  1.0  0.1463
  C  C705  1  0.492900  0.145400  0.107840  1.0  -0.2216
  C  C706  1  0.482840  0.087600  0.070220  1.0  0.1435
  C  C707  1  0.668720  0.200800  0.421670  1.0  0.1509
  C  C708  1  0.651960  0.234830  0.369370  1.0  -0.2166
  C  C709  1  0.603850  0.237600  0.336180  1.0  0.1324
  C  C710  1  0.574640  0.205300  0.357710  1.0  -0.2419
  C  C711  1  0.593790  0.172300  0.410070  1.0  0.1489
  C  C712  1  0.550770  0.235320  0.173860  1.0  -0.1962
  C  C713  1  0.571060  0.206870  0.234560  1.0  -0.0991
  C  C714  1  0.584550  0.268990  0.277790  1.0  -0.2282
  C  C715  1  0.624240  0.924400  0.173320  1.0  0.1547
  C  C716  1  0.638470  0.957100  0.225460  1.0  -0.256
  C  C717  1  0.605050  0.980120  0.244500  1.0  0.1521
  C  C718  1  0.558360  0.968400  0.208310  1.0  -0.2373
  C  C719  1  0.546810  0.934900  0.156800  1.0  0.1439
  C  C720  1  0.726580  0.837900  0.510850  1.0  0.1535
  C  C721  1  0.714760  0.893000  0.471070  1.0  -0.2278
  C  C722  1  0.670350  0.922730  0.450770  1.0  0.1391
  C  C723  1  0.638980  0.894700  0.471800  1.0  -0.2441
  C  C724  1  0.653310  0.839100  0.510370  1.0  0.1625
  C  C725  1  0.619850  0.012360  0.302320  1.0  -0.2805
  C  C726  1  0.637470  0.952080  0.347560  1.0  -0.0983
  C  C727  1  0.654820  0.982800  0.407330  1.0  -0.2546
  C  C728  1  0.746590  0.651000  0.689190  1.0  0.1491
  C  C729  1  0.777750  0.620200  0.738700  1.0  -0.2507
  C  C730  1  0.825770  0.626020  0.753480  1.0  0.1535
  C  C731  1  0.839150  0.660420  0.715280  1.0  -0.2088
  C  C732  1  0.806160  0.689960  0.666200  1.0  0.1223
  C  C733  1  0.959450  0.791460  0.009640  1.0  0.1376
  C  C734  1  0.930260  0.739510  0.973820  1.0  -0.2427
  C  C735  1  0.948070  0.691280  0.946590  1.0  0.13
  C  C736  1  0.995360  0.699180  0.957390  1.0  -0.2326
  C  C737  1  0.022090  0.753240  0.993480  1.0  0.1611
  C  C738  1  0.861310  0.598210  0.808910  1.0  -0.2002
  C  C739  1  0.886080  0.661080  0.849720  1.0  -0.099
  C  C740  1  0.918650  0.631970  0.907900  1.0  -0.233
  C  C741  1  0.667200  0.684180  0.435270  1.0  0.157
  C  C742  1  0.654720  0.717840  0.383260  1.0  -0.2217
  C  C743  1  0.607360  0.724550  0.346750  1.0  0.1348
  C  C744  1  0.575000  0.696260  0.364770  1.0  -0.2419
  C  C745  1  0.590070  0.665020  0.417730  1.0  0.1457
  C  C746  1  0.550000  0.598070  0.074920  1.0  0.1494
  C  C747  1  0.564810  0.652100  0.114640  1.0  -0.1887
  C  C748  1  0.535940  0.678400  0.138530  1.0  0.1411
  C  C749  1  0.491150  0.647930  0.120600  1.0  -0.2327
  C  C750  1  0.477940  0.593490  0.079760  1.0  0.1412
  C  C751  1  0.552260  0.736040  0.183430  1.0  -0.2652
  C  C752  1  0.572780  0.700930  0.242750  1.0  -0.0914
  C  C753  1  0.591870  0.758210  0.289150  1.0  -0.2222
  C  C754  1  0.460330  0.597990  0.404050  1.0  0.1453
  C  C755  1  0.430910  0.629080  0.353190  1.0  -0.2485
  C  C756  1  0.382530  0.621700  0.334740  1.0  0.1511
  C  C757  1  0.366510  0.585130  0.369910  1.0  -0.2412
  C  C758  1  0.397740  0.555610  0.419980  1.0  0.1313
  C  C759  1  0.249330  0.463300  0.072970  1.0  0.1476
  C  C760  1  0.278820  0.515600  0.109800  1.0  -0.2384
  C  C761  1  0.261690  0.558800  0.140110  1.0  0.1446
  C  C762  1  0.216190  0.546700  0.133120  1.0  -0.2482
  C  C763  1  0.189130  0.493400  0.095260  1.0  0.1565
  C  C764  1  0.291040  0.617500  0.179530  1.0  -0.1991
  C  C765  1  0.323260  0.587700  0.237780  1.0  -0.1082
  C  C766  1  0.349040  0.650180  0.277810  1.0  -0.2053
  C  C767  1  0.616520  0.575210  0.673840  1.0  0.16
  C  C768  1  0.636060  0.544560  0.726910  1.0  -0.248
  C  C769  1  0.606940  0.515220  0.749930  1.0  0.1557
  C  C770  1  0.558990  0.518650  0.717240  1.0  -0.2547
  C  C771  1  0.542020  0.550720  0.664900  1.0  0.1481
  C  C772  1  0.736700  0.656700  0.019290  1.0  0.1531
  C  C773  1  0.725630  0.600800  0.980860  1.0  -0.2183
  C  C774  1  0.680090  0.575910  0.955310  1.0  0.1226
  C  C775  1  0.646650  0.609500  0.969670  1.0  -0.2357
  C  C776  1  0.660220  0.665550  0.008160  1.0  0.1584
  C  C777  1  0.626420  0.484180  0.808590  1.0  -0.2382
  C  C778  1  0.643810  0.545490  0.852810  1.0  -0.1033
  C  C779  1  0.665590  0.514670  0.912680  1.0  -0.225
  C  C780  1  0.811740  0.812600  0.168830  1.0  0.1174
  C  C781  1  0.843490  0.841100  0.219650  1.0  -0.1962
  C  C782  1  0.828500  0.875980  0.255690  1.0  0.1257
  C  C783  1  0.780330  0.882990  0.238460  1.0  -0.2409
  C  C784  1  0.750320  0.852500  0.187840  1.0  0.1498
  C  C785  1  0.034090  0.750600  0.481980  1.0  0.1467
  C  C786  1  0.005060  0.802720  0.445630  1.0  -0.2302
  C  C787  1  0.960370  0.813550  0.442920  1.0  0.1179
  C  C788  1  0.946250  0.769690  0.476370  1.0  -0.2558
  C  C789  1  0.976780  0.718400  0.510960  1.0  0.1408
  C  C790  1  0.862940  0.902980  0.312260  1.0  -0.1943
  C  C791  1  0.893100  0.841690  0.349110  1.0  -0.1025
  C  C792  1  0.928370  0.871600  0.405590  1.0  -0.2039
  C  C793  1  0.966830  0.394280  0.900270  1.0  0.1559
  C  C794  1  0.935410  0.363830  0.850730  1.0  -0.2359
  C  C795  1  0.887550  0.370830  0.836250  1.0  0.1509
  C  C796  1  0.874350  0.406200  0.874470  1.0  -0.2562
  C  C797  1  0.907660  0.435060  0.923060  1.0  0.1381
  C  C798  1  0.741510  0.537100  0.586180  1.0  0.1432
  C  C799  1  0.772770  0.486500  0.621010  1.0  -0.2408
  C  C800  1  0.757190  0.433910  0.647450  1.0  0.1403
  C  C801  1  0.709970  0.436050  0.637470  1.0  -0.1951
  C  C802  1  0.680740  0.489230  0.602540  1.0  0.1548
  C  C803  1  0.851410  0.343260  0.780190  1.0  -0.1943
  C  C804  1  0.823790  0.406450  0.742110  1.0  -0.1245
  C  C805  1  0.789810  0.376170  0.684380  1.0  -0.205
  C  C806  1  0.059780  0.583440  0.080840  1.0  0.1613
  C  C807  1  0.071740  0.640380  0.118930  1.0  -0.1831
  C  C808  1  0.038080  0.673500  0.132360  1.0  0.1463
  C  C809  1  0.992900  0.645400  0.107840  1.0  -0.2216
  C  C810  1  0.982840  0.587600  0.070220  1.0  0.1435
  C  C811  1  0.168720  0.700800  0.421670  1.0  0.1509
  C  C812  1  0.151960  0.734830  0.369370  1.0  -0.2166
  C  C813  1  0.103850  0.737600  0.336180  1.0  0.1324
  C  C814  1  0.074640  0.705300  0.357710  1.0  -0.2419
  C  C815  1  0.093790  0.672300  0.410070  1.0  0.1489
  C  C816  1  0.050770  0.735320  0.173860  1.0  -0.1962
  C  C817  1  0.071060  0.706870  0.234560  1.0  -0.0991
  C  C818  1  0.084550  0.768990  0.277790  1.0  -0.2282
  C  C819  1  0.124240  0.424400  0.173320  1.0  0.1547
  C  C820  1  0.138470  0.457100  0.225460  1.0  -0.256
  C  C821  1  0.105050  0.480120  0.244500  1.0  0.1521
  C  C822  1  0.058360  0.468400  0.208310  1.0  -0.2373
  C  C823  1  0.046810  0.434900  0.156800  1.0  0.1439
  C  C824  1  0.226580  0.337900  0.510850  1.0  0.1535
  C  C825  1  0.214760  0.393000  0.471070  1.0  -0.2278
  C  C826  1  0.170350  0.422730  0.450770  1.0  0.1391
  C  C827  1  0.138980  0.394700  0.471800  1.0  -0.2441
  C  C828  1  0.153310  0.339100  0.510370  1.0  0.1625
  C  C829  1  0.119850  0.512360  0.302320  1.0  -0.2805
  C  C830  1  0.137470  0.452080  0.347560  1.0  -0.0983
  C  C831  1  0.154820  0.482800  0.407330  1.0  -0.2546
  C  C832  1  0.246590  0.151000  0.689190  1.0  0.1491
  C  C833  1  0.277750  0.120200  0.738700  1.0  -0.2507
  C  C834  1  0.325770  0.126020  0.753480  1.0  0.1535
  C  C835  1  0.339150  0.160420  0.715280  1.0  -0.2088
  C  C836  1  0.306160  0.189960  0.666200  1.0  0.1223
  C  C837  1  0.459450  0.291460  0.009640  1.0  0.1376
  C  C838  1  0.430260  0.239510  0.973820  1.0  -0.2427
  C  C839  1  0.448070  0.191280  0.946590  1.0  0.13
  C  C840  1  0.495360  0.199180  0.957390  1.0  -0.2326
  C  C841  1  0.522090  0.253240  0.993480  1.0  0.1611
  C  C842  1  0.361310  0.098210  0.808910  1.0  -0.2002
  C  C843  1  0.386080  0.161080  0.849720  1.0  -0.099
  C  C844  1  0.418650  0.131970  0.907900  1.0  -0.233
  C  C845  1  0.167200  0.184180  0.435270  1.0  0.157
  C  C846  1  0.154720  0.217840  0.383260  1.0  -0.2217
  C  C847  1  0.107360  0.224550  0.346750  1.0  0.1348
  C  C848  1  0.075000  0.196260  0.364770  1.0  -0.2419
  C  C849  1  0.090070  0.165020  0.417730  1.0  0.1457
  C  C850  1  0.050000  0.098070  0.074920  1.0  0.1494
  C  C851  1  0.064810  0.152100  0.114640  1.0  -0.1887
  C  C852  1  0.035940  0.178400  0.138530  1.0  0.1411
  C  C853  1  0.991150  0.147930  0.120600  1.0  -0.2327
  C  C854  1  0.977940  0.093490  0.079760  1.0  0.1412
  C  C855  1  0.052260  0.236040  0.183430  1.0  -0.2652
  C  C856  1  0.072780  0.200930  0.242750  1.0  -0.0914
  C  C857  1  0.091870  0.258210  0.289150  1.0  -0.2222
  C  C858  1  0.960330  0.097990  0.404050  1.0  0.1453
  C  C859  1  0.930910  0.129080  0.353190  1.0  -0.2485
  C  C860  1  0.882530  0.121700  0.334740  1.0  0.1511
  C  C861  1  0.866510  0.085130  0.369910  1.0  -0.2412
  C  C862  1  0.897740  0.055610  0.419980  1.0  0.1313
  C  C863  1  0.749330  0.963300  0.072970  1.0  0.1476
  C  C864  1  0.778820  0.015600  0.109800  1.0  -0.2384
  C  C865  1  0.761690  0.058800  0.140110  1.0  0.1446
  C  C866  1  0.716190  0.046700  0.133120  1.0  -0.2482
  C  C867  1  0.689130  0.993400  0.095260  1.0  0.1565
  C  C868  1  0.791040  0.117500  0.179530  1.0  -0.1991
  C  C869  1  0.823260  0.087700  0.237780  1.0  -0.1082
  C  C870  1  0.849040  0.150180  0.277810  1.0  -0.2053
  C  C871  1  0.116520  0.075210  0.673840  1.0  0.16
  C  C872  1  0.136060  0.044560  0.726910  1.0  -0.248
  C  C873  1  0.106940  0.015220  0.749930  1.0  0.1557
  C  C874  1  0.058990  0.018650  0.717240  1.0  -0.2547
  C  C875  1  0.042020  0.050720  0.664900  1.0  0.1481
  C  C876  1  0.236700  0.156700  0.019290  1.0  0.1531
  C  C877  1  0.225630  0.100800  0.980860  1.0  -0.2183
  C  C878  1  0.180090  0.075910  0.955310  1.0  0.1226
  C  C879  1  0.146650  0.109500  0.969670  1.0  -0.2357
  C  C880  1  0.160220  0.165550  0.008160  1.0  0.1584
  C  C881  1  0.126420  0.984180  0.808590  1.0  -0.2382
  C  C882  1  0.143810  0.045490  0.852810  1.0  -0.1033
  C  C883  1  0.165590  0.014670  0.912680  1.0  -0.225
  C  C884  1  0.311740  0.312600  0.168830  1.0  0.1174
  C  C885  1  0.343490  0.341100  0.219650  1.0  -0.1962
  C  C886  1  0.328500  0.375980  0.255690  1.0  0.1257
  C  C887  1  0.280330  0.382990  0.238460  1.0  -0.2409
  C  C888  1  0.250320  0.352500  0.187840  1.0  0.1498
  C  C889  1  0.534090  0.250600  0.481980  1.0  0.1467
  C  C890  1  0.505060  0.302720  0.445630  1.0  -0.2302
  C  C891  1  0.460370  0.313550  0.442920  1.0  0.1179
  C  C892  1  0.446250  0.269690  0.476370  1.0  -0.2558
  C  C893  1  0.476780  0.218400  0.510960  1.0  0.1408
  C  C894  1  0.362940  0.402980  0.312260  1.0  -0.1943
  C  C895  1  0.393100  0.341690  0.349110  1.0  -0.1025
  C  C896  1  0.428370  0.371600  0.405590  1.0  -0.2039
  N  N897  1  0.454170  0.069400  0.436540  1.0  -0.3382
  N  N898  1  0.195990  0.960980  0.076550  1.0  -0.3091
  N  N899  1  0.515340  0.943230  0.556350  1.0  -0.3224
  N  N900  1  0.640040  0.830910  0.942090  1.0  -0.3362
  N  N901  1  0.578880  0.087160  0.638700  1.0  -0.3252
  N  N902  1  0.696620  0.189550  0.030500  1.0  -0.3193
  N  N903  1  0.759810  0.313340  0.153500  1.0  -0.3461
  N  N904  1  0.004600  0.200290  0.519960  1.0  -0.3393
  N  N905  1  0.635810  0.341860  0.953270  1.0  -0.3403
  N  N906  1  0.506780  0.432600  0.557490  1.0  -0.3264
  N  N907  1  0.444790  0.439240  0.937480  1.0  -0.3367
  N  N908  1  0.205070  0.547840  0.565690  1.0  -0.2883
  N  N909  1  0.570010  0.420810  0.142410  1.0  -0.3409
  N  N910  1  0.704570  0.310210  0.532730  1.0  -0.3181
  N  N911  1  0.764940  0.182280  0.653040  1.0  -0.3421
  N  N912  1  0.020520  0.291610  0.014780  1.0  -0.3518
  N  N913  1  0.954170  0.569400  0.436540  1.0  -0.3382
  N  N914  1  0.695990  0.460980  0.076550  1.0  -0.3091
  N  N915  1  0.015340  0.443230  0.556350  1.0  -0.3224
  N  N916  1  0.140040  0.330910  0.942090  1.0  -0.3362
  N  N917  1  0.078880  0.587160  0.638700  1.0  -0.3252
  N  N918  1  0.196620  0.689550  0.030500  1.0  -0.3193
  N  N919  1  0.259810  0.813340  0.153500  1.0  -0.3461
  N  N920  1  0.504600  0.700290  0.519960  1.0  -0.3393
  N  N921  1  0.135810  0.841860  0.953270  1.0  -0.3403
  N  N922  1  0.006780  0.932600  0.557490  1.0  -0.3264
  N  N923  1  0.944790  0.939240  0.937480  1.0  -0.3367
  N  N924  1  0.705070  0.047840  0.565690  1.0  -0.2883
  N  N925  1  0.070010  0.920810  0.142410  1.0  -0.3409
  N  N926  1  0.204570  0.810210  0.532730  1.0  -0.3181
  N  N927  1  0.264940  0.682280  0.653040  1.0  -0.3421
  N  N928  1  0.520520  0.791610  0.014780  1.0  -0.3518
  N  N929  1  0.454170  0.930600  0.936540  1.0  -0.3393
  N  N930  1  0.195990  0.039020  0.576550  1.0  -0.3091
  N  N931  1  0.515340  0.056770  0.056350  1.0  -0.3232
  N  N932  1  0.640040  0.169090  0.442090  1.0  -0.3358
  N  N933  1  0.578880  0.912840  0.138700  1.0  -0.3257
  N  N934  1  0.696620  0.810450  0.530500  1.0  -0.3191
  N  N935  1  0.759810  0.686660  0.653500  1.0  -0.3446
  N  N936  1  0.004600  0.799710  0.019960  1.0  -0.3415
  N  N937  1  0.635810  0.658140  0.453270  1.0  -0.3402
  N  N938  1  0.506780  0.567400  0.057490  1.0  -0.3268
  N  N939  1  0.444790  0.560760  0.437480  1.0  -0.3365
  N  N940  1  0.205070  0.452160  0.065690  1.0  -0.2887
  N  N941  1  0.570010  0.579190  0.642410  1.0  -0.3391
  N  N942  1  0.704570  0.689790  0.032730  1.0  -0.3189
  N  N943  1  0.764940  0.817720  0.153040  1.0  -0.3436
  N  N944  1  0.020520  0.708390  0.514780  1.0  -0.3506
  N  N945  1  0.954170  0.430600  0.936540  1.0  -0.3393
  N  N946  1  0.695990  0.539020  0.576550  1.0  -0.3091
  N  N947  1  0.015340  0.556770  0.056350  1.0  -0.3232
  N  N948  1  0.140040  0.669090  0.442090  1.0  -0.3358
  N  N949  1  0.078880  0.412840  0.138700  1.0  -0.3257
  N  N950  1  0.196620  0.310450  0.530500  1.0  -0.3191
  N  N951  1  0.259810  0.186660  0.653500  1.0  -0.3446
  N  N952  1  0.504600  0.299710  0.019960  1.0  -0.3415
  N  N953  1  0.135810  0.158140  0.453270  1.0  -0.3402
  N  N954  1  0.006780  0.067400  0.057490  1.0  -0.3268
  N  N955  1  0.944790  0.060760  0.437480  1.0  -0.3365
  N  N956  1  0.705070  0.952160  0.065690  1.0  -0.2887
  N  N957  1  0.070010  0.079190  0.642410  1.0  -0.3391
  N  N958  1  0.204570  0.189790  0.032730  1.0  -0.3189
  N  N959  1  0.264940  0.317720  0.153040  1.0  -0.3436
  N  N960  1  0.520520  0.208390  0.514780  1.0  -0.3506
  Cl  Cl961  1  0.576340  0.048130  0.497720  1.0  -0.5653
  Cl  Cl962  1  0.636620  0.298480  0.088290  1.0  -0.5593
  Cl  Cl963  1  0.568780  0.453220  0.006430  1.0  -0.5492
  Cl  Cl964  1  0.643430  0.199940  0.586690  1.0  -0.5698
  Cl  Cl965  1  0.076340  0.548130  0.497720  1.0  -0.5653
  Cl  Cl966  1  0.136620  0.798480  0.088290  1.0  -0.5582
  Cl  Cl967  1  0.068780  0.953220  0.006430  1.0  -0.5492
  Cl  Cl968  1  0.143430  0.699940  0.586690  1.0  -0.5698
  Cl  Cl969  1  0.576340  0.951870  0.997720  1.0  -0.562
  Cl  Cl970  1  0.636620  0.701520  0.588290  1.0  -0.5597
  Cl  Cl971  1  0.568780  0.546780  0.506430  1.0  -0.5493
  Cl  Cl972  1  0.643430  0.800060  0.086690  1.0  -0.5696
  Cl  Cl973  1  0.076340  0.451870  0.997720  1.0  -0.5621
  Cl  Cl974  1  0.136620  0.201520  0.588290  1.0  -0.5596
  Cl  Cl975  1  0.068780  0.046780  0.506430  1.0  -0.5493
  Cl  Cl976  1  0.143430  0.300060  0.086690  1.0  -0.5696
