# generated using pymatgen
data_InH16(C7O2)4
_symmetry_space_group_name_H-M   'P 1'
_cell_length_a   23.12900000
_cell_length_b   39.47000000
_cell_length_c   40.61000000
_cell_angle_alpha   90.00000000
_cell_angle_beta   90.00000000
_cell_angle_gamma   90.00000000
_symmetry_Int_Tables_number   1
_chemical_formula_structural   InH16(C7O2)4
_chemical_formula_sum   'In32 H512 C896 O256'
_cell_volume   37072.93519430
_cell_formula_units_Z   32
loop_
 _symmetry_equiv_pos_site_id
 _symmetry_equiv_pos_as_xyz
  1  'x, y, z'
loop_
 _atom_site_type_symbol
 _atom_site_label
 _atom_site_symmetry_multiplicity
 _atom_site_fract_x
 _atom_site_fract_y
 _atom_site_fract_z
 _atom_site_occupancy
 _atom_site_charge
  In  In1  1  0.625000  0.625000  0.387270  1.0  1.5409
  In  In2  1  0.625000  0.125000  0.887270  1.0  1.5409
  In  In3  1  0.125000  0.125000  0.387270  1.0  1.5409
  In  In4  1  0.125000  0.625000  0.887270  1.0  1.5409
  In  In5  1  0.875000  0.375000  0.637270  1.0  1.5409
  In  In6  1  0.875000  0.875000  0.137270  1.0  1.5409
  In  In7  1  0.375000  0.375000  0.137270  1.0  1.5409
  In  In8  1  0.375000  0.875000  0.637270  1.0  1.5409
  In  In9  1  0.875000  0.248660  0.375000  1.0  1.5134
  In  In10  1  0.875000  0.748660  0.875000  1.0  1.5134
  In  In11  1  0.375000  0.248660  0.875000  1.0  1.5134
  In  In12  1  0.375000  0.748660  0.375000  1.0  1.5134
  In  In13  1  0.125000  0.498660  0.625000  1.0  1.5129
  In  In14  1  0.125000  0.998660  0.125000  1.0  1.5129
  In  In15  1  0.625000  0.498660  0.125000  1.0  1.5129
  In  In16  1  0.625000  0.998660  0.625000  1.0  1.5129
  In  In17  1  0.875000  0.501340  0.375000  1.0  1.5137
  In  In18  1  0.875000  0.001340  0.875000  1.0  1.5137
  In  In19  1  0.375000  0.501340  0.875000  1.0  1.5137
  In  In20  1  0.375000  0.001340  0.375000  1.0  1.5137
  In  In21  1  0.125000  0.751340  0.625000  1.0  1.5133
  In  In22  1  0.125000  0.251340  0.125000  1.0  1.5133
  In  In23  1  0.625000  0.751340  0.125000  1.0  1.5133
  In  In24  1  0.625000  0.251340  0.625000  1.0  1.5133
  In  In25  1  0.125000  0.625000  0.362730  1.0  1.5415
  In  In26  1  0.125000  0.125000  0.862730  1.0  1.5415
  In  In27  1  0.625000  0.125000  0.362730  1.0  1.5415
  In  In28  1  0.625000  0.625000  0.862730  1.0  1.5415
  In  In29  1  0.375000  0.375000  0.612730  1.0  1.5415
  In  In30  1  0.375000  0.875000  0.112730  1.0  1.5415
  In  In31  1  0.875000  0.875000  0.612730  1.0  1.5415
  In  In32  1  0.875000  0.375000  0.112730  1.0  1.5415
  H  H33  1  0.631400  0.713800  0.309100  1.0  0.1179
  H  H34  1  0.673200  0.750700  0.272600  1.0  0.1166
  H  H35  1  0.827600  0.709700  0.290000  1.0  0.1408
  H  H36  1  0.786100  0.675300  0.328000  1.0  0.1096
  H  H37  1  0.897300  0.799200  0.233100  1.0  0.1278
  H  H38  1  0.858500  0.762200  0.271600  1.0  0.1181
  H  H39  1  0.707400  0.763000  0.224600  1.0  0.1126
  H  H40  1  0.744300  0.801400  0.187100  1.0  0.1135
  H  H41  1  0.631400  0.213800  0.809100  1.0  0.1179
  H  H42  1  0.673200  0.250700  0.772600  1.0  0.1166
  H  H43  1  0.827600  0.209700  0.790000  1.0  0.1408
  H  H44  1  0.786100  0.175300  0.828000  1.0  0.1096
  H  H45  1  0.897300  0.299200  0.733100  1.0  0.1278
  H  H46  1  0.858500  0.262200  0.771600  1.0  0.1181
  H  H47  1  0.707400  0.263000  0.724600  1.0  0.1126
  H  H48  1  0.744300  0.301400  0.687100  1.0  0.1135
  H  H49  1  0.131400  0.713800  0.809100  1.0  0.1179
  H  H50  1  0.173200  0.750700  0.772600  1.0  0.1166
  H  H51  1  0.327600  0.709700  0.790000  1.0  0.1408
  H  H52  1  0.286100  0.675300  0.828000  1.0  0.1096
  H  H53  1  0.397300  0.799200  0.733100  1.0  0.1278
  H  H54  1  0.358500  0.762200  0.771600  1.0  0.1181
  H  H55  1  0.207400  0.763000  0.724600  1.0  0.1126
  H  H56  1  0.244300  0.801400  0.687100  1.0  0.1135
  H  H57  1  0.131400  0.213800  0.309100  1.0  0.1179
  H  H58  1  0.173200  0.250700  0.272600  1.0  0.1166
  H  H59  1  0.327600  0.209700  0.290000  1.0  0.1408
  H  H60  1  0.286100  0.175300  0.328000  1.0  0.1096
  H  H61  1  0.397300  0.299200  0.233100  1.0  0.1278
  H  H62  1  0.358500  0.262200  0.271600  1.0  0.1181
  H  H63  1  0.207400  0.263000  0.224600  1.0  0.1126
  H  H64  1  0.244300  0.301400  0.187100  1.0  0.1135
  H  H65  1  0.118600  0.036200  0.309100  1.0  0.1184
  H  H66  1  0.076800  0.999300  0.272600  1.0  0.1164
  H  H67  1  0.922400  0.040300  0.290000  1.0  0.142
  H  H68  1  0.963900  0.074700  0.328000  1.0  0.1102
  H  H69  1  0.852700  0.950800  0.233100  1.0  0.1295
  H  H70  1  0.891500  0.987800  0.271600  1.0  0.1192
  H  H71  1  0.042600  0.987000  0.224600  1.0  0.1136
  H  H72  1  0.005700  0.948600  0.187100  1.0  0.1133
  H  H73  1  0.118600  0.536200  0.809100  1.0  0.1184
  H  H74  1  0.076800  0.499300  0.772600  1.0  0.1164
  H  H75  1  0.922400  0.540300  0.790000  1.0  0.142
  H  H76  1  0.963900  0.574700  0.828000  1.0  0.1102
  H  H77  1  0.852700  0.450800  0.733100  1.0  0.1295
  H  H78  1  0.891500  0.487800  0.771600  1.0  0.1192
  H  H79  1  0.042600  0.487000  0.724600  1.0  0.1136
  H  H80  1  0.005700  0.448600  0.687100  1.0  0.1133
  H  H81  1  0.618600  0.036200  0.809100  1.0  0.1184
  H  H82  1  0.576800  0.999300  0.772600  1.0  0.1164
  H  H83  1  0.422400  0.040300  0.790000  1.0  0.142
  H  H84  1  0.463900  0.074700  0.828000  1.0  0.1102
  H  H85  1  0.352700  0.950800  0.733100  1.0  0.1295
  H  H86  1  0.391500  0.987800  0.771600  1.0  0.1192
  H  H87  1  0.542600  0.987000  0.724600  1.0  0.1136
  H  H88  1  0.505700  0.948600  0.687100  1.0  0.1133
  H  H89  1  0.618600  0.536200  0.309100  1.0  0.1184
  H  H90  1  0.576800  0.499300  0.272600  1.0  0.1164
  H  H91  1  0.422400  0.540300  0.290000  1.0  0.142
  H  H92  1  0.463900  0.574700  0.328000  1.0  0.1102
  H  H93  1  0.352700  0.450800  0.233100  1.0  0.1295
  H  H94  1  0.391500  0.487800  0.271600  1.0  0.1192
  H  H95  1  0.542600  0.487000  0.224600  1.0  0.1136
  H  H96  1  0.505700  0.448600  0.187100  1.0  0.1133
  H  H97  1  0.881400  0.286200  0.559100  1.0  0.118
  H  H98  1  0.923200  0.249300  0.522600  1.0  0.1161
  H  H99  1  0.077600  0.290300  0.540000  1.0  0.1405
  H  H100  1  0.036100  0.324700  0.578000  1.0  0.1089
  H  H101  1  0.147300  0.200800  0.483100  1.0  0.1283
  H  H102  1  0.108500  0.237800  0.521600  1.0  0.1184
  H  H103  1  0.957400  0.237000  0.474600  1.0  0.1124
  H  H104  1  0.994300  0.198600  0.437100  1.0  0.1132
  H  H105  1  0.881400  0.786200  0.059100  1.0  0.118
  H  H106  1  0.923200  0.749300  0.022600  1.0  0.1161
  H  H107  1  0.077600  0.790300  0.040000  1.0  0.1405
  H  H108  1  0.036100  0.824700  0.078000  1.0  0.1089
  H  H109  1  0.147300  0.700800  0.983100  1.0  0.1283
  H  H110  1  0.108500  0.737800  0.021600  1.0  0.1184
  H  H111  1  0.957400  0.737000  0.974600  1.0  0.1124
  H  H112  1  0.994300  0.698600  0.937100  1.0  0.1132
  H  H113  1  0.381400  0.286200  0.059100  1.0  0.118
  H  H114  1  0.423200  0.249300  0.022600  1.0  0.1161
  H  H115  1  0.577600  0.290300  0.040000  1.0  0.1405
  H  H116  1  0.536100  0.324700  0.078000  1.0  0.1089
  H  H117  1  0.647300  0.200800  0.983100  1.0  0.1283
  H  H118  1  0.608500  0.237800  0.021600  1.0  0.1184
  H  H119  1  0.457400  0.237000  0.974600  1.0  0.1124
  H  H120  1  0.494300  0.198600  0.937100  1.0  0.1132
  H  H121  1  0.381400  0.786200  0.559100  1.0  0.118
  H  H122  1  0.423200  0.749300  0.522600  1.0  0.1161
  H  H123  1  0.577600  0.790300  0.540000  1.0  0.1405
  H  H124  1  0.536100  0.824700  0.578000  1.0  0.1089
  H  H125  1  0.647300  0.700800  0.483100  1.0  0.1283
  H  H126  1  0.608500  0.737800  0.521600  1.0  0.1184
  H  H127  1  0.457400  0.737000  0.474600  1.0  0.1124
  H  H128  1  0.494300  0.698600  0.437100  1.0  0.1132
  H  H129  1  0.368600  0.963800  0.559100  1.0  0.1182
  H  H130  1  0.326800  0.000700  0.522600  1.0  0.1166
  H  H131  1  0.172400  0.959700  0.540000  1.0  0.1419
  H  H132  1  0.213900  0.925300  0.578000  1.0  0.1102
  H  H133  1  0.102700  0.049200  0.483100  1.0  0.1292
  H  H134  1  0.141500  0.012200  0.521600  1.0  0.1189
  H  H135  1  0.292600  0.013000  0.474600  1.0  0.1136
  H  H136  1  0.255700  0.051400  0.437100  1.0  0.1133
  H  H137  1  0.368600  0.463800  0.059100  1.0  0.1182
  H  H138  1  0.326800  0.500700  0.022600  1.0  0.1166
  H  H139  1  0.172400  0.459700  0.040000  1.0  0.1419
  H  H140  1  0.213900  0.425300  0.078000  1.0  0.1102
  H  H141  1  0.102700  0.549200  0.983100  1.0  0.1292
  H  H142  1  0.141500  0.512200  0.021600  1.0  0.1189
  H  H143  1  0.292600  0.513000  0.974600  1.0  0.1136
  H  H144  1  0.255700  0.551400  0.937100  1.0  0.1133
  H  H145  1  0.868600  0.963800  0.059100  1.0  0.1182
  H  H146  1  0.826800  0.000700  0.022600  1.0  0.1166
  H  H147  1  0.672400  0.959700  0.040000  1.0  0.1419
  H  H148  1  0.713900  0.925300  0.078000  1.0  0.1102
  H  H149  1  0.602700  0.049200  0.983100  1.0  0.1292
  H  H150  1  0.641500  0.012200  0.021600  1.0  0.1189
  H  H151  1  0.792600  0.013000  0.974600  1.0  0.1136
  H  H152  1  0.755700  0.051400  0.937100  1.0  0.1133
  H  H153  1  0.868600  0.463800  0.559100  1.0  0.1182
  H  H154  1  0.826800  0.500700  0.522600  1.0  0.1166
  H  H155  1  0.672400  0.459700  0.540000  1.0  0.1419
  H  H156  1  0.713900  0.425300  0.578000  1.0  0.1102
  H  H157  1  0.602700  0.549200  0.483100  1.0  0.1292
  H  H158  1  0.641500  0.512200  0.521600  1.0  0.1189
  H  H159  1  0.792600  0.513000  0.474600  1.0  0.1136
  H  H160  1  0.755700  0.551400  0.437100  1.0  0.1133
  H  H161  1  0.025400  0.312400  0.426100  1.0  0.1343
  H  H162  1  0.064200  0.347100  0.464900  1.0  0.1097
  H  H163  1  0.914000  0.360200  0.505800  1.0  0.1675
  H  H164  1  0.875600  0.321100  0.470800  1.0  0.104
  H  H165  1  0.132300  0.425800  0.530100  1.0  0.1084
  H  H166  1  0.093900  0.389000  0.491800  1.0  0.126
  H  H167  1  0.945100  0.389700  0.539500  1.0  0.143
  H  H168  1  0.980600  0.429700  0.576600  1.0  0.1152
  H  H169  1  0.025400  0.812400  0.926100  1.0  0.1343
  H  H170  1  0.064200  0.847100  0.964900  1.0  0.1097
  H  H171  1  0.914000  0.860200  0.005800  1.0  0.1675
  H  H172  1  0.875600  0.821100  0.970800  1.0  0.104
  H  H173  1  0.132300  0.925800  0.030100  1.0  0.1084
  H  H174  1  0.093900  0.889000  0.991800  1.0  0.126
  H  H175  1  0.945100  0.889700  0.039500  1.0  0.143
  H  H176  1  0.980600  0.929700  0.076600  1.0  0.1152
  H  H177  1  0.525400  0.312400  0.926100  1.0  0.1343
  H  H178  1  0.564200  0.347100  0.964900  1.0  0.1097
  H  H179  1  0.414000  0.360200  0.005800  1.0  0.1675
  H  H180  1  0.375600  0.321100  0.970800  1.0  0.104
  H  H181  1  0.632300  0.425800  0.030100  1.0  0.1084
  H  H182  1  0.593900  0.389000  0.991800  1.0  0.126
  H  H183  1  0.445100  0.389700  0.039500  1.0  0.143
  H  H184  1  0.480600  0.429700  0.076600  1.0  0.1152
  H  H185  1  0.525400  0.812400  0.426100  1.0  0.1343
  H  H186  1  0.564200  0.847100  0.464900  1.0  0.1097
  H  H187  1  0.414000  0.860200  0.505800  1.0  0.1675
  H  H188  1  0.375600  0.821100  0.470800  1.0  0.104
  H  H189  1  0.632300  0.925800  0.530100  1.0  0.1084
  H  H190  1  0.593900  0.889000  0.491800  1.0  0.126
  H  H191  1  0.445100  0.889700  0.539500  1.0  0.143
  H  H192  1  0.480600  0.929700  0.576600  1.0  0.1152
  H  H193  1  0.724600  0.312400  0.323900  1.0  0.135
  H  H194  1  0.685800  0.347100  0.285100  1.0  0.1101
  H  H195  1  0.836000  0.360200  0.244200  1.0  0.1669
  H  H196  1  0.874400  0.321100  0.279200  1.0  0.1035
  H  H197  1  0.617700  0.425800  0.219900  1.0  0.1088
  H  H198  1  0.656100  0.389000  0.258200  1.0  0.1263
  H  H199  1  0.804900  0.389700  0.210500  1.0  0.1425
  H  H200  1  0.769400  0.429700  0.173400  1.0  0.1146
  H  H201  1  0.724600  0.812400  0.823900  1.0  0.135
  H  H202  1  0.685800  0.847100  0.785100  1.0  0.1101
  H  H203  1  0.836000  0.860200  0.744200  1.0  0.1669
  H  H204  1  0.874400  0.821100  0.779200  1.0  0.1035
  H  H205  1  0.617700  0.925800  0.719900  1.0  0.1088
  H  H206  1  0.656100  0.889000  0.758200  1.0  0.1263
  H  H207  1  0.804900  0.889700  0.710500  1.0  0.1425
  H  H208  1  0.769400  0.929700  0.673400  1.0  0.1146
  H  H209  1  0.224600  0.312400  0.823900  1.0  0.135
  H  H210  1  0.185800  0.347100  0.785100  1.0  0.1101
  H  H211  1  0.336000  0.360200  0.744200  1.0  0.1669
  H  H212  1  0.374400  0.321100  0.779200  1.0  0.1035
  H  H213  1  0.117700  0.425800  0.719900  1.0  0.1088
  H  H214  1  0.156100  0.389000  0.758200  1.0  0.1263
  H  H215  1  0.304900  0.389700  0.710500  1.0  0.1425
  H  H216  1  0.269400  0.429700  0.673400  1.0  0.1146
  H  H217  1  0.224600  0.812400  0.323900  1.0  0.135
  H  H218  1  0.185800  0.847100  0.285100  1.0  0.1101
  H  H219  1  0.336000  0.860200  0.244200  1.0  0.1669
  H  H220  1  0.374400  0.821100  0.279200  1.0  0.1035
  H  H221  1  0.117700  0.925800  0.219900  1.0  0.1088
  H  H222  1  0.156100  0.889000  0.258200  1.0  0.1263
  H  H223  1  0.304900  0.889700  0.210500  1.0  0.1425
  H  H224  1  0.269400  0.929700  0.173400  1.0  0.1146
  H  H225  1  0.275400  0.562400  0.573900  1.0  0.1345
  H  H226  1  0.314200  0.597100  0.535100  1.0  0.1097
  H  H227  1  0.164000  0.610200  0.494200  1.0  0.1667
  H  H228  1  0.125600  0.571100  0.529200  1.0  0.1037
  H  H229  1  0.382300  0.675800  0.469900  1.0  0.1083
  H  H230  1  0.343900  0.639000  0.508200  1.0  0.1262
  H  H231  1  0.195100  0.639700  0.460500  1.0  0.1429
  H  H232  1  0.230600  0.679700  0.423400  1.0  0.1149
  H  H233  1  0.275400  0.062400  0.073900  1.0  0.1345
  H  H234  1  0.314200  0.097100  0.035100  1.0  0.1097
  H  H235  1  0.164000  0.110200  0.994200  1.0  0.1667
  H  H236  1  0.125600  0.071100  0.029200  1.0  0.1037
  H  H237  1  0.382300  0.175800  0.969900  1.0  0.1083
  H  H238  1  0.343900  0.139000  0.008200  1.0  0.1262
  H  H239  1  0.195100  0.139700  0.960500  1.0  0.1429
  H  H240  1  0.230600  0.179700  0.923400  1.0  0.1149
  H  H241  1  0.775400  0.562400  0.073900  1.0  0.1345
  H  H242  1  0.814200  0.597100  0.035100  1.0  0.1097
  H  H243  1  0.664000  0.610200  0.994200  1.0  0.1667
  H  H244  1  0.625600  0.571100  0.029200  1.0  0.1037
  H  H245  1  0.882300  0.675800  0.969900  1.0  0.1083
  H  H246  1  0.843900  0.639000  0.008200  1.0  0.1262
  H  H247  1  0.695100  0.639700  0.960500  1.0  0.1429
  H  H248  1  0.730600  0.679700  0.923400  1.0  0.1149
  H  H249  1  0.775400  0.062400  0.573900  1.0  0.1345
  H  H250  1  0.814200  0.097100  0.535100  1.0  0.1097
  H  H251  1  0.664000  0.110200  0.494200  1.0  0.1667
  H  H252  1  0.625600  0.071100  0.529200  1.0  0.1037
  H  H253  1  0.882300  0.175800  0.469900  1.0  0.1083
  H  H254  1  0.843900  0.139000  0.508200  1.0  0.1262
  H  H255  1  0.695100  0.139700  0.460500  1.0  0.1429
  H  H256  1  0.730600  0.179700  0.423400  1.0  0.1149
  H  H257  1  0.974600  0.562400  0.676100  1.0  0.1335
  H  H258  1  0.935800  0.597100  0.714900  1.0  0.1098
  H  H259  1  0.086000  0.610200  0.755800  1.0  0.1678
  H  H260  1  0.124400  0.571100  0.720800  1.0  0.1031
  H  H261  1  0.867700  0.675800  0.780100  1.0  0.109
  H  H262  1  0.906100  0.639000  0.741800  1.0  0.1257
  H  H263  1  0.054900  0.639700  0.789500  1.0  0.1426
  H  H264  1  0.019400  0.679700  0.826600  1.0  0.1151
  H  H265  1  0.974600  0.062400  0.176100  1.0  0.1335
  H  H266  1  0.935800  0.097100  0.214900  1.0  0.1098
  H  H267  1  0.086000  0.110200  0.255800  1.0  0.1678
  H  H268  1  0.124400  0.071100  0.220800  1.0  0.1031
  H  H269  1  0.867700  0.175800  0.280100  1.0  0.109
  H  H270  1  0.906100  0.139000  0.241800  1.0  0.1257
  H  H271  1  0.054900  0.139700  0.289500  1.0  0.1426
  H  H272  1  0.019400  0.179700  0.326600  1.0  0.1151
  H  H273  1  0.474600  0.562400  0.176100  1.0  0.1335
  H  H274  1  0.435800  0.597100  0.214900  1.0  0.1098
  H  H275  1  0.586000  0.610200  0.255800  1.0  0.1678
  H  H276  1  0.624400  0.571100  0.220800  1.0  0.1031
  H  H277  1  0.367700  0.675800  0.280100  1.0  0.109
  H  H278  1  0.406100  0.639000  0.241800  1.0  0.1257
  H  H279  1  0.554900  0.639700  0.289500  1.0  0.1426
  H  H280  1  0.519400  0.679700  0.326600  1.0  0.1151
  H  H281  1  0.474600  0.062400  0.676100  1.0  0.1335
  H  H282  1  0.435800  0.097100  0.714900  1.0  0.1098
  H  H283  1  0.586000  0.110200  0.755800  1.0  0.1678
  H  H284  1  0.624400  0.071100  0.720800  1.0  0.1031
  H  H285  1  0.367700  0.175800  0.780100  1.0  0.109
  H  H286  1  0.406100  0.139000  0.741800  1.0  0.1257
  H  H287  1  0.554900  0.139700  0.789500  1.0  0.1426
  H  H288  1  0.519400  0.179700  0.826600  1.0  0.1151
  H  H289  1  0.724600  0.437600  0.426100  1.0  0.1334
  H  H290  1  0.685800  0.402900  0.464900  1.0  0.1098
  H  H291  1  0.836000  0.389800  0.505800  1.0  0.1682
  H  H292  1  0.874400  0.428900  0.470800  1.0  0.1034
  H  H293  1  0.617700  0.324200  0.530100  1.0  0.1092
  H  H294  1  0.656100  0.361000  0.491800  1.0  0.1259
  H  H295  1  0.804900  0.360300  0.539500  1.0  0.1436
  H  H296  1  0.769400  0.320300  0.576600  1.0  0.1156
  H  H297  1  0.724600  0.937600  0.926100  1.0  0.1334
  H  H298  1  0.685800  0.902900  0.964900  1.0  0.1098
  H  H299  1  0.836000  0.889800  0.005800  1.0  0.1682
  H  H300  1  0.874400  0.928900  0.970800  1.0  0.1034
  H  H301  1  0.617700  0.824200  0.030100  1.0  0.1092
  H  H302  1  0.656100  0.861000  0.991800  1.0  0.1259
  H  H303  1  0.804900  0.860300  0.039500  1.0  0.1436
  H  H304  1  0.769400  0.820300  0.076600  1.0  0.1156
  H  H305  1  0.224600  0.437600  0.926100  1.0  0.1334
  H  H306  1  0.185800  0.402900  0.964900  1.0  0.1098
  H  H307  1  0.336000  0.389800  0.005800  1.0  0.1682
  H  H308  1  0.374400  0.428900  0.970800  1.0  0.1034
  H  H309  1  0.117700  0.324200  0.030100  1.0  0.1092
  H  H310  1  0.156100  0.361000  0.991800  1.0  0.1259
  H  H311  1  0.304900  0.360300  0.039500  1.0  0.1436
  H  H312  1  0.269400  0.320300  0.076600  1.0  0.1156
  H  H313  1  0.224600  0.937600  0.426100  1.0  0.1334
  H  H314  1  0.185800  0.902900  0.464900  1.0  0.1098
  H  H315  1  0.336000  0.889800  0.505800  1.0  0.1682
  H  H316  1  0.374400  0.928900  0.470800  1.0  0.1034
  H  H317  1  0.117700  0.824200  0.530100  1.0  0.1092
  H  H318  1  0.156100  0.861000  0.491800  1.0  0.1259
  H  H319  1  0.304900  0.860300  0.539500  1.0  0.1436
  H  H320  1  0.269400  0.820300  0.576600  1.0  0.1156
  H  H321  1  0.025400  0.437600  0.323900  1.0  0.1346
  H  H322  1  0.064200  0.402900  0.285100  1.0  0.1098
  H  H323  1  0.914000  0.389800  0.244200  1.0  0.1668
  H  H324  1  0.875600  0.428900  0.279200  1.0  0.1037
  H  H325  1  0.132300  0.324200  0.219900  1.0  0.1082
  H  H326  1  0.093900  0.361000  0.258200  1.0  0.1263
  H  H327  1  0.945100  0.360300  0.210500  1.0  0.1425
  H  H328  1  0.980600  0.320300  0.173400  1.0  0.1146
  H  H329  1  0.025400  0.937600  0.823900  1.0  0.1346
  H  H330  1  0.064200  0.902900  0.785100  1.0  0.1098
  H  H331  1  0.914000  0.889800  0.744200  1.0  0.1668
  H  H332  1  0.875600  0.928900  0.779200  1.0  0.1037
  H  H333  1  0.132300  0.824200  0.719900  1.0  0.1082
  H  H334  1  0.093900  0.861000  0.758200  1.0  0.1263
  H  H335  1  0.945100  0.860300  0.710500  1.0  0.1425
  H  H336  1  0.980600  0.820300  0.673400  1.0  0.1146
  H  H337  1  0.525400  0.437600  0.823900  1.0  0.1346
  H  H338  1  0.564200  0.402900  0.785100  1.0  0.1098
  H  H339  1  0.414000  0.389800  0.744200  1.0  0.1668
  H  H340  1  0.375600  0.428900  0.779200  1.0  0.1037
  H  H341  1  0.632300  0.324200  0.719900  1.0  0.1082
  H  H342  1  0.593900  0.361000  0.758200  1.0  0.1263
  H  H343  1  0.445100  0.360300  0.710500  1.0  0.1425
  H  H344  1  0.480600  0.320300  0.673400  1.0  0.1146
  H  H345  1  0.525400  0.937600  0.323900  1.0  0.1346
  H  H346  1  0.564200  0.902900  0.285100  1.0  0.1098
  H  H347  1  0.414000  0.889800  0.244200  1.0  0.1668
  H  H348  1  0.375600  0.928900  0.279200  1.0  0.1037
  H  H349  1  0.632300  0.824200  0.219900  1.0  0.1082
  H  H350  1  0.593900  0.861000  0.258200  1.0  0.1263
  H  H351  1  0.445100  0.860300  0.210500  1.0  0.1425
  H  H352  1  0.480600  0.820300  0.173400  1.0  0.1146
  H  H353  1  0.974600  0.687600  0.573900  1.0  0.1347
  H  H354  1  0.935800  0.652900  0.535100  1.0  0.11
  H  H355  1  0.086000  0.639800  0.494200  1.0  0.1672
  H  H356  1  0.124400  0.678900  0.529200  1.0  0.1038
  H  H357  1  0.867700  0.574200  0.469900  1.0  0.1089
  H  H358  1  0.906100  0.611000  0.508200  1.0  0.1264
  H  H359  1  0.054900  0.610300  0.460500  1.0  0.1427
  H  H360  1  0.019400  0.570300  0.423400  1.0  0.1146
  H  H361  1  0.974600  0.187600  0.073900  1.0  0.1347
  H  H362  1  0.935800  0.152900  0.035100  1.0  0.11
  H  H363  1  0.086000  0.139800  0.994200  1.0  0.1672
  H  H364  1  0.124400  0.178900  0.029200  1.0  0.1038
  H  H365  1  0.867700  0.074200  0.969900  1.0  0.1089
  H  H366  1  0.906100  0.111000  0.008200  1.0  0.1264
  H  H367  1  0.054900  0.110300  0.960500  1.0  0.1427
  H  H368  1  0.019400  0.070300  0.923400  1.0  0.1146
  H  H369  1  0.474600  0.687600  0.073900  1.0  0.1347
  H  H370  1  0.435800  0.652900  0.035100  1.0  0.11
  H  H371  1  0.586000  0.639800  0.994200  1.0  0.1672
  H  H372  1  0.624400  0.678900  0.029200  1.0  0.1038
  H  H373  1  0.367700  0.574200  0.969900  1.0  0.1089
  H  H374  1  0.406100  0.611000  0.008200  1.0  0.1264
  H  H375  1  0.554900  0.610300  0.960500  1.0  0.1427
  H  H376  1  0.519400  0.570300  0.923400  1.0  0.1146
  H  H377  1  0.474600  0.187600  0.573900  1.0  0.1347
  H  H378  1  0.435800  0.152900  0.535100  1.0  0.11
  H  H379  1  0.586000  0.139800  0.494200  1.0  0.1672
  H  H380  1  0.624400  0.178900  0.529200  1.0  0.1038
  H  H381  1  0.367700  0.074200  0.469900  1.0  0.1089
  H  H382  1  0.406100  0.111000  0.508200  1.0  0.1264
  H  H383  1  0.554900  0.110300  0.460500  1.0  0.1427
  H  H384  1  0.519400  0.070300  0.423400  1.0  0.1146
  H  H385  1  0.275400  0.687600  0.676100  1.0  0.1344
  H  H386  1  0.314200  0.652900  0.714900  1.0  0.1093
  H  H387  1  0.164000  0.639800  0.755800  1.0  0.1678
  H  H388  1  0.125600  0.678900  0.720800  1.0  0.1037
  H  H389  1  0.382300  0.574200  0.780100  1.0  0.108
  H  H390  1  0.343900  0.611000  0.741800  1.0  0.1261
  H  H391  1  0.195100  0.610300  0.789500  1.0  0.1433
  H  H392  1  0.230600  0.570300  0.826600  1.0  0.1153
  H  H393  1  0.275400  0.187600  0.176100  1.0  0.1344
  H  H394  1  0.314200  0.152900  0.214900  1.0  0.1093
  H  H395  1  0.164000  0.139800  0.255800  1.0  0.1678
  H  H396  1  0.125600  0.178900  0.220800  1.0  0.1037
  H  H397  1  0.382300  0.074200  0.280100  1.0  0.108
  H  H398  1  0.343900  0.111000  0.241800  1.0  0.1261
  H  H399  1  0.195100  0.110300  0.289500  1.0  0.1433
  H  H400  1  0.230600  0.070300  0.326600  1.0  0.1153
  H  H401  1  0.775400  0.687600  0.176100  1.0  0.1344
  H  H402  1  0.814200  0.652900  0.214900  1.0  0.1093
  H  H403  1  0.664000  0.639800  0.255800  1.0  0.1678
  H  H404  1  0.625600  0.678900  0.220800  1.0  0.1037
  H  H405  1  0.882300  0.574200  0.280100  1.0  0.108
  H  H406  1  0.843900  0.611000  0.241800  1.0  0.1261
  H  H407  1  0.695100  0.610300  0.289500  1.0  0.1433
  H  H408  1  0.730600  0.570300  0.326600  1.0  0.1153
  H  H409  1  0.775400  0.187600  0.676100  1.0  0.1344
  H  H410  1  0.814200  0.152900  0.714900  1.0  0.1093
  H  H411  1  0.664000  0.139800  0.755800  1.0  0.1678
  H  H412  1  0.625600  0.178900  0.720800  1.0  0.1037
  H  H413  1  0.882300  0.074200  0.780100  1.0  0.108
  H  H414  1  0.843900  0.111000  0.741800  1.0  0.1261
  H  H415  1  0.695100  0.110300  0.789500  1.0  0.1433
  H  H416  1  0.730600  0.070300  0.826600  1.0  0.1153
  H  H417  1  0.118600  0.713800  0.440900  1.0  0.1183
  H  H418  1  0.076800  0.750700  0.477400  1.0  0.1168
  H  H419  1  0.922400  0.709700  0.460000  1.0  0.1419
  H  H420  1  0.963900  0.675300  0.422000  1.0  0.11
  H  H421  1  0.852700  0.799200  0.516900  1.0  0.129
  H  H422  1  0.891500  0.762200  0.478400  1.0  0.1186
  H  H423  1  0.042600  0.763000  0.525400  1.0  0.1135
  H  H424  1  0.005700  0.801400  0.562900  1.0  0.1136
  H  H425  1  0.118600  0.213800  0.940900  1.0  0.1183
  H  H426  1  0.076800  0.250700  0.977400  1.0  0.1168
  H  H427  1  0.922400  0.209700  0.960000  1.0  0.1419
  H  H428  1  0.963900  0.175300  0.922000  1.0  0.11
  H  H429  1  0.852700  0.299200  0.016900  1.0  0.129
  H  H430  1  0.891500  0.262200  0.978400  1.0  0.1186
  H  H431  1  0.042600  0.263000  0.025400  1.0  0.1135
  H  H432  1  0.005700  0.301400  0.062900  1.0  0.1136
  H  H433  1  0.618600  0.713800  0.940900  1.0  0.1183
  H  H434  1  0.576800  0.750700  0.977400  1.0  0.1168
  H  H435  1  0.422400  0.709700  0.960000  1.0  0.1419
  H  H436  1  0.463900  0.675300  0.922000  1.0  0.11
  H  H437  1  0.352700  0.799200  0.016900  1.0  0.129
  H  H438  1  0.391500  0.762200  0.978400  1.0  0.1186
  H  H439  1  0.542600  0.763000  0.025400  1.0  0.1135
  H  H440  1  0.505700  0.801400  0.062900  1.0  0.1136
  H  H441  1  0.618600  0.213800  0.440900  1.0  0.1183
  H  H442  1  0.576800  0.250700  0.477400  1.0  0.1168
  H  H443  1  0.422400  0.209700  0.460000  1.0  0.1419
  H  H444  1  0.463900  0.175300  0.422000  1.0  0.11
  H  H445  1  0.352700  0.299200  0.516900  1.0  0.129
  H  H446  1  0.391500  0.262200  0.478400  1.0  0.1186
  H  H447  1  0.542600  0.263000  0.525400  1.0  0.1135
  H  H448  1  0.505700  0.301400  0.562900  1.0  0.1136
  H  H449  1  0.631400  0.036200  0.440900  1.0  0.1185
  H  H450  1  0.673200  0.999300  0.477400  1.0  0.1155
  H  H451  1  0.827600  0.040300  0.460000  1.0  0.1397
  H  H452  1  0.786100  0.074700  0.422000  1.0  0.1102
  H  H453  1  0.897300  0.950800  0.516900  1.0  0.1278
  H  H454  1  0.858500  0.987800  0.478400  1.0  0.1181
  H  H455  1  0.707400  0.987000  0.525400  1.0  0.1127
  H  H456  1  0.744300  0.948600  0.562900  1.0  0.1135
  H  H457  1  0.631400  0.536200  0.940900  1.0  0.1185
  H  H458  1  0.673200  0.499300  0.977400  1.0  0.1155
  H  H459  1  0.827600  0.540300  0.960000  1.0  0.1397
  H  H460  1  0.786100  0.574700  0.922000  1.0  0.1102
  H  H461  1  0.897300  0.450800  0.016900  1.0  0.1278
  H  H462  1  0.858500  0.487800  0.978400  1.0  0.1181
  H  H463  1  0.707400  0.487000  0.025400  1.0  0.1127
  H  H464  1  0.744300  0.448600  0.062900  1.0  0.1135
  H  H465  1  0.131400  0.036200  0.940900  1.0  0.1185
  H  H466  1  0.173200  0.999300  0.977400  1.0  0.1155
  H  H467  1  0.327600  0.040300  0.960000  1.0  0.1397
  H  H468  1  0.286100  0.074700  0.922000  1.0  0.1102
  H  H469  1  0.397300  0.950800  0.016900  1.0  0.1278
  H  H470  1  0.358500  0.987800  0.978400  1.0  0.1181
  H  H471  1  0.207400  0.987000  0.025400  1.0  0.1127
  H  H472  1  0.244300  0.948600  0.062900  1.0  0.1135
  H  H473  1  0.131400  0.536200  0.440900  1.0  0.1185
  H  H474  1  0.173200  0.499300  0.477400  1.0  0.1155
  H  H475  1  0.327600  0.540300  0.460000  1.0  0.1397
  H  H476  1  0.286100  0.574700  0.422000  1.0  0.1102
  H  H477  1  0.397300  0.450800  0.516900  1.0  0.1278
  H  H478  1  0.358500  0.487800  0.478400  1.0  0.1181
  H  H479  1  0.207400  0.487000  0.525400  1.0  0.1127
  H  H480  1  0.244300  0.448600  0.562900  1.0  0.1135
  H  H481  1  0.368600  0.286200  0.690900  1.0  0.1181
  H  H482  1  0.326800  0.249300  0.727400  1.0  0.1165
  H  H483  1  0.172400  0.290300  0.710000  1.0  0.1422
  H  H484  1  0.213900  0.324700  0.672000  1.0  0.1105
  H  H485  1  0.102700  0.200800  0.766900  1.0  0.1293
  H  H486  1  0.141500  0.237800  0.728400  1.0  0.1188
  H  H487  1  0.292600  0.237000  0.775400  1.0  0.1139
  H  H488  1  0.255700  0.198600  0.812900  1.0  0.1135
  H  H489  1  0.368600  0.786200  0.190900  1.0  0.1181
  H  H490  1  0.326800  0.749300  0.227400  1.0  0.1165
  H  H491  1  0.172400  0.790300  0.210000  1.0  0.1422
  H  H492  1  0.213900  0.824700  0.172000  1.0  0.1105
  H  H493  1  0.102700  0.700800  0.266900  1.0  0.1293
  H  H494  1  0.141500  0.737800  0.228400  1.0  0.1188
  H  H495  1  0.292600  0.737000  0.275400  1.0  0.1139
  H  H496  1  0.255700  0.698600  0.312900  1.0  0.1135
  H  H497  1  0.868600  0.286200  0.190900  1.0  0.1181
  H  H498  1  0.826800  0.249300  0.227400  1.0  0.1165
  H  H499  1  0.672400  0.290300  0.210000  1.0  0.1422
  H  H500  1  0.713900  0.324700  0.172000  1.0  0.1105
  H  H501  1  0.602700  0.200800  0.266900  1.0  0.1293
  H  H502  1  0.641500  0.237800  0.228400  1.0  0.1188
  H  H503  1  0.792600  0.237000  0.275400  1.0  0.1139
  H  H504  1  0.755700  0.198600  0.312900  1.0  0.1135
  H  H505  1  0.868600  0.786200  0.690900  1.0  0.1181
  H  H506  1  0.826800  0.749300  0.727400  1.0  0.1165
  H  H507  1  0.672400  0.790300  0.710000  1.0  0.1422
  H  H508  1  0.713900  0.824700  0.672000  1.0  0.1105
  H  H509  1  0.602700  0.700800  0.766900  1.0  0.1293
  H  H510  1  0.641500  0.737800  0.728400  1.0  0.1188
  H  H511  1  0.792600  0.737000  0.775400  1.0  0.1139
  H  H512  1  0.755700  0.698600  0.812900  1.0  0.1135
  H  H513  1  0.881400  0.963800  0.690900  1.0  0.1186
  H  H514  1  0.923200  0.000700  0.727400  1.0  0.1162
  H  H515  1  0.077600  0.959700  0.710000  1.0  0.1399
  H  H516  1  0.036100  0.925300  0.672000  1.0  0.1107
  H  H517  1  0.147300  0.049200  0.766900  1.0  0.1277
  H  H518  1  0.108500  0.012200  0.728400  1.0  0.118
  H  H519  1  0.957400  0.013000  0.775400  1.0  0.1127
  H  H520  1  0.994300  0.051400  0.812900  1.0  0.1138
  H  H521  1  0.881400  0.463800  0.190900  1.0  0.1186
  H  H522  1  0.923200  0.500700  0.227400  1.0  0.1162
  H  H523  1  0.077600  0.459700  0.210000  1.0  0.1399
  H  H524  1  0.036100  0.425300  0.172000  1.0  0.1107
  H  H525  1  0.147300  0.549200  0.266900  1.0  0.1277
  H  H526  1  0.108500  0.512200  0.228400  1.0  0.118
  H  H527  1  0.957400  0.513000  0.275400  1.0  0.1127
  H  H528  1  0.994300  0.551400  0.312900  1.0  0.1138
  H  H529  1  0.381400  0.963800  0.190900  1.0  0.1186
  H  H530  1  0.423200  0.000700  0.227400  1.0  0.1162
  H  H531  1  0.577600  0.959700  0.210000  1.0  0.1399
  H  H532  1  0.536100  0.925300  0.172000  1.0  0.1107
  H  H533  1  0.647300  0.049200  0.266900  1.0  0.1277
  H  H534  1  0.608500  0.012200  0.228400  1.0  0.118
  H  H535  1  0.457400  0.013000  0.275400  1.0  0.1127
  H  H536  1  0.494300  0.051400  0.312900  1.0  0.1138
  H  H537  1  0.381400  0.463800  0.690900  1.0  0.1186
  H  H538  1  0.423200  0.500700  0.727400  1.0  0.1162
  H  H539  1  0.577600  0.459700  0.710000  1.0  0.1399
  H  H540  1  0.536100  0.425300  0.672000  1.0  0.1107
  H  H541  1  0.647300  0.549200  0.766900  1.0  0.1277
  H  H542  1  0.608500  0.512200  0.728400  1.0  0.118
  H  H543  1  0.457400  0.513000  0.775400  1.0  0.1127
  H  H544  1  0.494300  0.551400  0.812900  1.0  0.1138
  C  C545  1  0.671200  0.713190  0.305640  1.0  -0.0599
  C  C546  1  0.696400  0.735190  0.283590  1.0  -0.118
  C  C547  1  0.755100  0.734910  0.277260  1.0  0.079
  C  C548  1  0.788100  0.711280  0.293980  1.0  -0.1613
  C  C549  1  0.762700  0.690340  0.316350  1.0  -0.0164
  C  C550  1  0.704900  0.690210  0.322610  1.0  -0.1131
  C  C551  1  0.859100  0.792210  0.231570  1.0  -0.0903
  C  C552  1  0.835300  0.769930  0.254460  1.0  -0.0963
  C  C553  1  0.779000  0.758810  0.252960  1.0  0.0277
  C  C554  1  0.745300  0.770490  0.226800  1.0  -0.1293
  C  C555  1  0.767700  0.793270  0.203940  1.0  -0.0429
  C  C556  1  0.823200  0.803670  0.206100  1.0  -0.1102
  C  C557  1  0.678600  0.665960  0.346540  1.0  0.6995
  C  C558  1  0.846500  0.828720  0.182620  1.0  0.6794
  C  C559  1  0.671200  0.213190  0.805640  1.0  -0.0599
  C  C560  1  0.696400  0.235190  0.783590  1.0  -0.118
  C  C561  1  0.755100  0.234910  0.777260  1.0  0.079
  C  C562  1  0.788100  0.211280  0.793980  1.0  -0.1613
  C  C563  1  0.762700  0.190340  0.816350  1.0  -0.0164
  C  C564  1  0.704900  0.190210  0.822610  1.0  -0.1131
  C  C565  1  0.859100  0.292210  0.731570  1.0  -0.0903
  C  C566  1  0.835300  0.269930  0.754460  1.0  -0.0963
  C  C567  1  0.779000  0.258810  0.752960  1.0  0.0277
  C  C568  1  0.745300  0.270490  0.726800  1.0  -0.1293
  C  C569  1  0.767700  0.293270  0.703940  1.0  -0.0429
  C  C570  1  0.823200  0.303670  0.706100  1.0  -0.1102
  C  C571  1  0.678600  0.165960  0.846540  1.0  0.6995
  C  C572  1  0.846500  0.328720  0.682620  1.0  0.6794
  C  C573  1  0.171200  0.713190  0.805640  1.0  -0.0599
  C  C574  1  0.196400  0.735190  0.783590  1.0  -0.118
  C  C575  1  0.255100  0.734910  0.777260  1.0  0.079
  C  C576  1  0.288100  0.711280  0.793980  1.0  -0.1613
  C  C577  1  0.262700  0.690340  0.816350  1.0  -0.0164
  C  C578  1  0.204900  0.690210  0.822610  1.0  -0.1131
  C  C579  1  0.359100  0.792210  0.731570  1.0  -0.0903
  C  C580  1  0.335300  0.769930  0.754460  1.0  -0.0963
  C  C581  1  0.279000  0.758810  0.752960  1.0  0.0277
  C  C582  1  0.245300  0.770490  0.726800  1.0  -0.1293
  C  C583  1  0.267700  0.793270  0.703940  1.0  -0.0429
  C  C584  1  0.323200  0.803670  0.706100  1.0  -0.1102
  C  C585  1  0.178600  0.665960  0.846540  1.0  0.6995
  C  C586  1  0.346500  0.828720  0.682620  1.0  0.6794
  C  C587  1  0.171200  0.213190  0.305640  1.0  -0.0599
  C  C588  1  0.196400  0.235190  0.283590  1.0  -0.118
  C  C589  1  0.255100  0.234910  0.277260  1.0  0.079
  C  C590  1  0.288100  0.211280  0.293980  1.0  -0.1613
  C  C591  1  0.262700  0.190340  0.316350  1.0  -0.0164
  C  C592  1  0.204900  0.190210  0.322610  1.0  -0.1131
  C  C593  1  0.359100  0.292210  0.231570  1.0  -0.0903
  C  C594  1  0.335300  0.269930  0.254460  1.0  -0.0963
  C  C595  1  0.279000  0.258810  0.252960  1.0  0.0277
  C  C596  1  0.245300  0.270490  0.226800  1.0  -0.1293
  C  C597  1  0.267700  0.293270  0.203940  1.0  -0.0429
  C  C598  1  0.323200  0.303670  0.206100  1.0  -0.1102
  C  C599  1  0.178600  0.165960  0.346540  1.0  0.6995
  C  C600  1  0.346500  0.328720  0.182620  1.0  0.6794
  C  C601  1  0.078800  0.036810  0.305640  1.0  -0.0592
  C  C602  1  0.053600  0.014810  0.283590  1.0  -0.1173
  C  C603  1  0.994900  0.015090  0.277260  1.0  0.0794
  C  C604  1  0.961900  0.038720  0.293980  1.0  -0.1617
  C  C605  1  0.987300  0.059660  0.316350  1.0  -0.0175
  C  C606  1  0.045100  0.059790  0.322610  1.0  -0.1161
  C  C607  1  0.890900  0.957790  0.231570  1.0  -0.0897
  C  C608  1  0.914700  0.980070  0.254460  1.0  -0.0957
  C  C609  1  0.971000  0.991190  0.252960  1.0  0.0283
  C  C610  1  0.004700  0.979510  0.226800  1.0  -0.1293
  C  C611  1  0.982300  0.956730  0.203940  1.0  -0.0429
  C  C612  1  0.926800  0.946330  0.206100  1.0  -0.111
  C  C613  1  0.071400  0.084040  0.346540  1.0  0.7002
  C  C614  1  0.903500  0.921280  0.182620  1.0  0.6782
  C  C615  1  0.078800  0.536810  0.805640  1.0  -0.0592
  C  C616  1  0.053600  0.514810  0.783590  1.0  -0.1173
  C  C617  1  0.994900  0.515090  0.777260  1.0  0.0794
  C  C618  1  0.961900  0.538720  0.793980  1.0  -0.1617
  C  C619  1  0.987300  0.559660  0.816350  1.0  -0.0175
  C  C620  1  0.045100  0.559790  0.822610  1.0  -0.1161
  C  C621  1  0.890900  0.457790  0.731570  1.0  -0.0897
  C  C622  1  0.914700  0.480070  0.754460  1.0  -0.0957
  C  C623  1  0.971000  0.491190  0.752960  1.0  0.0283
  C  C624  1  0.004700  0.479510  0.726800  1.0  -0.1293
  C  C625  1  0.982300  0.456730  0.703940  1.0  -0.0429
  C  C626  1  0.926800  0.446330  0.706100  1.0  -0.111
  C  C627  1  0.071400  0.584040  0.846540  1.0  0.7002
  C  C628  1  0.903500  0.421280  0.682620  1.0  0.6782
  C  C629  1  0.578800  0.036810  0.805640  1.0  -0.0592
  C  C630  1  0.553600  0.014810  0.783590  1.0  -0.1173
  C  C631  1  0.494900  0.015090  0.777260  1.0  0.0794
  C  C632  1  0.461900  0.038720  0.793980  1.0  -0.1617
  C  C633  1  0.487300  0.059660  0.816350  1.0  -0.0175
  C  C634  1  0.545100  0.059790  0.822610  1.0  -0.1161
  C  C635  1  0.390900  0.957790  0.731570  1.0  -0.0897
  C  C636  1  0.414700  0.980070  0.754460  1.0  -0.0957
  C  C637  1  0.471000  0.991190  0.752960  1.0  0.0283
  C  C638  1  0.504700  0.979510  0.726800  1.0  -0.1293
  C  C639  1  0.482300  0.956730  0.703940  1.0  -0.0429
  C  C640  1  0.426800  0.946330  0.706100  1.0  -0.111
  C  C641  1  0.571400  0.084040  0.846540  1.0  0.7002
  C  C642  1  0.403500  0.921280  0.682620  1.0  0.6782
  C  C643  1  0.578800  0.536810  0.305640  1.0  -0.0592
  C  C644  1  0.553600  0.514810  0.283590  1.0  -0.1173
  C  C645  1  0.494900  0.515090  0.277260  1.0  0.0794
  C  C646  1  0.461900  0.538720  0.293980  1.0  -0.1617
  C  C647  1  0.487300  0.559660  0.316350  1.0  -0.0175
  C  C648  1  0.545100  0.559790  0.322610  1.0  -0.1161
  C  C649  1  0.390900  0.457790  0.231570  1.0  -0.0897
  C  C650  1  0.414700  0.480070  0.254460  1.0  -0.0957
  C  C651  1  0.471000  0.491190  0.252960  1.0  0.0283
  C  C652  1  0.504700  0.479510  0.226800  1.0  -0.1293
  C  C653  1  0.482300  0.456730  0.203940  1.0  -0.0429
  C  C654  1  0.426800  0.446330  0.206100  1.0  -0.111
  C  C655  1  0.571400  0.584040  0.346540  1.0  0.7002
  C  C656  1  0.403500  0.421280  0.182620  1.0  0.6782
  C  C657  1  0.921200  0.286810  0.555640  1.0  -0.0599
  C  C658  1  0.946400  0.264810  0.533590  1.0  -0.1174
  C  C659  1  0.005100  0.265090  0.527260  1.0  0.0791
  C  C660  1  0.038100  0.288720  0.543980  1.0  -0.1612
  C  C661  1  0.012700  0.309660  0.566350  1.0  -0.0145
  C  C662  1  0.954900  0.309790  0.572610  1.0  -0.1148
  C  C663  1  0.109100  0.207790  0.481570  1.0  -0.0901
  C  C664  1  0.085300  0.230070  0.504460  1.0  -0.0964
  C  C665  1  0.029000  0.241190  0.502960  1.0  0.0273
  C  C666  1  0.995300  0.229510  0.476800  1.0  -0.1293
  C  C667  1  0.017700  0.206730  0.453940  1.0  -0.0428
  C  C668  1  0.073200  0.196330  0.456100  1.0  -0.1104
  C  C669  1  0.928600  0.334040  0.596540  1.0  0.7002
  C  C670  1  0.096500  0.171280  0.432620  1.0  0.6789
  C  C671  1  0.921200  0.786810  0.055640  1.0  -0.0599
  C  C672  1  0.946400  0.764810  0.033590  1.0  -0.1174
  C  C673  1  0.005100  0.765090  0.027260  1.0  0.0791
  C  C674  1  0.038100  0.788720  0.043980  1.0  -0.1612
  C  C675  1  0.012700  0.809660  0.066350  1.0  -0.0145
  C  C676  1  0.954900  0.809790  0.072610  1.0  -0.1148
  C  C677  1  0.109100  0.707790  0.981570  1.0  -0.0901
  C  C678  1  0.085300  0.730070  0.004460  1.0  -0.0964
  C  C679  1  0.029000  0.741190  0.002960  1.0  0.0273
  C  C680  1  0.995300  0.729510  0.976800  1.0  -0.1293
  C  C681  1  0.017700  0.706730  0.953940  1.0  -0.0428
  C  C682  1  0.073200  0.696330  0.956100  1.0  -0.1104
  C  C683  1  0.928600  0.834040  0.096540  1.0  0.7002
  C  C684  1  0.096500  0.671280  0.932620  1.0  0.6789
  C  C685  1  0.421200  0.286810  0.055640  1.0  -0.0599
  C  C686  1  0.446400  0.264810  0.033590  1.0  -0.1174
  C  C687  1  0.505100  0.265090  0.027260  1.0  0.0791
  C  C688  1  0.538100  0.288720  0.043980  1.0  -0.1612
  C  C689  1  0.512700  0.309660  0.066350  1.0  -0.0145
  C  C690  1  0.454900  0.309790  0.072610  1.0  -0.1148
  C  C691  1  0.609100  0.207790  0.981570  1.0  -0.0901
  C  C692  1  0.585300  0.230070  0.004460  1.0  -0.0964
  C  C693  1  0.529000  0.241190  0.002960  1.0  0.0273
  C  C694  1  0.495300  0.229510  0.976800  1.0  -0.1293
  C  C695  1  0.517700  0.206730  0.953940  1.0  -0.0428
  C  C696  1  0.573200  0.196330  0.956100  1.0  -0.1104
  C  C697  1  0.428600  0.334040  0.096540  1.0  0.7002
  C  C698  1  0.596500  0.171280  0.932620  1.0  0.6789
  C  C699  1  0.421200  0.786810  0.555640  1.0  -0.0599
  C  C700  1  0.446400  0.764810  0.533590  1.0  -0.1174
  C  C701  1  0.505100  0.765090  0.527260  1.0  0.0791
  C  C702  1  0.538100  0.788720  0.543980  1.0  -0.1612
  C  C703  1  0.512700  0.809660  0.566350  1.0  -0.0145
  C  C704  1  0.454900  0.809790  0.572610  1.0  -0.1148
  C  C705  1  0.609100  0.707790  0.481570  1.0  -0.0901
  C  C706  1  0.585300  0.730070  0.504460  1.0  -0.0964
  C  C707  1  0.529000  0.741190  0.502960  1.0  0.0273
  C  C708  1  0.495300  0.729510  0.476800  1.0  -0.1293
  C  C709  1  0.517700  0.706730  0.453940  1.0  -0.0428
  C  C710  1  0.573200  0.696330  0.456100  1.0  -0.1104
  C  C711  1  0.428600  0.834040  0.596540  1.0  0.7002
  C  C712  1  0.596500  0.671280  0.432620  1.0  0.6789
  C  C713  1  0.328800  0.963190  0.555640  1.0  -0.0595
  C  C714  1  0.303600  0.985190  0.533590  1.0  -0.1169
  C  C715  1  0.244900  0.984910  0.527260  1.0  0.0792
  C  C716  1  0.211900  0.961280  0.543980  1.0  -0.1617
  C  C717  1  0.237300  0.940340  0.566350  1.0  -0.0174
  C  C718  1  0.295100  0.940210  0.572610  1.0  -0.1143
  C  C719  1  0.140900  0.042210  0.481570  1.0  -0.0909
  C  C720  1  0.164700  0.019930  0.504460  1.0  -0.0963
  C  C721  1  0.221000  0.008810  0.502960  1.0  0.0286
  C  C722  1  0.254700  0.020490  0.476800  1.0  -0.1292
  C  C723  1  0.232300  0.043270  0.453940  1.0  -0.0426
  C  C724  1  0.176800  0.053670  0.456100  1.0  -0.1102
  C  C725  1  0.321400  0.915960  0.596540  1.0  0.6994
  C  C726  1  0.153500  0.078720  0.432620  1.0  0.6785
  C  C727  1  0.328800  0.463190  0.055640  1.0  -0.0595
  C  C728  1  0.303600  0.485190  0.033590  1.0  -0.1169
  C  C729  1  0.244900  0.484910  0.027260  1.0  0.0792
  C  C730  1  0.211900  0.461280  0.043980  1.0  -0.1617
  C  C731  1  0.237300  0.440340  0.066350  1.0  -0.0174
  C  C732  1  0.295100  0.440210  0.072610  1.0  -0.1143
  C  C733  1  0.140900  0.542210  0.981570  1.0  -0.0909
  C  C734  1  0.164700  0.519930  0.004460  1.0  -0.0963
  C  C735  1  0.221000  0.508810  0.002960  1.0  0.0286
  C  C736  1  0.254700  0.520490  0.976800  1.0  -0.1292
  C  C737  1  0.232300  0.543270  0.953940  1.0  -0.0426
  C  C738  1  0.176800  0.553670  0.956100  1.0  -0.1102
  C  C739  1  0.321400  0.415960  0.096540  1.0  0.6994
  C  C740  1  0.153500  0.578720  0.932620  1.0  0.6785
  C  C741  1  0.828800  0.963190  0.055640  1.0  -0.0595
  C  C742  1  0.803600  0.985190  0.033590  1.0  -0.1169
  C  C743  1  0.744900  0.984910  0.027260  1.0  0.0792
  C  C744  1  0.711900  0.961280  0.043980  1.0  -0.1617
  C  C745  1  0.737300  0.940340  0.066350  1.0  -0.0174
  C  C746  1  0.795100  0.940210  0.072610  1.0  -0.1143
  C  C747  1  0.640900  0.042210  0.981570  1.0  -0.0909
  C  C748  1  0.664700  0.019930  0.004460  1.0  -0.0963
  C  C749  1  0.721000  0.008810  0.002960  1.0  0.0286
  C  C750  1  0.754700  0.020490  0.976800  1.0  -0.1292
  C  C751  1  0.732300  0.043270  0.953940  1.0  -0.0426
  C  C752  1  0.676800  0.053670  0.956100  1.0  -0.1102
  C  C753  1  0.821400  0.915960  0.096540  1.0  0.6994
  C  C754  1  0.653500  0.078720  0.932620  1.0  0.6785
  C  C755  1  0.828800  0.463190  0.555640  1.0  -0.0595
  C  C756  1  0.803600  0.485190  0.533590  1.0  -0.1169
  C  C757  1  0.744900  0.484910  0.527260  1.0  0.0792
  C  C758  1  0.711900  0.461280  0.543980  1.0  -0.1617
  C  C759  1  0.737300  0.440340  0.566350  1.0  -0.0174
  C  C760  1  0.795100  0.440210  0.572610  1.0  -0.1143
  C  C761  1  0.640900  0.542210  0.481570  1.0  -0.0909
  C  C762  1  0.664700  0.519930  0.504460  1.0  -0.0963
  C  C763  1  0.721000  0.508810  0.502960  1.0  0.0286
  C  C764  1  0.754700  0.520490  0.476800  1.0  -0.1292
  C  C765  1  0.732300  0.543270  0.453940  1.0  -0.0426
  C  C766  1  0.676800  0.553670  0.456100  1.0  -0.1102
  C  C767  1  0.821400  0.415960  0.596540  1.0  0.6994
  C  C768  1  0.653500  0.578720  0.432620  1.0  0.6785
  C  C769  1  0.001700  0.322270  0.441890  1.0  -0.1468
  C  C770  1  0.024300  0.344000  0.465050  1.0  -0.1059
  C  C771  1  0.993500  0.361330  0.488090  1.0  0.0684
  C  C772  1  0.937500  0.351170  0.489420  1.0  -0.1564
  C  C773  1  0.913700  0.328070  0.467720  1.0  -0.0832
  C  C774  1  0.944000  0.315480  0.442360  1.0  -0.0699
  C  C775  1  0.093900  0.418970  0.532030  1.0  -0.0558
  C  C776  1  0.071000  0.396550  0.509120  1.0  -0.1514
  C  C777  1  0.015200  0.385450  0.511830  1.0  0.017
  C  C778  1  0.982900  0.397450  0.537150  1.0  -0.0992
  C  C779  1  0.004400  0.421160  0.560130  1.0  -0.0702
  C  C780  1  0.060400  0.431340  0.557740  1.0  -0.0942
  C  C781  1  0.917900  0.292170  0.417790  1.0  0.7418
  C  C782  1  0.084400  0.455530  0.582320  1.0  0.7063
  C  C783  1  0.001700  0.822270  0.941890  1.0  -0.1468
  C  C784  1  0.024300  0.844000  0.965050  1.0  -0.1059
  C  C785  1  0.993500  0.861330  0.988090  1.0  0.0684
  C  C786  1  0.937500  0.851170  0.989420  1.0  -0.1564
  C  C787  1  0.913700  0.828070  0.967720  1.0  -0.0832
  C  C788  1  0.944000  0.815480  0.942360  1.0  -0.0699
  C  C789  1  0.093900  0.918970  0.032030  1.0  -0.0558
  C  C790  1  0.071000  0.896550  0.009120  1.0  -0.1514
  C  C791  1  0.015200  0.885450  0.011830  1.0  0.017
  C  C792  1  0.982900  0.897450  0.037150  1.0  -0.0992
  C  C793  1  0.004400  0.921160  0.060130  1.0  -0.0702
  C  C794  1  0.060400  0.931340  0.057740  1.0  -0.0942
  C  C795  1  0.917900  0.792170  0.917790  1.0  0.7418
  C  C796  1  0.084400  0.955530  0.082320  1.0  0.7063
  C  C797  1  0.501700  0.322270  0.941890  1.0  -0.1468
  C  C798  1  0.524300  0.344000  0.965050  1.0  -0.1059
  C  C799  1  0.493500  0.361330  0.988090  1.0  0.0684
  C  C800  1  0.437500  0.351170  0.989420  1.0  -0.1564
  C  C801  1  0.413700  0.328070  0.967720  1.0  -0.0832
  C  C802  1  0.444000  0.315480  0.942360  1.0  -0.0699
  C  C803  1  0.593900  0.418970  0.032030  1.0  -0.0558
  C  C804  1  0.571000  0.396550  0.009120  1.0  -0.1514
  C  C805  1  0.515200  0.385450  0.011830  1.0  0.017
  C  C806  1  0.482900  0.397450  0.037150  1.0  -0.0992
  C  C807  1  0.504400  0.421160  0.060130  1.0  -0.0702
  C  C808  1  0.560400  0.431340  0.057740  1.0  -0.0942
  C  C809  1  0.417900  0.292170  0.917790  1.0  0.7418
  C  C810  1  0.584400  0.455530  0.082320  1.0  0.7063
  C  C811  1  0.501700  0.822270  0.441890  1.0  -0.1468
  C  C812  1  0.524300  0.844000  0.465050  1.0  -0.1059
  C  C813  1  0.493500  0.861330  0.488090  1.0  0.0684
  C  C814  1  0.437500  0.851170  0.489420  1.0  -0.1564
  C  C815  1  0.413700  0.828070  0.467720  1.0  -0.0832
  C  C816  1  0.444000  0.815480  0.442360  1.0  -0.0699
  C  C817  1  0.593900  0.918970  0.532030  1.0  -0.0558
  C  C818  1  0.571000  0.896550  0.509120  1.0  -0.1514
  C  C819  1  0.515200  0.885450  0.511830  1.0  0.017
  C  C820  1  0.482900  0.897450  0.537150  1.0  -0.0992
  C  C821  1  0.504400  0.921160  0.560130  1.0  -0.0702
  C  C822  1  0.560400  0.931340  0.557740  1.0  -0.0942
  C  C823  1  0.417900  0.792170  0.417790  1.0  0.7418
  C  C824  1  0.584400  0.955530  0.582320  1.0  0.7063
  C  C825  1  0.748300  0.322270  0.308110  1.0  -0.1466
  C  C826  1  0.725700  0.344000  0.284950  1.0  -0.1067
  C  C827  1  0.756500  0.361330  0.261910  1.0  0.0685
  C  C828  1  0.812500  0.351170  0.260580  1.0  -0.1571
  C  C829  1  0.836300  0.328070  0.282280  1.0  -0.0845
  C  C830  1  0.806000  0.315480  0.307640  1.0  -0.0652
  C  C831  1  0.656100  0.418970  0.217970  1.0  -0.0563
  C  C832  1  0.679000  0.396550  0.240880  1.0  -0.1533
  C  C833  1  0.734800  0.385450  0.238170  1.0  0.0201
  C  C834  1  0.767100  0.397450  0.212850  1.0  -0.1005
  C  C835  1  0.745600  0.421160  0.189870  1.0  -0.0695
  C  C836  1  0.689600  0.431340  0.192260  1.0  -0.0935
  C  C837  1  0.832100  0.292170  0.332210  1.0  0.7431
  C  C838  1  0.665600  0.455530  0.167680  1.0  0.708
  C  C839  1  0.748300  0.822270  0.808110  1.0  -0.1466
  C  C840  1  0.725700  0.844000  0.784950  1.0  -0.1067
  C  C841  1  0.756500  0.861330  0.761910  1.0  0.0685
  C  C842  1  0.812500  0.851170  0.760580  1.0  -0.1571
  C  C843  1  0.836300  0.828070  0.782280  1.0  -0.0845
  C  C844  1  0.806000  0.815480  0.807640  1.0  -0.0652
  C  C845  1  0.656100  0.918970  0.717970  1.0  -0.0563
  C  C846  1  0.679000  0.896550  0.740880  1.0  -0.1533
  C  C847  1  0.734800  0.885450  0.738170  1.0  0.0201
  C  C848  1  0.767100  0.897450  0.712850  1.0  -0.1005
  C  C849  1  0.745600  0.921160  0.689870  1.0  -0.0695
  C  C850  1  0.689600  0.931340  0.692260  1.0  -0.0935
  C  C851  1  0.832100  0.792170  0.832210  1.0  0.7431
  C  C852  1  0.665600  0.955530  0.667680  1.0  0.708
  C  C853  1  0.248300  0.322270  0.808110  1.0  -0.1466
  C  C854  1  0.225700  0.344000  0.784950  1.0  -0.1067
  C  C855  1  0.256500  0.361330  0.761910  1.0  0.0685
  C  C856  1  0.312500  0.351170  0.760580  1.0  -0.1571
  C  C857  1  0.336300  0.328070  0.782280  1.0  -0.0845
  C  C858  1  0.306000  0.315480  0.807640  1.0  -0.0652
  C  C859  1  0.156100  0.418970  0.717970  1.0  -0.0563
  C  C860  1  0.179000  0.396550  0.740880  1.0  -0.1533
  C  C861  1  0.234800  0.385450  0.738170  1.0  0.0201
  C  C862  1  0.267100  0.397450  0.712850  1.0  -0.1005
  C  C863  1  0.245600  0.421160  0.689870  1.0  -0.0695
  C  C864  1  0.189600  0.431340  0.692260  1.0  -0.0935
  C  C865  1  0.332100  0.292170  0.832210  1.0  0.7431
  C  C866  1  0.165600  0.455530  0.667680  1.0  0.708
  C  C867  1  0.248300  0.822270  0.308110  1.0  -0.1466
  C  C868  1  0.225700  0.844000  0.284950  1.0  -0.1067
  C  C869  1  0.256500  0.861330  0.261910  1.0  0.0685
  C  C870  1  0.312500  0.851170  0.260580  1.0  -0.1571
  C  C871  1  0.336300  0.828070  0.282280  1.0  -0.0845
  C  C872  1  0.306000  0.815480  0.307640  1.0  -0.0652
  C  C873  1  0.156100  0.918970  0.217970  1.0  -0.0563
  C  C874  1  0.179000  0.896550  0.240880  1.0  -0.1533
  C  C875  1  0.234800  0.885450  0.238170  1.0  0.0201
  C  C876  1  0.267100  0.897450  0.212850  1.0  -0.1005
  C  C877  1  0.245600  0.921160  0.189870  1.0  -0.0695
  C  C878  1  0.189600  0.931340  0.192260  1.0  -0.0935
  C  C879  1  0.332100  0.792170  0.332210  1.0  0.7431
  C  C880  1  0.165600  0.955530  0.167680  1.0  0.708
  C  C881  1  0.251700  0.572270  0.558110  1.0  -0.1464
  C  C882  1  0.274300  0.594000  0.534950  1.0  -0.1056
  C  C883  1  0.243500  0.611330  0.511910  1.0  0.0686
  C  C884  1  0.187500  0.601170  0.510580  1.0  -0.1575
  C  C885  1  0.163700  0.578070  0.532280  1.0  -0.0832
  C  C886  1  0.194000  0.565480  0.557640  1.0  -0.0638
  C  C887  1  0.343900  0.668970  0.467970  1.0  -0.056
  C  C888  1  0.321000  0.646550  0.490880  1.0  -0.1519
  C  C889  1  0.265200  0.635450  0.488170  1.0  0.0189
  C  C890  1  0.232900  0.647450  0.462850  1.0  -0.0993
  C  C891  1  0.254400  0.671160  0.439870  1.0  -0.0699
  C  C892  1  0.310400  0.681340  0.442260  1.0  -0.0939
  C  C893  1  0.167900  0.542170  0.582210  1.0  0.7424
  C  C894  1  0.334400  0.705530  0.417680  1.0  0.7063
  C  C895  1  0.251700  0.072270  0.058110  1.0  -0.1464
  C  C896  1  0.274300  0.094000  0.034950  1.0  -0.1056
  C  C897  1  0.243500  0.111330  0.011910  1.0  0.0686
  C  C898  1  0.187500  0.101170  0.010580  1.0  -0.1575
  C  C899  1  0.163700  0.078070  0.032280  1.0  -0.0832
  C  C900  1  0.194000  0.065480  0.057640  1.0  -0.0638
  C  C901  1  0.343900  0.168970  0.967970  1.0  -0.056
  C  C902  1  0.321000  0.146550  0.990880  1.0  -0.1519
  C  C903  1  0.265200  0.135450  0.988170  1.0  0.0189
  C  C904  1  0.232900  0.147450  0.962850  1.0  -0.0993
  C  C905  1  0.254400  0.171160  0.939870  1.0  -0.0699
  C  C906  1  0.310400  0.181340  0.942260  1.0  -0.0939
  C  C907  1  0.167900  0.042170  0.082210  1.0  0.7424
  C  C908  1  0.334400  0.205530  0.917680  1.0  0.7063
  C  C909  1  0.751700  0.572270  0.058110  1.0  -0.1464
  C  C910  1  0.774300  0.594000  0.034950  1.0  -0.1056
  C  C911  1  0.743500  0.611330  0.011910  1.0  0.0686
  C  C912  1  0.687500  0.601170  0.010580  1.0  -0.1575
  C  C913  1  0.663700  0.578070  0.032280  1.0  -0.0832
  C  C914  1  0.694000  0.565480  0.057640  1.0  -0.0638
  C  C915  1  0.843900  0.668970  0.967970  1.0  -0.056
  C  C916  1  0.821000  0.646550  0.990880  1.0  -0.1519
  C  C917  1  0.765200  0.635450  0.988170  1.0  0.0189
  C  C918  1  0.732900  0.647450  0.962850  1.0  -0.0993
  C  C919  1  0.754400  0.671160  0.939870  1.0  -0.0699
  C  C920  1  0.810400  0.681340  0.942260  1.0  -0.0939
  C  C921  1  0.667900  0.542170  0.082210  1.0  0.7424
  C  C922  1  0.834400  0.705530  0.917680  1.0  0.7063
  C  C923  1  0.751700  0.072270  0.558110  1.0  -0.1464
  C  C924  1  0.774300  0.094000  0.534950  1.0  -0.1056
  C  C925  1  0.743500  0.111330  0.511910  1.0  0.0686
  C  C926  1  0.687500  0.101170  0.510580  1.0  -0.1575
  C  C927  1  0.663700  0.078070  0.532280  1.0  -0.0832
  C  C928  1  0.694000  0.065480  0.557640  1.0  -0.0638
  C  C929  1  0.843900  0.168970  0.467970  1.0  -0.056
  C  C930  1  0.821000  0.146550  0.490880  1.0  -0.1519
  C  C931  1  0.765200  0.135450  0.488170  1.0  0.0189
  C  C932  1  0.732900  0.147450  0.462850  1.0  -0.0993
  C  C933  1  0.754400  0.171160  0.439870  1.0  -0.0699
  C  C934  1  0.810400  0.181340  0.442260  1.0  -0.0939
  C  C935  1  0.667900  0.042170  0.582210  1.0  0.7424
  C  C936  1  0.834400  0.205530  0.417680  1.0  0.7063
  C  C937  1  0.998300  0.572270  0.691890  1.0  -0.1457
  C  C938  1  0.975700  0.594000  0.715050  1.0  -0.1069
  C  C939  1  0.006500  0.611330  0.738090  1.0  0.0683
  C  C940  1  0.062500  0.601170  0.739420  1.0  -0.1568
  C  C941  1  0.086300  0.578070  0.717720  1.0  -0.0849
  C  C942  1  0.056000  0.565480  0.692360  1.0  -0.0714
  C  C943  1  0.906100  0.668970  0.782030  1.0  -0.0564
  C  C944  1  0.929000  0.646550  0.759120  1.0  -0.1521
  C  C945  1  0.984800  0.635450  0.761830  1.0  0.0178
  C  C946  1  0.017100  0.647450  0.787150  1.0  -0.1002
  C  C947  1  0.995600  0.671160  0.810130  1.0  -0.0698
  C  C948  1  0.939600  0.681340  0.807740  1.0  -0.0938
  C  C949  1  0.082100  0.542170  0.667790  1.0  0.7416
  C  C950  1  0.915600  0.705530  0.832320  1.0  0.7079
  C  C951  1  0.998300  0.072270  0.191890  1.0  -0.1457
  C  C952  1  0.975700  0.094000  0.215050  1.0  -0.1069
  C  C953  1  0.006500  0.111330  0.238090  1.0  0.0683
  C  C954  1  0.062500  0.101170  0.239420  1.0  -0.1568
  C  C955  1  0.086300  0.078070  0.217720  1.0  -0.0849
  C  C956  1  0.056000  0.065480  0.192360  1.0  -0.0714
  C  C957  1  0.906100  0.168970  0.282030  1.0  -0.0564
  C  C958  1  0.929000  0.146550  0.259120  1.0  -0.1521
  C  C959  1  0.984800  0.135450  0.261830  1.0  0.0178
  C  C960  1  0.017100  0.147450  0.287150  1.0  -0.1002
  C  C961  1  0.995600  0.171160  0.310130  1.0  -0.0698
  C  C962  1  0.939600  0.181340  0.307740  1.0  -0.0938
  C  C963  1  0.082100  0.042170  0.167790  1.0  0.7416
  C  C964  1  0.915600  0.205530  0.332320  1.0  0.7079
  C  C965  1  0.498300  0.572270  0.191890  1.0  -0.1457
  C  C966  1  0.475700  0.594000  0.215050  1.0  -0.1069
  C  C967  1  0.506500  0.611330  0.238090  1.0  0.0683
  C  C968  1  0.562500  0.601170  0.239420  1.0  -0.1568
  C  C969  1  0.586300  0.578070  0.217720  1.0  -0.0849
  C  C970  1  0.556000  0.565480  0.192360  1.0  -0.0714
  C  C971  1  0.406100  0.668970  0.282030  1.0  -0.0564
  C  C972  1  0.429000  0.646550  0.259120  1.0  -0.1521
  C  C973  1  0.484800  0.635450  0.261830  1.0  0.0178
  C  C974  1  0.517100  0.647450  0.287150  1.0  -0.1002
  C  C975  1  0.495600  0.671160  0.310130  1.0  -0.0698
  C  C976  1  0.439600  0.681340  0.307740  1.0  -0.0938
  C  C977  1  0.582100  0.542170  0.167790  1.0  0.7416
  C  C978  1  0.415600  0.705530  0.332320  1.0  0.7079
  C  C979  1  0.498300  0.072270  0.691890  1.0  -0.1457
  C  C980  1  0.475700  0.094000  0.715050  1.0  -0.1069
  C  C981  1  0.506500  0.111330  0.738090  1.0  0.0683
  C  C982  1  0.562500  0.101170  0.739420  1.0  -0.1568
  C  C983  1  0.586300  0.078070  0.717720  1.0  -0.0849
  C  C984  1  0.556000  0.065480  0.692360  1.0  -0.0714
  C  C985  1  0.406100  0.168970  0.782030  1.0  -0.0564
  C  C986  1  0.429000  0.146550  0.759120  1.0  -0.1521
  C  C987  1  0.484800  0.135450  0.761830  1.0  0.0178
  C  C988  1  0.517100  0.147450  0.787150  1.0  -0.1002
  C  C989  1  0.495600  0.171160  0.810130  1.0  -0.0698
  C  C990  1  0.439600  0.181340  0.807740  1.0  -0.0938
  C  C991  1  0.582100  0.042170  0.667790  1.0  0.7416
  C  C992  1  0.415600  0.205530  0.832320  1.0  0.7079
  C  C993  1  0.748300  0.427730  0.441890  1.0  -0.1459
  C  C994  1  0.725700  0.406000  0.465050  1.0  -0.1068
  C  C995  1  0.756500  0.388670  0.488090  1.0  0.0671
  C  C996  1  0.812500  0.398830  0.489420  1.0  -0.1563
  C  C997  1  0.836300  0.421930  0.467720  1.0  -0.0843
  C  C998  1  0.806000  0.434520  0.442360  1.0  -0.0703
  C  C999  1  0.656100  0.331030  0.532030  1.0  -0.0563
  C  C1000  1  0.679000  0.353450  0.509120  1.0  -0.1514
  C  C1001  1  0.734800  0.364550  0.511830  1.0  0.0175
  C  C1002  1  0.767100  0.352550  0.537150  1.0  -0.1
  C  C1003  1  0.745600  0.328840  0.560130  1.0  -0.0695
  C  C1004  1  0.689600  0.318660  0.557740  1.0  -0.0943
  C  C1005  1  0.832100  0.457830  0.417790  1.0  0.7409
  C  C1006  1  0.665600  0.294470  0.582320  1.0  0.7082
  C  C1007  1  0.748300  0.927730  0.941890  1.0  -0.1459
  C  C1008  1  0.725700  0.906000  0.965050  1.0  -0.1068
  C  C1009  1  0.756500  0.888670  0.988090  1.0  0.0671
  C  C1010  1  0.812500  0.898830  0.989420  1.0  -0.1563
  C  C1011  1  0.836300  0.921930  0.967720  1.0  -0.0843
  C  C1012  1  0.806000  0.934520  0.942360  1.0  -0.0703
  C  C1013  1  0.656100  0.831030  0.032030  1.0  -0.0563
  C  C1014  1  0.679000  0.853450  0.009120  1.0  -0.1514
  C  C1015  1  0.734800  0.864550  0.011830  1.0  0.0175
  C  C1016  1  0.767100  0.852550  0.037150  1.0  -0.1
  C  C1017  1  0.745600  0.828840  0.060130  1.0  -0.0695
  C  C1018  1  0.689600  0.818660  0.057740  1.0  -0.0943
  C  C1019  1  0.832100  0.957830  0.917790  1.0  0.7409
  C  C1020  1  0.665600  0.794470  0.082320  1.0  0.7082
  C  C1021  1  0.248300  0.427730  0.941890  1.0  -0.1459
  C  C1022  1  0.225700  0.406000  0.965050  1.0  -0.1068
  C  C1023  1  0.256500  0.388670  0.988090  1.0  0.0671
  C  C1024  1  0.312500  0.398830  0.989420  1.0  -0.1563
  C  C1025  1  0.336300  0.421930  0.967720  1.0  -0.0843
  C  C1026  1  0.306000  0.434520  0.942360  1.0  -0.0703
  C  C1027  1  0.156100  0.331030  0.032030  1.0  -0.0563
  C  C1028  1  0.179000  0.353450  0.009120  1.0  -0.1514
  C  C1029  1  0.234800  0.364550  0.011830  1.0  0.0175
  C  C1030  1  0.267100  0.352550  0.037150  1.0  -0.1
  C  C1031  1  0.245600  0.328840  0.060130  1.0  -0.0695
  C  C1032  1  0.189600  0.318660  0.057740  1.0  -0.0943
  C  C1033  1  0.332100  0.457830  0.917790  1.0  0.7409
  C  C1034  1  0.165600  0.294470  0.082320  1.0  0.7082
  C  C1035  1  0.248300  0.927730  0.441890  1.0  -0.1459
  C  C1036  1  0.225700  0.906000  0.465050  1.0  -0.1068
  C  C1037  1  0.256500  0.888670  0.488090  1.0  0.0671
  C  C1038  1  0.312500  0.898830  0.489420  1.0  -0.1563
  C  C1039  1  0.336300  0.921930  0.467720  1.0  -0.0843
  C  C1040  1  0.306000  0.934520  0.442360  1.0  -0.0703
  C  C1041  1  0.156100  0.831030  0.532030  1.0  -0.0563
  C  C1042  1  0.179000  0.853450  0.509120  1.0  -0.1514
  C  C1043  1  0.234800  0.864550  0.511830  1.0  0.0175
  C  C1044  1  0.267100  0.852550  0.537150  1.0  -0.1
  C  C1045  1  0.245600  0.828840  0.560130  1.0  -0.0695
  C  C1046  1  0.189600  0.818660  0.557740  1.0  -0.0943
  C  C1047  1  0.332100  0.957830  0.417790  1.0  0.7409
  C  C1048  1  0.165600  0.794470  0.582320  1.0  0.7082
  C  C1049  1  0.001700  0.427730  0.308110  1.0  -0.1464
  C  C1050  1  0.024300  0.406000  0.284950  1.0  -0.106
  C  C1051  1  0.993500  0.388670  0.261910  1.0  0.0691
  C  C1052  1  0.937500  0.398830  0.260580  1.0  -0.1576
  C  C1053  1  0.913700  0.421930  0.282280  1.0  -0.083
  C  C1054  1  0.944000  0.434520  0.307640  1.0  -0.0644
  C  C1055  1  0.093900  0.331030  0.217970  1.0  -0.0562
  C  C1056  1  0.071000  0.353450  0.240880  1.0  -0.1516
  C  C1057  1  0.015200  0.364550  0.238170  1.0  0.0183
  C  C1058  1  0.982900  0.352550  0.212850  1.0  -0.0985
  C  C1059  1  0.004400  0.328840  0.189870  1.0  -0.0701
  C  C1060  1  0.060400  0.318660  0.192260  1.0  -0.0941
  C  C1061  1  0.917900  0.457830  0.332210  1.0  0.7423
  C  C1062  1  0.084400  0.294470  0.167680  1.0  0.7065
  C  C1063  1  0.001700  0.927730  0.808110  1.0  -0.1464
  C  C1064  1  0.024300  0.906000  0.784950  1.0  -0.106
  C  C1065  1  0.993500  0.888670  0.761910  1.0  0.0691
  C  C1066  1  0.937500  0.898830  0.760580  1.0  -0.1576
  C  C1067  1  0.913700  0.921930  0.782280  1.0  -0.083
  C  C1068  1  0.944000  0.934520  0.807640  1.0  -0.0644
  C  C1069  1  0.093900  0.831030  0.717970  1.0  -0.0562
  C  C1070  1  0.071000  0.853450  0.740880  1.0  -0.1516
  C  C1071  1  0.015200  0.864550  0.738170  1.0  0.0183
  C  C1072  1  0.982900  0.852550  0.712850  1.0  -0.0985
  C  C1073  1  0.004400  0.828840  0.689870  1.0  -0.0701
  C  C1074  1  0.060400  0.818660  0.692260  1.0  -0.0941
  C  C1075  1  0.917900  0.957830  0.832210  1.0  0.7423
  C  C1076  1  0.084400  0.794470  0.667680  1.0  0.7065
  C  C1077  1  0.501700  0.427730  0.808110  1.0  -0.1464
  C  C1078  1  0.524300  0.406000  0.784950  1.0  -0.106
  C  C1079  1  0.493500  0.388670  0.761910  1.0  0.0691
  C  C1080  1  0.437500  0.398830  0.760580  1.0  -0.1576
  C  C1081  1  0.413700  0.421930  0.782280  1.0  -0.083
  C  C1082  1  0.444000  0.434520  0.807640  1.0  -0.0644
  C  C1083  1  0.593900  0.331030  0.717970  1.0  -0.0562
  C  C1084  1  0.571000  0.353450  0.740880  1.0  -0.1516
  C  C1085  1  0.515200  0.364550  0.738170  1.0  0.0183
  C  C1086  1  0.482900  0.352550  0.712850  1.0  -0.0985
  C  C1087  1  0.504400  0.328840  0.689870  1.0  -0.0701
  C  C1088  1  0.560400  0.318660  0.692260  1.0  -0.0941
  C  C1089  1  0.417900  0.457830  0.832210  1.0  0.7423
  C  C1090  1  0.584400  0.294470  0.667680  1.0  0.7065
  C  C1091  1  0.501700  0.927730  0.308110  1.0  -0.1464
  C  C1092  1  0.524300  0.906000  0.284950  1.0  -0.106
  C  C1093  1  0.493500  0.888670  0.261910  1.0  0.0691
  C  C1094  1  0.437500  0.898830  0.260580  1.0  -0.1576
  C  C1095  1  0.413700  0.921930  0.282280  1.0  -0.083
  C  C1096  1  0.444000  0.934520  0.307640  1.0  -0.0644
  C  C1097  1  0.593900  0.831030  0.217970  1.0  -0.0562
  C  C1098  1  0.571000  0.853450  0.240880  1.0  -0.1516
  C  C1099  1  0.515200  0.864550  0.238170  1.0  0.0183
  C  C1100  1  0.482900  0.852550  0.212850  1.0  -0.0985
  C  C1101  1  0.504400  0.828840  0.189870  1.0  -0.0701
  C  C1102  1  0.560400  0.818660  0.192260  1.0  -0.0941
  C  C1103  1  0.417900  0.957830  0.332210  1.0  0.7423
  C  C1104  1  0.584400  0.794470  0.167680  1.0  0.7065
  C  C1105  1  0.998300  0.677730  0.558110  1.0  -0.1469
  C  C1106  1  0.975700  0.656000  0.534950  1.0  -0.1057
  C  C1107  1  0.006500  0.638670  0.511910  1.0  0.0687
  C  C1108  1  0.062500  0.648830  0.510580  1.0  -0.1572
  C  C1109  1  0.086300  0.671930  0.532280  1.0  -0.0842
  C  C1110  1  0.056000  0.684520  0.557640  1.0  -0.0656
  C  C1111  1  0.906100  0.581030  0.467970  1.0  -0.0564
  C  C1112  1  0.929000  0.603450  0.490880  1.0  -0.1524
  C  C1113  1  0.984800  0.614550  0.488170  1.0  0.0193
  C  C1114  1  0.017100  0.602550  0.462850  1.0  -0.1001
  C  C1115  1  0.995600  0.578840  0.439870  1.0  -0.0699
  C  C1116  1  0.939600  0.568660  0.442260  1.0  -0.0941
  C  C1117  1  0.082100  0.707830  0.582210  1.0  0.7426
  C  C1118  1  0.915600  0.544470  0.417680  1.0  0.7082
  C  C1119  1  0.998300  0.177730  0.058110  1.0  -0.1469
  C  C1120  1  0.975700  0.156000  0.034950  1.0  -0.1057
  C  C1121  1  0.006500  0.138670  0.011910  1.0  0.0687
  C  C1122  1  0.062500  0.148830  0.010580  1.0  -0.1572
  C  C1123  1  0.086300  0.171930  0.032280  1.0  -0.0842
  C  C1124  1  0.056000  0.184520  0.057640  1.0  -0.0656
  C  C1125  1  0.906100  0.081030  0.967970  1.0  -0.0564
  C  C1126  1  0.929000  0.103450  0.990880  1.0  -0.1524
  C  C1127  1  0.984800  0.114550  0.988170  1.0  0.0193
  C  C1128  1  0.017100  0.102550  0.962850  1.0  -0.1001
  C  C1129  1  0.995600  0.078840  0.939870  1.0  -0.0699
  C  C1130  1  0.939600  0.068660  0.942260  1.0  -0.0941
  C  C1131  1  0.082100  0.207830  0.082210  1.0  0.7426
  C  C1132  1  0.915600  0.044470  0.917680  1.0  0.7082
  C  C1133  1  0.498300  0.677730  0.058110  1.0  -0.1469
  C  C1134  1  0.475700  0.656000  0.034950  1.0  -0.1057
  C  C1135  1  0.506500  0.638670  0.011910  1.0  0.0687
  C  C1136  1  0.562500  0.648830  0.010580  1.0  -0.1572
  C  C1137  1  0.586300  0.671930  0.032280  1.0  -0.0842
  C  C1138  1  0.556000  0.684520  0.057640  1.0  -0.0656
  C  C1139  1  0.406100  0.581030  0.967970  1.0  -0.0564
  C  C1140  1  0.429000  0.603450  0.990880  1.0  -0.1524
  C  C1141  1  0.484800  0.614550  0.988170  1.0  0.0193
  C  C1142  1  0.517100  0.602550  0.962850  1.0  -0.1001
  C  C1143  1  0.495600  0.578840  0.939870  1.0  -0.0699
  C  C1144  1  0.439600  0.568660  0.942260  1.0  -0.0941
  C  C1145  1  0.582100  0.707830  0.082210  1.0  0.7426
  C  C1146  1  0.415600  0.544470  0.917680  1.0  0.7082
  C  C1147  1  0.498300  0.177730  0.558110  1.0  -0.1469
  C  C1148  1  0.475700  0.156000  0.534950  1.0  -0.1057
  C  C1149  1  0.506500  0.138670  0.511910  1.0  0.0687
  C  C1150  1  0.562500  0.148830  0.510580  1.0  -0.1572
  C  C1151  1  0.586300  0.171930  0.532280  1.0  -0.0842
  C  C1152  1  0.556000  0.184520  0.557640  1.0  -0.0656
  C  C1153  1  0.406100  0.081030  0.467970  1.0  -0.0564
  C  C1154  1  0.429000  0.103450  0.490880  1.0  -0.1524
  C  C1155  1  0.484800  0.114550  0.488170  1.0  0.0193
  C  C1156  1  0.517100  0.102550  0.462850  1.0  -0.1001
  C  C1157  1  0.495600  0.078840  0.439870  1.0  -0.0699
  C  C1158  1  0.439600  0.068660  0.442260  1.0  -0.0941
  C  C1159  1  0.582100  0.207830  0.582210  1.0  0.7426
  C  C1160  1  0.415600  0.044470  0.417680  1.0  0.7082
  C  C1161  1  0.251700  0.677730  0.691890  1.0  -0.1468
  C  C1162  1  0.274300  0.656000  0.715050  1.0  -0.1066
  C  C1163  1  0.243500  0.638670  0.738090  1.0  0.068
  C  C1164  1  0.187500  0.648830  0.739420  1.0  -0.156
  C  C1165  1  0.163700  0.671930  0.717720  1.0  -0.0829
  C  C1166  1  0.194000  0.684520  0.692360  1.0  -0.0689
  C  C1167  1  0.343900  0.581030  0.782030  1.0  -0.0559
  C  C1168  1  0.321000  0.603450  0.759120  1.0  -0.1513
  C  C1169  1  0.265200  0.614550  0.761830  1.0  0.0166
  C  C1170  1  0.232900  0.602550  0.787150  1.0  -0.0987
  C  C1171  1  0.254400  0.578840  0.810130  1.0  -0.0696
  C  C1172  1  0.310400  0.568660  0.807740  1.0  -0.0943
  C  C1173  1  0.167900  0.707830  0.667790  1.0  0.7413
  C  C1174  1  0.334400  0.544470  0.832320  1.0  0.7066
  C  C1175  1  0.251700  0.177730  0.191890  1.0  -0.1468
  C  C1176  1  0.274300  0.156000  0.215050  1.0  -0.1066
  C  C1177  1  0.243500  0.138670  0.238090  1.0  0.068
  C  C1178  1  0.187500  0.148830  0.239420  1.0  -0.156
  C  C1179  1  0.163700  0.171930  0.217720  1.0  -0.0829
  C  C1180  1  0.194000  0.184520  0.192360  1.0  -0.0689
  C  C1181  1  0.343900  0.081030  0.282030  1.0  -0.0559
  C  C1182  1  0.321000  0.103450  0.259120  1.0  -0.1513
  C  C1183  1  0.265200  0.114550  0.261830  1.0  0.0166
  C  C1184  1  0.232900  0.102550  0.287150  1.0  -0.0987
  C  C1185  1  0.254400  0.078840  0.310130  1.0  -0.0696
  C  C1186  1  0.310400  0.068660  0.307740  1.0  -0.0943
  C  C1187  1  0.167900  0.207830  0.167790  1.0  0.7413
  C  C1188  1  0.334400  0.044470  0.332320  1.0  0.7066
  C  C1189  1  0.751700  0.677730  0.191890  1.0  -0.1468
  C  C1190  1  0.774300  0.656000  0.215050  1.0  -0.1066
  C  C1191  1  0.743500  0.638670  0.238090  1.0  0.068
  C  C1192  1  0.687500  0.648830  0.239420  1.0  -0.156
  C  C1193  1  0.663700  0.671930  0.217720  1.0  -0.0829
  C  C1194  1  0.694000  0.684520  0.192360  1.0  -0.0689
  C  C1195  1  0.843900  0.581030  0.282030  1.0  -0.0559
  C  C1196  1  0.821000  0.603450  0.259120  1.0  -0.1513
  C  C1197  1  0.765200  0.614550  0.261830  1.0  0.0166
  C  C1198  1  0.732900  0.602550  0.287150  1.0  -0.0987
  C  C1199  1  0.754400  0.578840  0.310130  1.0  -0.0696
  C  C1200  1  0.810400  0.568660  0.307740  1.0  -0.0943
  C  C1201  1  0.667900  0.707830  0.167790  1.0  0.7413
  C  C1202  1  0.834400  0.544470  0.332320  1.0  0.7066
  C  C1203  1  0.751700  0.177730  0.691890  1.0  -0.1468
  C  C1204  1  0.774300  0.156000  0.715050  1.0  -0.1066
  C  C1205  1  0.743500  0.138670  0.738090  1.0  0.068
  C  C1206  1  0.687500  0.148830  0.739420  1.0  -0.156
  C  C1207  1  0.663700  0.171930  0.717720  1.0  -0.0829
  C  C1208  1  0.694000  0.184520  0.692360  1.0  -0.0689
  C  C1209  1  0.843900  0.081030  0.782030  1.0  -0.0559
  C  C1210  1  0.821000  0.103450  0.759120  1.0  -0.1513
  C  C1211  1  0.765200  0.114550  0.761830  1.0  0.0166
  C  C1212  1  0.732900  0.102550  0.787150  1.0  -0.0987
  C  C1213  1  0.754400  0.078840  0.810130  1.0  -0.0696
  C  C1214  1  0.810400  0.068660  0.807740  1.0  -0.0943
  C  C1215  1  0.667900  0.207830  0.667790  1.0  0.7413
  C  C1216  1  0.834400  0.044470  0.832320  1.0  0.7066
  C  C1217  1  0.078800  0.713190  0.444360  1.0  -0.0585
  C  C1218  1  0.053600  0.735190  0.466410  1.0  -0.1177
  C  C1219  1  0.994900  0.734910  0.472740  1.0  0.0788
  C  C1220  1  0.961900  0.711280  0.456020  1.0  -0.1587
  C  C1221  1  0.987300  0.690340  0.433650  1.0  -0.0166
  C  C1222  1  0.045100  0.690210  0.427390  1.0  -0.1201
  C  C1223  1  0.890900  0.792210  0.518430  1.0  -0.0915
  C  C1224  1  0.914700  0.769930  0.495540  1.0  -0.0968
  C  C1225  1  0.971000  0.758810  0.497040  1.0  0.0284
  C  C1226  1  0.004700  0.770490  0.523200  1.0  -0.1291
  C  C1227  1  0.982300  0.793270  0.546060  1.0  -0.0442
  C  C1228  1  0.926800  0.803670  0.543900  1.0  -0.1099
  C  C1229  1  0.071400  0.665960  0.403460  1.0  0.6991
  C  C1230  1  0.903500  0.828720  0.567380  1.0  0.6792
  C  C1231  1  0.078800  0.213190  0.944360  1.0  -0.0585
  C  C1232  1  0.053600  0.235190  0.966410  1.0  -0.1177
  C  C1233  1  0.994900  0.234910  0.972740  1.0  0.0788
  C  C1234  1  0.961900  0.211280  0.956020  1.0  -0.1587
  C  C1235  1  0.987300  0.190340  0.933650  1.0  -0.0166
  C  C1236  1  0.045100  0.190210  0.927390  1.0  -0.1201
  C  C1237  1  0.890900  0.292210  0.018430  1.0  -0.0915
  C  C1238  1  0.914700  0.269930  0.995540  1.0  -0.0968
  C  C1239  1  0.971000  0.258810  0.997040  1.0  0.0284
  C  C1240  1  0.004700  0.270490  0.023200  1.0  -0.1291
  C  C1241  1  0.982300  0.293270  0.046060  1.0  -0.0442
  C  C1242  1  0.926800  0.303670  0.043900  1.0  -0.1099
  C  C1243  1  0.071400  0.165960  0.903460  1.0  0.6991
  C  C1244  1  0.903500  0.328720  0.067380  1.0  0.6792
  C  C1245  1  0.578800  0.713190  0.944360  1.0  -0.0585
  C  C1246  1  0.553600  0.735190  0.966410  1.0  -0.1177
  C  C1247  1  0.494900  0.734910  0.972740  1.0  0.0788
  C  C1248  1  0.461900  0.711280  0.956020  1.0  -0.1587
  C  C1249  1  0.487300  0.690340  0.933650  1.0  -0.0166
  C  C1250  1  0.545100  0.690210  0.927390  1.0  -0.1201
  C  C1251  1  0.390900  0.792210  0.018430  1.0  -0.0915
  C  C1252  1  0.414700  0.769930  0.995540  1.0  -0.0968
  C  C1253  1  0.471000  0.758810  0.997040  1.0  0.0284
  C  C1254  1  0.504700  0.770490  0.023200  1.0  -0.1291
  C  C1255  1  0.482300  0.793270  0.046060  1.0  -0.0442
  C  C1256  1  0.426800  0.803670  0.043900  1.0  -0.1099
  C  C1257  1  0.571400  0.665960  0.903460  1.0  0.6991
  C  C1258  1  0.403500  0.828720  0.067380  1.0  0.6792
  C  C1259  1  0.578800  0.213190  0.444360  1.0  -0.0585
  C  C1260  1  0.553600  0.235190  0.466410  1.0  -0.1177
  C  C1261  1  0.494900  0.234910  0.472740  1.0  0.0788
  C  C1262  1  0.461900  0.211280  0.456020  1.0  -0.1587
  C  C1263  1  0.487300  0.190340  0.433650  1.0  -0.0166
  C  C1264  1  0.545100  0.190210  0.427390  1.0  -0.1201
  C  C1265  1  0.390900  0.292210  0.518430  1.0  -0.0915
  C  C1266  1  0.414700  0.269930  0.495540  1.0  -0.0968
  C  C1267  1  0.471000  0.258810  0.497040  1.0  0.0284
  C  C1268  1  0.504700  0.270490  0.523200  1.0  -0.1291
  C  C1269  1  0.482300  0.293270  0.546060  1.0  -0.0442
  C  C1270  1  0.426800  0.303670  0.543900  1.0  -0.1099
  C  C1271  1  0.571400  0.165960  0.403460  1.0  0.6991
  C  C1272  1  0.403500  0.328720  0.567380  1.0  0.6792
  C  C1273  1  0.671200  0.036810  0.444360  1.0  -0.0598
  C  C1274  1  0.696400  0.014810  0.466410  1.0  -0.1179
  C  C1275  1  0.755100  0.015090  0.472740  1.0  0.0782
  C  C1276  1  0.788100  0.038720  0.456020  1.0  -0.1598
  C  C1277  1  0.762700  0.059660  0.433650  1.0  -0.014
  C  C1278  1  0.704900  0.059790  0.427390  1.0  -0.1177
  C  C1279  1  0.859100  0.957790  0.518430  1.0  -0.091
  C  C1280  1  0.835300  0.980070  0.495540  1.0  -0.0968
  C  C1281  1  0.779000  0.991190  0.497040  1.0  0.0283
  C  C1282  1  0.745300  0.979510  0.523200  1.0  -0.1295
  C  C1283  1  0.767700  0.956730  0.546060  1.0  -0.0436
  C  C1284  1  0.823200  0.946330  0.543900  1.0  -0.1115
  C  C1285  1  0.678600  0.084040  0.403460  1.0  0.6986
  C  C1286  1  0.846500  0.921280  0.567380  1.0  0.6799
  C  C1287  1  0.671200  0.536810  0.944360  1.0  -0.0598
  C  C1288  1  0.696400  0.514810  0.966410  1.0  -0.1179
  C  C1289  1  0.755100  0.515090  0.972740  1.0  0.0782
  C  C1290  1  0.788100  0.538720  0.956020  1.0  -0.1598
  C  C1291  1  0.762700  0.559660  0.933650  1.0  -0.014
  C  C1292  1  0.704900  0.559790  0.927390  1.0  -0.1177
  C  C1293  1  0.859100  0.457790  0.018430  1.0  -0.091
  C  C1294  1  0.835300  0.480070  0.995540  1.0  -0.0968
  C  C1295  1  0.779000  0.491190  0.997040  1.0  0.0283
  C  C1296  1  0.745300  0.479510  0.023200  1.0  -0.1295
  C  C1297  1  0.767700  0.456730  0.046060  1.0  -0.0436
  C  C1298  1  0.823200  0.446330  0.043900  1.0  -0.1115
  C  C1299  1  0.678600  0.584040  0.903460  1.0  0.6986
  C  C1300  1  0.846500  0.421280  0.067380  1.0  0.6799
  C  C1301  1  0.171200  0.036810  0.944360  1.0  -0.0598
  C  C1302  1  0.196400  0.014810  0.966410  1.0  -0.1179
  C  C1303  1  0.255100  0.015090  0.972740  1.0  0.0782
  C  C1304  1  0.288100  0.038720  0.956020  1.0  -0.1598
  C  C1305  1  0.262700  0.059660  0.933650  1.0  -0.014
  C  C1306  1  0.204900  0.059790  0.927390  1.0  -0.1177
  C  C1307  1  0.359100  0.957790  0.018430  1.0  -0.091
  C  C1308  1  0.335300  0.980070  0.995540  1.0  -0.0968
  C  C1309  1  0.279000  0.991190  0.997040  1.0  0.0283
  C  C1310  1  0.245300  0.979510  0.023200  1.0  -0.1295
  C  C1311  1  0.267700  0.956730  0.046060  1.0  -0.0436
  C  C1312  1  0.323200  0.946330  0.043900  1.0  -0.1115
  C  C1313  1  0.178600  0.084040  0.903460  1.0  0.6986
  C  C1314  1  0.346500  0.921280  0.067380  1.0  0.6799
  C  C1315  1  0.171200  0.536810  0.444360  1.0  -0.0598
  C  C1316  1  0.196400  0.514810  0.466410  1.0  -0.1179
  C  C1317  1  0.255100  0.515090  0.472740  1.0  0.0782
  C  C1318  1  0.288100  0.538720  0.456020  1.0  -0.1598
  C  C1319  1  0.262700  0.559660  0.433650  1.0  -0.014
  C  C1320  1  0.204900  0.559790  0.427390  1.0  -0.1177
  C  C1321  1  0.359100  0.457790  0.518430  1.0  -0.091
  C  C1322  1  0.335300  0.480070  0.495540  1.0  -0.0968
  C  C1323  1  0.279000  0.491190  0.497040  1.0  0.0283
  C  C1324  1  0.245300  0.479510  0.523200  1.0  -0.1295
  C  C1325  1  0.267700  0.456730  0.546060  1.0  -0.0436
  C  C1326  1  0.323200  0.446330  0.543900  1.0  -0.1115
  C  C1327  1  0.178600  0.584040  0.403460  1.0  0.6986
  C  C1328  1  0.346500  0.421280  0.567380  1.0  0.6799
  C  C1329  1  0.328800  0.286810  0.694360  1.0  -0.0588
  C  C1330  1  0.303600  0.264810  0.716410  1.0  -0.1171
  C  C1331  1  0.244900  0.265090  0.722740  1.0  0.0783
  C  C1332  1  0.211900  0.288720  0.706020  1.0  -0.1599
  C  C1333  1  0.237300  0.309660  0.683650  1.0  -0.0161
  C  C1334  1  0.295100  0.309790  0.677390  1.0  -0.1186
  C  C1335  1  0.140900  0.207790  0.768430  1.0  -0.0905
  C  C1336  1  0.164700  0.230070  0.745540  1.0  -0.0967
  C  C1337  1  0.221000  0.241190  0.747040  1.0  0.0286
  C  C1338  1  0.254700  0.229510  0.773200  1.0  -0.1295
  C  C1339  1  0.232300  0.206730  0.796060  1.0  -0.0438
  C  C1340  1  0.176800  0.196330  0.793900  1.0  -0.1105
  C  C1341  1  0.321400  0.334040  0.653460  1.0  0.6988
  C  C1342  1  0.153500  0.171280  0.817380  1.0  0.679
  C  C1343  1  0.328800  0.786810  0.194360  1.0  -0.0588
  C  C1344  1  0.303600  0.764810  0.216410  1.0  -0.1171
  C  C1345  1  0.244900  0.765090  0.222740  1.0  0.0783
  C  C1346  1  0.211900  0.788720  0.206020  1.0  -0.1599
  C  C1347  1  0.237300  0.809660  0.183650  1.0  -0.0161
  C  C1348  1  0.295100  0.809790  0.177390  1.0  -0.1186
  C  C1349  1  0.140900  0.707790  0.268430  1.0  -0.0905
  C  C1350  1  0.164700  0.730070  0.245540  1.0  -0.0967
  C  C1351  1  0.221000  0.741190  0.247040  1.0  0.0286
  C  C1352  1  0.254700  0.729510  0.273200  1.0  -0.1295
  C  C1353  1  0.232300  0.706730  0.296060  1.0  -0.0438
  C  C1354  1  0.176800  0.696330  0.293900  1.0  -0.1105
  C  C1355  1  0.321400  0.834040  0.153460  1.0  0.6988
  C  C1356  1  0.153500  0.671280  0.317380  1.0  0.679
  C  C1357  1  0.828800  0.286810  0.194360  1.0  -0.0588
  C  C1358  1  0.803600  0.264810  0.216410  1.0  -0.1171
  C  C1359  1  0.744900  0.265090  0.222740  1.0  0.0783
  C  C1360  1  0.711900  0.288720  0.206020  1.0  -0.1599
  C  C1361  1  0.737300  0.309660  0.183650  1.0  -0.0161
  C  C1362  1  0.795100  0.309790  0.177390  1.0  -0.1186
  C  C1363  1  0.640900  0.207790  0.268430  1.0  -0.0905
  C  C1364  1  0.664700  0.230070  0.245540  1.0  -0.0967
  C  C1365  1  0.721000  0.241190  0.247040  1.0  0.0286
  C  C1366  1  0.754700  0.229510  0.273200  1.0  -0.1295
  C  C1367  1  0.732300  0.206730  0.296060  1.0  -0.0438
  C  C1368  1  0.676800  0.196330  0.293900  1.0  -0.1105
  C  C1369  1  0.821400  0.334040  0.153460  1.0  0.6988
  C  C1370  1  0.653500  0.171280  0.317380  1.0  0.679
  C  C1371  1  0.828800  0.786810  0.694360  1.0  -0.0588
  C  C1372  1  0.803600  0.764810  0.716410  1.0  -0.1171
  C  C1373  1  0.744900  0.765090  0.722740  1.0  0.0783
  C  C1374  1  0.711900  0.788720  0.706020  1.0  -0.1599
  C  C1375  1  0.737300  0.809660  0.683650  1.0  -0.0161
  C  C1376  1  0.795100  0.809790  0.677390  1.0  -0.1186
  C  C1377  1  0.640900  0.707790  0.768430  1.0  -0.0905
  C  C1378  1  0.664700  0.730070  0.745540  1.0  -0.0967
  C  C1379  1  0.721000  0.741190  0.747040  1.0  0.0286
  C  C1380  1  0.754700  0.729510  0.773200  1.0  -0.1295
  C  C1381  1  0.732300  0.706730  0.796060  1.0  -0.0438
  C  C1382  1  0.676800  0.696330  0.793900  1.0  -0.1105
  C  C1383  1  0.821400  0.834040  0.653460  1.0  0.6988
  C  C1384  1  0.653500  0.671280  0.817380  1.0  0.679
  C  C1385  1  0.921200  0.963190  0.694360  1.0  -0.0595
  C  C1386  1  0.946400  0.985190  0.716410  1.0  -0.1187
  C  C1387  1  0.005100  0.984910  0.722740  1.0  0.0785
  C  C1388  1  0.038100  0.961280  0.706020  1.0  -0.1589
  C  C1389  1  0.012700  0.940340  0.683650  1.0  -0.0163
  C  C1390  1  0.954900  0.940210  0.677390  1.0  -0.1191
  C  C1391  1  0.109100  0.042210  0.768430  1.0  -0.0909
  C  C1392  1  0.085300  0.019930  0.745540  1.0  -0.0964
  C  C1393  1  0.029000  0.008810  0.747040  1.0  0.0284
  C  C1394  1  0.995300  0.020490  0.773200  1.0  -0.1294
  C  C1395  1  0.017700  0.043270  0.796060  1.0  -0.044
  C  C1396  1  0.073200  0.053670  0.793900  1.0  -0.1114
  C  C1397  1  0.928600  0.915960  0.653460  1.0  0.6988
  C  C1398  1  0.096500  0.078720  0.817380  1.0  0.6801
  C  C1399  1  0.921200  0.463190  0.194360  1.0  -0.0595
  C  C1400  1  0.946400  0.485190  0.216410  1.0  -0.1187
  C  C1401  1  0.005100  0.484910  0.222740  1.0  0.0785
  C  C1402  1  0.038100  0.461280  0.206020  1.0  -0.1589
  C  C1403  1  0.012700  0.440340  0.183650  1.0  -0.0163
  C  C1404  1  0.954900  0.440210  0.177390  1.0  -0.1191
  C  C1405  1  0.109100  0.542210  0.268430  1.0  -0.0909
  C  C1406  1  0.085300  0.519930  0.245540  1.0  -0.0964
  C  C1407  1  0.029000  0.508810  0.247040  1.0  0.0284
  C  C1408  1  0.995300  0.520490  0.273200  1.0  -0.1294
  C  C1409  1  0.017700  0.543270  0.296060  1.0  -0.044
  C  C1410  1  0.073200  0.553670  0.293900  1.0  -0.1114
  C  C1411  1  0.928600  0.415960  0.153460  1.0  0.6988
  C  C1412  1  0.096500  0.578720  0.317380  1.0  0.6801
  C  C1413  1  0.421200  0.963190  0.194360  1.0  -0.0595
  C  C1414  1  0.446400  0.985190  0.216410  1.0  -0.1187
  C  C1415  1  0.505100  0.984910  0.222740  1.0  0.0785
  C  C1416  1  0.538100  0.961280  0.206020  1.0  -0.1589
  C  C1417  1  0.512700  0.940340  0.183650  1.0  -0.0163
  C  C1418  1  0.454900  0.940210  0.177390  1.0  -0.1191
  C  C1419  1  0.609100  0.042210  0.268430  1.0  -0.0909
  C  C1420  1  0.585300  0.019930  0.245540  1.0  -0.0964
  C  C1421  1  0.529000  0.008810  0.247040  1.0  0.0284
  C  C1422  1  0.495300  0.020490  0.273200  1.0  -0.1294
  C  C1423  1  0.517700  0.043270  0.296060  1.0  -0.044
  C  C1424  1  0.573200  0.053670  0.293900  1.0  -0.1114
  C  C1425  1  0.428600  0.915960  0.153460  1.0  0.6988
  C  C1426  1  0.596500  0.078720  0.317380  1.0  0.6801
  C  C1427  1  0.421200  0.463190  0.694360  1.0  -0.0595
  C  C1428  1  0.446400  0.485190  0.716410  1.0  -0.1187
  C  C1429  1  0.505100  0.484910  0.722740  1.0  0.0785
  C  C1430  1  0.538100  0.461280  0.706020  1.0  -0.1589
  C  C1431  1  0.512700  0.440340  0.683650  1.0  -0.0163
  C  C1432  1  0.454900  0.440210  0.677390  1.0  -0.1191
  C  C1433  1  0.609100  0.542210  0.768430  1.0  -0.0909
  C  C1434  1  0.585300  0.519930  0.745540  1.0  -0.0964
  C  C1435  1  0.529000  0.508810  0.747040  1.0  0.0284
  C  C1436  1  0.495300  0.520490  0.773200  1.0  -0.1294
  C  C1437  1  0.517700  0.543270  0.796060  1.0  -0.044
  C  C1438  1  0.573200  0.553670  0.793900  1.0  -0.1114
  C  C1439  1  0.428600  0.415960  0.653460  1.0  0.6988
  C  C1440  1  0.596500  0.578720  0.817380  1.0  0.6801
  O  O1441  1  0.624030  0.664890  0.348040  1.0  -0.567
  O  O1442  1  0.708490  0.647710  0.364140  1.0  -0.5455
  O  O1443  1  0.897110  0.835970  0.180990  1.0  -0.5441
  O  O1444  1  0.811320  0.843230  0.162560  1.0  -0.629
  O  O1445  1  0.624030  0.164890  0.848040  1.0  -0.567
  O  O1446  1  0.708490  0.147710  0.864140  1.0  -0.5455
  O  O1447  1  0.897110  0.335970  0.680990  1.0  -0.5441
  O  O1448  1  0.811320  0.343230  0.662560  1.0  -0.629
  O  O1449  1  0.124030  0.664890  0.848040  1.0  -0.567
  O  O1450  1  0.208490  0.647710  0.864140  1.0  -0.5455
  O  O1451  1  0.397110  0.835970  0.680990  1.0  -0.5441
  O  O1452  1  0.311320  0.843230  0.662560  1.0  -0.629
  O  O1453  1  0.124030  0.164890  0.348040  1.0  -0.567
  O  O1454  1  0.208490  0.147710  0.364140  1.0  -0.5455
  O  O1455  1  0.397110  0.335970  0.180990  1.0  -0.5441
  O  O1456  1  0.311320  0.343230  0.162560  1.0  -0.629
  O  O1457  1  0.125970  0.085110  0.348040  1.0  -0.5676
  O  O1458  1  0.041510  0.102290  0.364140  1.0  -0.5432
  O  O1459  1  0.852890  0.914030  0.180990  1.0  -0.5476
  O  O1460  1  0.938680  0.906770  0.162560  1.0  -0.6304
  O  O1461  1  0.125970  0.585110  0.848040  1.0  -0.5676
  O  O1462  1  0.041510  0.602290  0.864140  1.0  -0.5432
  O  O1463  1  0.852890  0.414030  0.680990  1.0  -0.5476
  O  O1464  1  0.938680  0.406770  0.662560  1.0  -0.6304
  O  O1465  1  0.625970  0.085110  0.848040  1.0  -0.5676
  O  O1466  1  0.541510  0.102290  0.864140  1.0  -0.5432
  O  O1467  1  0.352890  0.914030  0.680990  1.0  -0.5476
  O  O1468  1  0.438680  0.906770  0.662560  1.0  -0.6304
  O  O1469  1  0.625970  0.585110  0.348040  1.0  -0.5676
  O  O1470  1  0.541510  0.602290  0.364140  1.0  -0.5432
  O  O1471  1  0.352890  0.414030  0.180990  1.0  -0.5476
  O  O1472  1  0.438680  0.406770  0.162560  1.0  -0.6304
  O  O1473  1  0.874030  0.335110  0.598040  1.0  -0.5675
  O  O1474  1  0.958490  0.352290  0.614140  1.0  -0.5463
  O  O1475  1  0.147110  0.164030  0.430990  1.0  -0.5437
  O  O1476  1  0.061320  0.156770  0.412560  1.0  -0.6291
  O  O1477  1  0.874030  0.835110  0.098040  1.0  -0.5675
  O  O1478  1  0.958490  0.852290  0.114140  1.0  -0.5463
  O  O1479  1  0.147110  0.664030  0.930990  1.0  -0.5437
  O  O1480  1  0.061320  0.656770  0.912560  1.0  -0.6291
  O  O1481  1  0.374030  0.335110  0.098040  1.0  -0.5675
  O  O1482  1  0.458490  0.352290  0.114140  1.0  -0.5463
  O  O1483  1  0.647110  0.164030  0.930990  1.0  -0.5437
  O  O1484  1  0.561320  0.156770  0.912560  1.0  -0.6291
  O  O1485  1  0.374030  0.835110  0.598040  1.0  -0.5675
  O  O1486  1  0.458490  0.852290  0.614140  1.0  -0.5463
  O  O1487  1  0.647110  0.664030  0.430990  1.0  -0.5437
  O  O1488  1  0.561320  0.656770  0.412560  1.0  -0.6291
  O  O1489  1  0.375970  0.914890  0.598040  1.0  -0.5672
  O  O1490  1  0.291510  0.897710  0.614140  1.0  -0.5435
  O  O1491  1  0.102890  0.085970  0.430990  1.0  -0.5472
  O  O1492  1  0.188680  0.093230  0.412560  1.0  -0.63
  O  O1493  1  0.375970  0.414890  0.098040  1.0  -0.5672
  O  O1494  1  0.291510  0.397710  0.114140  1.0  -0.5435
  O  O1495  1  0.102890  0.585970  0.930990  1.0  -0.5472
  O  O1496  1  0.188680  0.593230  0.912560  1.0  -0.63
  O  O1497  1  0.875970  0.914890  0.098040  1.0  -0.5672
  O  O1498  1  0.791510  0.897710  0.114140  1.0  -0.5435
  O  O1499  1  0.602890  0.085970  0.930990  1.0  -0.5472
  O  O1500  1  0.688680  0.093230  0.912560  1.0  -0.63
  O  O1501  1  0.875970  0.414890  0.598040  1.0  -0.5672
  O  O1502  1  0.791510  0.397710  0.614140  1.0  -0.5435
  O  O1503  1  0.602890  0.585970  0.430990  1.0  -0.5472
  O  O1504  1  0.688680  0.593230  0.412560  1.0  -0.63
  O  O1505  1  0.947540  0.278710  0.396850  1.0  -0.5638
  O  O1506  1  0.866860  0.286700  0.418310  1.0  -0.5601
  O  O1507  1  0.138250  0.458730  0.583730  1.0  -0.5778
  O  O1508  1  0.052250  0.471030  0.600780  1.0  -0.555
  O  O1509  1  0.947540  0.778710  0.896850  1.0  -0.5638
  O  O1510  1  0.866860  0.786700  0.918310  1.0  -0.5601
  O  O1511  1  0.138250  0.958730  0.083730  1.0  -0.5778
  O  O1512  1  0.052250  0.971030  0.100780  1.0  -0.555
  O  O1513  1  0.447540  0.278710  0.896850  1.0  -0.5638
  O  O1514  1  0.366860  0.286700  0.918310  1.0  -0.5601
  O  O1515  1  0.638250  0.458730  0.083730  1.0  -0.5778
  O  O1516  1  0.552250  0.471030  0.100780  1.0  -0.555
  O  O1517  1  0.447540  0.778710  0.396850  1.0  -0.5638
  O  O1518  1  0.366860  0.786700  0.418310  1.0  -0.5601
  O  O1519  1  0.638250  0.958730  0.583730  1.0  -0.5778
  O  O1520  1  0.552250  0.971030  0.600780  1.0  -0.555
  O  O1521  1  0.802460  0.278710  0.353150  1.0  -0.5661
  O  O1522  1  0.883140  0.286700  0.331690  1.0  -0.5551
  O  O1523  1  0.611750  0.458730  0.166270  1.0  -0.5778
  O  O1524  1  0.697750  0.471030  0.149220  1.0  -0.556
  O  O1525  1  0.802460  0.778710  0.853150  1.0  -0.5661
  O  O1526  1  0.883140  0.786700  0.831690  1.0  -0.5551
  O  O1527  1  0.611750  0.958730  0.666270  1.0  -0.5778
  O  O1528  1  0.697750  0.971030  0.649220  1.0  -0.556
  O  O1529  1  0.302460  0.278710  0.853150  1.0  -0.5661
  O  O1530  1  0.383140  0.286700  0.831690  1.0  -0.5551
  O  O1531  1  0.111750  0.458730  0.666270  1.0  -0.5778
  O  O1532  1  0.197750  0.471030  0.649220  1.0  -0.556
  O  O1533  1  0.302460  0.778710  0.353150  1.0  -0.5661
  O  O1534  1  0.383140  0.786700  0.331690  1.0  -0.5551
  O  O1535  1  0.111750  0.958730  0.166270  1.0  -0.5778
  O  O1536  1  0.197750  0.971030  0.149220  1.0  -0.556
  O  O1537  1  0.197540  0.528710  0.603150  1.0  -0.5651
  O  O1538  1  0.116860  0.536700  0.581690  1.0  -0.5604
  O  O1539  1  0.388250  0.708730  0.416270  1.0  -0.5778
  O  O1540  1  0.302250  0.721030  0.399220  1.0  -0.5552
  O  O1541  1  0.197540  0.028710  0.103150  1.0  -0.5651
  O  O1542  1  0.116860  0.036700  0.081690  1.0  -0.5604
  O  O1543  1  0.388250  0.208730  0.916270  1.0  -0.5778
  O  O1544  1  0.302250  0.221030  0.899220  1.0  -0.5552
  O  O1545  1  0.697540  0.528710  0.103150  1.0  -0.5651
  O  O1546  1  0.616860  0.536700  0.081690  1.0  -0.5604
  O  O1547  1  0.888250  0.708730  0.916270  1.0  -0.5778
  O  O1548  1  0.802250  0.721030  0.899220  1.0  -0.5552
  O  O1549  1  0.697540  0.028710  0.603150  1.0  -0.5651
  O  O1550  1  0.616860  0.036700  0.581690  1.0  -0.5604
  O  O1551  1  0.888250  0.208730  0.416270  1.0  -0.5778
  O  O1552  1  0.802250  0.221030  0.399220  1.0  -0.5552
  O  O1553  1  0.052460  0.528710  0.646850  1.0  -0.5635
  O  O1554  1  0.133140  0.536700  0.668310  1.0  -0.5551
  O  O1555  1  0.861750  0.708730  0.833730  1.0  -0.5776
  O  O1556  1  0.947750  0.721030  0.850780  1.0  -0.5566
  O  O1557  1  0.052460  0.028710  0.146850  1.0  -0.5635
  O  O1558  1  0.133140  0.036700  0.168310  1.0  -0.5551
  O  O1559  1  0.861750  0.208730  0.333730  1.0  -0.5776
  O  O1560  1  0.947750  0.221030  0.350780  1.0  -0.5566
  O  O1561  1  0.552460  0.528710  0.146850  1.0  -0.5635
  O  O1562  1  0.633140  0.536700  0.168310  1.0  -0.5551
  O  O1563  1  0.361750  0.708730  0.333730  1.0  -0.5776
  O  O1564  1  0.447750  0.721030  0.350780  1.0  -0.5566
  O  O1565  1  0.552460  0.028710  0.646850  1.0  -0.5635
  O  O1566  1  0.633140  0.036700  0.668310  1.0  -0.5551
  O  O1567  1  0.361750  0.208730  0.833730  1.0  -0.5776
  O  O1568  1  0.447750  0.221030  0.850780  1.0  -0.5566
  O  O1569  1  0.802460  0.471290  0.396850  1.0  -0.5632
  O  O1570  1  0.883140  0.463300  0.418310  1.0  -0.5546
  O  O1571  1  0.611750  0.291270  0.583730  1.0  -0.5779
  O  O1572  1  0.697750  0.278970  0.600780  1.0  -0.5575
  O  O1573  1  0.802460  0.971290  0.896850  1.0  -0.5632
  O  O1574  1  0.883140  0.963300  0.918310  1.0  -0.5546
  O  O1575  1  0.611750  0.791270  0.083730  1.0  -0.5779
  O  O1576  1  0.697750  0.778970  0.100780  1.0  -0.5575
  O  O1577  1  0.302460  0.471290  0.896850  1.0  -0.5632
  O  O1578  1  0.383140  0.463300  0.918310  1.0  -0.5546
  O  O1579  1  0.111750  0.291270  0.083730  1.0  -0.5779
  O  O1580  1  0.197750  0.278970  0.100780  1.0  -0.5575
  O  O1581  1  0.302460  0.971290  0.396850  1.0  -0.5632
  O  O1582  1  0.383140  0.963300  0.418310  1.0  -0.5546
  O  O1583  1  0.111750  0.791270  0.583730  1.0  -0.5779
  O  O1584  1  0.197750  0.778970  0.600780  1.0  -0.5575
  O  O1585  1  0.947540  0.471290  0.353150  1.0  -0.5653
  O  O1586  1  0.866860  0.463300  0.331690  1.0  -0.5594
  O  O1587  1  0.138250  0.291270  0.166270  1.0  -0.5776
  O  O1588  1  0.052250  0.278970  0.149220  1.0  -0.5553
  O  O1589  1  0.947540  0.971290  0.853150  1.0  -0.5653
  O  O1590  1  0.866860  0.963300  0.831690  1.0  -0.5594
  O  O1591  1  0.138250  0.791270  0.666270  1.0  -0.5776
  O  O1592  1  0.052250  0.778970  0.649220  1.0  -0.5553
  O  O1593  1  0.447540  0.471290  0.853150  1.0  -0.5653
  O  O1594  1  0.366860  0.463300  0.831690  1.0  -0.5594
  O  O1595  1  0.638250  0.291270  0.666270  1.0  -0.5776
  O  O1596  1  0.552250  0.278970  0.649220  1.0  -0.5553
  O  O1597  1  0.447540  0.971290  0.353150  1.0  -0.5653
  O  O1598  1  0.366860  0.963300  0.331690  1.0  -0.5594
  O  O1599  1  0.638250  0.791270  0.166270  1.0  -0.5776
  O  O1600  1  0.552250  0.778970  0.149220  1.0  -0.5553
  O  O1601  1  0.052460  0.721290  0.603150  1.0  -0.5657
  O  O1602  1  0.133140  0.713300  0.581690  1.0  -0.5546
  O  O1603  1  0.861750  0.541270  0.416270  1.0  -0.5778
  O  O1604  1  0.947750  0.528970  0.399220  1.0  -0.5569
  O  O1605  1  0.052460  0.221290  0.103150  1.0  -0.5657
  O  O1606  1  0.133140  0.213300  0.081690  1.0  -0.5546
  O  O1607  1  0.861750  0.041270  0.916270  1.0  -0.5778
  O  O1608  1  0.947750  0.028970  0.899220  1.0  -0.5569
  O  O1609  1  0.552460  0.721290  0.103150  1.0  -0.5657
  O  O1610  1  0.633140  0.713300  0.081690  1.0  -0.5546
  O  O1611  1  0.361750  0.541270  0.916270  1.0  -0.5778
  O  O1612  1  0.447750  0.528970  0.899220  1.0  -0.5569
  O  O1613  1  0.552460  0.221290  0.603150  1.0  -0.5657
  O  O1614  1  0.633140  0.213300  0.581690  1.0  -0.5546
  O  O1615  1  0.361750  0.041270  0.416270  1.0  -0.5778
  O  O1616  1  0.447750  0.028970  0.399220  1.0  -0.5569
  O  O1617  1  0.197540  0.721290  0.646850  1.0  -0.5637
  O  O1618  1  0.116860  0.713300  0.668310  1.0  -0.5592
  O  O1619  1  0.388250  0.541270  0.833730  1.0  -0.5777
  O  O1620  1  0.302250  0.528970  0.850780  1.0  -0.5551
  O  O1621  1  0.197540  0.221290  0.146850  1.0  -0.5637
  O  O1622  1  0.116860  0.213300  0.168310  1.0  -0.5592
  O  O1623  1  0.388250  0.041270  0.333730  1.0  -0.5777
  O  O1624  1  0.302250  0.028970  0.350780  1.0  -0.5551
  O  O1625  1  0.697540  0.721290  0.146850  1.0  -0.5637
  O  O1626  1  0.616860  0.713300  0.168310  1.0  -0.5592
  O  O1627  1  0.888250  0.541270  0.333730  1.0  -0.5777
  O  O1628  1  0.802250  0.528970  0.350780  1.0  -0.5551
  O  O1629  1  0.697540  0.221290  0.646850  1.0  -0.5637
  O  O1630  1  0.616860  0.213300  0.668310  1.0  -0.5592
  O  O1631  1  0.888250  0.041270  0.833730  1.0  -0.5777
  O  O1632  1  0.802250  0.028970  0.850780  1.0  -0.5551
  O  O1633  1  0.125970  0.664890  0.401960  1.0  -0.5681
  O  O1634  1  0.041510  0.647710  0.385860  1.0  -0.5438
  O  O1635  1  0.852890  0.835970  0.569010  1.0  -0.548
  O  O1636  1  0.938680  0.843230  0.587440  1.0  -0.6285
  O  O1637  1  0.125970  0.164890  0.901960  1.0  -0.5681
  O  O1638  1  0.041510  0.147710  0.885860  1.0  -0.5438
  O  O1639  1  0.852890  0.335970  0.069010  1.0  -0.548
  O  O1640  1  0.938680  0.343230  0.087440  1.0  -0.6285
  O  O1641  1  0.625970  0.664890  0.901960  1.0  -0.5681
  O  O1642  1  0.541510  0.647710  0.885860  1.0  -0.5438
  O  O1643  1  0.352890  0.835970  0.069010  1.0  -0.548
  O  O1644  1  0.438680  0.843230  0.087440  1.0  -0.6285
  O  O1645  1  0.625970  0.164890  0.401960  1.0  -0.5681
  O  O1646  1  0.541510  0.147710  0.385860  1.0  -0.5438
  O  O1647  1  0.352890  0.335970  0.569010  1.0  -0.548
  O  O1648  1  0.438680  0.343230  0.587440  1.0  -0.6285
  O  O1649  1  0.624030  0.085110  0.401960  1.0  -0.5687
  O  O1650  1  0.708490  0.102290  0.385860  1.0  -0.5453
  O  O1651  1  0.897110  0.914030  0.569010  1.0  -0.5443
  O  O1652  1  0.811320  0.906770  0.587440  1.0  -0.6271
  O  O1653  1  0.624030  0.585110  0.901960  1.0  -0.5687
  O  O1654  1  0.708490  0.602290  0.885860  1.0  -0.5453
  O  O1655  1  0.897110  0.414030  0.069010  1.0  -0.5443
  O  O1656  1  0.811320  0.406770  0.087440  1.0  -0.6271
  O  O1657  1  0.124030  0.085110  0.901960  1.0  -0.5687
  O  O1658  1  0.208490  0.102290  0.885860  1.0  -0.5453
  O  O1659  1  0.397110  0.914030  0.069010  1.0  -0.5443
  O  O1660  1  0.311320  0.906770  0.087440  1.0  -0.6271
  O  O1661  1  0.124030  0.585110  0.401960  1.0  -0.5687
  O  O1662  1  0.208490  0.602290  0.385860  1.0  -0.5453
  O  O1663  1  0.397110  0.414030  0.569010  1.0  -0.5443
  O  O1664  1  0.311320  0.406770  0.587440  1.0  -0.6271
  O  O1665  1  0.375970  0.335110  0.651960  1.0  -0.5686
  O  O1666  1  0.291510  0.352290  0.635860  1.0  -0.544
  O  O1667  1  0.102890  0.164030  0.819010  1.0  -0.548
  O  O1668  1  0.188680  0.156770  0.837440  1.0  -0.6282
  O  O1669  1  0.375970  0.835110  0.151960  1.0  -0.5686
  O  O1670  1  0.291510  0.852290  0.135860  1.0  -0.544
  O  O1671  1  0.102890  0.664030  0.319010  1.0  -0.548
  O  O1672  1  0.188680  0.656770  0.337440  1.0  -0.6282
  O  O1673  1  0.875970  0.335110  0.151960  1.0  -0.5686
  O  O1674  1  0.791510  0.352290  0.135860  1.0  -0.544
  O  O1675  1  0.602890  0.164030  0.319010  1.0  -0.548
  O  O1676  1  0.688680  0.156770  0.337440  1.0  -0.6282
  O  O1677  1  0.875970  0.835110  0.651960  1.0  -0.5686
  O  O1678  1  0.791510  0.852290  0.635860  1.0  -0.544
  O  O1679  1  0.602890  0.664030  0.819010  1.0  -0.548
  O  O1680  1  0.688680  0.656770  0.837440  1.0  -0.6282
  O  O1681  1  0.874030  0.914890  0.651960  1.0  -0.5679
  O  O1682  1  0.958490  0.897710  0.635860  1.0  -0.5451
  O  O1683  1  0.147110  0.085970  0.819010  1.0  -0.5449
  O  O1684  1  0.061320  0.093230  0.837440  1.0  -0.6279
  O  O1685  1  0.874030  0.414890  0.151960  1.0  -0.5679
  O  O1686  1  0.958490  0.397710  0.135860  1.0  -0.5451
  O  O1687  1  0.147110  0.585970  0.319010  1.0  -0.5449
  O  O1688  1  0.061320  0.593230  0.337440  1.0  -0.6279
  O  O1689  1  0.374030  0.914890  0.151960  1.0  -0.5679
  O  O1690  1  0.458490  0.897710  0.135860  1.0  -0.5451
  O  O1691  1  0.647110  0.085970  0.319010  1.0  -0.5449
  O  O1692  1  0.561320  0.093230  0.337440  1.0  -0.6279
  O  O1693  1  0.374030  0.414890  0.651960  1.0  -0.5679
  O  O1694  1  0.458490  0.397710  0.635860  1.0  -0.5451
  O  O1695  1  0.647110  0.585970  0.819010  1.0  -0.5449
  O  O1696  1  0.561320  0.593230  0.837440  1.0  -0.6279
