# generated using pymatgen
data_CoH16C26(SN5)2
_symmetry_space_group_name_H-M   'P 1'
_cell_length_a   53.02740000
_cell_length_b   53.02740000
_cell_length_c   53.02740000
_cell_angle_alpha   60.00000000
_cell_angle_beta   60.00000000
_cell_angle_gamma   60.00000000
_symmetry_Int_Tables_number   1
_chemical_formula_structural   CoH16C26(SN5)2
_chemical_formula_sum   'Co48 H768 C1248 S96 N480'
_cell_volume   105435.29149954
_cell_formula_units_Z   48
loop_
 _symmetry_equiv_pos_site_id
 _symmetry_equiv_pos_as_xyz
  1  'x, y, z'
loop_
 _atom_site_type_symbol
 _atom_site_label
 _atom_site_symmetry_multiplicity
 _atom_site_fract_x
 _atom_site_fract_y
 _atom_site_fract_z
 _atom_site_occupancy
 _atom_site_charge
  Co  Co1  1  0.014360  0.485640  0.750000  1.0  0.6866
  Co  Co2  1  0.485640  0.014360  0.250000  1.0  0.6869
  Co  Co3  1  0.750000  0.250000  0.014360  1.0  0.6883
  Co  Co4  1  0.250000  0.750000  0.485640  1.0  0.6866
  Co  Co5  1  0.750000  0.014360  0.485640  1.0  0.686
  Co  Co6  1  0.250000  0.485640  0.014360  1.0  0.6865
  Co  Co7  1  0.014360  0.750000  0.250000  1.0  0.6863
  Co  Co8  1  0.485640  0.250000  0.750000  1.0  0.6865
  Co  Co9  1  0.485640  0.750000  0.014360  1.0  0.687
  Co  Co10  1  0.014360  0.250000  0.485640  1.0  0.6858
  Co  Co11  1  0.250000  0.014360  0.750000  1.0  0.6865
  Co  Co12  1  0.750000  0.485640  0.250000  1.0  0.686
  Co  Co13  1  0.985640  0.514360  0.250000  1.0  0.6869
  Co  Co14  1  0.514360  0.985640  0.750000  1.0  0.6866
  Co  Co15  1  0.250000  0.750000  0.985640  1.0  0.6866
  Co  Co16  1  0.750000  0.250000  0.514360  1.0  0.6883
  Co  Co17  1  0.250000  0.985640  0.514360  1.0  0.6865
  Co  Co18  1  0.750000  0.514360  0.985640  1.0  0.686
  Co  Co19  1  0.985640  0.250000  0.750000  1.0  0.6865
  Co  Co20  1  0.514360  0.750000  0.250000  1.0  0.6863
  Co  Co21  1  0.514360  0.250000  0.985640  1.0  0.6858
  Co  Co22  1  0.985640  0.750000  0.514360  1.0  0.687
  Co  Co23  1  0.750000  0.985640  0.250000  1.0  0.686
  Co  Co24  1  0.250000  0.514360  0.750000  1.0  0.6865
  Co  Co25  1  0.999480  0.250520  0.999480  1.0  0.6654
  Co  Co26  1  0.250520  0.999480  0.250520  1.0  0.665
  Co  Co27  1  0.999480  0.999480  0.250520  1.0  0.6665
  Co  Co28  1  0.250520  0.250520  0.999480  1.0  0.6652
  Co  Co29  1  0.250520  0.999480  0.999480  1.0  0.6653
  Co  Co30  1  0.999480  0.250520  0.250520  1.0  0.6651
  Co  Co31  1  0.500520  0.249480  0.249480  1.0  0.6653
  Co  Co32  1  0.249480  0.500520  0.500520  1.0  0.6651
  Co  Co33  1  0.500520  0.500520  0.249480  1.0  0.6652
  Co  Co34  1  0.249480  0.249480  0.500520  1.0  0.6665
  Co  Co35  1  0.249480  0.500520  0.249480  1.0  0.6654
  Co  Co36  1  0.500520  0.249480  0.500520  1.0  0.665
  Co  Co37  1  0.000520  0.749480  0.000520  1.0  0.665
  Co  Co38  1  0.749480  0.000520  0.749480  1.0  0.6654
  Co  Co39  1  0.000520  0.000520  0.749480  1.0  0.6652
  Co  Co40  1  0.749480  0.749480  0.000520  1.0  0.6665
  Co  Co41  1  0.749480  0.000520  0.000520  1.0  0.6651
  Co  Co42  1  0.000520  0.749480  0.749480  1.0  0.6653
  Co  Co43  1  0.499480  0.750520  0.750520  1.0  0.6651
  Co  Co44  1  0.750520  0.499480  0.499480  1.0  0.6653
  Co  Co45  1  0.499480  0.499480  0.750520  1.0  0.6665
  Co  Co46  1  0.750520  0.750520  0.499480  1.0  0.6652
  Co  Co47  1  0.750520  0.499480  0.750520  1.0  0.665
  Co  Co48  1  0.499480  0.750520  0.499480  1.0  0.6654
  H  H49  1  0.010100  0.437900  0.735700  1.0  0.0883
  H  H50  1  0.011000  0.387400  0.757600  1.0  0.1247
  H  H51  1  0.043300  0.373900  0.819500  1.0  0.1229
  H  H52  1  0.043900  0.424100  0.794100  1.0  0.0938
  H  H53  1  0.008500  0.299300  0.735900  1.0  0.086
  H  H54  1  0.017900  0.321100  0.757100  1.0  0.13
  H  H55  1  0.997100  0.254500  0.839100  1.0  0.1246
  H  H56  1  0.987700  0.235100  0.815300  1.0  0.0886
  H  H57  1  0.021700  0.228700  0.944900  1.0  0.0867
  H  H58  1  0.026600  0.247400  0.893800  1.0  0.1316
  H  H59  1  0.999300  0.333700  0.893700  1.0  0.1239
  H  H60  1  0.993500  0.312300  0.946300  1.0  0.0959
  H  H61  1  0.978200  0.268800  0.057200  1.0  0.0832
  H  H62  1  0.972600  0.246800  0.108400  1.0  0.1212
  H  H63  1  0.998300  0.164300  0.102700  1.0  0.1253
  H  H64  1  0.007800  0.188400  0.049800  1.0  0.0955
  H  H65  1  0.437900  0.010100  0.316300  1.0  0.0889
  H  H66  1  0.387400  0.011000  0.344000  1.0  0.1247
  H  H67  1  0.373900  0.043300  0.263300  1.0  0.1232
  H  H68  1  0.424100  0.043900  0.237900  1.0  0.0953
  H  H69  1  0.299300  0.008500  0.456300  1.0  0.0861
  H  H70  1  0.321100  0.017900  0.403900  1.0  0.1288
  H  H71  1  0.254500  0.997100  0.409300  1.0  0.1247
  H  H72  1  0.235100  0.987700  0.461900  1.0  0.0892
  H  H73  1  0.228700  0.021700  0.304700  1.0  0.0845
  H  H74  1  0.247400  0.026600  0.332200  1.0  0.1323
  H  H75  1  0.333700  0.999300  0.273300  1.0  0.1232
  H  H76  1  0.312300  0.993500  0.247900  1.0  0.0973
  H  H77  1  0.268800  0.978200  0.195800  1.0  0.0817
  H  H78  1  0.246800  0.972600  0.172200  1.0  0.1204
  H  H79  1  0.164300  0.998300  0.234700  1.0  0.1245
  H  H80  1  0.188400  0.007800  0.254000  1.0  0.096
  H  H81  1  0.735700  0.316300  0.010100  1.0  0.087
  H  H82  1  0.757600  0.344000  0.011000  1.0  0.1256
  H  H83  1  0.819500  0.263300  0.043300  1.0  0.1239
  H  H84  1  0.794100  0.237900  0.043900  1.0  0.0936
  H  H85  1  0.735900  0.456300  0.008500  1.0  0.0854
  H  H86  1  0.757100  0.403900  0.017900  1.0  0.1298
  H  H87  1  0.839100  0.409300  0.997100  1.0  0.1253
  H  H88  1  0.815300  0.461900  0.987700  1.0  0.0887
  H  H89  1  0.944900  0.304700  0.021700  1.0  0.0856
  H  H90  1  0.893800  0.332200  0.026600  1.0  0.1317
  H  H91  1  0.893700  0.273300  0.999300  1.0  0.1237
  H  H92  1  0.946300  0.247900  0.993500  1.0  0.0951
  H  H93  1  0.057200  0.195800  0.978200  1.0  0.0807
  H  H94  1  0.108400  0.172200  0.972600  1.0  0.1197
  H  H95  1  0.102700  0.234700  0.998300  1.0  0.1249
  H  H96  1  0.049800  0.254000  0.007800  1.0  0.0952
  H  H97  1  0.316300  0.735700  0.437900  1.0  0.0887
  H  H98  1  0.344000  0.757600  0.387400  1.0  0.1257
  H  H99  1  0.263300  0.819500  0.373900  1.0  0.1226
  H  H100  1  0.237900  0.794100  0.424100  1.0  0.0943
  H  H101  1  0.456300  0.735900  0.299300  1.0  0.0865
  H  H102  1  0.403900  0.757100  0.321100  1.0  0.1298
  H  H103  1  0.409300  0.839100  0.254500  1.0  0.1249
  H  H104  1  0.461900  0.815300  0.235100  1.0  0.0892
  H  H105  1  0.304700  0.944900  0.228700  1.0  0.0843
  H  H106  1  0.332200  0.893800  0.247400  1.0  0.1314
  H  H107  1  0.273300  0.893700  0.333700  1.0  0.1241
  H  H108  1  0.247900  0.946300  0.312300  1.0  0.0953
  H  H109  1  0.195800  0.057200  0.268800  1.0  0.081
  H  H110  1  0.172200  0.108400  0.246800  1.0  0.1199
  H  H111  1  0.234700  0.102700  0.164300  1.0  0.1248
  H  H112  1  0.254000  0.049800  0.188400  1.0  0.0943
  H  H113  1  0.735700  0.010100  0.437900  1.0  0.0897
  H  H114  1  0.757600  0.011000  0.387400  1.0  0.1258
  H  H115  1  0.819500  0.043300  0.373900  1.0  0.1227
  H  H116  1  0.794100  0.043900  0.424100  1.0  0.0934
  H  H117  1  0.735900  0.008500  0.299300  1.0  0.087
  H  H118  1  0.757100  0.017900  0.321100  1.0  0.1304
  H  H119  1  0.839100  0.997100  0.254500  1.0  0.1246
  H  H120  1  0.815300  0.987700  0.235100  1.0  0.0906
  H  H121  1  0.944900  0.021700  0.228700  1.0  0.0847
  H  H122  1  0.893800  0.026600  0.247400  1.0  0.1311
  H  H123  1  0.893700  0.999300  0.333700  1.0  0.1239
  H  H124  1  0.946300  0.993500  0.312300  1.0  0.0986
  H  H125  1  0.057200  0.978200  0.268800  1.0  0.0822
  H  H126  1  0.108400  0.972600  0.246800  1.0  0.1195
  H  H127  1  0.102700  0.998300  0.164300  1.0  0.1251
  H  H128  1  0.049800  0.007800  0.188400  1.0  0.0977
  H  H129  1  0.316300  0.437900  0.010100  1.0  0.0888
  H  H130  1  0.344000  0.387400  0.011000  1.0  0.1244
  H  H131  1  0.263300  0.373900  0.043300  1.0  0.1236
  H  H132  1  0.237900  0.424100  0.043900  1.0  0.0945
  H  H133  1  0.456300  0.299300  0.008500  1.0  0.0868
  H  H134  1  0.403900  0.321100  0.017900  1.0  0.1292
  H  H135  1  0.409300  0.254500  0.997100  1.0  0.1242
  H  H136  1  0.461900  0.235100  0.987700  1.0  0.0871
  H  H137  1  0.304700  0.228700  0.021700  1.0  0.0853
  H  H138  1  0.332200  0.247400  0.026600  1.0  0.1317
  H  H139  1  0.273300  0.333700  0.999300  1.0  0.1244
  H  H140  1  0.247900  0.312300  0.993500  1.0  0.0977
  H  H141  1  0.195800  0.268800  0.978200  1.0  0.0829
  H  H142  1  0.172200  0.246800  0.972600  1.0  0.1208
  H  H143  1  0.234700  0.164300  0.998300  1.0  0.1253
  H  H144  1  0.254000  0.188400  0.007800  1.0  0.0962
  H  H145  1  0.010100  0.735700  0.316300  1.0  0.0891
  H  H146  1  0.011000  0.757600  0.344000  1.0  0.1262
  H  H147  1  0.043300  0.819500  0.263300  1.0  0.1242
  H  H148  1  0.043900  0.794100  0.237900  1.0  0.0935
  H  H149  1  0.008500  0.735900  0.456300  1.0  0.0883
  H  H150  1  0.017900  0.757100  0.403900  1.0  0.1301
  H  H151  1  0.997100  0.839100  0.409300  1.0  0.1253
  H  H152  1  0.987700  0.815300  0.461900  1.0  0.0887
  H  H153  1  0.021700  0.944900  0.304700  1.0  0.0863
  H  H154  1  0.026600  0.893800  0.332200  1.0  0.1311
  H  H155  1  0.999300  0.893700  0.273300  1.0  0.1239
  H  H156  1  0.993500  0.946300  0.247900  1.0  0.0979
  H  H157  1  0.978200  0.057200  0.195800  1.0  0.0818
  H  H158  1  0.972600  0.108400  0.172200  1.0  0.1196
  H  H159  1  0.998300  0.102700  0.234700  1.0  0.1246
  H  H160  1  0.007800  0.049800  0.254000  1.0  0.0974
  H  H161  1  0.437900  0.316300  0.735700  1.0  0.0873
  H  H162  1  0.387400  0.344000  0.757600  1.0  0.1256
  H  H163  1  0.373900  0.263300  0.819500  1.0  0.1239
  H  H164  1  0.424100  0.237900  0.794100  1.0  0.0947
  H  H165  1  0.299300  0.456300  0.735900  1.0  0.086
  H  H166  1  0.321100  0.403900  0.757100  1.0  0.1293
  H  H167  1  0.254500  0.409300  0.839100  1.0  0.1253
  H  H168  1  0.235100  0.461900  0.815300  1.0  0.0876
  H  H169  1  0.228700  0.304700  0.944900  1.0  0.0851
  H  H170  1  0.247400  0.332200  0.893800  1.0  0.1316
  H  H171  1  0.333700  0.273300  0.893700  1.0  0.1239
  H  H172  1  0.312300  0.247900  0.946300  1.0  0.0965
  H  H173  1  0.268800  0.195800  0.057200  1.0  0.0815
  H  H174  1  0.246800  0.172200  0.108400  1.0  0.1192
  H  H175  1  0.164300  0.234700  0.102700  1.0  0.1246
  H  H176  1  0.188400  0.254000  0.049800  1.0  0.0959
  H  H177  1  0.437900  0.735700  0.010100  1.0  0.0879
  H  H178  1  0.387400  0.757600  0.011000  1.0  0.1257
  H  H179  1  0.373900  0.819500  0.043300  1.0  0.1234
  H  H180  1  0.424100  0.794100  0.043900  1.0  0.0947
  H  H181  1  0.299300  0.735900  0.008500  1.0  0.0865
  H  H182  1  0.321100  0.757100  0.017900  1.0  0.1302
  H  H183  1  0.254500  0.839100  0.997100  1.0  0.1251
  H  H184  1  0.235100  0.815300  0.987700  1.0  0.0888
  H  H185  1  0.228700  0.944900  0.021700  1.0  0.084
  H  H186  1  0.247400  0.893800  0.026600  1.0  0.132
  H  H187  1  0.333700  0.893700  0.999300  1.0  0.124
  H  H188  1  0.312300  0.946300  0.993500  1.0  0.0965
  H  H189  1  0.268800  0.057200  0.978200  1.0  0.0813
  H  H190  1  0.246800  0.108400  0.972600  1.0  0.1202
  H  H191  1  0.164300  0.102700  0.998300  1.0  0.1239
  H  H192  1  0.188400  0.049800  0.007800  1.0  0.0961
  H  H193  1  0.010100  0.316300  0.437900  1.0  0.0882
  H  H194  1  0.011000  0.344000  0.387400  1.0  0.1257
  H  H195  1  0.043300  0.263300  0.373900  1.0  0.1235
  H  H196  1  0.043900  0.237900  0.424100  1.0  0.0953
  H  H197  1  0.008500  0.456300  0.299300  1.0  0.0883
  H  H198  1  0.017900  0.403900  0.321100  1.0  0.1288
  H  H199  1  0.997100  0.409300  0.254500  1.0  0.1238
  H  H200  1  0.987700  0.461900  0.235100  1.0  0.0892
  H  H201  1  0.021700  0.304700  0.228700  1.0  0.0849
  H  H202  1  0.026600  0.332200  0.247400  1.0  0.1324
  H  H203  1  0.999300  0.273300  0.333700  1.0  0.1236
  H  H204  1  0.993500  0.247900  0.312300  1.0  0.0979
  H  H205  1  0.978200  0.195800  0.268800  1.0  0.081
  H  H206  1  0.972600  0.172200  0.246800  1.0  0.1205
  H  H207  1  0.998300  0.234700  0.164300  1.0  0.125
  H  H208  1  0.007800  0.254000  0.188400  1.0  0.0971
  H  H209  1  0.316300  0.010100  0.735700  1.0  0.09
  H  H210  1  0.344000  0.011000  0.757600  1.0  0.1247
  H  H211  1  0.263300  0.043300  0.819500  1.0  0.1235
  H  H212  1  0.237900  0.043900  0.794100  1.0  0.0944
  H  H213  1  0.456300  0.008500  0.735900  1.0  0.0889
  H  H214  1  0.403900  0.017900  0.757100  1.0  0.1297
  H  H215  1  0.409300  0.997100  0.839100  1.0  0.1242
  H  H216  1  0.461900  0.987700  0.815300  1.0  0.0897
  H  H217  1  0.304700  0.021700  0.944900  1.0  0.0852
  H  H218  1  0.332200  0.026600  0.893800  1.0  0.1312
  H  H219  1  0.273300  0.999300  0.893700  1.0  0.1236
  H  H220  1  0.247900  0.993500  0.946300  1.0  0.0972
  H  H221  1  0.195800  0.978200  0.057200  1.0  0.0812
  H  H222  1  0.172200  0.972600  0.108400  1.0  0.1198
  H  H223  1  0.234700  0.998300  0.102700  1.0  0.1247
  H  H224  1  0.254000  0.007800  0.049800  1.0  0.0959
  H  H225  1  0.735700  0.437900  0.316300  1.0  0.089
  H  H226  1  0.757600  0.387400  0.344000  1.0  0.1256
  H  H227  1  0.819500  0.373900  0.263300  1.0  0.1228
  H  H228  1  0.794100  0.424100  0.237900  1.0  0.0927
  H  H229  1  0.735900  0.299300  0.456300  1.0  0.0864
  H  H230  1  0.757100  0.321100  0.403900  1.0  0.13
  H  H231  1  0.839100  0.254500  0.409300  1.0  0.125
  H  H232  1  0.815300  0.235100  0.461900  1.0  0.0879
  H  H233  1  0.944900  0.228700  0.304700  1.0  0.0844
  H  H234  1  0.893800  0.247400  0.332200  1.0  0.1311
  H  H235  1  0.893700  0.333700  0.273300  1.0  0.1241
  H  H236  1  0.946300  0.312300  0.247900  1.0  0.0976
  H  H237  1  0.057200  0.268800  0.195800  1.0  0.0808
  H  H238  1  0.108400  0.246800  0.172200  1.0  0.1207
  H  H239  1  0.102700  0.164300  0.234700  1.0  0.1245
  H  H240  1  0.049800  0.188400  0.254000  1.0  0.0963
  H  H241  1  0.489900  0.062100  0.183700  1.0  0.0879
  H  H242  1  0.489000  0.112600  0.156000  1.0  0.1247
  H  H243  1  0.456700  0.126100  0.236700  1.0  0.1227
  H  H244  1  0.456100  0.075900  0.262100  1.0  0.0944
  H  H245  1  0.491500  0.200700  0.043700  1.0  0.086
  H  H246  1  0.482100  0.178900  0.096100  1.0  0.1294
  H  H247  1  0.502900  0.245500  0.090700  1.0  0.1243
  H  H248  1  0.512300  0.264900  0.038100  1.0  0.0889
  H  H249  1  0.478300  0.271300  0.195300  1.0  0.0865
  H  H250  1  0.473400  0.252600  0.167800  1.0  0.1322
  H  H251  1  0.500700  0.166300  0.226700  1.0  0.1241
  H  H252  1  0.506500  0.187700  0.252100  1.0  0.0966
  H  H253  1  0.521800  0.231200  0.304200  1.0  0.0826
  H  H254  1  0.527400  0.253200  0.327800  1.0  0.1211
  H  H255  1  0.501700  0.335700  0.265300  1.0  0.1254
  H  H256  1  0.492200  0.311600  0.246000  1.0  0.096
  H  H257  1  0.062100  0.489900  0.764300  1.0  0.089
  H  H258  1  0.112600  0.489000  0.742400  1.0  0.1244
  H  H259  1  0.126100  0.456700  0.680500  1.0  0.1227
  H  H260  1  0.075900  0.456100  0.705900  1.0  0.0954
  H  H261  1  0.200700  0.491500  0.764100  1.0  0.0857
  H  H262  1  0.178900  0.482100  0.742900  1.0  0.1299
  H  H263  1  0.245500  0.502900  0.660900  1.0  0.1246
  H  H264  1  0.264900  0.512300  0.684700  1.0  0.0902
  H  H265  1  0.271300  0.478300  0.555100  1.0  0.0847
  H  H266  1  0.252600  0.473400  0.606200  1.0  0.1321
  H  H267  1  0.166300  0.500700  0.606300  1.0  0.1241
  H  H268  1  0.187700  0.506500  0.553700  1.0  0.0959
  H  H269  1  0.231200  0.521800  0.442800  1.0  0.0813
  H  H270  1  0.253200  0.527400  0.391600  1.0  0.1204
  H  H271  1  0.335700  0.501700  0.397300  1.0  0.1242
  H  H272  1  0.311600  0.492200  0.450200  1.0  0.0956
  H  H273  1  0.764300  0.183700  0.062100  1.0  0.088
  H  H274  1  0.742400  0.156000  0.112600  1.0  0.1254
  H  H275  1  0.680500  0.236700  0.126100  1.0  0.1242
  H  H276  1  0.705900  0.262100  0.075900  1.0  0.0938
  H  H277  1  0.764100  0.043700  0.200700  1.0  0.086
  H  H278  1  0.742900  0.096100  0.178900  1.0  0.1299
  H  H279  1  0.660900  0.090700  0.245500  1.0  0.1252
  H  H280  1  0.684700  0.038100  0.264900  1.0  0.0885
  H  H281  1  0.555100  0.195300  0.271300  1.0  0.086
  H  H282  1  0.606200  0.167800  0.252600  1.0  0.1316
  H  H283  1  0.606300  0.226700  0.166300  1.0  0.1239
  H  H284  1  0.553700  0.252100  0.187700  1.0  0.0954
  H  H285  1  0.442800  0.304200  0.231200  1.0  0.0807
  H  H286  1  0.391600  0.327800  0.253200  1.0  0.1205
  H  H287  1  0.397300  0.265300  0.335700  1.0  0.125
  H  H288  1  0.450200  0.246000  0.311600  1.0  0.095
  H  H289  1  0.183700  0.764300  0.489900  1.0  0.0878
  H  H290  1  0.156000  0.742400  0.489000  1.0  0.1259
  H  H291  1  0.236700  0.680500  0.456700  1.0  0.1222
  H  H292  1  0.262100  0.705900  0.456100  1.0  0.0942
  H  H293  1  0.043700  0.764100  0.491500  1.0  0.0858
  H  H294  1  0.096100  0.742900  0.482100  1.0  0.1292
  H  H295  1  0.090700  0.660900  0.502900  1.0  0.1244
  H  H296  1  0.038100  0.684700  0.512300  1.0  0.0889
  H  H297  1  0.195300  0.555100  0.478300  1.0  0.0846
  H  H298  1  0.167800  0.606200  0.473400  1.0  0.1314
  H  H299  1  0.226700  0.606300  0.500700  1.0  0.1238
  H  H300  1  0.252100  0.553700  0.506500  1.0  0.095
  H  H301  1  0.304200  0.442800  0.521800  1.0  0.0809
  H  H302  1  0.327800  0.391600  0.527400  1.0  0.1198
  H  H303  1  0.265300  0.397300  0.501700  1.0  0.1249
  H  H304  1  0.246000  0.450200  0.492200  1.0  0.0944
  H  H305  1  0.764300  0.489900  0.183700  1.0  0.0902
  H  H306  1  0.742400  0.489000  0.156000  1.0  0.1259
  H  H307  1  0.680500  0.456700  0.236700  1.0  0.1237
  H  H308  1  0.705900  0.456100  0.262100  1.0  0.0943
  H  H309  1  0.764100  0.491500  0.043700  1.0  0.0871
  H  H310  1  0.742900  0.482100  0.096100  1.0  0.1299
  H  H311  1  0.660900  0.502900  0.090700  1.0  0.1245
  H  H312  1  0.684700  0.512300  0.038100  1.0  0.0898
  H  H313  1  0.555100  0.478300  0.195300  1.0  0.0841
  H  H314  1  0.606200  0.473400  0.167800  1.0  0.131
  H  H315  1  0.606300  0.500700  0.226700  1.0  0.1241
  H  H316  1  0.553700  0.506500  0.252100  1.0  0.0984
  H  H317  1  0.442800  0.521800  0.304200  1.0  0.0821
  H  H318  1  0.391600  0.527400  0.327800  1.0  0.1195
  H  H319  1  0.397300  0.501700  0.265300  1.0  0.1251
  H  H320  1  0.450200  0.492200  0.246000  1.0  0.098
  H  H321  1  0.183700  0.062100  0.764300  1.0  0.0902
  H  H322  1  0.156000  0.112600  0.742400  1.0  0.1247
  H  H323  1  0.236700  0.126100  0.680500  1.0  0.1238
  H  H324  1  0.262100  0.075900  0.705900  1.0  0.0948
  H  H325  1  0.043700  0.200700  0.764100  1.0  0.087
  H  H326  1  0.096100  0.178900  0.742900  1.0  0.1291
  H  H327  1  0.090700  0.245500  0.660900  1.0  0.1245
  H  H328  1  0.038100  0.264900  0.684700  1.0  0.0876
  H  H329  1  0.195300  0.271300  0.555100  1.0  0.0852
  H  H330  1  0.167800  0.252600  0.606200  1.0  0.1324
  H  H331  1  0.226700  0.166300  0.606300  1.0  0.1243
  H  H332  1  0.252100  0.187700  0.553700  1.0  0.0981
  H  H333  1  0.304200  0.231200  0.442800  1.0  0.0826
  H  H334  1  0.327800  0.253200  0.391600  1.0  0.1202
  H  H335  1  0.265300  0.335700  0.397300  1.0  0.1253
  H  H336  1  0.246000  0.311600  0.450200  1.0  0.0963
  H  H337  1  0.489900  0.764300  0.062100  1.0  0.0877
  H  H338  1  0.489000  0.742400  0.112600  1.0  0.1256
  H  H339  1  0.456700  0.680500  0.126100  1.0  0.1234
  H  H340  1  0.456100  0.705900  0.075900  1.0  0.093
  H  H341  1  0.491500  0.764100  0.200700  1.0  0.0884
  H  H342  1  0.482100  0.742900  0.178900  1.0  0.1304
  H  H343  1  0.502900  0.660900  0.245500  1.0  0.1252
  H  H344  1  0.512300  0.684700  0.264900  1.0  0.0893
  H  H345  1  0.478300  0.555100  0.271300  1.0  0.0859
  H  H346  1  0.473400  0.606200  0.252600  1.0  0.1312
  H  H347  1  0.500700  0.606300  0.166300  1.0  0.1236
  H  H348  1  0.506500  0.553700  0.187700  1.0  0.098
  H  H349  1  0.521800  0.442800  0.231200  1.0  0.0818
  H  H350  1  0.527400  0.391600  0.253200  1.0  0.1195
  H  H351  1  0.501700  0.397300  0.335700  1.0  0.1248
  H  H352  1  0.492200  0.450200  0.311600  1.0  0.0982
  H  H353  1  0.062100  0.183700  0.489900  1.0  0.0894
  H  H354  1  0.112600  0.156000  0.489000  1.0  0.1253
  H  H355  1  0.126100  0.236700  0.456700  1.0  0.1243
  H  H356  1  0.075900  0.262100  0.456100  1.0  0.0944
  H  H357  1  0.200700  0.043700  0.491500  1.0  0.0849
  H  H358  1  0.178900  0.096100  0.482100  1.0  0.1299
  H  H359  1  0.245500  0.090700  0.502900  1.0  0.1251
  H  H360  1  0.264900  0.038100  0.512300  1.0  0.088
  H  H361  1  0.271300  0.195300  0.478300  1.0  0.0857
  H  H362  1  0.252600  0.167800  0.473400  1.0  0.1307
  H  H363  1  0.166300  0.226700  0.500700  1.0  0.1245
  H  H364  1  0.187700  0.252100  0.506500  1.0  0.096
  H  H365  1  0.231200  0.304200  0.521800  1.0  0.082
  H  H366  1  0.253200  0.327800  0.527400  1.0  0.1198
  H  H367  1  0.335700  0.265300  0.501700  1.0  0.1241
  H  H368  1  0.311600  0.246000  0.492200  1.0  0.0951
  H  H369  1  0.062100  0.764300  0.183700  1.0  0.0869
  H  H370  1  0.112600  0.742400  0.156000  1.0  0.1256
  H  H371  1  0.126100  0.680500  0.236700  1.0  0.1233
  H  H372  1  0.075900  0.705900  0.262100  1.0  0.0943
  H  H373  1  0.200700  0.764100  0.043700  1.0  0.0869
  H  H374  1  0.178900  0.742900  0.096100  1.0  0.1307
  H  H375  1  0.245500  0.660900  0.090700  1.0  0.1252
  H  H376  1  0.264900  0.684700  0.038100  1.0  0.0889
  H  H377  1  0.271300  0.555100  0.195300  1.0  0.0845
  H  H378  1  0.252600  0.606200  0.167800  1.0  0.132
  H  H379  1  0.166300  0.606300  0.226700  1.0  0.1244
  H  H380  1  0.187700  0.553700  0.252100  1.0  0.0955
  H  H381  1  0.231200  0.442800  0.304200  1.0  0.0811
  H  H382  1  0.253200  0.391600  0.327800  1.0  0.1206
  H  H383  1  0.335700  0.397300  0.265300  1.0  0.1237
  H  H384  1  0.311600  0.450200  0.246000  1.0  0.0965
  H  H385  1  0.489900  0.183700  0.764300  1.0  0.0899
  H  H386  1  0.489000  0.156000  0.742400  1.0  0.1256
  H  H387  1  0.456700  0.236700  0.680500  1.0  0.1242
  H  H388  1  0.456100  0.262100  0.705900  1.0  0.0947
  H  H389  1  0.491500  0.043700  0.764100  1.0  0.0879
  H  H390  1  0.482100  0.096100  0.742900  1.0  0.1294
  H  H391  1  0.502900  0.090700  0.660900  1.0  0.1239
  H  H392  1  0.512300  0.038100  0.684700  1.0  0.0894
  H  H393  1  0.478300  0.195300  0.555100  1.0  0.0854
  H  H394  1  0.473400  0.167800  0.606200  1.0  0.1319
  H  H395  1  0.500700  0.226700  0.606300  1.0  0.1235
  H  H396  1  0.506500  0.252100  0.553700  1.0  0.0979
  H  H397  1  0.521800  0.304200  0.442800  1.0  0.0803
  H  H398  1  0.527400  0.327800  0.391600  1.0  0.1204
  H  H399  1  0.501700  0.265300  0.397300  1.0  0.1252
  H  H400  1  0.492200  0.246000  0.450200  1.0  0.0973
  H  H401  1  0.183700  0.489900  0.062100  1.0  0.0913
  H  H402  1  0.156000  0.489000  0.112600  1.0  0.1254
  H  H403  1  0.236700  0.456700  0.126100  1.0  0.1232
  H  H404  1  0.262100  0.456100  0.075900  1.0  0.0932
  H  H405  1  0.043700  0.491500  0.200700  1.0  0.0884
  H  H406  1  0.096100  0.482100  0.178900  1.0  0.1293
  H  H407  1  0.090700  0.502900  0.245500  1.0  0.1241
  H  H408  1  0.038100  0.512300  0.264900  1.0  0.0894
  H  H409  1  0.195300  0.478300  0.271300  1.0  0.0853
  H  H410  1  0.167800  0.473400  0.252600  1.0  0.132
  H  H411  1  0.226700  0.500700  0.166300  1.0  0.1238
  H  H412  1  0.252100  0.506500  0.187700  1.0  0.0979
  H  H413  1  0.304200  0.521800  0.231200  1.0  0.082
  H  H414  1  0.327800  0.527400  0.253200  1.0  0.1203
  H  H415  1  0.265300  0.501700  0.335700  1.0  0.1255
  H  H416  1  0.246000  0.492200  0.311600  1.0  0.0974
  H  H417  1  0.764300  0.062100  0.489900  1.0  0.088
  H  H418  1  0.742400  0.112600  0.489000  1.0  0.1251
  H  H419  1  0.680500  0.126100  0.456700  1.0  0.1231
  H  H420  1  0.705900  0.075900  0.456100  1.0  0.0926
  H  H421  1  0.764100  0.200700  0.491500  1.0  0.0865
  H  H422  1  0.742900  0.178900  0.482100  1.0  0.1292
  H  H423  1  0.660900  0.245500  0.502900  1.0  0.1253
  H  H424  1  0.684700  0.264900  0.512300  1.0  0.0875
  H  H425  1  0.555100  0.271300  0.478300  1.0  0.0836
  H  H426  1  0.606200  0.252600  0.473400  1.0  0.1311
  H  H427  1  0.606300  0.166300  0.500700  1.0  0.124
  H  H428  1  0.553700  0.187700  0.506500  1.0  0.0986
  H  H429  1  0.442800  0.231200  0.521800  1.0  0.0804
  H  H430  1  0.391600  0.253200  0.527400  1.0  0.1203
  H  H431  1  0.397300  0.335700  0.501700  1.0  0.1244
  H  H432  1  0.450200  0.311600  0.492200  1.0  0.0965
  H  H433  1  0.989900  0.562100  0.264300  1.0  0.0878
  H  H434  1  0.989000  0.612600  0.242400  1.0  0.1245
  H  H435  1  0.956700  0.626100  0.180500  1.0  0.1224
  H  H436  1  0.956100  0.575900  0.205900  1.0  0.0943
  H  H437  1  0.991500  0.700700  0.264100  1.0  0.0852
  H  H438  1  0.982100  0.678900  0.242900  1.0  0.1297
  H  H439  1  0.002900  0.745500  0.160900  1.0  0.1242
  H  H440  1  0.012300  0.764900  0.184700  1.0  0.0888
  H  H441  1  0.978300  0.771300  0.055100  1.0  0.087
  H  H442  1  0.973400  0.752600  0.106200  1.0  0.1328
  H  H443  1  0.000700  0.666300  0.106300  1.0  0.1243
  H  H444  1  0.006500  0.687700  0.053700  1.0  0.0972
  H  H445  1  0.021800  0.731200  0.942800  1.0  0.0823
  H  H446  1  0.027400  0.753200  0.891600  1.0  0.1208
  H  H447  1  0.001700  0.835700  0.897300  1.0  0.1252
  H  H448  1  0.992200  0.811600  0.950200  1.0  0.0955
  H  H449  1  0.562100  0.989900  0.683700  1.0  0.0895
  H  H450  1  0.612600  0.989000  0.656000  1.0  0.1246
  H  H451  1  0.626100  0.956700  0.736700  1.0  0.1229
  H  H452  1  0.575900  0.956100  0.762100  1.0  0.0951
  H  H453  1  0.700700  0.991500  0.543700  1.0  0.086
  H  H454  1  0.678900  0.982100  0.596100  1.0  0.1297
  H  H455  1  0.745500  0.002900  0.590700  1.0  0.1245
  H  H456  1  0.764900  0.012300  0.538100  1.0  0.0897
  H  H457  1  0.771300  0.978300  0.695300  1.0  0.0848
  H  H458  1  0.752600  0.973400  0.667800  1.0  0.1319
  H  H459  1  0.666300  0.000700  0.726700  1.0  0.1238
  H  H460  1  0.687700  0.006500  0.752100  1.0  0.0952
  H  H461  1  0.731200  0.021800  0.804200  1.0  0.0825
  H  H462  1  0.753200  0.027400  0.827800  1.0  0.1205
  H  H463  1  0.835700  0.001700  0.765300  1.0  0.1242
  H  H464  1  0.811600  0.992200  0.746000  1.0  0.096
  H  H465  1  0.264300  0.683700  0.989900  1.0  0.0886
  H  H466  1  0.242400  0.656000  0.989000  1.0  0.1254
  H  H467  1  0.180500  0.736700  0.956700  1.0  0.124
  H  H468  1  0.205900  0.762100  0.956100  1.0  0.0936
  H  H469  1  0.264100  0.543700  0.991500  1.0  0.0859
  H  H470  1  0.242900  0.596100  0.982100  1.0  0.1293
  H  H471  1  0.160900  0.590700  0.002900  1.0  0.1251
  H  H472  1  0.184700  0.538100  0.012300  1.0  0.0885
  H  H473  1  0.055100  0.695300  0.978300  1.0  0.0856
  H  H474  1  0.106200  0.667800  0.973400  1.0  0.1312
  H  H475  1  0.106300  0.726700  0.000700  1.0  0.1243
  H  H476  1  0.053700  0.752100  0.006500  1.0  0.0955
  H  H477  1  0.942800  0.804200  0.021800  1.0  0.0811
  H  H478  1  0.891600  0.827800  0.027400  1.0  0.1203
  H  H479  1  0.897300  0.765300  0.001700  1.0  0.1249
  H  H480  1  0.950200  0.746000  0.992200  1.0  0.0934
  H  H481  1  0.683700  0.264300  0.562100  1.0  0.0875
  H  H482  1  0.656000  0.242400  0.612600  1.0  0.1258
  H  H483  1  0.736700  0.180500  0.626100  1.0  0.1225
  H  H484  1  0.762100  0.205900  0.575900  1.0  0.0936
  H  H485  1  0.543700  0.264100  0.700700  1.0  0.0863
  H  H486  1  0.596100  0.242900  0.678900  1.0  0.1301
  H  H487  1  0.590700  0.160900  0.745500  1.0  0.1246
  H  H488  1  0.538100  0.184700  0.764900  1.0  0.0887
  H  H489  1  0.695300  0.055100  0.771300  1.0  0.0846
  H  H490  1  0.667800  0.106200  0.752600  1.0  0.1312
  H  H491  1  0.726700  0.106300  0.666300  1.0  0.1236
  H  H492  1  0.752100  0.053700  0.687700  1.0  0.0946
  H  H493  1  0.804200  0.942800  0.731200  1.0  0.0805
  H  H494  1  0.827800  0.891600  0.753200  1.0  0.1196
  H  H495  1  0.765300  0.897300  0.835700  1.0  0.1249
  H  H496  1  0.746000  0.950200  0.811600  1.0  0.0958
  H  H497  1  0.264300  0.989900  0.562100  1.0  0.0894
  H  H498  1  0.242400  0.989000  0.612600  1.0  0.1257
  H  H499  1  0.180500  0.956700  0.626100  1.0  0.124
  H  H500  1  0.205900  0.956100  0.575900  1.0  0.0939
  H  H501  1  0.264100  0.991500  0.700700  1.0  0.0873
  H  H502  1  0.242900  0.982100  0.678900  1.0  0.1299
  H  H503  1  0.160900  0.002900  0.745500  1.0  0.1247
  H  H504  1  0.184700  0.012300  0.764900  1.0  0.0898
  H  H505  1  0.055100  0.978300  0.771300  1.0  0.0855
  H  H506  1  0.106200  0.973400  0.752600  1.0  0.1311
  H  H507  1  0.106300  0.000700  0.666300  1.0  0.1238
  H  H508  1  0.053700  0.006500  0.687700  1.0  0.0991
  H  H509  1  0.942800  0.021800  0.731200  1.0  0.0818
  H  H510  1  0.891600  0.027400  0.753200  1.0  0.1197
  H  H511  1  0.897300  0.001700  0.835700  1.0  0.1247
  H  H512  1  0.950200  0.992200  0.811600  1.0  0.0987
  H  H513  1  0.683700  0.562100  0.989900  1.0  0.09
  H  H514  1  0.656000  0.612600  0.989000  1.0  0.1247
  H  H515  1  0.736700  0.626100  0.956700  1.0  0.1234
  H  H516  1  0.762100  0.575900  0.956100  1.0  0.0949
  H  H517  1  0.543700  0.700700  0.991500  1.0  0.0859
  H  H518  1  0.596100  0.678900  0.982100  1.0  0.1289
  H  H519  1  0.590700  0.745500  0.002900  1.0  0.1247
  H  H520  1  0.538100  0.764900  0.012300  1.0  0.0874
  H  H521  1  0.695300  0.771300  0.978300  1.0  0.0854
  H  H522  1  0.667800  0.752600  0.973400  1.0  0.1325
  H  H523  1  0.726700  0.666300  0.000700  1.0  0.1247
  H  H524  1  0.752100  0.687700  0.006500  1.0  0.0979
  H  H525  1  0.804200  0.731200  0.021800  1.0  0.0826
  H  H526  1  0.827800  0.753200  0.027400  1.0  0.1202
  H  H527  1  0.765300  0.835700  0.001700  1.0  0.1253
  H  H528  1  0.746000  0.811600  0.992200  1.0  0.0962
  H  H529  1  0.989900  0.264300  0.683700  1.0  0.0878
  H  H530  1  0.989000  0.242400  0.656000  1.0  0.1256
  H  H531  1  0.956700  0.180500  0.736700  1.0  0.1231
  H  H532  1  0.956100  0.205900  0.762100  1.0  0.0934
  H  H533  1  0.991500  0.264100  0.543700  1.0  0.0889
  H  H534  1  0.982100  0.242900  0.596100  1.0  0.1303
  H  H535  1  0.002900  0.160900  0.590700  1.0  0.1249
  H  H536  1  0.012300  0.184700  0.538100  1.0  0.0894
  H  H537  1  0.978300  0.055100  0.695300  1.0  0.085
  H  H538  1  0.973400  0.106200  0.667800  1.0  0.1311
  H  H539  1  0.000700  0.106300  0.726700  1.0  0.1238
  H  H540  1  0.006500  0.053700  0.752100  1.0  0.0972
  H  H541  1  0.021800  0.942800  0.804200  1.0  0.0823
  H  H542  1  0.027400  0.891600  0.827800  1.0  0.1197
  H  H543  1  0.001700  0.897300  0.765300  1.0  0.1253
  H  H544  1  0.992200  0.950200  0.746000  1.0  0.0973
  H  H545  1  0.562100  0.683700  0.264300  1.0  0.0895
  H  H546  1  0.612600  0.656000  0.242400  1.0  0.1254
  H  H547  1  0.626100  0.736700  0.180500  1.0  0.1247
  H  H548  1  0.575900  0.762100  0.205900  1.0  0.0941
  H  H549  1  0.700700  0.543700  0.264100  1.0  0.0859
  H  H550  1  0.678900  0.596100  0.242900  1.0  0.1298
  H  H551  1  0.745500  0.590700  0.160900  1.0  0.1251
  H  H552  1  0.764900  0.538100  0.184700  1.0  0.0881
  H  H553  1  0.771300  0.695300  0.055100  1.0  0.0856
  H  H554  1  0.752600  0.667800  0.106200  1.0  0.1306
  H  H555  1  0.666300  0.726700  0.106300  1.0  0.1243
  H  H556  1  0.687700  0.752100  0.053700  1.0  0.0965
  H  H557  1  0.731200  0.804200  0.942800  1.0  0.0822
  H  H558  1  0.753200  0.827800  0.891600  1.0  0.1201
  H  H559  1  0.835700  0.765300  0.897300  1.0  0.1243
  H  H560  1  0.811600  0.746000  0.950200  1.0  0.0955
  H  H561  1  0.562100  0.264300  0.989900  1.0  0.0874
  H  H562  1  0.612600  0.242400  0.989000  1.0  0.1253
  H  H563  1  0.626100  0.180500  0.956700  1.0  0.1227
  H  H564  1  0.575900  0.205900  0.956100  1.0  0.0941
  H  H565  1  0.700700  0.264100  0.991500  1.0  0.0876
  H  H566  1  0.678900  0.242900  0.982100  1.0  0.1309
  H  H567  1  0.745500  0.160900  0.002900  1.0  0.1255
  H  H568  1  0.764900  0.184700  0.012300  1.0  0.0885
  H  H569  1  0.771300  0.055100  0.978300  1.0  0.0844
  H  H570  1  0.752600  0.106200  0.973400  1.0  0.1314
  H  H571  1  0.666300  0.106300  0.000700  1.0  0.1245
  H  H572  1  0.687700  0.053700  0.006500  1.0  0.0955
  H  H573  1  0.731200  0.942800  0.021800  1.0  0.081
  H  H574  1  0.753200  0.891600  0.027400  1.0  0.1206
  H  H575  1  0.835700  0.897300  0.001700  1.0  0.1236
  H  H576  1  0.811600  0.950200  0.992200  1.0  0.0962
  H  H577  1  0.989900  0.683700  0.562100  1.0  0.0892
  H  H578  1  0.989000  0.656000  0.612600  1.0  0.1259
  H  H579  1  0.956700  0.736700  0.626100  1.0  0.1245
  H  H580  1  0.956100  0.762100  0.575900  1.0  0.0948
  H  H581  1  0.991500  0.543700  0.700700  1.0  0.0877
  H  H582  1  0.982100  0.596100  0.678900  1.0  0.1297
  H  H583  1  0.002900  0.590700  0.745500  1.0  0.1243
  H  H584  1  0.012300  0.538100  0.764900  1.0  0.0881
  H  H585  1  0.978300  0.695300  0.771300  1.0  0.0858
  H  H586  1  0.973400  0.667800  0.752600  1.0  0.1319
  H  H587  1  0.000700  0.726700  0.666300  1.0  0.1238
  H  H588  1  0.006500  0.752100  0.687700  1.0  0.0983
  H  H589  1  0.021800  0.804200  0.731200  1.0  0.0814
  H  H590  1  0.027400  0.827800  0.753200  1.0  0.1207
  H  H591  1  0.001700  0.765300  0.835700  1.0  0.1254
  H  H592  1  0.992200  0.746000  0.811600  1.0  0.0968
  H  H593  1  0.683700  0.989900  0.264300  1.0  0.0917
  H  H594  1  0.656000  0.989000  0.242400  1.0  0.1252
  H  H595  1  0.736700  0.956700  0.180500  1.0  0.123
  H  H596  1  0.762100  0.956100  0.205900  1.0  0.0936
  H  H597  1  0.543700  0.991500  0.264100  1.0  0.0885
  H  H598  1  0.596100  0.982100  0.242900  1.0  0.1291
  H  H599  1  0.590700  0.002900  0.160900  1.0  0.1238
  H  H600  1  0.538100  0.012300  0.184700  1.0  0.0911
  H  H601  1  0.695300  0.978300  0.055100  1.0  0.0848
  H  H602  1  0.667800  0.973400  0.106200  1.0  0.132
  H  H603  1  0.726700  0.000700  0.106300  1.0  0.1234
  H  H604  1  0.752100  0.006500  0.053700  1.0  0.0968
  H  H605  1  0.804200  0.021800  0.942800  1.0  0.0809
  H  H606  1  0.827800  0.027400  0.891600  1.0  0.1198
  H  H607  1  0.765300  0.001700  0.897300  1.0  0.1251
  H  H608  1  0.746000  0.992200  0.950200  1.0  0.0972
  H  H609  1  0.264300  0.562100  0.683700  1.0  0.0875
  H  H610  1  0.242400  0.612600  0.656000  1.0  0.1255
  H  H611  1  0.180500  0.626100  0.736700  1.0  0.1233
  H  H612  1  0.205900  0.575900  0.762100  1.0  0.0934
  H  H613  1  0.264100  0.700700  0.543700  1.0  0.086
  H  H614  1  0.242900  0.678900  0.596100  1.0  0.1291
  H  H615  1  0.160900  0.745500  0.590700  1.0  0.1251
  H  H616  1  0.184700  0.764900  0.538100  1.0  0.0882
  H  H617  1  0.055100  0.771300  0.695300  1.0  0.0841
  H  H618  1  0.106200  0.752600  0.667800  1.0  0.1317
  H  H619  1  0.106300  0.666300  0.726700  1.0  0.124
  H  H620  1  0.053700  0.687700  0.752100  1.0  0.0988
  H  H621  1  0.942800  0.731200  0.804200  1.0  0.0809
  H  H622  1  0.891600  0.753200  0.827800  1.0  0.1205
  H  H623  1  0.897300  0.835700  0.765300  1.0  0.1247
  H  H624  1  0.950200  0.811600  0.746000  1.0  0.0962
  H  H625  1  0.510100  0.937900  0.816300  1.0  0.0883
  H  H626  1  0.511000  0.887400  0.844000  1.0  0.1247
  H  H627  1  0.543300  0.873900  0.763300  1.0  0.1227
  H  H628  1  0.543900  0.924100  0.737900  1.0  0.0942
  H  H629  1  0.508500  0.799300  0.956300  1.0  0.0851
  H  H630  1  0.517900  0.821100  0.903900  1.0  0.1293
  H  H631  1  0.497100  0.754500  0.909300  1.0  0.1243
  H  H632  1  0.487700  0.735100  0.961900  1.0  0.0889
  H  H633  1  0.521700  0.728700  0.804700  1.0  0.0863
  H  H634  1  0.526600  0.747400  0.832200  1.0  0.1326
  H  H635  1  0.499300  0.833700  0.773300  1.0  0.1242
  H  H636  1  0.493500  0.812300  0.747900  1.0  0.0967
  H  H637  1  0.478200  0.768800  0.695800  1.0  0.0824
  H  H638  1  0.472600  0.746800  0.672200  1.0  0.1211
  H  H639  1  0.498300  0.664300  0.734700  1.0  0.1255
  H  H640  1  0.507800  0.688400  0.754000  1.0  0.0958
  H  H641  1  0.937900  0.510100  0.235700  1.0  0.0889
  H  H642  1  0.887400  0.511000  0.257600  1.0  0.1245
  H  H643  1  0.873900  0.543300  0.319500  1.0  0.1231
  H  H644  1  0.924100  0.543900  0.294100  1.0  0.0953
  H  H645  1  0.799300  0.508500  0.235900  1.0  0.0873
  H  H646  1  0.821100  0.517900  0.257100  1.0  0.1294
  H  H647  1  0.754500  0.497100  0.339100  1.0  0.1249
  H  H648  1  0.735100  0.487700  0.315300  1.0  0.0902
  H  H649  1  0.728700  0.521700  0.444900  1.0  0.0842
  H  H650  1  0.747400  0.526600  0.393800  1.0  0.1317
  H  H651  1  0.833700  0.499300  0.393700  1.0  0.1234
  H  H652  1  0.812300  0.493500  0.446300  1.0  0.0963
  H  H653  1  0.768800  0.478200  0.557200  1.0  0.082
  H  H654  1  0.746800  0.472600  0.608400  1.0  0.1204
  H  H655  1  0.664300  0.498300  0.602700  1.0  0.1245
  H  H656  1  0.688400  0.507800  0.549800  1.0  0.0962
  H  H657  1  0.235700  0.816300  0.937900  1.0  0.0869
  H  H658  1  0.257600  0.844000  0.887400  1.0  0.1257
  H  H659  1  0.319500  0.763300  0.873900  1.0  0.123
  H  H660  1  0.294100  0.737900  0.924100  1.0  0.094
  H  H661  1  0.235900  0.956300  0.799300  1.0  0.0858
  H  H662  1  0.257100  0.903900  0.821100  1.0  0.1298
  H  H663  1  0.339100  0.909300  0.754500  1.0  0.125
  H  H664  1  0.315300  0.961900  0.735100  1.0  0.089
  H  H665  1  0.444900  0.804700  0.728700  1.0  0.0856
  H  H666  1  0.393800  0.832200  0.747400  1.0  0.1318
  H  H667  1  0.393700  0.773300  0.833700  1.0  0.1241
  H  H668  1  0.446300  0.747900  0.812300  1.0  0.0956
  H  H669  1  0.557200  0.695800  0.768800  1.0  0.0812
  H  H670  1  0.608400  0.672200  0.746800  1.0  0.1201
  H  H671  1  0.602700  0.734700  0.664300  1.0  0.125
  H  H672  1  0.549800  0.754000  0.688400  1.0  0.0944
  H  H673  1  0.816300  0.235700  0.510100  1.0  0.0884
  H  H674  1  0.844000  0.257600  0.511000  1.0  0.1255
  H  H675  1  0.763300  0.319500  0.543300  1.0  0.1229
  H  H676  1  0.737900  0.294100  0.543900  1.0  0.0944
  H  H677  1  0.956300  0.235900  0.508500  1.0  0.0859
  H  H678  1  0.903900  0.257100  0.517900  1.0  0.1298
  H  H679  1  0.909300  0.339100  0.497100  1.0  0.1251
  H  H680  1  0.961900  0.315300  0.487700  1.0  0.0895
  H  H681  1  0.804700  0.444900  0.521700  1.0  0.0843
  H  H682  1  0.832200  0.393800  0.526600  1.0  0.1313
  H  H683  1  0.773300  0.393700  0.499300  1.0  0.1236
  H  H684  1  0.747900  0.446300  0.493500  1.0  0.0945
  H  H685  1  0.695800  0.557200  0.478200  1.0  0.0804
  H  H686  1  0.672200  0.608400  0.472600  1.0  0.1201
  H  H687  1  0.734700  0.602700  0.498300  1.0  0.1244
  H  H688  1  0.754000  0.549800  0.507800  1.0  0.095
  H  H689  1  0.235700  0.510100  0.816300  1.0  0.0905
  H  H690  1  0.257600  0.511000  0.844000  1.0  0.1261
  H  H691  1  0.319500  0.543300  0.763300  1.0  0.1236
  H  H692  1  0.294100  0.543900  0.737900  1.0  0.0937
  H  H693  1  0.235900  0.508500  0.956300  1.0  0.0863
  H  H694  1  0.257100  0.517900  0.903900  1.0  0.1303
  H  H695  1  0.339100  0.497100  0.909300  1.0  0.1248
  H  H696  1  0.315300  0.487700  0.961900  1.0  0.0899
  H  H697  1  0.444900  0.521700  0.804700  1.0  0.0854
  H  H698  1  0.393800  0.526600  0.832200  1.0  0.1312
  H  H699  1  0.393700  0.499300  0.773300  1.0  0.1236
  H  H700  1  0.446300  0.493500  0.747900  1.0  0.0996
  H  H701  1  0.557200  0.478200  0.695800  1.0  0.0821
  H  H702  1  0.608400  0.472600  0.672200  1.0  0.1193
  H  H703  1  0.602700  0.498300  0.734700  1.0  0.1244
  H  H704  1  0.549800  0.507800  0.754000  1.0  0.0983
  H  H705  1  0.816300  0.937900  0.235700  1.0  0.0889
  H  H706  1  0.844000  0.887400  0.257600  1.0  0.1244
  H  H707  1  0.763300  0.873900  0.319500  1.0  0.1236
  H  H708  1  0.737900  0.924100  0.294100  1.0  0.0947
  H  H709  1  0.956300  0.799300  0.235900  1.0  0.086
  H  H710  1  0.903900  0.821100  0.257100  1.0  0.1295
  H  H711  1  0.909300  0.754500  0.339100  1.0  0.1247
  H  H712  1  0.961900  0.735100  0.315300  1.0  0.087
  H  H713  1  0.804700  0.728700  0.444900  1.0  0.0858
  H  H714  1  0.832200  0.747400  0.393800  1.0  0.1315
  H  H715  1  0.773300  0.833700  0.393700  1.0  0.1245
  H  H716  1  0.747900  0.812300  0.446300  1.0  0.0971
  H  H717  1  0.695800  0.768800  0.557200  1.0  0.0828
  H  H718  1  0.672200  0.746800  0.608400  1.0  0.1204
  H  H719  1  0.734700  0.664300  0.602700  1.0  0.1251
  H  H720  1  0.754000  0.688400  0.549800  1.0  0.0958
  H  H721  1  0.510100  0.235700  0.937900  1.0  0.0895
  H  H722  1  0.511000  0.257600  0.887400  1.0  0.1258
  H  H723  1  0.543300  0.319500  0.873900  1.0  0.1233
  H  H724  1  0.543900  0.294100  0.924100  1.0  0.0934
  H  H725  1  0.508500  0.235900  0.799300  1.0  0.0884
  H  H726  1  0.517900  0.257100  0.821100  1.0  0.1304
  H  H727  1  0.497100  0.339100  0.754500  1.0  0.1252
  H  H728  1  0.487700  0.315300  0.735100  1.0  0.0885
  H  H729  1  0.521700  0.444900  0.728700  1.0  0.0852
  H  H730  1  0.526600  0.393800  0.747400  1.0  0.1312
  H  H731  1  0.499300  0.393700  0.833700  1.0  0.1242
  H  H732  1  0.493500  0.446300  0.812300  1.0  0.0972
  H  H733  1  0.478200  0.557200  0.768800  1.0  0.0818
  H  H734  1  0.472600  0.608400  0.746800  1.0  0.1197
  H  H735  1  0.498300  0.602700  0.664300  1.0  0.1254
  H  H736  1  0.507800  0.549800  0.688400  1.0  0.0969
  H  H737  1  0.937900  0.816300  0.510100  1.0  0.0875
  H  H738  1  0.887400  0.844000  0.511000  1.0  0.1255
  H  H739  1  0.873900  0.763300  0.543300  1.0  0.124
  H  H740  1  0.924100  0.737900  0.543900  1.0  0.0947
  H  H741  1  0.799300  0.956300  0.508500  1.0  0.0865
  H  H742  1  0.821100  0.903900  0.517900  1.0  0.1292
  H  H743  1  0.754500  0.909300  0.497100  1.0  0.1248
  H  H744  1  0.735100  0.961900  0.487700  1.0  0.0877
  H  H745  1  0.728700  0.804700  0.521700  1.0  0.0846
  H  H746  1  0.747400  0.832200  0.526600  1.0  0.1318
  H  H747  1  0.833700  0.773300  0.499300  1.0  0.1235
  H  H748  1  0.812300  0.747900  0.493500  1.0  0.0972
  H  H749  1  0.768800  0.695800  0.478200  1.0  0.0814
  H  H750  1  0.746800  0.672200  0.472600  1.0  0.1195
  H  H751  1  0.664300  0.734700  0.498300  1.0  0.1247
  H  H752  1  0.688400  0.754000  0.507800  1.0  0.0958
  H  H753  1  0.937900  0.235700  0.816300  1.0  0.0879
  H  H754  1  0.887400  0.257600  0.844000  1.0  0.1257
  H  H755  1  0.873900  0.319500  0.763300  1.0  0.1234
  H  H756  1  0.924100  0.294100  0.737900  1.0  0.0944
  H  H757  1  0.799300  0.235900  0.956300  1.0  0.0873
  H  H758  1  0.821100  0.257100  0.903900  1.0  0.1298
  H  H759  1  0.754500  0.339100  0.909300  1.0  0.1254
  H  H760  1  0.735100  0.315300  0.961900  1.0  0.088
  H  H761  1  0.728700  0.444900  0.804700  1.0  0.084
  H  H762  1  0.747400  0.393800  0.832200  1.0  0.132
  H  H763  1  0.833700  0.393700  0.773300  1.0  0.1241
  H  H764  1  0.812300  0.446300  0.747900  1.0  0.0967
  H  H765  1  0.768800  0.557200  0.695800  1.0  0.0812
  H  H766  1  0.746800  0.608400  0.672200  1.0  0.1207
  H  H767  1  0.664300  0.602700  0.734700  1.0  0.1236
  H  H768  1  0.688400  0.549800  0.754000  1.0  0.0964
  H  H769  1  0.510100  0.816300  0.235700  1.0  0.0875
  H  H770  1  0.511000  0.844000  0.257600  1.0  0.1259
  H  H771  1  0.543300  0.763300  0.319500  1.0  0.1241
  H  H772  1  0.543900  0.737900  0.294100  1.0  0.0947
  H  H773  1  0.508500  0.956300  0.235900  1.0  0.088
  H  H774  1  0.517900  0.903900  0.257100  1.0  0.1293
  H  H775  1  0.497100  0.909300  0.339100  1.0  0.1244
  H  H776  1  0.487700  0.961900  0.315300  1.0  0.0883
  H  H777  1  0.521700  0.804700  0.444900  1.0  0.0846
  H  H778  1  0.526600  0.832200  0.393800  1.0  0.1321
  H  H779  1  0.499300  0.773300  0.393700  1.0  0.1233
  H  H780  1  0.493500  0.747900  0.446300  1.0  0.0987
  H  H781  1  0.478200  0.695800  0.557200  1.0  0.0811
  H  H782  1  0.472600  0.672200  0.608400  1.0  0.1199
  H  H783  1  0.498300  0.734700  0.602700  1.0  0.125
  H  H784  1  0.507800  0.754000  0.549800  1.0  0.0964
  H  H785  1  0.816300  0.510100  0.937900  1.0  0.0901
  H  H786  1  0.844000  0.511000  0.887400  1.0  0.1248
  H  H787  1  0.763300  0.543300  0.873900  1.0  0.1232
  H  H788  1  0.737900  0.543900  0.924100  1.0  0.0939
  H  H789  1  0.956300  0.508500  0.799300  1.0  0.089
  H  H790  1  0.903900  0.517900  0.821100  1.0  0.1291
  H  H791  1  0.909300  0.497100  0.754500  1.0  0.1237
  H  H792  1  0.961900  0.487700  0.735100  1.0  0.0907
  H  H793  1  0.804700  0.521700  0.728700  1.0  0.0854
  H  H794  1  0.832200  0.526600  0.747400  1.0  0.1317
  H  H795  1  0.773300  0.499300  0.833700  1.0  0.124
  H  H796  1  0.747900  0.493500  0.812300  1.0  0.0974
  H  H797  1  0.695800  0.478200  0.768800  1.0  0.0811
  H  H798  1  0.672200  0.472600  0.746800  1.0  0.1204
  H  H799  1  0.734700  0.498300  0.664300  1.0  0.125
  H  H800  1  0.754000  0.507800  0.688400  1.0  0.0971
  H  H801  1  0.235700  0.937900  0.510100  1.0  0.0882
  H  H802  1  0.257600  0.887400  0.511000  1.0  0.1255
  H  H803  1  0.319500  0.873900  0.543300  1.0  0.1235
  H  H804  1  0.294100  0.924100  0.543900  1.0  0.0926
  H  H805  1  0.235900  0.799300  0.508500  1.0  0.0857
  H  H806  1  0.257100  0.821100  0.517900  1.0  0.13
  H  H807  1  0.339100  0.754500  0.497100  1.0  0.1246
  H  H808  1  0.315300  0.735100  0.487700  1.0  0.0883
  H  H809  1  0.444900  0.728700  0.521700  1.0  0.0844
  H  H810  1  0.393800  0.747400  0.526600  1.0  0.1311
  H  H811  1  0.393700  0.833700  0.499300  1.0  0.1242
  H  H812  1  0.446300  0.812300  0.493500  1.0  0.0978
  H  H813  1  0.557200  0.768800  0.478200  1.0  0.0807
  H  H814  1  0.608400  0.746800  0.472600  1.0  0.1204
  H  H815  1  0.602700  0.664300  0.498300  1.0  0.1246
  H  H816  1  0.549800  0.688400  0.507800  1.0  0.0955
  C  C817  1  0.031930  0.495490  0.680690  1.0  0.2018
  C  C818  1  0.016460  0.424760  0.753380  1.0  0.1793
  C  C819  1  0.016770  0.394810  0.766250  1.0  -0.1441
  C  C820  1  0.025800  0.375560  0.792180  1.0  -0.0524
  C  C821  1  0.036060  0.386720  0.802420  1.0  -0.1322
  C  C822  1  0.035770  0.416950  0.787530  1.0  0.1685
  C  C823  1  0.021500  0.345100  0.810280  1.0  0.2994
  C  C824  1  0.012580  0.305240  0.814900  1.0  0.3903
  C  C825  1  0.015660  0.306040  0.855400  1.0  0.2699
  C  C826  1  0.005710  0.290290  0.757370  1.0  0.1763
  C  C827  1  0.011450  0.303550  0.769670  1.0  -0.1191
  C  C828  1  0.007670  0.290610  0.800990  1.0  -0.0716
  C  C829  1  0.999140  0.264460  0.817820  1.0  -0.1384
  C  C830  1  0.993710  0.252970  0.803350  1.0  0.1791
  C  C831  1  0.016740  0.250400  0.934500  1.0  0.1874
  C  C832  1  0.019950  0.261210  0.904070  1.0  -0.1463
  C  C833  1  0.013420  0.292800  0.888260  1.0  -0.0966
  C  C834  1  0.003730  0.312110  0.903950  1.0  -0.134
  C  C835  1  0.000560  0.299080  0.935280  1.0  0.161
  C  C836  1  0.993960  0.188380  0.010080  1.0  0.1852
  C  C837  1  0.982750  0.247090  0.066350  1.0  0.1812
  C  C838  1  0.979080  0.234100  0.097060  1.0  -0.1379
  C  C839  1  0.984680  0.202900  0.111620  1.0  -0.0332
  C  C840  1  0.994640  0.185860  0.093740  1.0  -0.1076
  C  C841  1  0.999260  0.200580  0.062300  1.0  0.1584
  C  C842  1  0.983070  0.187010  0.143890  1.0  0.2178
  C  C843  1  0.495490  0.031930  0.291890  1.0  0.2013
  C  C844  1  0.424760  0.016460  0.305400  1.0  0.1784
  C  C845  1  0.394810  0.016770  0.322170  1.0  -0.1464
  C  C846  1  0.375560  0.025800  0.306460  1.0  -0.0512
  C  C847  1  0.386720  0.036060  0.274800  1.0  -0.1353
  C  C848  1  0.416950  0.035770  0.259750  1.0  0.1704
  C  C849  1  0.345100  0.021500  0.323120  1.0  0.2991
  C  C850  1  0.305240  0.012580  0.367280  1.0  0.3906
  C  C851  1  0.306040  0.015660  0.322900  1.0  0.2709
  C  C852  1  0.290290  0.005710  0.446630  1.0  0.1792
  C  C853  1  0.303550  0.011450  0.415330  1.0  -0.1195
  C  C854  1  0.290610  0.007670  0.400730  1.0  -0.0699
  C  C855  1  0.264460  0.999140  0.418580  1.0  -0.1354
  C  C856  1  0.252970  0.993710  0.449970  1.0  0.1798
  C  C857  1  0.250400  0.016740  0.298360  1.0  0.1872
  C  C858  1  0.261210  0.019950  0.314770  1.0  -0.1431
  C  C859  1  0.292800  0.013420  0.305520  1.0  -0.0974
  C  C860  1  0.312110  0.003730  0.280210  1.0  -0.132
  C  C861  1  0.299080  0.000560  0.265080  1.0  0.1606
  C  C862  1  0.188380  0.993960  0.307580  1.0  0.1862
  C  C863  1  0.247090  0.982750  0.203810  1.0  0.1863
  C  C864  1  0.234100  0.979080  0.189760  1.0  -0.1357
  C  C865  1  0.202900  0.984680  0.200800  1.0  -0.032
  C  C866  1  0.185860  0.994640  0.225760  1.0  -0.1076
  C  C867  1  0.200580  0.999260  0.237860  1.0  0.1581
  C  C868  1  0.187010  0.983070  0.186030  1.0  0.217
  C  C869  1  0.680690  0.291890  0.031930  1.0  0.2036
  C  C870  1  0.753380  0.305400  0.016460  1.0  0.1797
  C  C871  1  0.766250  0.322170  0.016770  1.0  -0.1404
  C  C872  1  0.792180  0.306460  0.025800  1.0  -0.051
  C  C873  1  0.802420  0.274800  0.036060  1.0  -0.134
  C  C874  1  0.787530  0.259750  0.035770  1.0  0.1702
  C  C875  1  0.810280  0.323120  0.021500  1.0  0.2989
  C  C876  1  0.814900  0.367280  0.012580  1.0  0.3908
  C  C877  1  0.855400  0.322900  0.015660  1.0  0.2711
  C  C878  1  0.757370  0.446630  0.005710  1.0  0.1746
  C  C879  1  0.769670  0.415330  0.011450  1.0  -0.1233
  C  C880  1  0.800990  0.400730  0.007670  1.0  -0.0683
  C  C881  1  0.817820  0.418580  0.999140  1.0  -0.1355
  C  C882  1  0.803350  0.449970  0.993710  1.0  0.1823
  C  C883  1  0.934500  0.298360  0.016740  1.0  0.1861
  C  C884  1  0.904070  0.314770  0.019950  1.0  -0.1468
  C  C885  1  0.888260  0.305520  0.013420  1.0  -0.0978
  C  C886  1  0.903950  0.280210  0.003730  1.0  -0.1357
  C  C887  1  0.935280  0.265080  0.000560  1.0  0.1582
  C  C888  1  0.010080  0.307580  0.993960  1.0  0.1847
  C  C889  1  0.066350  0.203810  0.982750  1.0  0.1838
  C  C890  1  0.097060  0.189760  0.979080  1.0  -0.1388
  C  C891  1  0.111620  0.200800  0.984680  1.0  -0.0297
  C  C892  1  0.093740  0.225760  0.994640  1.0  -0.1082
  C  C893  1  0.062300  0.237860  0.999260  1.0  0.1563
  C  C894  1  0.143890  0.186030  0.983070  1.0  0.2172
  C  C895  1  0.291890  0.680690  0.495490  1.0  0.2022
  C  C896  1  0.305400  0.753380  0.424760  1.0  0.1814
  C  C897  1  0.322170  0.766250  0.394810  1.0  -0.1401
  C  C898  1  0.306460  0.792180  0.375560  1.0  -0.0493
  C  C899  1  0.274800  0.802420  0.386720  1.0  -0.1351
  C  C900  1  0.259750  0.787530  0.416950  1.0  0.1698
  C  C901  1  0.323120  0.810280  0.345100  1.0  0.2991
  C  C902  1  0.367280  0.814900  0.305240  1.0  0.391
  C  C903  1  0.322900  0.855400  0.306040  1.0  0.271
  C  C904  1  0.446630  0.757370  0.290290  1.0  0.1751
  C  C905  1  0.415330  0.769670  0.303550  1.0  -0.1202
  C  C906  1  0.400730  0.800990  0.290610  1.0  -0.0709
  C  C907  1  0.418580  0.817820  0.264460  1.0  -0.1377
  C  C908  1  0.449970  0.803350  0.252970  1.0  0.1789
  C  C909  1  0.298360  0.934500  0.250400  1.0  0.186
  C  C910  1  0.314770  0.904070  0.261210  1.0  -0.1442
  C  C911  1  0.305520  0.888260  0.292800  1.0  -0.0979
  C  C912  1  0.280210  0.903950  0.312110  1.0  -0.1347
  C  C913  1  0.265080  0.935280  0.299080  1.0  0.1598
  C  C914  1  0.307580  0.010080  0.188380  1.0  0.1901
  C  C915  1  0.203810  0.066350  0.247090  1.0  0.1848
  C  C916  1  0.189760  0.097060  0.234100  1.0  -0.1383
  C  C917  1  0.200800  0.111620  0.202900  1.0  -0.0302
  C  C918  1  0.225760  0.093740  0.185860  1.0  -0.1084
  C  C919  1  0.237860  0.062300  0.200580  1.0  0.1559
  C  C920  1  0.186030  0.143890  0.187010  1.0  0.2171
  C  C921  1  0.680690  0.031930  0.495490  1.0  0.2042
  C  C922  1  0.753380  0.016460  0.424760  1.0  0.1786
  C  C923  1  0.766250  0.016770  0.394810  1.0  -0.1434
  C  C924  1  0.792180  0.025800  0.375560  1.0  -0.0469
  C  C925  1  0.802420  0.036060  0.386720  1.0  -0.1295
  C  C926  1  0.787530  0.035770  0.416950  1.0  0.1752
  C  C927  1  0.810280  0.021500  0.345100  1.0  0.2991
  C  C928  1  0.814900  0.012580  0.305240  1.0  0.3902
  C  C929  1  0.855400  0.015660  0.306040  1.0  0.2716
  C  C930  1  0.757370  0.005710  0.290290  1.0  0.1739
  C  C931  1  0.769670  0.011450  0.303550  1.0  -0.1234
  C  C932  1  0.800990  0.007670  0.290610  1.0  -0.0737
  C  C933  1  0.817820  0.999140  0.264460  1.0  -0.1318
  C  C934  1  0.803350  0.993710  0.252970  1.0  0.1812
  C  C935  1  0.934500  0.016740  0.250400  1.0  0.1857
  C  C936  1  0.904070  0.019950  0.261210  1.0  -0.1438
  C  C937  1  0.888260  0.013420  0.292800  1.0  -0.0976
  C  C938  1  0.903950  0.003730  0.312110  1.0  -0.1366
  C  C939  1  0.935280  0.000560  0.299080  1.0  0.1562
  C  C940  1  0.010080  0.993960  0.188380  1.0  0.1866
  C  C941  1  0.066350  0.982750  0.247090  1.0  0.1834
  C  C942  1  0.097060  0.979080  0.234100  1.0  -0.1375
  C  C943  1  0.111620  0.984680  0.202900  1.0  -0.0304
  C  C944  1  0.093740  0.994640  0.185860  1.0  -0.1082
  C  C945  1  0.062300  0.999260  0.200580  1.0  0.1538
  C  C946  1  0.143890  0.983070  0.187010  1.0  0.2167
  C  C947  1  0.291890  0.495490  0.031930  1.0  0.2019
  C  C948  1  0.305400  0.424760  0.016460  1.0  0.1828
  C  C949  1  0.322170  0.394810  0.016770  1.0  -0.1396
  C  C950  1  0.306460  0.375560  0.025800  1.0  -0.0523
  C  C951  1  0.274800  0.386720  0.036060  1.0  -0.1321
  C  C952  1  0.259750  0.416950  0.035770  1.0  0.1716
  C  C953  1  0.323120  0.345100  0.021500  1.0  0.2993
  C  C954  1  0.367280  0.305240  0.012580  1.0  0.3907
  C  C955  1  0.322900  0.306040  0.015660  1.0  0.2705
  C  C956  1  0.446630  0.290290  0.005710  1.0  0.1739
  C  C957  1  0.415330  0.303550  0.011450  1.0  -0.1238
  C  C958  1  0.400730  0.290610  0.007670  1.0  -0.0712
  C  C959  1  0.418580  0.264460  0.999140  1.0  -0.1384
  C  C960  1  0.449970  0.252970  0.993710  1.0  0.1802
  C  C961  1  0.298360  0.250400  0.016740  1.0  0.1887
  C  C962  1  0.314770  0.261210  0.019950  1.0  -0.1458
  C  C963  1  0.305520  0.292800  0.013420  1.0  -0.0991
  C  C964  1  0.280210  0.312110  0.003730  1.0  -0.1338
  C  C965  1  0.265080  0.299080  0.000560  1.0  0.1603
  C  C966  1  0.307580  0.188380  0.993960  1.0  0.1865
  C  C967  1  0.203810  0.247090  0.982750  1.0  0.1878
  C  C968  1  0.189760  0.234100  0.979080  1.0  -0.1374
  C  C969  1  0.200800  0.202900  0.984680  1.0  -0.0318
  C  C970  1  0.225760  0.185860  0.994640  1.0  -0.1067
  C  C971  1  0.237860  0.200580  0.999260  1.0  0.1584
  C  C972  1  0.186030  0.187010  0.983070  1.0  0.217
  C  C973  1  0.031930  0.680690  0.291890  1.0  0.2024
  C  C974  1  0.016460  0.753380  0.305400  1.0  0.177
  C  C975  1  0.016770  0.766250  0.322170  1.0  -0.1453
  C  C976  1  0.025800  0.792180  0.306460  1.0  -0.0497
  C  C977  1  0.036060  0.802420  0.274800  1.0  -0.1311
  C  C978  1  0.035770  0.787530  0.259750  1.0  0.1752
  C  C979  1  0.021500  0.810280  0.323120  1.0  0.2989
  C  C980  1  0.012580  0.814900  0.367280  1.0  0.3908
  C  C981  1  0.015660  0.855400  0.322900  1.0  0.2713
  C  C982  1  0.005710  0.757370  0.446630  1.0  0.1709
  C  C983  1  0.011450  0.769670  0.415330  1.0  -0.1216
  C  C984  1  0.007670  0.800990  0.400730  1.0  -0.0717
  C  C985  1  0.999140  0.817820  0.418580  1.0  -0.1369
  C  C986  1  0.993710  0.803350  0.449970  1.0  0.1806
  C  C987  1  0.016740  0.934500  0.298360  1.0  0.1851
  C  C988  1  0.019950  0.904070  0.314770  1.0  -0.1437
  C  C989  1  0.013420  0.888260  0.305520  1.0  -0.0979
  C  C990  1  0.003730  0.903950  0.280210  1.0  -0.1356
  C  C991  1  0.000560  0.935280  0.265080  1.0  0.1582
  C  C992  1  0.993960  0.010080  0.307580  1.0  0.1821
  C  C993  1  0.982750  0.066350  0.203810  1.0  0.1836
  C  C994  1  0.979080  0.097060  0.189760  1.0  -0.1354
  C  C995  1  0.984680  0.111620  0.200800  1.0  -0.0306
  C  C996  1  0.994640  0.093740  0.225760  1.0  -0.1073
  C  C997  1  0.999260  0.062300  0.237860  1.0  0.1538
  C  C998  1  0.983070  0.143890  0.186030  1.0  0.2168
  C  C999  1  0.495490  0.291890  0.680690  1.0  0.1959
  C  C1000  1  0.424760  0.305400  0.753380  1.0  0.179
  C  C1001  1  0.394810  0.322170  0.766250  1.0  -0.1415
  C  C1002  1  0.375560  0.306460  0.792180  1.0  -0.0509
  C  C1003  1  0.386720  0.274800  0.802420  1.0  -0.133
  C  C1004  1  0.416950  0.259750  0.787530  1.0  0.1748
  C  C1005  1  0.345100  0.323120  0.810280  1.0  0.2987
  C  C1006  1  0.305240  0.367280  0.814900  1.0  0.3909
  C  C1007  1  0.306040  0.322900  0.855400  1.0  0.2711
  C  C1008  1  0.290290  0.446630  0.757370  1.0  0.1746
  C  C1009  1  0.303550  0.415330  0.769670  1.0  -0.123
  C  C1010  1  0.290610  0.400730  0.800990  1.0  -0.0683
  C  C1011  1  0.264460  0.418580  0.817820  1.0  -0.1392
  C  C1012  1  0.252970  0.449970  0.803350  1.0  0.1825
  C  C1013  1  0.250400  0.298360  0.934500  1.0  0.1892
  C  C1014  1  0.261210  0.314770  0.904070  1.0  -0.1442
  C  C1015  1  0.292800  0.305520  0.888260  1.0  -0.0986
  C  C1016  1  0.312110  0.280210  0.903950  1.0  -0.132
  C  C1017  1  0.299080  0.265080  0.935280  1.0  0.1597
  C  C1018  1  0.188380  0.307580  0.010080  1.0  0.1876
  C  C1019  1  0.247090  0.203810  0.066350  1.0  0.1884
  C  C1020  1  0.234100  0.189760  0.097060  1.0  -0.1377
  C  C1021  1  0.202900  0.200800  0.111620  1.0  -0.0323
  C  C1022  1  0.185860  0.225760  0.093740  1.0  -0.1089
  C  C1023  1  0.200580  0.237860  0.062300  1.0  0.1572
  C  C1024  1  0.187010  0.186030  0.143890  1.0  0.2166
  C  C1025  1  0.495490  0.680690  0.031930  1.0  0.2028
  C  C1026  1  0.424760  0.753380  0.016460  1.0  0.1802
  C  C1027  1  0.394810  0.766250  0.016770  1.0  -0.1437
  C  C1028  1  0.375560  0.792180  0.025800  1.0  -0.0509
  C  C1029  1  0.386720  0.802420  0.036060  1.0  -0.137
  C  C1030  1  0.416950  0.787530  0.035770  1.0  0.1697
  C  C1031  1  0.345100  0.810280  0.021500  1.0  0.2987
  C  C1032  1  0.305240  0.814900  0.012580  1.0  0.3907
  C  C1033  1  0.306040  0.855400  0.015660  1.0  0.2707
  C  C1034  1  0.290290  0.757370  0.005710  1.0  0.1751
  C  C1035  1  0.303550  0.769670  0.011450  1.0  -0.1209
  C  C1036  1  0.290610  0.800990  0.007670  1.0  -0.0716
  C  C1037  1  0.264460  0.817820  0.999140  1.0  -0.1377
  C  C1038  1  0.252970  0.803350  0.993710  1.0  0.1801
  C  C1039  1  0.250400  0.934500  0.016740  1.0  0.1874
  C  C1040  1  0.261210  0.904070  0.019950  1.0  -0.1429
  C  C1041  1  0.292800  0.888260  0.013420  1.0  -0.0979
  C  C1042  1  0.312110  0.903950  0.003730  1.0  -0.1325
  C  C1043  1  0.299080  0.935280  0.000560  1.0  0.1584
  C  C1044  1  0.188380  0.010080  0.993960  1.0  0.1861
  C  C1045  1  0.247090  0.066350  0.982750  1.0  0.1879
  C  C1046  1  0.234100  0.097060  0.979080  1.0  -0.1359
  C  C1047  1  0.202900  0.111620  0.984680  1.0  -0.03
  C  C1048  1  0.185860  0.093740  0.994640  1.0  -0.1087
  C  C1049  1  0.200580  0.062300  0.999260  1.0  0.1555
  C  C1050  1  0.187010  0.143890  0.983070  1.0  0.2171
  C  C1051  1  0.031930  0.291890  0.495490  1.0  0.1985
  C  C1052  1  0.016460  0.305400  0.424760  1.0  0.1803
  C  C1053  1  0.016770  0.322170  0.394810  1.0  -0.1405
  C  C1054  1  0.025800  0.306460  0.375560  1.0  -0.0506
  C  C1055  1  0.036060  0.274800  0.386720  1.0  -0.1344
  C  C1056  1  0.035770  0.259750  0.416950  1.0  0.1695
  C  C1057  1  0.021500  0.323120  0.345100  1.0  0.299
  C  C1058  1  0.012580  0.367280  0.305240  1.0  0.3912
  C  C1059  1  0.015660  0.322900  0.306040  1.0  0.2707
  C  C1060  1  0.005710  0.446630  0.290290  1.0  0.1747
  C  C1061  1  0.011450  0.415330  0.303550  1.0  -0.1229
  C  C1062  1  0.007670  0.400730  0.290610  1.0  -0.0679
  C  C1063  1  0.999140  0.418580  0.264460  1.0  -0.1364
  C  C1064  1  0.993710  0.449970  0.252970  1.0  0.1803
  C  C1065  1  0.016740  0.298360  0.250400  1.0  0.1887
  C  C1066  1  0.019950  0.314770  0.261210  1.0  -0.1437
  C  C1067  1  0.013420  0.305520  0.292800  1.0  -0.0991
  C  C1068  1  0.003730  0.280210  0.312110  1.0  -0.1353
  C  C1069  1  0.000560  0.265080  0.299080  1.0  0.158
  C  C1070  1  0.993960  0.307580  0.188380  1.0  0.1843
  C  C1071  1  0.982750  0.203810  0.247090  1.0  0.1894
  C  C1072  1  0.979080  0.189760  0.234100  1.0  -0.1369
  C  C1073  1  0.984680  0.200800  0.202900  1.0  -0.0324
  C  C1074  1  0.994640  0.225760  0.185860  1.0  -0.1081
  C  C1075  1  0.999260  0.237860  0.200580  1.0  0.1543
  C  C1076  1  0.983070  0.186030  0.187010  1.0  0.2168
  C  C1077  1  0.291890  0.031930  0.680690  1.0  0.2016
  C  C1078  1  0.305400  0.016460  0.753380  1.0  0.182
  C  C1079  1  0.322170  0.016770  0.766250  1.0  -0.1391
  C  C1080  1  0.306460  0.025800  0.792180  1.0  -0.0521
  C  C1081  1  0.274800  0.036060  0.802420  1.0  -0.1343
  C  C1082  1  0.259750  0.035770  0.787530  1.0  0.1692
  C  C1083  1  0.323120  0.021500  0.810280  1.0  0.2983
  C  C1084  1  0.367280  0.012580  0.814900  1.0  0.391
  C  C1085  1  0.322900  0.015660  0.855400  1.0  0.2704
  C  C1086  1  0.446630  0.005710  0.757370  1.0  0.1737
  C  C1087  1  0.415330  0.011450  0.769670  1.0  -0.1258
  C  C1088  1  0.400730  0.007670  0.800990  1.0  -0.0715
  C  C1089  1  0.418580  0.999140  0.817820  1.0  -0.1402
  C  C1090  1  0.449970  0.993710  0.803350  1.0  0.1794
  C  C1091  1  0.298360  0.016740  0.934500  1.0  0.1903
  C  C1092  1  0.314770  0.019950  0.904070  1.0  -0.1401
  C  C1093  1  0.305520  0.013420  0.888260  1.0  -0.0984
  C  C1094  1  0.280210  0.003730  0.903950  1.0  -0.1347
  C  C1095  1  0.265080  0.000560  0.935280  1.0  0.1583
  C  C1096  1  0.307580  0.993960  0.010080  1.0  0.1848
  C  C1097  1  0.203810  0.982750  0.066350  1.0  0.1912
  C  C1098  1  0.189760  0.979080  0.097060  1.0  -0.1343
  C  C1099  1  0.200800  0.984680  0.111620  1.0  -0.0326
  C  C1100  1  0.225760  0.994640  0.093740  1.0  -0.1077
  C  C1101  1  0.237860  0.999260  0.062300  1.0  0.1538
  C  C1102  1  0.186030  0.983070  0.143890  1.0  0.2172
  C  C1103  1  0.680690  0.495490  0.291890  1.0  0.2064
  C  C1104  1  0.753380  0.424760  0.305400  1.0  0.1817
  C  C1105  1  0.766250  0.394810  0.322170  1.0  -0.1435
  C  C1106  1  0.792180  0.375560  0.306460  1.0  -0.0522
  C  C1107  1  0.802420  0.386720  0.274800  1.0  -0.1349
  C  C1108  1  0.787530  0.416950  0.259750  1.0  0.1696
  C  C1109  1  0.810280  0.345100  0.323120  1.0  0.2997
  C  C1110  1  0.814900  0.305240  0.367280  1.0  0.3905
  C  C1111  1  0.855400  0.306040  0.322900  1.0  0.2709
  C  C1112  1  0.757370  0.290290  0.446630  1.0  0.175
  C  C1113  1  0.769670  0.303550  0.415330  1.0  -0.1218
  C  C1114  1  0.800990  0.290610  0.400730  1.0  -0.0734
  C  C1115  1  0.817820  0.264460  0.418580  1.0  -0.136
  C  C1116  1  0.803350  0.252970  0.449970  1.0  0.1818
  C  C1117  1  0.934500  0.250400  0.298360  1.0  0.1895
  C  C1118  1  0.904070  0.261210  0.314770  1.0  -0.1448
  C  C1119  1  0.888260  0.292800  0.305520  1.0  -0.0973
  C  C1120  1  0.903950  0.312110  0.280210  1.0  -0.1342
  C  C1121  1  0.935280  0.299080  0.265080  1.0  0.1579
  C  C1122  1  0.010080  0.188380  0.307580  1.0  0.1776
  C  C1123  1  0.066350  0.247090  0.203810  1.0  0.1875
  C  C1124  1  0.097060  0.234100  0.189760  1.0  -0.1367
  C  C1125  1  0.111620  0.202900  0.200800  1.0  -0.03
  C  C1126  1  0.093740  0.185860  0.225760  1.0  -0.1059
  C  C1127  1  0.062300  0.200580  0.237860  1.0  0.1559
  C  C1128  1  0.143890  0.187010  0.186030  1.0  0.2172
  C  C1129  1  0.468070  0.004510  0.208110  1.0  0.2023
  C  C1130  1  0.483540  0.075240  0.194600  1.0  0.1787
  C  C1131  1  0.483230  0.105190  0.177830  1.0  -0.1444
  C  C1132  1  0.474200  0.124440  0.193540  1.0  -0.0511
  C  C1133  1  0.463940  0.113280  0.225200  1.0  -0.1339
  C  C1134  1  0.464230  0.083050  0.240250  1.0  0.1687
  C  C1135  1  0.478500  0.154900  0.176880  1.0  0.299
  C  C1136  1  0.487420  0.194760  0.132720  1.0  0.3906
  C  C1137  1  0.484340  0.193960  0.177100  1.0  0.27
  C  C1138  1  0.494290  0.209710  0.053370  1.0  0.1757
  C  C1139  1  0.488550  0.196450  0.084670  1.0  -0.1229
  C  C1140  1  0.492330  0.209390  0.099270  1.0  -0.0717
  C  C1141  1  0.500860  0.235540  0.081420  1.0  -0.1389
  C  C1142  1  0.506290  0.247030  0.050030  1.0  0.1767
  C  C1143  1  0.483260  0.249600  0.201640  1.0  0.1868
  C  C1144  1  0.480050  0.238790  0.185230  1.0  -0.1442
  C  C1145  1  0.486580  0.207200  0.194480  1.0  -0.0966
  C  C1146  1  0.496270  0.187890  0.219790  1.0  -0.1339
  C  C1147  1  0.499440  0.200920  0.234920  1.0  0.1608
  C  C1148  1  0.506040  0.311620  0.192420  1.0  0.1863
  C  C1149  1  0.517250  0.252910  0.296190  1.0  0.1813
  C  C1150  1  0.520920  0.265900  0.310240  1.0  -0.1368
  C  C1151  1  0.515320  0.297100  0.299200  1.0  -0.0342
  C  C1152  1  0.505360  0.314140  0.274240  1.0  -0.1081
  C  C1153  1  0.500740  0.299420  0.262140  1.0  0.1575
  C  C1154  1  0.516930  0.312990  0.313970  1.0  0.217
  C  C1155  1  0.004510  0.468070  0.819310  1.0  0.1995
  C  C1156  1  0.075240  0.483540  0.746620  1.0  0.178
  C  C1157  1  0.105190  0.483230  0.733750  1.0  -0.1457
  C  C1158  1  0.124440  0.474200  0.707820  1.0  -0.051
  C  C1159  1  0.113280  0.463940  0.697580  1.0  -0.1354
  C  C1160  1  0.083050  0.464230  0.712470  1.0  0.1702
  C  C1161  1  0.154900  0.478500  0.689720  1.0  0.2988
  C  C1162  1  0.194760  0.487420  0.685100  1.0  0.391
  C  C1163  1  0.193960  0.484340  0.644600  1.0  0.2707
  C  C1164  1  0.209710  0.494290  0.742630  1.0  0.1789
  C  C1165  1  0.196450  0.488550  0.730330  1.0  -0.1227
  C  C1166  1  0.209390  0.492330  0.699010  1.0  -0.0711
  C  C1167  1  0.235540  0.500860  0.682180  1.0  -0.1354
  C  C1168  1  0.247030  0.506290  0.696650  1.0  0.1793
  C  C1169  1  0.249600  0.483260  0.565500  1.0  0.1871
  C  C1170  1  0.238790  0.480050  0.595930  1.0  -0.141
  C  C1171  1  0.207200  0.486580  0.611740  1.0  -0.0969
  C  C1172  1  0.187890  0.496270  0.596050  1.0  -0.1335
  C  C1173  1  0.200920  0.499440  0.564720  1.0  0.1608
  C  C1174  1  0.311620  0.506040  0.489920  1.0  0.1872
  C  C1175  1  0.252910  0.517250  0.433650  1.0  0.1864
  C  C1176  1  0.265900  0.520920  0.402940  1.0  -0.1348
  C  C1177  1  0.297100  0.515320  0.388380  1.0  -0.0315
  C  C1178  1  0.314140  0.505360  0.406260  1.0  -0.1048
  C  C1179  1  0.299420  0.500740  0.437700  1.0  0.1596
  C  C1180  1  0.312990  0.516930  0.356110  1.0  0.2173
  C  C1181  1  0.819310  0.208110  0.004510  1.0  0.2023
  C  C1182  1  0.746620  0.194600  0.075240  1.0  0.1793
  C  C1183  1  0.733750  0.177830  0.105190  1.0  -0.1413
  C  C1184  1  0.707820  0.193540  0.124440  1.0  -0.0501
  C  C1185  1  0.697580  0.225200  0.113280  1.0  -0.136
  C  C1186  1  0.712470  0.240250  0.083050  1.0  0.1692
  C  C1187  1  0.689720  0.176880  0.154900  1.0  0.2986
  C  C1188  1  0.685100  0.132720  0.194760  1.0  0.3905
  C  C1189  1  0.644600  0.177100  0.193960  1.0  0.2708
  C  C1190  1  0.742630  0.053370  0.209710  1.0  0.175
  C  C1191  1  0.730330  0.084670  0.196450  1.0  -0.1198
  C  C1192  1  0.699010  0.099270  0.209390  1.0  -0.0686
  C  C1193  1  0.682180  0.081420  0.235540  1.0  -0.1381
  C  C1194  1  0.696650  0.050030  0.247030  1.0  0.1815
  C  C1195  1  0.565500  0.201640  0.249600  1.0  0.1858
  C  C1196  1  0.595930  0.185230  0.238790  1.0  -0.1468
  C  C1197  1  0.611740  0.194480  0.207200  1.0  -0.0981
  C  C1198  1  0.596050  0.219790  0.187890  1.0  -0.1354
  C  C1199  1  0.564720  0.234920  0.200920  1.0  0.1587
  C  C1200  1  0.489920  0.192420  0.311620  1.0  0.1823
  C  C1201  1  0.433650  0.296190  0.252910  1.0  0.1846
  C  C1202  1  0.402940  0.310240  0.265900  1.0  -0.1398
  C  C1203  1  0.388380  0.299200  0.297100  1.0  -0.0321
  C  C1204  1  0.406260  0.274240  0.314140  1.0  -0.1078
  C  C1205  1  0.437700  0.262140  0.299420  1.0  0.1559
  C  C1206  1  0.356110  0.313970  0.312990  1.0  0.217
  C  C1207  1  0.208110  0.819310  0.468070  1.0  0.2086
  C  C1208  1  0.194600  0.746620  0.483540  1.0  0.1799
  C  C1209  1  0.177830  0.733750  0.483230  1.0  -0.142
  C  C1210  1  0.193540  0.707820  0.474200  1.0  -0.0486
  C  C1211  1  0.225200  0.697580  0.463940  1.0  -0.1346
  C  C1212  1  0.240250  0.712470  0.464230  1.0  0.1696
  C  C1213  1  0.176880  0.689720  0.478500  1.0  0.2993
  C  C1214  1  0.132720  0.685100  0.487420  1.0  0.3909
  C  C1215  1  0.177100  0.644600  0.484340  1.0  0.2709
  C  C1216  1  0.053370  0.742630  0.494290  1.0  0.1746
  C  C1217  1  0.084670  0.730330  0.488550  1.0  -0.1197
  C  C1218  1  0.099270  0.699010  0.492330  1.0  -0.0713
  C  C1219  1  0.081420  0.682180  0.500860  1.0  -0.1365
  C  C1220  1  0.050030  0.696650  0.506290  1.0  0.1797
  C  C1221  1  0.201640  0.565500  0.483260  1.0  0.1864
  C  C1222  1  0.185230  0.595930  0.480050  1.0  -0.1438
  C  C1223  1  0.194480  0.611740  0.486580  1.0  -0.0969
  C  C1224  1  0.219790  0.596050  0.496270  1.0  -0.1341
  C  C1225  1  0.234920  0.564720  0.499440  1.0  0.1588
  C  C1226  1  0.192420  0.489920  0.506040  1.0  0.1886
  C  C1227  1  0.296190  0.433650  0.517250  1.0  0.1848
  C  C1228  1  0.310240  0.402940  0.520920  1.0  -0.1376
  C  C1229  1  0.299200  0.388380  0.515320  1.0  -0.0317
  C  C1230  1  0.274240  0.406260  0.505360  1.0  -0.108
  C  C1231  1  0.262140  0.437700  0.500740  1.0  0.1564
  C  C1232  1  0.313970  0.356110  0.516930  1.0  0.2172
  C  C1233  1  0.819310  0.468070  0.208110  1.0  0.2019
  C  C1234  1  0.746620  0.483540  0.194600  1.0  0.1781
  C  C1235  1  0.733750  0.483230  0.177830  1.0  -0.1427
  C  C1236  1  0.707820  0.474200  0.193540  1.0  -0.048
  C  C1237  1  0.697580  0.463940  0.225200  1.0  -0.1317
  C  C1238  1  0.712470  0.464230  0.240250  1.0  0.1757
  C  C1239  1  0.689720  0.478500  0.176880  1.0  0.2986
  C  C1240  1  0.685100  0.487420  0.132720  1.0  0.3902
  C  C1241  1  0.644600  0.484340  0.177100  1.0  0.2711
  C  C1242  1  0.742630  0.494290  0.053370  1.0  0.1742
  C  C1243  1  0.730330  0.488550  0.084670  1.0  -0.1206
  C  C1244  1  0.699010  0.492330  0.099270  1.0  -0.0738
  C  C1245  1  0.682180  0.500860  0.081420  1.0  -0.134
  C  C1246  1  0.696650  0.506290  0.050030  1.0  0.1822
  C  C1247  1  0.565500  0.483260  0.201640  1.0  0.186
  C  C1248  1  0.595930  0.480050  0.185230  1.0  -0.1438
  C  C1249  1  0.611740  0.486580  0.194480  1.0  -0.0978
  C  C1250  1  0.596050  0.496270  0.219790  1.0  -0.1351
  C  C1251  1  0.564720  0.499440  0.234920  1.0  0.1567
  C  C1252  1  0.489920  0.506040  0.192420  1.0  0.1874
  C  C1253  1  0.433650  0.517250  0.296190  1.0  0.1831
  C  C1254  1  0.402940  0.520920  0.310240  1.0  -0.1396
  C  C1255  1  0.388380  0.515320  0.299200  1.0  -0.0316
  C  C1256  1  0.406260  0.505360  0.274240  1.0  -0.1077
  C  C1257  1  0.437700  0.500740  0.262140  1.0  0.1533
  C  C1258  1  0.356110  0.516930  0.313970  1.0  0.217
  C  C1259  1  0.208110  0.004510  0.819310  1.0  0.203
  C  C1260  1  0.194600  0.075240  0.746620  1.0  0.1812
  C  C1261  1  0.177830  0.105190  0.733750  1.0  -0.1423
  C  C1262  1  0.193540  0.124440  0.707820  1.0  -0.0511
  C  C1263  1  0.225200  0.113280  0.697580  1.0  -0.1299
  C  C1264  1  0.240250  0.083050  0.712470  1.0  0.1724
  C  C1265  1  0.176880  0.154900  0.689720  1.0  0.2992
  C  C1266  1  0.132720  0.194760  0.685100  1.0  0.3906
  C  C1267  1  0.177100  0.193960  0.644600  1.0  0.2705
  C  C1268  1  0.053370  0.209710  0.742630  1.0  0.1737
  C  C1269  1  0.084670  0.196450  0.730330  1.0  -0.1229
  C  C1270  1  0.099270  0.209390  0.699010  1.0  -0.0717
  C  C1271  1  0.081420  0.235540  0.682180  1.0  -0.1383
  C  C1272  1  0.050030  0.247030  0.696650  1.0  0.1807
  C  C1273  1  0.201640  0.249600  0.565500  1.0  0.1892
  C  C1274  1  0.185230  0.238790  0.595930  1.0  -0.1462
  C  C1275  1  0.194480  0.207200  0.611740  1.0  -0.0989
  C  C1276  1  0.219790  0.187890  0.596050  1.0  -0.1342
  C  C1277  1  0.234920  0.200920  0.564720  1.0  0.1596
  C  C1278  1  0.192420  0.311620  0.489920  1.0  0.1879
  C  C1279  1  0.296190  0.252910  0.433650  1.0  0.1871
  C  C1280  1  0.310240  0.265900  0.402940  1.0  -0.1372
  C  C1281  1  0.299200  0.297100  0.388380  1.0  -0.0308
  C  C1282  1  0.274240  0.314140  0.406260  1.0  -0.1073
  C  C1283  1  0.262140  0.299420  0.437700  1.0  0.1571
  C  C1284  1  0.313970  0.312990  0.356110  1.0  0.2165
  C  C1285  1  0.468070  0.819310  0.004510  1.0  0.2096
  C  C1286  1  0.483540  0.746620  0.075240  1.0  0.1754
  C  C1287  1  0.483230  0.733750  0.105190  1.0  -0.1451
  C  C1288  1  0.474200  0.707820  0.124440  1.0  -0.0493
  C  C1289  1  0.463940  0.697580  0.113280  1.0  -0.1324
  C  C1290  1  0.464230  0.712470  0.083050  1.0  0.1746
  C  C1291  1  0.478500  0.689720  0.154900  1.0  0.2989
  C  C1292  1  0.487420  0.685100  0.194760  1.0  0.3909
  C  C1293  1  0.484340  0.644600  0.193960  1.0  0.2707
  C  C1294  1  0.494290  0.742630  0.209710  1.0  0.1715
  C  C1295  1  0.488550  0.730330  0.196450  1.0  -0.1218
  C  C1296  1  0.492330  0.699010  0.209390  1.0  -0.0717
  C  C1297  1  0.500860  0.682180  0.235540  1.0  -0.1357
  C  C1298  1  0.506290  0.696650  0.247030  1.0  0.1827
  C  C1299  1  0.483260  0.565500  0.249600  1.0  0.1836
  C  C1300  1  0.480050  0.595930  0.238790  1.0  -0.1445
  C  C1301  1  0.486580  0.611740  0.207200  1.0  -0.097
  C  C1302  1  0.496270  0.596050  0.187890  1.0  -0.137
  C  C1303  1  0.499440  0.564720  0.200920  1.0  0.1566
  C  C1304  1  0.506040  0.489920  0.311620  1.0  0.1821
  C  C1305  1  0.517250  0.433650  0.252910  1.0  0.1827
  C  C1306  1  0.520920  0.402940  0.265900  1.0  -0.1364
  C  C1307  1  0.515320  0.388380  0.297100  1.0  -0.0315
  C  C1308  1  0.505360  0.406260  0.314140  1.0  -0.107
  C  C1309  1  0.500740  0.437700  0.299420  1.0  0.1527
  C  C1310  1  0.516930  0.356110  0.312990  1.0  0.2175
  C  C1311  1  0.004510  0.208110  0.468070  1.0  0.1963
  C  C1312  1  0.075240  0.194600  0.483540  1.0  0.1797
  C  C1313  1  0.105190  0.177830  0.483230  1.0  -0.141
  C  C1314  1  0.124440  0.193540  0.474200  1.0  -0.0512
  C  C1315  1  0.113280  0.225200  0.463940  1.0  -0.1315
  C  C1316  1  0.083050  0.240250  0.464230  1.0  0.1745
  C  C1317  1  0.154900  0.176880  0.478500  1.0  0.2988
  C  C1318  1  0.194760  0.132720  0.487420  1.0  0.3908
  C  C1319  1  0.193960  0.177100  0.484340  1.0  0.2711
  C  C1320  1  0.209710  0.053370  0.494290  1.0  0.1752
  C  C1321  1  0.196450  0.084670  0.488550  1.0  -0.1241
  C  C1322  1  0.209390  0.099270  0.492330  1.0  -0.0677
  C  C1323  1  0.235540  0.081420  0.500860  1.0  -0.1385
  C  C1324  1  0.247030  0.050030  0.506290  1.0  0.1813
  C  C1325  1  0.249600  0.201640  0.483260  1.0  0.1875
  C  C1326  1  0.238790  0.185230  0.480050  1.0  -0.145
  C  C1327  1  0.207200  0.194480  0.486580  1.0  -0.099
  C  C1328  1  0.187890  0.219790  0.496270  1.0  -0.1336
  C  C1329  1  0.200920  0.234920  0.499440  1.0  0.1588
  C  C1330  1  0.311620  0.192420  0.506040  1.0  0.1873
  C  C1331  1  0.252910  0.296190  0.517250  1.0  0.1884
  C  C1332  1  0.265900  0.310240  0.520920  1.0  -0.1389
  C  C1333  1  0.297100  0.299200  0.515320  1.0  -0.0326
  C  C1334  1  0.314140  0.274240  0.505360  1.0  -0.106
  C  C1335  1  0.299420  0.262140  0.500740  1.0  0.1582
  C  C1336  1  0.312990  0.313970  0.516930  1.0  0.2168
  C  C1337  1  0.004510  0.819310  0.208110  1.0  0.2087
  C  C1338  1  0.075240  0.746620  0.194600  1.0  0.1799
  C  C1339  1  0.105190  0.733750  0.177830  1.0  -0.1435
  C  C1340  1  0.124440  0.707820  0.193540  1.0  -0.0511
  C  C1341  1  0.113280  0.697580  0.225200  1.0  -0.1339
  C  C1342  1  0.083050  0.712470  0.240250  1.0  0.1693
  C  C1343  1  0.154900  0.689720  0.176880  1.0  0.2988
  C  C1344  1  0.194760  0.685100  0.132720  1.0  0.391
  C  C1345  1  0.193960  0.644600  0.177100  1.0  0.2713
  C  C1346  1  0.209710  0.742630  0.053370  1.0  0.1752
  C  C1347  1  0.196450  0.730330  0.084670  1.0  -0.1236
  C  C1348  1  0.209390  0.699010  0.099270  1.0  -0.072
  C  C1349  1  0.235540  0.682180  0.081420  1.0  -0.1369
  C  C1350  1  0.247030  0.696650  0.050030  1.0  0.1798
  C  C1351  1  0.249600  0.565500  0.201640  1.0  0.188
  C  C1352  1  0.238790  0.595930  0.185230  1.0  -0.1412
  C  C1353  1  0.207200  0.611740  0.194480  1.0  -0.097
  C  C1354  1  0.187890  0.596050  0.219790  1.0  -0.1338
  C  C1355  1  0.200920  0.564720  0.234920  1.0  0.1583
  C  C1356  1  0.311620  0.489920  0.192420  1.0  0.1871
  C  C1357  1  0.252910  0.433650  0.296190  1.0  0.188
  C  C1358  1  0.265900  0.402940  0.310240  1.0  -0.1356
  C  C1359  1  0.297100  0.388380  0.299200  1.0  -0.0316
  C  C1360  1  0.314140  0.406260  0.274240  1.0  -0.1073
  C  C1361  1  0.299420  0.437700  0.262140  1.0  0.1569
  C  C1362  1  0.312990  0.356110  0.313970  1.0  0.2172
  C  C1363  1  0.468070  0.208110  0.819310  1.0  0.1956
  C  C1364  1  0.483540  0.194600  0.746620  1.0  0.1819
  C  C1365  1  0.483230  0.177830  0.733750  1.0  -0.1397
  C  C1366  1  0.474200  0.193540  0.707820  1.0  -0.0508
  C  C1367  1  0.463940  0.225200  0.697580  1.0  -0.1342
  C  C1368  1  0.464230  0.240250  0.712470  1.0  0.1695
  C  C1369  1  0.478500  0.176880  0.689720  1.0  0.2993
  C  C1370  1  0.487420  0.132720  0.685100  1.0  0.3908
  C  C1371  1  0.484340  0.177100  0.644600  1.0  0.2707
  C  C1372  1  0.494290  0.053370  0.742630  1.0  0.1735
  C  C1373  1  0.488550  0.084670  0.730330  1.0  -0.1235
  C  C1374  1  0.492330  0.099270  0.699010  1.0  -0.0676
  C  C1375  1  0.500860  0.081420  0.682180  1.0  -0.138
  C  C1376  1  0.506290  0.050030  0.696650  1.0  0.1792
  C  C1377  1  0.483260  0.201640  0.565500  1.0  0.1887
  C  C1378  1  0.480050  0.185230  0.595930  1.0  -0.1438
  C  C1379  1  0.486580  0.194480  0.611740  1.0  -0.0991
  C  C1380  1  0.496270  0.219790  0.596050  1.0  -0.1345
  C  C1381  1  0.499440  0.234920  0.564720  1.0  0.1569
  C  C1382  1  0.506040  0.192420  0.489920  1.0  0.185
  C  C1383  1  0.517250  0.296190  0.433650  1.0  0.1889
  C  C1384  1  0.520920  0.310240  0.402940  1.0  -0.1385
  C  C1385  1  0.515320  0.299200  0.388380  1.0  -0.0323
  C  C1386  1  0.505360  0.274240  0.406260  1.0  -0.1078
  C  C1387  1  0.500740  0.262140  0.437700  1.0  0.154
  C  C1388  1  0.516930  0.313970  0.356110  1.0  0.2165
  C  C1389  1  0.208110  0.468070  0.004510  1.0  0.2014
  C  C1390  1  0.194600  0.483540  0.075240  1.0  0.1814
  C  C1391  1  0.177830  0.483230  0.105190  1.0  -0.1404
  C  C1392  1  0.193540  0.474200  0.124440  1.0  -0.0515
  C  C1393  1  0.225200  0.463940  0.113280  1.0  -0.133
  C  C1394  1  0.240250  0.464230  0.083050  1.0  0.1704
  C  C1395  1  0.176880  0.478500  0.154900  1.0  0.2983
  C  C1396  1  0.132720  0.487420  0.194760  1.0  0.3904
  C  C1397  1  0.177100  0.484340  0.193960  1.0  0.2706
  C  C1398  1  0.053370  0.494290  0.209710  1.0  0.1733
  C  C1399  1  0.084670  0.488550  0.196450  1.0  -0.1247
  C  C1400  1  0.099270  0.492330  0.209390  1.0  -0.0707
  C  C1401  1  0.081420  0.500860  0.235540  1.0  -0.1399
  C  C1402  1  0.050030  0.506290  0.247030  1.0  0.1789
  C  C1403  1  0.201640  0.483260  0.249600  1.0  0.1909
  C  C1404  1  0.185230  0.480050  0.238790  1.0  -0.141
  C  C1405  1  0.194480  0.486580  0.207200  1.0  -0.0986
  C  C1406  1  0.219790  0.496270  0.187890  1.0  -0.1356
  C  C1407  1  0.234920  0.499440  0.200920  1.0  0.1577
  C  C1408  1  0.192420  0.506040  0.311620  1.0  0.1847
  C  C1409  1  0.296190  0.517250  0.252910  1.0  0.1898
  C  C1410  1  0.310240  0.520920  0.265900  1.0  -0.1352
  C  C1411  1  0.299200  0.515320  0.297100  1.0  -0.0328
  C  C1412  1  0.274240  0.505360  0.314140  1.0  -0.1075
  C  C1413  1  0.262140  0.500740  0.299420  1.0  0.1526
  C  C1414  1  0.313970  0.516930  0.312990  1.0  0.2171
  C  C1415  1  0.819310  0.004510  0.468070  1.0  0.2051
  C  C1416  1  0.746620  0.075240  0.483540  1.0  0.1809
  C  C1417  1  0.733750  0.105190  0.483230  1.0  -0.1429
  C  C1418  1  0.707820  0.124440  0.474200  1.0  -0.0515
  C  C1419  1  0.697580  0.113280  0.463940  1.0  -0.1338
  C  C1420  1  0.712470  0.083050  0.464230  1.0  0.1698
  C  C1421  1  0.689720  0.154900  0.478500  1.0  0.2995
  C  C1422  1  0.685100  0.194760  0.487420  1.0  0.3909
  C  C1423  1  0.644600  0.193960  0.484340  1.0  0.2706
  C  C1424  1  0.742630  0.209710  0.494290  1.0  0.1749
  C  C1425  1  0.730330  0.196450  0.488550  1.0  -0.1223
  C  C1426  1  0.699010  0.209390  0.492330  1.0  -0.0748
  C  C1427  1  0.682180  0.235540  0.500860  1.0  -0.1386
  C  C1428  1  0.696650  0.247030  0.506290  1.0  0.1819
  C  C1429  1  0.565500  0.249600  0.483260  1.0  0.1899
  C  C1430  1  0.595930  0.238790  0.480050  1.0  -0.1445
  C  C1431  1  0.611740  0.207200  0.486580  1.0  -0.098
  C  C1432  1  0.596050  0.187890  0.496270  1.0  -0.1344
  C  C1433  1  0.564720  0.200920  0.499440  1.0  0.157
  C  C1434  1  0.489920  0.311620  0.506040  1.0  0.1829
  C  C1435  1  0.433650  0.252910  0.517250  1.0  0.1871
  C  C1436  1  0.402940  0.265900  0.520920  1.0  -0.1364
  C  C1437  1  0.388380  0.297100  0.515320  1.0  -0.032
  C  C1438  1  0.406260  0.314140  0.505360  1.0  -0.1076
  C  C1439  1  0.437700  0.299420  0.500740  1.0  0.1558
  C  C1440  1  0.356110  0.312990  0.516930  1.0  0.2168
  C  C1441  1  0.968070  0.504510  0.319310  1.0  0.2004
  C  C1442  1  0.983540  0.575240  0.246620  1.0  0.1791
  C  C1443  1  0.983230  0.605190  0.233750  1.0  -0.1459
  C  C1444  1  0.974200  0.624440  0.207820  1.0  -0.0512
  C  C1445  1  0.963940  0.613280  0.197580  1.0  -0.1334
  C  C1446  1  0.964230  0.583050  0.212470  1.0  0.1695
  C  C1447  1  0.978500  0.654900  0.189720  1.0  0.299
  C  C1448  1  0.987420  0.694760  0.185100  1.0  0.3908
  C  C1449  1  0.984340  0.693960  0.144600  1.0  0.2703
  C  C1450  1  0.994290  0.709710  0.242630  1.0  0.1764
  C  C1451  1  0.988550  0.696450  0.230330  1.0  -0.1224
  C  C1452  1  0.992330  0.709390  0.199010  1.0  -0.0712
  C  C1453  1  0.000860  0.735540  0.182180  1.0  -0.1378
  C  C1454  1  0.006290  0.747030  0.196650  1.0  0.1775
  C  C1455  1  0.983260  0.749600  0.065500  1.0  0.1862
  C  C1456  1  0.980050  0.738790  0.095930  1.0  -0.1451
  C  C1457  1  0.986580  0.707200  0.111740  1.0  -0.0969
  C  C1458  1  0.996270  0.687890  0.096050  1.0  -0.134
  C  C1459  1  0.999440  0.700920  0.064720  1.0  0.16
  C  C1460  1  0.006040  0.811620  0.989920  1.0  0.186
  C  C1461  1  0.017250  0.752910  0.933650  1.0  0.1822
  C  C1462  1  0.020920  0.765900  0.902940  1.0  -0.1367
  C  C1463  1  0.015320  0.797100  0.888380  1.0  -0.0323
  C  C1464  1  0.005360  0.814140  0.906260  1.0  -0.1079
  C  C1465  1  0.000740  0.799420  0.937700  1.0  0.1567
  C  C1466  1  0.016930  0.812990  0.856110  1.0  0.2169
  C  C1467  1  0.504510  0.968070  0.708110  1.0  0.2014
  C  C1468  1  0.575240  0.983540  0.694600  1.0  0.178
  C  C1469  1  0.605190  0.983230  0.677830  1.0  -0.1443
  C  C1470  1  0.624440  0.974200  0.693540  1.0  -0.0509
  C  C1471  1  0.613280  0.963940  0.725200  1.0  -0.1338
  C  C1472  1  0.583050  0.964230  0.740250  1.0  0.1696
  C  C1473  1  0.654900  0.978500  0.676880  1.0  0.2989
  C  C1474  1  0.694760  0.987420  0.632720  1.0  0.3908
  C  C1475  1  0.693960  0.984340  0.677100  1.0  0.2705
  C  C1476  1  0.709710  0.994290  0.553370  1.0  0.1783
  C  C1477  1  0.696450  0.988550  0.584670  1.0  -0.1231
  C  C1478  1  0.709390  0.992330  0.599270  1.0  -0.072
  C  C1479  1  0.735540  0.000860  0.581420  1.0  -0.1368
  C  C1480  1  0.747030  0.006290  0.550030  1.0  0.179
  C  C1481  1  0.749600  0.983260  0.701640  1.0  0.1881
  C  C1482  1  0.738790  0.980050  0.685230  1.0  -0.1419
  C  C1483  1  0.707200  0.986580  0.694480  1.0  -0.0967
  C  C1484  1  0.687890  0.996270  0.719790  1.0  -0.1336
  C  C1485  1  0.700920  0.999440  0.734920  1.0  0.1612
  C  C1486  1  0.811620  0.006040  0.692420  1.0  0.1892
  C  C1487  1  0.752910  0.017250  0.796190  1.0  0.1835
  C  C1488  1  0.765900  0.020920  0.810240  1.0  -0.1366
  C  C1489  1  0.797100  0.015320  0.799200  1.0  -0.0327
  C  C1490  1  0.814140  0.005360  0.774240  1.0  -0.105
  C  C1491  1  0.799420  0.000740  0.762140  1.0  0.1592
  C  C1492  1  0.812990  0.016930  0.813970  1.0  0.2174
  C  C1493  1  0.319310  0.708110  0.968070  1.0  0.2029
  C  C1494  1  0.246620  0.694600  0.983540  1.0  0.1795
  C  C1495  1  0.233750  0.677830  0.983230  1.0  -0.1412
  C  C1496  1  0.207820  0.693540  0.974200  1.0  -0.0492
  C  C1497  1  0.197580  0.725200  0.963940  1.0  -0.1355
  C  C1498  1  0.212470  0.740250  0.964230  1.0  0.1695
  C  C1499  1  0.189720  0.676880  0.978500  1.0  0.299
  C  C1500  1  0.185100  0.632720  0.987420  1.0  0.391
  C  C1501  1  0.144600  0.677100  0.984340  1.0  0.2709
  C  C1502  1  0.242630  0.553370  0.994290  1.0  0.1757
  C  C1503  1  0.230330  0.584670  0.988550  1.0  -0.1196
  C  C1504  1  0.199010  0.599270  0.992330  1.0  -0.0687
  C  C1505  1  0.182180  0.581420  0.000860  1.0  -0.1381
  C  C1506  1  0.196650  0.550030  0.006290  1.0  0.1811
  C  C1507  1  0.065500  0.701640  0.983260  1.0  0.1858
  C  C1508  1  0.095930  0.685230  0.980050  1.0  -0.1478
  C  C1509  1  0.111740  0.694480  0.986580  1.0  -0.0981
  C  C1510  1  0.096050  0.719790  0.996270  1.0  -0.1339
  C  C1511  1  0.064720  0.734920  0.999440  1.0  0.1576
  C  C1512  1  0.989920  0.692420  0.006040  1.0  0.1863
  C  C1513  1  0.933650  0.796190  0.017250  1.0  0.184
  C  C1514  1  0.902940  0.810240  0.020920  1.0  -0.1412
  C  C1515  1  0.888380  0.799200  0.015320  1.0  -0.032
  C  C1516  1  0.906260  0.774240  0.005360  1.0  -0.1086
  C  C1517  1  0.937700  0.762140  0.000740  1.0  0.1551
  C  C1518  1  0.856110  0.813970  0.016930  1.0  0.2169
  C  C1519  1  0.708110  0.319310  0.504510  1.0  0.2084
  C  C1520  1  0.694600  0.246620  0.575240  1.0  0.1805
  C  C1521  1  0.677830  0.233750  0.605190  1.0  -0.142
  C  C1522  1  0.693540  0.207820  0.624440  1.0  -0.0502
  C  C1523  1  0.725200  0.197580  0.613280  1.0  -0.1332
  C  C1524  1  0.740250  0.212470  0.583050  1.0  0.17
  C  C1525  1  0.676880  0.189720  0.654900  1.0  0.2988
  C  C1526  1  0.632720  0.185100  0.694760  1.0  0.3905
  C  C1527  1  0.677100  0.144600  0.693960  1.0  0.2708
  C  C1528  1  0.553370  0.242630  0.709710  1.0  0.1744
  C  C1529  1  0.584670  0.230330  0.696450  1.0  -0.1198
  C  C1530  1  0.599270  0.199010  0.709390  1.0  -0.0712
  C  C1531  1  0.581420  0.182180  0.735540  1.0  -0.1363
  C  C1532  1  0.550030  0.196650  0.747030  1.0  0.1805
  C  C1533  1  0.701640  0.065500  0.749600  1.0  0.1861
  C  C1534  1  0.685230  0.095930  0.738790  1.0  -0.1446
  C  C1535  1  0.694480  0.111740  0.707200  1.0  -0.0969
  C  C1536  1  0.719790  0.096050  0.687890  1.0  -0.1357
  C  C1537  1  0.734920  0.064720  0.700920  1.0  0.1591
  C  C1538  1  0.692420  0.989920  0.811620  1.0  0.186
  C  C1539  1  0.796190  0.933650  0.752910  1.0  0.1844
  C  C1540  1  0.810240  0.902940  0.765900  1.0  -0.1374
  C  C1541  1  0.799200  0.888380  0.797100  1.0  -0.0315
  C  C1542  1  0.774240  0.906260  0.814140  1.0  -0.1076
  C  C1543  1  0.762140  0.937700  0.799420  1.0  0.1566
  C  C1544  1  0.813970  0.856110  0.812990  1.0  0.2174
  C  C1545  1  0.319310  0.968070  0.504510  1.0  0.204
  C  C1546  1  0.246620  0.983540  0.575240  1.0  0.1772
  C  C1547  1  0.233750  0.983230  0.605190  1.0  -0.1434
  C  C1548  1  0.207820  0.974200  0.624440  1.0  -0.0483
  C  C1549  1  0.197580  0.963940  0.613280  1.0  -0.1318
  C  C1550  1  0.212470  0.964230  0.583050  1.0  0.1753
  C  C1551  1  0.189720  0.978500  0.654900  1.0  0.2984
  C  C1552  1  0.185100  0.987420  0.694760  1.0  0.3907
  C  C1553  1  0.144600  0.984340  0.693960  1.0  0.271
  C  C1554  1  0.242630  0.994290  0.709710  1.0  0.1736
  C  C1555  1  0.230330  0.988550  0.696450  1.0  -0.1214
  C  C1556  1  0.199010  0.992330  0.709390  1.0  -0.0734
  C  C1557  1  0.182180  0.000860  0.735540  1.0  -0.134
  C  C1558  1  0.196650  0.006290  0.747030  1.0  0.1827
  C  C1559  1  0.065500  0.983260  0.749600  1.0  0.1852
  C  C1560  1  0.095930  0.980050  0.738790  1.0  -0.1441
  C  C1561  1  0.111740  0.986580  0.707200  1.0  -0.0978
  C  C1562  1  0.096050  0.996270  0.687890  1.0  -0.1363
  C  C1563  1  0.064720  0.999440  0.700920  1.0  0.158
  C  C1564  1  0.989920  0.006040  0.811620  1.0  0.1819
  C  C1565  1  0.933650  0.017250  0.752910  1.0  0.1837
  C  C1566  1  0.902940  0.020920  0.765900  1.0  -0.1378
  C  C1567  1  0.888380  0.015320  0.797100  1.0  -0.0315
  C  C1568  1  0.906260  0.005360  0.814140  1.0  -0.1078
  C  C1569  1  0.937700  0.000740  0.799420  1.0  0.1534
  C  C1570  1  0.856110  0.016930  0.812990  1.0  0.2171
  C  C1571  1  0.708110  0.504510  0.968070  1.0  0.201
  C  C1572  1  0.694600  0.575240  0.983540  1.0  0.1811
  C  C1573  1  0.677830  0.605190  0.983230  1.0  -0.1424
  C  C1574  1  0.693540  0.624440  0.974200  1.0  -0.0509
  C  C1575  1  0.725200  0.613280  0.963940  1.0  -0.13
  C  C1576  1  0.740250  0.583050  0.964230  1.0  0.1722
  C  C1577  1  0.676880  0.654900  0.978500  1.0  0.2991
  C  C1578  1  0.632720  0.694760  0.987420  1.0  0.3907
  C  C1579  1  0.677100  0.693960  0.984340  1.0  0.2707
  C  C1580  1  0.553370  0.709710  0.994290  1.0  0.1726
  C  C1581  1  0.584670  0.696450  0.988550  1.0  -0.1237
  C  C1582  1  0.599270  0.709390  0.992330  1.0  -0.0717
  C  C1583  1  0.581420  0.735540  0.000860  1.0  -0.1388
  C  C1584  1  0.550030  0.747030  0.006290  1.0  0.18
  C  C1585  1  0.701640  0.749600  0.983260  1.0  0.1891
  C  C1586  1  0.685230  0.738790  0.980050  1.0  -0.1452
  C  C1587  1  0.694480  0.707200  0.986580  1.0  -0.0989
  C  C1588  1  0.719790  0.687890  0.996270  1.0  -0.134
  C  C1589  1  0.734920  0.700920  0.999440  1.0  0.159
  C  C1590  1  0.692420  0.811620  0.006040  1.0  0.1876
  C  C1591  1  0.796190  0.752910  0.017250  1.0  0.1866
  C  C1592  1  0.810240  0.765900  0.020920  1.0  -0.1377
  C  C1593  1  0.799200  0.797100  0.015320  1.0  -0.0325
  C  C1594  1  0.774240  0.814140  0.005360  1.0  -0.1075
  C  C1595  1  0.762140  0.799420  0.000740  1.0  0.157
  C  C1596  1  0.813970  0.812990  0.016930  1.0  0.2167
  C  C1597  1  0.968070  0.319310  0.708110  1.0  0.2083
  C  C1598  1  0.983540  0.246620  0.694600  1.0  0.1767
  C  C1599  1  0.983230  0.233750  0.677830  1.0  -0.1444
  C  C1600  1  0.974200  0.207820  0.693540  1.0  -0.049
  C  C1601  1  0.963940  0.197580  0.725200  1.0  -0.1324
  C  C1602  1  0.964230  0.212470  0.740250  1.0  0.1751
  C  C1603  1  0.978500  0.189720  0.676880  1.0  0.2992
  C  C1604  1  0.987420  0.185100  0.632720  1.0  0.3904
  C  C1605  1  0.984340  0.144600  0.677100  1.0  0.2707
  C  C1606  1  0.994290  0.242630  0.553370  1.0  0.1723
  C  C1607  1  0.988550  0.230330  0.584670  1.0  -0.122
  C  C1608  1  0.992330  0.199010  0.599270  1.0  -0.0715
  C  C1609  1  0.000860  0.182180  0.581420  1.0  -0.1359
  C  C1610  1  0.006290  0.196650  0.550030  1.0  0.1815
  C  C1611  1  0.983260  0.065500  0.701640  1.0  0.1852
  C  C1612  1  0.980050  0.095930  0.685230  1.0  -0.1429
  C  C1613  1  0.986580  0.111740  0.694480  1.0  -0.097
  C  C1614  1  0.996270  0.096050  0.719790  1.0  -0.1354
  C  C1615  1  0.999440  0.064720  0.734920  1.0  0.1562
  C  C1616  1  0.006040  0.989920  0.692420  1.0  0.1861
  C  C1617  1  0.017250  0.933650  0.796190  1.0  0.1836
  C  C1618  1  0.020920  0.902940  0.810240  1.0  -0.1357
  C  C1619  1  0.015320  0.888380  0.799200  1.0  -0.0316
  C  C1620  1  0.005360  0.906260  0.774240  1.0  -0.1069
  C  C1621  1  0.000740  0.937700  0.762140  1.0  0.1531
  C  C1622  1  0.016930  0.856110  0.813970  1.0  0.2174
  C  C1623  1  0.504510  0.708110  0.319310  1.0  0.1946
  C  C1624  1  0.575240  0.694600  0.246620  1.0  0.1802
  C  C1625  1  0.605190  0.677830  0.233750  1.0  -0.1409
  C  C1626  1  0.624440  0.693540  0.207820  1.0  -0.0513
  C  C1627  1  0.613280  0.725200  0.197580  1.0  -0.1309
  C  C1628  1  0.583050  0.740250  0.212470  1.0  0.1748
  C  C1629  1  0.654900  0.676880  0.189720  1.0  0.2988
  C  C1630  1  0.694760  0.632720  0.185100  1.0  0.3907
  C  C1631  1  0.693960  0.677100  0.144600  1.0  0.2709
  C  C1632  1  0.709710  0.553370  0.242630  1.0  0.1761
  C  C1633  1  0.696450  0.584670  0.230330  1.0  -0.125
  C  C1634  1  0.709390  0.599270  0.199010  1.0  -0.0674
  C  C1635  1  0.735540  0.581420  0.182180  1.0  -0.1374
  C  C1636  1  0.747030  0.550030  0.196650  1.0  0.1812
  C  C1637  1  0.749600  0.701640  0.065500  1.0  0.1869
  C  C1638  1  0.738790  0.685230  0.095930  1.0  -0.1448
  C  C1639  1  0.707200  0.694480  0.111740  1.0  -0.0989
  C  C1640  1  0.687890  0.719790  0.096050  1.0  -0.1338
  C  C1641  1  0.700920  0.734920  0.064720  1.0  0.1594
  C  C1642  1  0.811620  0.692420  0.989920  1.0  0.1871
  C  C1643  1  0.752910  0.796190  0.933650  1.0  0.1895
  C  C1644  1  0.765900  0.810240  0.902940  1.0  -0.1372
  C  C1645  1  0.797100  0.799200  0.888380  1.0  -0.0309
  C  C1646  1  0.814140  0.774240  0.906260  1.0  -0.1058
  C  C1647  1  0.799420  0.762140  0.937700  1.0  0.1592
  C  C1648  1  0.812990  0.813970  0.856110  1.0  0.2166
  C  C1649  1  0.504510  0.319310  0.968070  1.0  0.21
  C  C1650  1  0.575240  0.246620  0.983540  1.0  0.1784
  C  C1651  1  0.605190  0.233750  0.983230  1.0  -0.1442
  C  C1652  1  0.624440  0.207820  0.974200  1.0  -0.0513
  C  C1653  1  0.613280  0.197580  0.963940  1.0  -0.1355
  C  C1654  1  0.583050  0.212470  0.964230  1.0  0.17
  C  C1655  1  0.654900  0.189720  0.978500  1.0  0.2991
  C  C1656  1  0.694760  0.185100  0.987420  1.0  0.3909
  C  C1657  1  0.693960  0.144600  0.984340  1.0  0.2715
  C  C1658  1  0.709710  0.242630  0.994290  1.0  0.175
  C  C1659  1  0.696450  0.230330  0.988550  1.0  -0.1236
  C  C1660  1  0.709390  0.199010  0.992330  1.0  -0.0727
  C  C1661  1  0.735540  0.182180  0.000860  1.0  -0.1369
  C  C1662  1  0.747030  0.196650  0.006290  1.0  0.1802
  C  C1663  1  0.749600  0.065500  0.983260  1.0  0.188
  C  C1664  1  0.738790  0.095930  0.980050  1.0  -0.1411
  C  C1665  1  0.707200  0.111740  0.986580  1.0  -0.097
  C  C1666  1  0.687890  0.096050  0.996270  1.0  -0.1337
  C  C1667  1  0.700920  0.064720  0.999440  1.0  0.1584
  C  C1668  1  0.811620  0.989920  0.006040  1.0  0.1827
  C  C1669  1  0.752910  0.933650  0.017250  1.0  0.1878
  C  C1670  1  0.765900  0.902940  0.020920  1.0  -0.1353
  C  C1671  1  0.797100  0.888380  0.015320  1.0  -0.0317
  C  C1672  1  0.814140  0.906260  0.005360  1.0  -0.1071
  C  C1673  1  0.799420  0.937700  0.000740  1.0  0.157
  C  C1674  1  0.812990  0.856110  0.016930  1.0  0.2172
  C  C1675  1  0.968070  0.708110  0.504510  1.0  0.1967
  C  C1676  1  0.983540  0.694600  0.575240  1.0  0.1809
  C  C1677  1  0.983230  0.677830  0.605190  1.0  -0.1402
  C  C1678  1  0.974200  0.693540  0.624440  1.0  -0.0513
  C  C1679  1  0.963940  0.725200  0.613280  1.0  -0.1351
  C  C1680  1  0.964230  0.740250  0.583050  1.0  0.1685
  C  C1681  1  0.978500  0.676880  0.654900  1.0  0.2986
  C  C1682  1  0.987420  0.632720  0.694760  1.0  0.3907
  C  C1683  1  0.984340  0.677100  0.693960  1.0  0.2705
  C  C1684  1  0.994290  0.553370  0.709710  1.0  0.1722
  C  C1685  1  0.988550  0.584670  0.696450  1.0  -0.1236
  C  C1686  1  0.992330  0.599270  0.709390  1.0  -0.0678
  C  C1687  1  0.000860  0.581420  0.735540  1.0  -0.1405
  C  C1688  1  0.006290  0.550030  0.747030  1.0  0.1794
  C  C1689  1  0.983260  0.701640  0.749600  1.0  0.1897
  C  C1690  1  0.980050  0.685230  0.738790  1.0  -0.144
  C  C1691  1  0.986580  0.694480  0.707200  1.0  -0.0989
  C  C1692  1  0.996270  0.719790  0.687890  1.0  -0.1359
  C  C1693  1  0.999440  0.734920  0.700920  1.0  0.158
  C  C1694  1  0.006040  0.692420  0.811620  1.0  0.1786
  C  C1695  1  0.017250  0.796190  0.752910  1.0  0.1896
  C  C1696  1  0.020920  0.810240  0.765900  1.0  -0.1383
  C  C1697  1  0.015320  0.799200  0.797100  1.0  -0.0341
  C  C1698  1  0.005360  0.774240  0.814140  1.0  -0.1075
  C  C1699  1  0.000740  0.762140  0.799420  1.0  0.1539
  C  C1700  1  0.016930  0.813970  0.812990  1.0  0.2168
  C  C1701  1  0.708110  0.968070  0.319310  1.0  0.203
  C  C1702  1  0.694600  0.983540  0.246620  1.0  0.1817
  C  C1703  1  0.677830  0.983230  0.233750  1.0  -0.1397
  C  C1704  1  0.693540  0.974200  0.207820  1.0  -0.0507
  C  C1705  1  0.725200  0.963940  0.197580  1.0  -0.1347
  C  C1706  1  0.740250  0.964230  0.212470  1.0  0.1702
  C  C1707  1  0.676880  0.978500  0.189720  1.0  0.299
  C  C1708  1  0.632720  0.987420  0.185100  1.0  0.3906
  C  C1709  1  0.677100  0.984340  0.144600  1.0  0.2709
  C  C1710  1  0.553370  0.994290  0.242630  1.0  0.1744
  C  C1711  1  0.584670  0.988550  0.230330  1.0  -0.1229
  C  C1712  1  0.599270  0.992330  0.199010  1.0  -0.0706
  C  C1713  1  0.581420  0.000860  0.182180  1.0  -0.137
  C  C1714  1  0.550030  0.006290  0.196650  1.0  0.1791
  C  C1715  1  0.701640  0.983260  0.065500  1.0  0.19
  C  C1716  1  0.685230  0.980050  0.095930  1.0  -0.1411
  C  C1717  1  0.694480  0.986580  0.111740  1.0  -0.0988
  C  C1718  1  0.719790  0.996270  0.096050  1.0  -0.1342
  C  C1719  1  0.734920  0.999440  0.064720  1.0  0.1573
  C  C1720  1  0.692420  0.006040  0.989920  1.0  0.1875
  C  C1721  1  0.796190  0.017250  0.933650  1.0  0.1895
  C  C1722  1  0.810240  0.020920  0.902940  1.0  -0.135
  C  C1723  1  0.799200  0.015320  0.888380  1.0  -0.0316
  C  C1724  1  0.774240  0.005360  0.906260  1.0  -0.1075
  C  C1725  1  0.762140  0.000740  0.937700  1.0  0.1539
  C  C1726  1  0.813970  0.016930  0.856110  1.0  0.2168
  C  C1727  1  0.319310  0.504510  0.708110  1.0  0.2035
  C  C1728  1  0.246620  0.575240  0.694600  1.0  0.1815
  C  C1729  1  0.233750  0.605190  0.677830  1.0  -0.1416
  C  C1730  1  0.207820  0.624440  0.693540  1.0  -0.0515
  C  C1731  1  0.197580  0.613280  0.725200  1.0  -0.1344
  C  C1732  1  0.212470  0.583050  0.740250  1.0  0.1689
  C  C1733  1  0.189720  0.654900  0.676880  1.0  0.2992
  C  C1734  1  0.185100  0.694760  0.632720  1.0  0.3909
  C  C1735  1  0.144600  0.693960  0.677100  1.0  0.2704
  C  C1736  1  0.242630  0.709710  0.553370  1.0  0.1749
  C  C1737  1  0.230330  0.696450  0.584670  1.0  -0.122
  C  C1738  1  0.199010  0.709390  0.599270  1.0  -0.0741
  C  C1739  1  0.182180  0.735540  0.581420  1.0  -0.1387
  C  C1740  1  0.196650  0.747030  0.550030  1.0  0.1825
  C  C1741  1  0.065500  0.749600  0.701640  1.0  0.1894
  C  C1742  1  0.095930  0.738790  0.685230  1.0  -0.1441
  C  C1743  1  0.111740  0.707200  0.694480  1.0  -0.0981
  C  C1744  1  0.096050  0.687890  0.719790  1.0  -0.1341
  C  C1745  1  0.064720  0.700920  0.734920  1.0  0.1572
  C  C1746  1  0.989920  0.811620  0.692420  1.0  0.1839
  C  C1747  1  0.933650  0.752910  0.796190  1.0  0.1875
  C  C1748  1  0.902940  0.765900  0.810240  1.0  -0.1365
  C  C1749  1  0.888380  0.797100  0.799200  1.0  -0.0318
  C  C1750  1  0.906260  0.814140  0.774240  1.0  -0.1079
  C  C1751  1  0.937700  0.799420  0.762140  1.0  0.1556
  C  C1752  1  0.856110  0.812990  0.813970  1.0  0.2167
  C  C1753  1  0.531930  0.995490  0.791890  1.0  0.2007
  C  C1754  1  0.516460  0.924760  0.805400  1.0  0.1789
  C  C1755  1  0.516770  0.894810  0.822170  1.0  -0.1456
  C  C1756  1  0.525800  0.875560  0.806460  1.0  -0.0526
  C  C1757  1  0.536060  0.886720  0.774800  1.0  -0.134
  C  C1758  1  0.535770  0.916950  0.759750  1.0  0.1686
  C  C1759  1  0.521500  0.845100  0.823120  1.0  0.2994
  C  C1760  1  0.512580  0.805240  0.867280  1.0  0.3904
  C  C1761  1  0.515660  0.806040  0.822900  1.0  0.2702
  C  C1762  1  0.505710  0.790290  0.946630  1.0  0.1765
  C  C1763  1  0.511450  0.803550  0.915330  1.0  -0.1191
  C  C1764  1  0.507670  0.790610  0.900730  1.0  -0.0702
  C  C1765  1  0.499140  0.764460  0.918580  1.0  -0.1366
  C  C1766  1  0.493710  0.752970  0.949970  1.0  0.179
  C  C1767  1  0.516740  0.750400  0.798360  1.0  0.1863
  C  C1768  1  0.519950  0.761210  0.814770  1.0  -0.146
  C  C1769  1  0.513420  0.792800  0.805520  1.0  -0.0973
  C  C1770  1  0.503730  0.812110  0.780210  1.0  -0.134
  C  C1771  1  0.500560  0.799080  0.765080  1.0  0.161
  C  C1772  1  0.493960  0.688380  0.807580  1.0  0.183
  C  C1773  1  0.482750  0.747090  0.703810  1.0  0.1835
  C  C1774  1  0.479080  0.734100  0.689760  1.0  -0.1363
  C  C1775  1  0.484680  0.702900  0.700800  1.0  -0.0324
  C  C1776  1  0.494640  0.685860  0.725760  1.0  -0.1072
  C  C1777  1  0.499260  0.700580  0.737860  1.0  0.159
  C  C1778  1  0.483070  0.687010  0.686030  1.0  0.2176
  C  C1779  1  0.995490  0.531930  0.180690  1.0  0.2028
  C  C1780  1  0.924760  0.516460  0.253380  1.0  0.179
  C  C1781  1  0.894810  0.516770  0.266250  1.0  -0.1444
  C  C1782  1  0.875560  0.525800  0.292180  1.0  -0.0513
  C  C1783  1  0.886720  0.536060  0.302420  1.0  -0.1355
  C  C1784  1  0.916950  0.535770  0.287530  1.0  0.1695
  C  C1785  1  0.845100  0.521500  0.310280  1.0  0.299
  C  C1786  1  0.805240  0.512580  0.314900  1.0  0.3905
  C  C1787  1  0.806040  0.515660  0.355400  1.0  0.2706
  C  C1788  1  0.790290  0.505710  0.257370  1.0  0.1785
  C  C1789  1  0.803550  0.511450  0.269670  1.0  -0.1198
  C  C1790  1  0.790610  0.507670  0.300990  1.0  -0.0713
  C  C1791  1  0.764460  0.499140  0.317820  1.0  -0.1375
  C  C1792  1  0.752970  0.493710  0.303350  1.0  0.1786
  C  C1793  1  0.750400  0.516740  0.434500  1.0  0.1883
  C  C1794  1  0.761210  0.519950  0.404070  1.0  -0.1422
  C  C1795  1  0.792800  0.513420  0.388260  1.0  -0.0966
  C  C1796  1  0.812110  0.503730  0.403950  1.0  -0.1324
  C  C1797  1  0.799080  0.500560  0.435280  1.0  0.1615
  C  C1798  1  0.688380  0.493960  0.510080  1.0  0.187
  C  C1799  1  0.747090  0.482750  0.566350  1.0  0.1854
  C  C1800  1  0.734100  0.479080  0.597060  1.0  -0.1356
  C  C1801  1  0.702900  0.484680  0.611620  1.0  -0.0326
  C  C1802  1  0.685860  0.494640  0.593740  1.0  -0.1079
  C  C1803  1  0.700580  0.499260  0.562300  1.0  0.1583
  C  C1804  1  0.687010  0.483070  0.643890  1.0  0.2172
  C  C1805  1  0.180690  0.791890  0.995490  1.0  0.2039
  C  C1806  1  0.253380  0.805400  0.924760  1.0  0.1795
  C  C1807  1  0.266250  0.822170  0.894810  1.0  -0.1404
  C  C1808  1  0.292180  0.806460  0.875560  1.0  -0.0488
  C  C1809  1  0.302420  0.774800  0.886720  1.0  -0.1353
  C  C1810  1  0.287530  0.759750  0.916950  1.0  0.1695
  C  C1811  1  0.310280  0.823120  0.845100  1.0  0.2991
  C  C1812  1  0.314900  0.867280  0.805240  1.0  0.3911
  C  C1813  1  0.355400  0.822900  0.806040  1.0  0.2713
  C  C1814  1  0.257370  0.946630  0.790290  1.0  0.1749
  C  C1815  1  0.269670  0.915330  0.803550  1.0  -0.1228
  C  C1816  1  0.300990  0.900730  0.790610  1.0  -0.0683
  C  C1817  1  0.317820  0.918580  0.764460  1.0  -0.1357
  C  C1818  1  0.303350  0.949970  0.752970  1.0  0.1818
  C  C1819  1  0.434500  0.798360  0.750400  1.0  0.1863
  C  C1820  1  0.404070  0.814770  0.761210  1.0  -0.1465
  C  C1821  1  0.388260  0.805520  0.792800  1.0  -0.0977
  C  C1822  1  0.403950  0.780210  0.812110  1.0  -0.1352
  C  C1823  1  0.435280  0.765080  0.799080  1.0  0.1584
  C  C1824  1  0.510080  0.807580  0.688380  1.0  0.1869
  C  C1825  1  0.566350  0.703810  0.747090  1.0  0.1833
  C  C1826  1  0.597060  0.689760  0.734100  1.0  -0.1388
  C  C1827  1  0.611620  0.700800  0.702900  1.0  -0.0298
  C  C1828  1  0.593740  0.725760  0.685860  1.0  -0.1089
  C  C1829  1  0.562300  0.737860  0.700580  1.0  0.1568
  C  C1830  1  0.643890  0.686030  0.687010  1.0  0.217
  C  C1831  1  0.791890  0.180690  0.531930  1.0  0.2018
  C  C1832  1  0.805400  0.253380  0.516460  1.0  0.181
  C  C1833  1  0.822170  0.266250  0.516770  1.0  -0.1404
  C  C1834  1  0.806460  0.292180  0.525800  1.0  -0.0513
  C  C1835  1  0.774800  0.302420  0.536060  1.0  -0.1359
  C  C1836  1  0.759750  0.287530  0.535770  1.0  0.169
  C  C1837  1  0.823120  0.310280  0.521500  1.0  0.2987
  C  C1838  1  0.867280  0.314900  0.512580  1.0  0.3906
  C  C1839  1  0.822900  0.355400  0.515660  1.0  0.2708
  C  C1840  1  0.946630  0.257370  0.505710  1.0  0.1751
  C  C1841  1  0.915330  0.269670  0.511450  1.0  -0.1206
  C  C1842  1  0.900730  0.300990  0.507670  1.0  -0.0711
  C  C1843  1  0.918580  0.317820  0.499140  1.0  -0.1376
  C  C1844  1  0.949970  0.303350  0.493710  1.0  0.1789
  C  C1845  1  0.798360  0.434500  0.516740  1.0  0.1863
  C  C1846  1  0.814770  0.404070  0.519950  1.0  -0.1433
  C  C1847  1  0.805520  0.388260  0.513420  1.0  -0.0979
  C  C1848  1  0.780210  0.403950  0.503730  1.0  -0.1346
  C  C1849  1  0.765080  0.435280  0.500560  1.0  0.1604
  C  C1850  1  0.807580  0.510080  0.493960  1.0  0.1873
  C  C1851  1  0.703810  0.566350  0.482750  1.0  0.1857
  C  C1852  1  0.689760  0.597060  0.479080  1.0  -0.1364
  C  C1853  1  0.700800  0.611620  0.484680  1.0  -0.0301
  C  C1854  1  0.725760  0.593740  0.494640  1.0  -0.1076
  C  C1855  1  0.737860  0.562300  0.499260  1.0  0.1563
  C  C1856  1  0.686030  0.643890  0.483070  1.0  0.2171
  C  C1857  1  0.180690  0.531930  0.791890  1.0  0.2057
  C  C1858  1  0.253380  0.516460  0.805400  1.0  0.1767
  C  C1859  1  0.266250  0.516770  0.822170  1.0  -0.1448
  C  C1860  1  0.292180  0.525800  0.806460  1.0  -0.0481
  C  C1861  1  0.302420  0.536060  0.774800  1.0  -0.1293
  C  C1862  1  0.287530  0.535770  0.759750  1.0  0.1759
  C  C1863  1  0.310280  0.521500  0.823120  1.0  0.2988
  C  C1864  1  0.314900  0.512580  0.867280  1.0  0.3908
  C  C1865  1  0.355400  0.515660  0.822900  1.0  0.2716
  C  C1866  1  0.257370  0.505710  0.946630  1.0  0.1741
  C  C1867  1  0.269670  0.511450  0.915330  1.0  -0.1222
  C  C1868  1  0.300990  0.507670  0.900730  1.0  -0.0728
  C  C1869  1  0.317820  0.499140  0.918580  1.0  -0.1318
  C  C1870  1  0.303350  0.493710  0.949970  1.0  0.1823
  C  C1871  1  0.434500  0.516740  0.798360  1.0  0.1842
  C  C1872  1  0.404070  0.519950  0.814770  1.0  -0.1449
  C  C1873  1  0.388260  0.513420  0.805520  1.0  -0.0976
  C  C1874  1  0.403950  0.503730  0.780210  1.0  -0.1361
  C  C1875  1  0.435280  0.500560  0.765080  1.0  0.1578
  C  C1876  1  0.510080  0.493960  0.807580  1.0  0.1824
  C  C1877  1  0.566350  0.482750  0.703810  1.0  0.1837
  C  C1878  1  0.597060  0.479080  0.689760  1.0  -0.1381
  C  C1879  1  0.611620  0.484680  0.700800  1.0  -0.0303
  C  C1880  1  0.593740  0.494640  0.725760  1.0  -0.108
  C  C1881  1  0.562300  0.499260  0.737860  1.0  0.1536
  C  C1882  1  0.643890  0.483070  0.686030  1.0  0.2168
  C  C1883  1  0.791890  0.995490  0.180690  1.0  0.2009
  C  C1884  1  0.805400  0.924760  0.253380  1.0  0.182
  C  C1885  1  0.822170  0.894810  0.266250  1.0  -0.1397
  C  C1886  1  0.806460  0.875560  0.292180  1.0  -0.052
  C  C1887  1  0.774800  0.886720  0.302420  1.0  -0.1322
  C  C1888  1  0.759750  0.916950  0.287530  1.0  0.1714
  C  C1889  1  0.823120  0.845100  0.310280  1.0  0.2993
  C  C1890  1  0.867280  0.805240  0.314900  1.0  0.3907
  C  C1891  1  0.822900  0.806040  0.355400  1.0  0.2706
  C  C1892  1  0.946630  0.790290  0.257370  1.0  0.1743
  C  C1893  1  0.915330  0.803550  0.269670  1.0  -0.1239
  C  C1894  1  0.900730  0.790610  0.300990  1.0  -0.0712
  C  C1895  1  0.918580  0.764460  0.317820  1.0  -0.1397
  C  C1896  1  0.949970  0.752970  0.303350  1.0  0.1814
  C  C1897  1  0.798360  0.750400  0.434500  1.0  0.1894
  C  C1898  1  0.814770  0.761210  0.404070  1.0  -0.1456
  C  C1899  1  0.805520  0.792800  0.388260  1.0  -0.0987
  C  C1900  1  0.780210  0.812110  0.403950  1.0  -0.1338
  C  C1901  1  0.765080  0.799080  0.435280  1.0  0.1595
  C  C1902  1  0.807580  0.688380  0.510080  1.0  0.1866
  C  C1903  1  0.703810  0.747090  0.566350  1.0  0.1871
  C  C1904  1  0.689760  0.734100  0.597060  1.0  -0.1388
  C  C1905  1  0.700800  0.702900  0.611620  1.0  -0.0327
  C  C1906  1  0.725760  0.685860  0.593740  1.0  -0.107
  C  C1907  1  0.737860  0.700580  0.562300  1.0  0.1575
  C  C1908  1  0.686030  0.687010  0.643890  1.0  0.2171
  C  C1909  1  0.531930  0.180690  0.995490  1.0  0.2013
  C  C1910  1  0.516460  0.253380  0.924760  1.0  0.1776
  C  C1911  1  0.516770  0.266250  0.894810  1.0  -0.144
  C  C1912  1  0.525800  0.292180  0.875560  1.0  -0.0486
  C  C1913  1  0.536060  0.302420  0.886720  1.0  -0.1316
  C  C1914  1  0.535770  0.287530  0.916950  1.0  0.1742
  C  C1915  1  0.521500  0.310280  0.845100  1.0  0.299
  C  C1916  1  0.512580  0.314900  0.805240  1.0  0.3903
  C  C1917  1  0.515660  0.355400  0.806040  1.0  0.2714
  C  C1918  1  0.505710  0.257370  0.790290  1.0  0.1713
  C  C1919  1  0.511450  0.269670  0.803550  1.0  -0.1211
  C  C1920  1  0.507670  0.300990  0.790610  1.0  -0.0724
  C  C1921  1  0.499140  0.317820  0.764460  1.0  -0.1369
  C  C1922  1  0.493710  0.303350  0.752970  1.0  0.1802
  C  C1923  1  0.516740  0.434500  0.750400  1.0  0.1852
  C  C1924  1  0.519950  0.404070  0.761210  1.0  -0.1439
  C  C1925  1  0.513420  0.388260  0.792800  1.0  -0.0979
  C  C1926  1  0.503730  0.403950  0.812110  1.0  -0.1361
  C  C1927  1  0.500560  0.435280  0.799080  1.0  0.1566
  C  C1928  1  0.493960  0.510080  0.688380  1.0  0.1875
  C  C1929  1  0.482750  0.566350  0.747090  1.0  0.183
  C  C1930  1  0.479080  0.597060  0.734100  1.0  -0.1372
  C  C1931  1  0.484680  0.611620  0.702900  1.0  -0.0307
  C  C1932  1  0.494640  0.593740  0.685860  1.0  -0.1079
  C  C1933  1  0.499260  0.562300  0.700580  1.0  0.1529
  C  C1934  1  0.483070  0.643890  0.687010  1.0  0.2166
  C  C1935  1  0.995490  0.791890  0.531930  1.0  0.1991
  C  C1936  1  0.924760  0.805400  0.516460  1.0  0.1791
  C  C1937  1  0.894810  0.822170  0.516770  1.0  -0.1412
  C  C1938  1  0.875560  0.806460  0.525800  1.0  -0.0511
  C  C1939  1  0.886720  0.774800  0.536060  1.0  -0.1329
  C  C1940  1  0.916950  0.759750  0.535770  1.0  0.175
  C  C1941  1  0.845100  0.823120  0.521500  1.0  0.2987
  C  C1942  1  0.805240  0.867280  0.512580  1.0  0.3908
  C  C1943  1  0.806040  0.822900  0.515660  1.0  0.271
  C  C1944  1  0.790290  0.946630  0.505710  1.0  0.1747
  C  C1945  1  0.803550  0.915330  0.511450  1.0  -0.1223
  C  C1946  1  0.790610  0.900730  0.507670  1.0  -0.0683
  C  C1947  1  0.764460  0.918580  0.499140  1.0  -0.1378
  C  C1948  1  0.752970  0.949970  0.493710  1.0  0.1823
  C  C1949  1  0.750400  0.798360  0.516740  1.0  0.189
  C  C1950  1  0.761210  0.814770  0.519950  1.0  -0.1454
  C  C1951  1  0.792800  0.805520  0.513420  1.0  -0.099
  C  C1952  1  0.812110  0.780210  0.503730  1.0  -0.1321
  C  C1953  1  0.799080  0.765080  0.500560  1.0  0.1596
  C  C1954  1  0.688380  0.807580  0.493960  1.0  0.1879
  C  C1955  1  0.747090  0.703810  0.482750  1.0  0.1886
  C  C1956  1  0.734100  0.689760  0.479080  1.0  -0.1372
  C  C1957  1  0.702900  0.700800  0.484680  1.0  -0.0318
  C  C1958  1  0.685860  0.725760  0.494640  1.0  -0.1084
  C  C1959  1  0.700580  0.737860  0.499260  1.0  0.1576
  C  C1960  1  0.687010  0.686030  0.483070  1.0  0.2165
  C  C1961  1  0.995490  0.180690  0.791890  1.0  0.2038
  C  C1962  1  0.924760  0.253380  0.805400  1.0  0.1802
  C  C1963  1  0.894810  0.266250  0.822170  1.0  -0.1451
  C  C1964  1  0.875560  0.292180  0.806460  1.0  -0.0509
  C  C1965  1  0.886720  0.302420  0.774800  1.0  -0.1362
  C  C1966  1  0.916950  0.287530  0.759750  1.0  0.1709
  C  C1967  1  0.845100  0.310280  0.823120  1.0  0.2989
  C  C1968  1  0.805240  0.314900  0.867280  1.0  0.3907
  C  C1969  1  0.806040  0.355400  0.822900  1.0  0.2709
  C  C1970  1  0.790290  0.257370  0.946630  1.0  0.1758
  C  C1971  1  0.803550  0.269670  0.915330  1.0  -0.1212
  C  C1972  1  0.790610  0.300990  0.900730  1.0  -0.0715
  C  C1973  1  0.764460  0.317820  0.918580  1.0  -0.1377
  C  C1974  1  0.752970  0.303350  0.949970  1.0  0.1792
  C  C1975  1  0.750400  0.434500  0.798360  1.0  0.1877
  C  C1976  1  0.761210  0.404070  0.814770  1.0  -0.1424
  C  C1977  1  0.792800  0.388260  0.805520  1.0  -0.0978
  C  C1978  1  0.812110  0.403950  0.780210  1.0  -0.1327
  C  C1979  1  0.799080  0.435280  0.765080  1.0  0.1588
  C  C1980  1  0.688380  0.510080  0.807580  1.0  0.183
  C  C1981  1  0.747090  0.566350  0.703810  1.0  0.1877
  C  C1982  1  0.734100  0.597060  0.689760  1.0  -0.1357
  C  C1983  1  0.702900  0.611620  0.700800  1.0  -0.0301
  C  C1984  1  0.685860  0.593740  0.725760  1.0  -0.1085
  C  C1985  1  0.700580  0.562300  0.737860  1.0  0.1557
  C  C1986  1  0.687010  0.643890  0.686030  1.0  0.2172
  C  C1987  1  0.531930  0.791890  0.180690  1.0  0.1962
  C  C1988  1  0.516460  0.805400  0.253380  1.0  0.1805
  C  C1989  1  0.516770  0.822170  0.266250  1.0  -0.1407
  C  C1990  1  0.525800  0.806460  0.292180  1.0  -0.0524
  C  C1991  1  0.536060  0.774800  0.302420  1.0  -0.1327
  C  C1992  1  0.535770  0.759750  0.287530  1.0  0.1698
  C  C1993  1  0.521500  0.823120  0.310280  1.0  0.2984
  C  C1994  1  0.512580  0.867280  0.314900  1.0  0.3912
  C  C1995  1  0.515660  0.822900  0.355400  1.0  0.2705
  C  C1996  1  0.505710  0.946630  0.257370  1.0  0.1733
  C  C1997  1  0.511450  0.915330  0.269670  1.0  -0.1248
  C  C1998  1  0.507670  0.900730  0.300990  1.0  -0.0679
  C  C1999  1  0.499140  0.918580  0.317820  1.0  -0.1398
  C  C2000  1  0.493710  0.949970  0.303350  1.0  0.1797
  C  C2001  1  0.516740  0.798360  0.434500  1.0  0.1889
  C  C2002  1  0.519950  0.814770  0.404070  1.0  -0.1443
  C  C2003  1  0.513420  0.805520  0.388260  1.0  -0.0985
  C  C2004  1  0.503730  0.780210  0.403950  1.0  -0.1356
  C  C2005  1  0.500560  0.765080  0.435280  1.0  0.1587
  C  C2006  1  0.493960  0.807580  0.510080  1.0  0.1837
  C  C2007  1  0.482750  0.703810  0.566350  1.0  0.1891
  C  C2008  1  0.479080  0.689760  0.597060  1.0  -0.1371
  C  C2009  1  0.484680  0.700800  0.611620  1.0  -0.033
  C  C2010  1  0.494640  0.725760  0.593740  1.0  -0.1074
  C  C2011  1  0.499260  0.737860  0.562300  1.0  0.1541
  C  C2012  1  0.483070  0.686030  0.643890  1.0  0.2172
  C  C2013  1  0.791890  0.531930  0.995490  1.0  0.2021
  C  C2014  1  0.805400  0.516460  0.924760  1.0  0.1831
  C  C2015  1  0.822170  0.516770  0.894810  1.0  -0.1385
  C  C2016  1  0.806460  0.525800  0.875560  1.0  -0.0504
  C  C2017  1  0.774800  0.536060  0.886720  1.0  -0.134
  C  C2018  1  0.759750  0.535770  0.916950  1.0  0.171
  C  C2019  1  0.823120  0.521500  0.845100  1.0  0.299
  C  C2020  1  0.867280  0.512580  0.805240  1.0  0.3912
  C  C2021  1  0.822900  0.515660  0.806040  1.0  0.2706
  C  C2022  1  0.946630  0.505710  0.790290  1.0  0.1746
  C  C2023  1  0.915330  0.511450  0.803550  1.0  -0.1262
  C  C2024  1  0.900730  0.507670  0.790610  1.0  -0.0713
  C  C2025  1  0.918580  0.499140  0.764460  1.0  -0.137
  C  C2026  1  0.949970  0.493710  0.752970  1.0  0.1797
  C  C2027  1  0.798360  0.516740  0.750400  1.0  0.1898
  C  C2028  1  0.814770  0.519950  0.761210  1.0  -0.1399
  C  C2029  1  0.805520  0.513420  0.792800  1.0  -0.0991
  C  C2030  1  0.780210  0.503730  0.812110  1.0  -0.135
  C  C2031  1  0.765080  0.500560  0.799080  1.0  0.1565
  C  C2032  1  0.807580  0.493960  0.688380  1.0  0.1881
  C  C2033  1  0.703810  0.482750  0.747090  1.0  0.1914
  C  C2034  1  0.689760  0.479080  0.734100  1.0  -0.1342
  C  C2035  1  0.700800  0.484680  0.702900  1.0  -0.032
  C  C2036  1  0.725760  0.494640  0.685860  1.0  -0.1083
  C  C2037  1  0.737860  0.499260  0.700580  1.0  0.1533
  C  C2038  1  0.686030  0.483070  0.687010  1.0  0.2168
  C  C2039  1  0.180690  0.995490  0.531930  1.0  0.205
  C  C2040  1  0.253380  0.924760  0.516460  1.0  0.1823
  C  C2041  1  0.266250  0.894810  0.516770  1.0  -0.1423
  C  C2042  1  0.292180  0.875560  0.525800  1.0  -0.0523
  C  C2043  1  0.302420  0.886720  0.536060  1.0  -0.1336
  C  C2044  1  0.287530  0.916950  0.535770  1.0  0.1695
  C  C2045  1  0.310280  0.845100  0.521500  1.0  0.2994
  C  C2046  1  0.314900  0.805240  0.512580  1.0  0.3906
  C  C2047  1  0.355400  0.806040  0.515660  1.0  0.2707
  C  C2048  1  0.257370  0.790290  0.505710  1.0  0.175
  C  C2049  1  0.269670  0.803550  0.511450  1.0  -0.1222
  C  C2050  1  0.300990  0.790610  0.507670  1.0  -0.0736
  C  C2051  1  0.317820  0.764460  0.499140  1.0  -0.1362
  C  C2052  1  0.303350  0.752970  0.493710  1.0  0.1818
  C  C2053  1  0.434500  0.750400  0.516740  1.0  0.189
  C  C2054  1  0.404070  0.761210  0.519950  1.0  -0.1448
  C  C2055  1  0.388260  0.792800  0.513420  1.0  -0.0975
  C  C2056  1  0.403950  0.812110  0.503730  1.0  -0.1341
  C  C2057  1  0.435280  0.799080  0.500560  1.0  0.1573
  C  C2058  1  0.510080  0.688380  0.493960  1.0  0.1844
  C  C2059  1  0.566350  0.747090  0.482750  1.0  0.1877
  C  C2060  1  0.597060  0.734100  0.479080  1.0  -0.137
  C  C2061  1  0.611620  0.702900  0.484680  1.0  -0.0299
  C  C2062  1  0.593740  0.685860  0.494640  1.0  -0.1064
  C  C2063  1  0.562300  0.700580  0.499260  1.0  0.1556
  C  C2064  1  0.643890  0.687010  0.483070  1.0  0.2172
  S  S2065  1  0.050550  0.503970  0.643250  1.0  -0.1732
  S  S2066  1  0.985470  0.155770  0.027070  1.0  -0.1681
  S  S2067  1  0.503970  0.050550  0.302230  1.0  -0.1739
  S  S2068  1  0.155770  0.985470  0.331690  1.0  -0.1646
  S  S2069  1  0.643250  0.302230  0.050550  1.0  -0.1739
  S  S2070  1  0.027070  0.331690  0.985470  1.0  -0.163
  S  S2071  1  0.302230  0.643250  0.503970  1.0  -0.174
  S  S2072  1  0.331690  0.027070  0.155770  1.0  -0.1634
  S  S2073  1  0.643250  0.050550  0.503970  1.0  -0.1719
  S  S2074  1  0.027070  0.985470  0.155770  1.0  -0.1673
  S  S2075  1  0.302230  0.503970  0.050550  1.0  -0.1749
  S  S2076  1  0.331690  0.155770  0.985470  1.0  -0.1665
  S  S2077  1  0.050550  0.643250  0.302230  1.0  -0.1752
  S  S2078  1  0.985470  0.027070  0.331690  1.0  -0.1617
  S  S2079  1  0.503970  0.302230  0.643250  1.0  -0.173
  S  S2080  1  0.155770  0.331690  0.027070  1.0  -0.1677
  S  S2081  1  0.503970  0.643250  0.050550  1.0  -0.1754
  S  S2082  1  0.155770  0.027070  0.985470  1.0  -0.1693
  S  S2083  1  0.050550  0.302230  0.503970  1.0  -0.1747
  S  S2084  1  0.985470  0.331690  0.155770  1.0  -0.1674
  S  S2085  1  0.302230  0.050550  0.643250  1.0  -0.1731
  S  S2086  1  0.331690  0.985470  0.027070  1.0  -0.163
  S  S2087  1  0.643250  0.503970  0.302230  1.0  -0.1706
  S  S2088  1  0.027070  0.155770  0.331690  1.0  -0.1683
  S  S2089  1  0.449450  0.996030  0.197770  1.0  -0.1714
  S  S2090  1  0.514530  0.344230  0.168310  1.0  -0.1714
  S  S2091  1  0.996030  0.449450  0.856750  1.0  -0.1732
  S  S2092  1  0.344230  0.514530  0.472930  1.0  -0.1629
  S  S2093  1  0.856750  0.197770  0.996030  1.0  -0.172
  S  S2094  1  0.472930  0.168310  0.344230  1.0  -0.1751
  S  S2095  1  0.197770  0.856750  0.449450  1.0  -0.1721
  S  S2096  1  0.168310  0.472930  0.514530  1.0  -0.1725
  S  S2097  1  0.856750  0.449450  0.197770  1.0  -0.169
  S  S2098  1  0.472930  0.514530  0.168310  1.0  -0.1713
  S  S2099  1  0.197770  0.996030  0.856750  1.0  -0.1726
  S  S2100  1  0.168310  0.344230  0.472930  1.0  -0.1741
  S  S2101  1  0.449450  0.856750  0.996030  1.0  -0.1719
  S  S2102  1  0.514530  0.472930  0.344230  1.0  -0.1661
  S  S2103  1  0.996030  0.197770  0.449450  1.0  -0.1723
  S  S2104  1  0.344230  0.168310  0.514530  1.0  -0.1739
  S  S2105  1  0.996030  0.856750  0.197770  1.0  -0.1726
  S  S2106  1  0.344230  0.472930  0.168310  1.0  -0.174
  S  S2107  1  0.449450  0.197770  0.856750  1.0  -0.1714
  S  S2108  1  0.514530  0.168310  0.472930  1.0  -0.174
  S  S2109  1  0.197770  0.449450  0.996030  1.0  -0.1725
  S  S2110  1  0.168310  0.514530  0.344230  1.0  -0.1745
  S  S2111  1  0.856750  0.996030  0.449450  1.0  -0.1689
  S  S2112  1  0.472930  0.344230  0.514530  1.0  -0.1665
  S  S2113  1  0.949450  0.496030  0.356750  1.0  -0.1735
  S  S2114  1  0.014530  0.844230  0.972930  1.0  -0.168
  S  S2115  1  0.496030  0.949450  0.697770  1.0  -0.1723
  S  S2116  1  0.844230  0.014530  0.668310  1.0  -0.1616
  S  S2117  1  0.356750  0.697770  0.949450  1.0  -0.1731
  S  S2118  1  0.972930  0.668310  0.014530  1.0  -0.1629
  S  S2119  1  0.697770  0.356750  0.496030  1.0  -0.1723
  S  S2120  1  0.668310  0.972930  0.844230  1.0  -0.1662
  S  S2121  1  0.356750  0.949450  0.496030  1.0  -0.1712
  S  S2122  1  0.972930  0.014530  0.844230  1.0  -0.1683
  S  S2123  1  0.697770  0.496030  0.949450  1.0  -0.1733
  S  S2124  1  0.668310  0.844230  0.014530  1.0  -0.1657
  S  S2125  1  0.949450  0.356750  0.697770  1.0  -0.1735
  S  S2126  1  0.014530  0.972930  0.668310  1.0  -0.1615
  S  S2127  1  0.496030  0.697770  0.356750  1.0  -0.1721
  S  S2128  1  0.844230  0.668310  0.972930  1.0  -0.1664
  S  S2129  1  0.496030  0.356750  0.949450  1.0  -0.1739
  S  S2130  1  0.844230  0.972930  0.014530  1.0  -0.1705
  S  S2131  1  0.949450  0.697770  0.496030  1.0  -0.1724
  S  S2132  1  0.014530  0.668310  0.844230  1.0  -0.1682
  S  S2133  1  0.697770  0.949450  0.356750  1.0  -0.1736
  S  S2134  1  0.668310  0.014530  0.972930  1.0  -0.1629
  S  S2135  1  0.356750  0.496030  0.697770  1.0  -0.1698
  S  S2136  1  0.972930  0.844230  0.668310  1.0  -0.1674
  S  S2137  1  0.550550  0.003970  0.802230  1.0  -0.1719
  S  S2138  1  0.485470  0.655770  0.831690  1.0  -0.173
  S  S2139  1  0.003970  0.550550  0.143250  1.0  -0.172
  S  S2140  1  0.655770  0.485470  0.527070  1.0  -0.1637
  S  S2141  1  0.143250  0.802230  0.003970  1.0  -0.1697
  S  S2142  1  0.527070  0.831690  0.655770  1.0  -0.1734
  S  S2143  1  0.802230  0.143250  0.550550  1.0  -0.1727
  S  S2144  1  0.831690  0.527070  0.485470  1.0  -0.1724
  S  S2145  1  0.143250  0.550550  0.802230  1.0  -0.1689
  S  S2146  1  0.527070  0.485470  0.831690  1.0  -0.1726
  S  S2147  1  0.802230  0.003970  0.143250  1.0  -0.1724
  S  S2148  1  0.831690  0.655770  0.527070  1.0  -0.1747
  S  S2149  1  0.550550  0.143250  0.003970  1.0  -0.1735
  S  S2150  1  0.485470  0.527070  0.655770  1.0  -0.1643
  S  S2151  1  0.003970  0.802230  0.550550  1.0  -0.1723
  S  S2152  1  0.655770  0.831690  0.485470  1.0  -0.1749
  S  S2153  1  0.003970  0.143250  0.802230  1.0  -0.1732
  S  S2154  1  0.655770  0.527070  0.831690  1.0  -0.1744
  S  S2155  1  0.550550  0.802230  0.143250  1.0  -0.1718
  S  S2156  1  0.485470  0.831690  0.527070  1.0  -0.175
  S  S2157  1  0.802230  0.550550  0.003970  1.0  -0.1719
  S  S2158  1  0.831690  0.485470  0.655770  1.0  -0.1737
  S  S2159  1  0.143250  0.003970  0.550550  1.0  -0.1689
  S  S2160  1  0.527070  0.655770  0.485470  1.0  -0.1658
  N  N2161  1  0.019110  0.489570  0.706790  1.0  -0.4349
  N  N2162  1  0.024470  0.436570  0.764210  1.0  -0.3178
  N  N2163  1  0.017590  0.332330  0.796770  1.0  -0.47
  N  N2164  1  0.010940  0.291060  0.844780  1.0  -0.3001
  N  N2165  1  0.021500  0.332540  0.839140  1.0  -0.4213
  N  N2166  1  0.996500  0.265640  0.773480  1.0  -0.3272
  N  N2167  1  0.007130  0.268390  0.950670  1.0  -0.3367
  N  N2168  1  0.996610  0.210990  0.002550  1.0  -0.4271
  N  N2169  1  0.991990  0.231530  0.048810  1.0  -0.3148
  N  N2170  1  0.982460  0.202320  0.158300  1.0  -0.3594
  N  N2171  1  0.489570  0.019110  0.284530  1.0  -0.4369
  N  N2172  1  0.436570  0.024470  0.274750  1.0  -0.3143
  N  N2173  1  0.332330  0.017590  0.353310  1.0  -0.4682
  N  N2174  1  0.291060  0.010940  0.353220  1.0  -0.3005
  N  N2175  1  0.332540  0.021500  0.306820  1.0  -0.4213
  N  N2176  1  0.265640  0.996500  0.464380  1.0  -0.3267
  N  N2177  1  0.268390  0.007130  0.273810  1.0  -0.335
  N  N2178  1  0.210990  0.996610  0.289850  1.0  -0.4283
  N  N2179  1  0.231530  0.991990  0.227670  1.0  -0.3141
  N  N2180  1  0.202320  0.982460  0.156920  1.0  -0.3607
  N  N2181  1  0.706790  0.284530  0.019110  1.0  -0.4328
  N  N2182  1  0.764210  0.274750  0.024470  1.0  -0.3176
  N  N2183  1  0.796770  0.353310  0.017590  1.0  -0.4675
  N  N2184  1  0.844780  0.353220  0.010940  1.0  -0.3022
  N  N2185  1  0.839140  0.306820  0.021500  1.0  -0.4209
  N  N2186  1  0.773480  0.464380  0.996500  1.0  -0.3277
  N  N2187  1  0.950670  0.273810  0.007130  1.0  -0.333
  N  N2188  1  0.002550  0.289850  0.996610  1.0  -0.424
  N  N2189  1  0.048810  0.227670  0.991990  1.0  -0.3131
  N  N2190  1  0.158300  0.156920  0.982460  1.0  -0.3607
  N  N2191  1  0.284530  0.706790  0.489570  1.0  -0.4382
  N  N2192  1  0.274750  0.764210  0.436570  1.0  -0.318
  N  N2193  1  0.353310  0.796770  0.332330  1.0  -0.4649
  N  N2194  1  0.353220  0.844780  0.291060  1.0  -0.3031
  N  N2195  1  0.306820  0.839140  0.332540  1.0  -0.4231
  N  N2196  1  0.464380  0.773480  0.265640  1.0  -0.3241
  N  N2197  1  0.273810  0.950670  0.268390  1.0  -0.3364
  N  N2198  1  0.289850  0.002550  0.210990  1.0  -0.4284
  N  N2199  1  0.227670  0.048810  0.231530  1.0  -0.3154
  N  N2200  1  0.156920  0.158300  0.202320  1.0  -0.3595
  N  N2201  1  0.706790  0.019110  0.489570  1.0  -0.4305
  N  N2202  1  0.764210  0.024470  0.436570  1.0  -0.3188
  N  N2203  1  0.796770  0.017590  0.332330  1.0  -0.4677
  N  N2204  1  0.844780  0.010940  0.291060  1.0  -0.3042
  N  N2205  1  0.839140  0.021500  0.332540  1.0  -0.4209
  N  N2206  1  0.773480  0.996500  0.265640  1.0  -0.3259
  N  N2207  1  0.950670  0.007130  0.268390  1.0  -0.3301
  N  N2208  1  0.002550  0.996610  0.210990  1.0  -0.4216
  N  N2209  1  0.048810  0.991990  0.231530  1.0  -0.3108
  N  N2210  1  0.158300  0.982460  0.202320  1.0  -0.362
  N  N2211  1  0.284530  0.489570  0.019110  1.0  -0.4327
  N  N2212  1  0.274750  0.436570  0.024470  1.0  -0.3184
  N  N2213  1  0.353310  0.332330  0.017590  1.0  -0.4696
  N  N2214  1  0.353220  0.291060  0.010940  1.0  -0.3021
  N  N2215  1  0.306820  0.332540  0.021500  1.0  -0.4233
  N  N2216  1  0.464380  0.265640  0.996500  1.0  -0.3241
  N  N2217  1  0.273810  0.268390  0.007130  1.0  -0.335
  N  N2218  1  0.289850  0.210990  0.996610  1.0  -0.4283
  N  N2219  1  0.227670  0.231530  0.991990  1.0  -0.3148
  N  N2220  1  0.156920  0.202320  0.982460  1.0  -0.3591
  N  N2221  1  0.019110  0.706790  0.284530  1.0  -0.4382
  N  N2222  1  0.024470  0.764210  0.274750  1.0  -0.3209
  N  N2223  1  0.017590  0.796770  0.353310  1.0  -0.4647
  N  N2224  1  0.010940  0.844780  0.353220  1.0  -0.3052
  N  N2225  1  0.021500  0.839140  0.306820  1.0  -0.4211
  N  N2226  1  0.996500  0.773480  0.464380  1.0  -0.3257
  N  N2227  1  0.007130  0.950670  0.273810  1.0  -0.3353
  N  N2228  1  0.996610  0.002550  0.289850  1.0  -0.4233
  N  N2229  1  0.991990  0.048810  0.227670  1.0  -0.3154
  N  N2230  1  0.982460  0.158300  0.156920  1.0  -0.3625
  N  N2231  1  0.489570  0.284530  0.706790  1.0  -0.4336
  N  N2232  1  0.436570  0.274750  0.764210  1.0  -0.3151
  N  N2233  1  0.332330  0.353310  0.796770  1.0  -0.4692
  N  N2234  1  0.291060  0.353220  0.844780  1.0  -0.3016
  N  N2235  1  0.332540  0.306820  0.839140  1.0  -0.421
  N  N2236  1  0.265640  0.464380  0.773480  1.0  -0.3269
  N  N2237  1  0.268390  0.273810  0.950670  1.0  -0.3359
  N  N2238  1  0.210990  0.289850  0.002550  1.0  -0.4297
  N  N2239  1  0.231530  0.227670  0.048810  1.0  -0.3146
  N  N2240  1  0.202320  0.156920  0.158300  1.0  -0.3604
  N  N2241  1  0.489570  0.706790  0.019110  1.0  -0.4376
  N  N2242  1  0.436570  0.764210  0.024470  1.0  -0.3153
  N  N2243  1  0.332330  0.796770  0.017590  1.0  -0.4647
  N  N2244  1  0.291060  0.844780  0.010940  1.0  -0.3012
  N  N2245  1  0.332540  0.839140  0.021500  1.0  -0.4212
  N  N2246  1  0.265640  0.773480  0.996500  1.0  -0.3257
  N  N2247  1  0.268390  0.950670  0.007130  1.0  -0.338
  N  N2248  1  0.210990  0.002550  0.996610  1.0  -0.429
  N  N2249  1  0.231530  0.048810  0.991990  1.0  -0.3162
  N  N2250  1  0.202320  0.158300  0.982460  1.0  -0.3604
  N  N2251  1  0.019110  0.284530  0.489570  1.0  -0.4351
  N  N2252  1  0.024470  0.274750  0.436570  1.0  -0.32
  N  N2253  1  0.017590  0.353310  0.332330  1.0  -0.4695
  N  N2254  1  0.010940  0.353220  0.291060  1.0  -0.3033
  N  N2255  1  0.021500  0.306820  0.332540  1.0  -0.4213
  N  N2256  1  0.996500  0.464380  0.265640  1.0  -0.3274
  N  N2257  1  0.007130  0.273810  0.268390  1.0  -0.3364
  N  N2258  1  0.996610  0.289850  0.210990  1.0  -0.4239
  N  N2259  1  0.991990  0.227670  0.231530  1.0  -0.3166
  N  N2260  1  0.982460  0.156920  0.202320  1.0  -0.3615
  N  N2261  1  0.284530  0.019110  0.706790  1.0  -0.434
  N  N2262  1  0.274750  0.024470  0.764210  1.0  -0.3191
  N  N2263  1  0.353310  0.017590  0.796770  1.0  -0.469
  N  N2264  1  0.353220  0.010940  0.844780  1.0  -0.3037
  N  N2265  1  0.306820  0.021500  0.839140  1.0  -0.4232
  N  N2266  1  0.464380  0.996500  0.773480  1.0  -0.3238
  N  N2267  1  0.273810  0.007130  0.950670  1.0  -0.3343
  N  N2268  1  0.289850  0.996610  0.002550  1.0  -0.4255
  N  N2269  1  0.227670  0.991990  0.048810  1.0  -0.3132
  N  N2270  1  0.156920  0.982460  0.158300  1.0  -0.362
  N  N2271  1  0.706790  0.489570  0.284530  1.0  -0.431
  N  N2272  1  0.764210  0.436570  0.274750  1.0  -0.319
  N  N2273  1  0.796770  0.332330  0.353310  1.0  -0.4675
  N  N2274  1  0.844780  0.291060  0.353220  1.0  -0.3002
  N  N2275  1  0.839140  0.332540  0.306820  1.0  -0.4221
  N  N2276  1  0.773480  0.265640  0.464380  1.0  -0.326
  N  N2277  1  0.950670  0.268390  0.273810  1.0  -0.3329
  N  N2278  1  0.002550  0.210990  0.289850  1.0  -0.4273
  N  N2279  1  0.048810  0.231530  0.227670  1.0  -0.3132
  N  N2280  1  0.158300  0.202320  0.156920  1.0  -0.3591
  N  N2281  1  0.480890  0.010430  0.215470  1.0  -0.4334
  N  N2282  1  0.475530  0.063430  0.225250  1.0  -0.3173
  N  N2283  1  0.482410  0.167670  0.146690  1.0  -0.4711
  N  N2284  1  0.489060  0.208940  0.146780  1.0  -0.2996
  N  N2285  1  0.478500  0.167460  0.193180  1.0  -0.4225
  N  N2286  1  0.503500  0.234360  0.035620  1.0  -0.3276
  N  N2287  1  0.492870  0.231610  0.226190  1.0  -0.3375
  N  N2288  1  0.503390  0.289010  0.210150  1.0  -0.4251
  N  N2289  1  0.508010  0.268470  0.272330  1.0  -0.3159
  N  N2290  1  0.517540  0.297680  0.343080  1.0  -0.3597
  N  N2291  1  0.010430  0.480890  0.793210  1.0  -0.4357
  N  N2292  1  0.063430  0.475530  0.735790  1.0  -0.3152
  N  N2293  1  0.167670  0.482410  0.703230  1.0  -0.4693
  N  N2294  1  0.208940  0.489060  0.655220  1.0  -0.3013
  N  N2295  1  0.167460  0.478500  0.660860  1.0  -0.4237
  N  N2296  1  0.234360  0.503500  0.726520  1.0  -0.3269
  N  N2297  1  0.231610  0.492870  0.549330  1.0  -0.336
  N  N2298  1  0.289010  0.503390  0.497450  1.0  -0.4265
  N  N2299  1  0.268470  0.508010  0.451190  1.0  -0.3152
  N  N2300  1  0.297680  0.517540  0.341700  1.0  -0.3604
  N  N2301  1  0.793210  0.215470  0.010430  1.0  -0.4369
  N  N2302  1  0.735790  0.225250  0.063430  1.0  -0.3185
  N  N2303  1  0.703230  0.146690  0.167670  1.0  -0.4687
  N  N2304  1  0.655220  0.146780  0.208940  1.0  -0.3012
  N  N2305  1  0.660860  0.193180  0.167460  1.0  -0.4219
  N  N2306  1  0.726520  0.035620  0.234360  1.0  -0.3271
  N  N2307  1  0.549330  0.226190  0.231610  1.0  -0.3333
  N  N2308  1  0.497450  0.210150  0.289010  1.0  -0.4261
  N  N2309  1  0.451190  0.272330  0.268470  1.0  -0.3112
  N  N2310  1  0.341700  0.343080  0.297680  1.0  -0.3606
  N  N2311  1  0.215470  0.793210  0.480890  1.0  -0.4363
  N  N2312  1  0.225250  0.735790  0.475530  1.0  -0.3183
  N  N2313  1  0.146690  0.703230  0.482410  1.0  -0.466
  N  N2314  1  0.146780  0.655220  0.489060  1.0  -0.3021
  N  N2315  1  0.193180  0.660860  0.478500  1.0  -0.4213
  N  N2316  1  0.035620  0.726520  0.503500  1.0  -0.3233
  N  N2317  1  0.226190  0.549330  0.492870  1.0  -0.3363
  N  N2318  1  0.210150  0.497450  0.503390  1.0  -0.429
  N  N2319  1  0.272330  0.451190  0.508010  1.0  -0.3153
  N  N2320  1  0.343080  0.341700  0.517540  1.0  -0.3595
  N  N2321  1  0.793210  0.480890  0.215470  1.0  -0.4345
  N  N2322  1  0.735790  0.475530  0.225250  1.0  -0.3186
  N  N2323  1  0.703230  0.482410  0.146690  1.0  -0.4696
  N  N2324  1  0.655220  0.489060  0.146780  1.0  -0.3042
  N  N2325  1  0.660860  0.478500  0.193180  1.0  -0.4226
  N  N2326  1  0.726520  0.503500  0.035620  1.0  -0.3265
  N  N2327  1  0.549330  0.492870  0.226190  1.0  -0.3305
  N  N2328  1  0.497450  0.503390  0.210150  1.0  -0.4218
  N  N2329  1  0.451190  0.508010  0.272330  1.0  -0.3111
  N  N2330  1  0.341700  0.517540  0.343080  1.0  -0.3601
  N  N2331  1  0.215470  0.010430  0.793210  1.0  -0.4335
  N  N2332  1  0.225250  0.063430  0.735790  1.0  -0.3183
  N  N2333  1  0.146690  0.167670  0.703230  1.0  -0.4677
  N  N2334  1  0.146780  0.208940  0.655220  1.0  -0.3012
  N  N2335  1  0.193180  0.167460  0.660860  1.0  -0.4216
  N  N2336  1  0.035620  0.234360  0.726520  1.0  -0.3238
  N  N2337  1  0.226190  0.231610  0.549330  1.0  -0.3347
  N  N2338  1  0.210150  0.289010  0.497450  1.0  -0.4283
  N  N2339  1  0.272330  0.268470  0.451190  1.0  -0.3153
  N  N2340  1  0.343080  0.297680  0.341700  1.0  -0.3593
  N  N2341  1  0.480890  0.793210  0.010430  1.0  -0.4364
  N  N2342  1  0.475530  0.735790  0.063430  1.0  -0.3216
  N  N2343  1  0.482410  0.703230  0.167670  1.0  -0.4663
  N  N2344  1  0.489060  0.655220  0.208940  1.0  -0.3048
  N  N2345  1  0.478500  0.660860  0.167460  1.0  -0.4231
  N  N2346  1  0.503500  0.726520  0.234360  1.0  -0.3252
  N  N2347  1  0.492870  0.549330  0.231610  1.0  -0.3367
  N  N2348  1  0.503390  0.497450  0.289010  1.0  -0.4232
  N  N2349  1  0.508010  0.451190  0.268470  1.0  -0.3147
  N  N2350  1  0.517540  0.341700  0.297680  1.0  -0.3609
  N  N2351  1  0.010430  0.215470  0.480890  1.0  -0.4356
  N  N2352  1  0.063430  0.225250  0.475530  1.0  -0.316
  N  N2353  1  0.167670  0.146690  0.482410  1.0  -0.4684
  N  N2354  1  0.208940  0.146780  0.489060  1.0  -0.3021
  N  N2355  1  0.167460  0.193180  0.478500  1.0  -0.4215
  N  N2356  1  0.234360  0.035620  0.503500  1.0  -0.3269
  N  N2357  1  0.231610  0.226190  0.492870  1.0  -0.3366
  N  N2358  1  0.289010  0.210150  0.503390  1.0  -0.4278
  N  N2359  1  0.268470  0.272330  0.508010  1.0  -0.3138
  N  N2360  1  0.297680  0.343080  0.517540  1.0  -0.3599
  N  N2361  1  0.010430  0.793210  0.215470  1.0  -0.4357
  N  N2362  1  0.063430  0.735790  0.225250  1.0  -0.3168
  N  N2363  1  0.167670  0.703230  0.146690  1.0  -0.4658
  N  N2364  1  0.208940  0.655220  0.146780  1.0  -0.3029
  N  N2365  1  0.167460  0.660860  0.193180  1.0  -0.4219
  N  N2366  1  0.234360  0.726520  0.035620  1.0  -0.3252
  N  N2367  1  0.231610  0.549330  0.226190  1.0  -0.338
  N  N2368  1  0.289010  0.497450  0.210150  1.0  -0.4275
  N  N2369  1  0.268470  0.451190  0.272330  1.0  -0.3155
  N  N2370  1  0.297680  0.341700  0.343080  1.0  -0.3598
  N  N2371  1  0.480890  0.215470  0.793210  1.0  -0.4351
  N  N2372  1  0.475530  0.225250  0.735790  1.0  -0.3205
  N  N2373  1  0.482410  0.146690  0.703230  1.0  -0.469
  N  N2374  1  0.489060  0.146780  0.655220  1.0  -0.3052
  N  N2375  1  0.478500  0.193180  0.660860  1.0  -0.4221
  N  N2376  1  0.503500  0.035620  0.726520  1.0  -0.3269
  N  N2377  1  0.492870  0.226190  0.549330  1.0  -0.3371
  N  N2378  1  0.503390  0.210150  0.497450  1.0  -0.4265
  N  N2379  1  0.508010  0.272330  0.451190  1.0  -0.3178
  N  N2380  1  0.517540  0.343080  0.341700  1.0  -0.3612
  N  N2381  1  0.215470  0.480890  0.010430  1.0  -0.4315
  N  N2382  1  0.225250  0.475530  0.063430  1.0  -0.3191
  N  N2383  1  0.146690  0.482410  0.167670  1.0  -0.4692
  N  N2384  1  0.146780  0.489060  0.208940  1.0  -0.3038
  N  N2385  1  0.193180  0.478500  0.167460  1.0  -0.4219
  N  N2386  1  0.035620  0.503500  0.234360  1.0  -0.3237
  N  N2387  1  0.226190  0.492870  0.231610  1.0  -0.3342
  N  N2388  1  0.210150  0.503390  0.289010  1.0  -0.4271
  N  N2389  1  0.272330  0.508010  0.268470  1.0  -0.313
  N  N2390  1  0.343080  0.517540  0.297680  1.0  -0.3606
  N  N2391  1  0.793210  0.010430  0.480890  1.0  -0.4356
  N  N2392  1  0.735790  0.063430  0.475530  1.0  -0.3187
  N  N2393  1  0.703230  0.167670  0.482410  1.0  -0.4688
  N  N2394  1  0.655220  0.208940  0.489060  1.0  -0.3007
  N  N2395  1  0.660860  0.167460  0.478500  1.0  -0.4237
  N  N2396  1  0.726520  0.234360  0.503500  1.0  -0.3261
  N  N2397  1  0.549330  0.231610  0.492870  1.0  -0.3335
  N  N2398  1  0.497450  0.289010  0.503390  1.0  -0.425
  N  N2399  1  0.451190  0.268470  0.508010  1.0  -0.3114
  N  N2400  1  0.341700  0.297680  0.517540  1.0  -0.3595
  N  N2401  1  0.980890  0.510430  0.293210  1.0  -0.4347
  N  N2402  1  0.975530  0.563430  0.235790  1.0  -0.3175
  N  N2403  1  0.982410  0.667670  0.203230  1.0  -0.4695
  N  N2404  1  0.989060  0.708940  0.155220  1.0  -0.2995
  N  N2405  1  0.978500  0.667460  0.160860  1.0  -0.4234
  N  N2406  1  0.003500  0.734360  0.226520  1.0  -0.3271
  N  N2407  1  0.992870  0.731610  0.049330  1.0  -0.3362
  N  N2408  1  0.003390  0.789010  0.997450  1.0  -0.4257
  N  N2409  1  0.008010  0.768470  0.951190  1.0  -0.3164
  N  N2410  1  0.017540  0.797680  0.841700  1.0  -0.3597
  N  N2411  1  0.510430  0.980890  0.715470  1.0  -0.4337
  N  N2412  1  0.563430  0.975530  0.725250  1.0  -0.3152
  N  N2413  1  0.667670  0.982410  0.646690  1.0  -0.4697
  N  N2414  1  0.708940  0.989060  0.646780  1.0  -0.3013
  N  N2415  1  0.667460  0.978500  0.693180  1.0  -0.4225
  N  N2416  1  0.734360  0.003500  0.535620  1.0  -0.3271
  N  N2417  1  0.731610  0.992870  0.726190  1.0  -0.3366
  N  N2418  1  0.789010  0.003390  0.710150  1.0  -0.4264
  N  N2419  1  0.768470  0.008010  0.772330  1.0  -0.3142
  N  N2420  1  0.797680  0.017540  0.843080  1.0  -0.3604
  N  N2421  1  0.293210  0.715470  0.980890  1.0  -0.4381
  N  N2422  1  0.235790  0.725250  0.975530  1.0  -0.3181
  N  N2423  1  0.203230  0.646690  0.982410  1.0  -0.4686
  N  N2424  1  0.155220  0.646780  0.989060  1.0  -0.3024
  N  N2425  1  0.160860  0.693180  0.978500  1.0  -0.4219
  N  N2426  1  0.226520  0.535620  0.003500  1.0  -0.3274
  N  N2427  1  0.049330  0.726190  0.992870  1.0  -0.3327
  N  N2428  1  0.997450  0.710150  0.003390  1.0  -0.4278
  N  N2429  1  0.951190  0.772330  0.008010  1.0  -0.3115
  N  N2430  1  0.841700  0.843080  0.017540  1.0  -0.3595
  N  N2431  1  0.715470  0.293210  0.510430  1.0  -0.4359
  N  N2432  1  0.725250  0.235790  0.563430  1.0  -0.3182
  N  N2433  1  0.646690  0.203230  0.667670  1.0  -0.4656
  N  N2434  1  0.646780  0.155220  0.708940  1.0  -0.3011
  N  N2435  1  0.693180  0.160860  0.667460  1.0  -0.4214
  N  N2436  1  0.535620  0.226520  0.734360  1.0  -0.3234
  N  N2437  1  0.726190  0.049330  0.731610  1.0  -0.3368
  N  N2438  1  0.710150  0.997450  0.789010  1.0  -0.4278
  N  N2439  1  0.772330  0.951190  0.768470  1.0  -0.3149
  N  N2440  1  0.843080  0.841700  0.797680  1.0  -0.3605
  N  N2441  1  0.293210  0.980890  0.510430  1.0  -0.4347
  N  N2442  1  0.235790  0.975530  0.563430  1.0  -0.3195
  N  N2443  1  0.203230  0.982410  0.667670  1.0  -0.4697
  N  N2444  1  0.155220  0.989060  0.708940  1.0  -0.3043
  N  N2445  1  0.160860  0.978500  0.667460  1.0  -0.4232
  N  N2446  1  0.226520  0.003500  0.734360  1.0  -0.3248
  N  N2447  1  0.049330  0.992870  0.731610  1.0  -0.3304
  N  N2448  1  0.997450  0.003390  0.789010  1.0  -0.4228
  N  N2449  1  0.951190  0.008010  0.768470  1.0  -0.3113
  N  N2450  1  0.841700  0.017540  0.797680  1.0  -0.3607
  N  N2451  1  0.715470  0.510430  0.980890  1.0  -0.432
  N  N2452  1  0.725250  0.563430  0.975530  1.0  -0.3179
  N  N2453  1  0.646690  0.667670  0.982410  1.0  -0.4683
  N  N2454  1  0.646780  0.708940  0.989060  1.0  -0.3014
  N  N2455  1  0.693180  0.667460  0.978500  1.0  -0.4214
  N  N2456  1  0.535620  0.734360  0.003500  1.0  -0.3234
  N  N2457  1  0.726190  0.731610  0.992870  1.0  -0.3348
  N  N2458  1  0.710150  0.789010  0.003390  1.0  -0.429
  N  N2459  1  0.772330  0.768470  0.008010  1.0  -0.3139
  N  N2460  1  0.843080  0.797680  0.017540  1.0  -0.3597
  N  N2461  1  0.980890  0.293210  0.715470  1.0  -0.4357
  N  N2462  1  0.975530  0.235790  0.725250  1.0  -0.3213
  N  N2463  1  0.982410  0.203230  0.646690  1.0  -0.4661
  N  N2464  1  0.989060  0.155220  0.646780  1.0  -0.3048
  N  N2465  1  0.978500  0.160860  0.693180  1.0  -0.4222
  N  N2466  1  0.003500  0.226520  0.535620  1.0  -0.3271
  N  N2467  1  0.992870  0.049330  0.726190  1.0  -0.3367
  N  N2468  1  0.003390  0.997450  0.710150  1.0  -0.4216
  N  N2469  1  0.008010  0.951190  0.772330  1.0  -0.3143
  N  N2470  1  0.017540  0.841700  0.843080  1.0  -0.361
  N  N2471  1  0.510430  0.715470  0.293210  1.0  -0.4369
  N  N2472  1  0.563430  0.725250  0.235790  1.0  -0.3164
  N  N2473  1  0.667670  0.646690  0.203230  1.0  -0.4674
  N  N2474  1  0.708940  0.646780  0.155220  1.0  -0.3037
  N  N2475  1  0.667460  0.693180  0.160860  1.0  -0.4219
  N  N2476  1  0.734360  0.535620  0.226520  1.0  -0.327
  N  N2477  1  0.731610  0.726190  0.049330  1.0  -0.3363
  N  N2478  1  0.789010  0.710150  0.997450  1.0  -0.4282
  N  N2479  1  0.768470  0.772330  0.951190  1.0  -0.3153
  N  N2480  1  0.797680  0.843080  0.841700  1.0  -0.3597
  N  N2481  1  0.510430  0.293210  0.980890  1.0  -0.4366
  N  N2482  1  0.563430  0.235790  0.975530  1.0  -0.3165
  N  N2483  1  0.667670  0.203230  0.982410  1.0  -0.466
  N  N2484  1  0.708940  0.155220  0.989060  1.0  -0.3018
  N  N2485  1  0.667460  0.160860  0.978500  1.0  -0.423
  N  N2486  1  0.734360  0.226520  0.003500  1.0  -0.3251
  N  N2487  1  0.731610  0.049330  0.992870  1.0  -0.3389
  N  N2488  1  0.789010  0.997450  0.003390  1.0  -0.428
  N  N2489  1  0.768470  0.951190  0.008010  1.0  -0.3157
  N  N2490  1  0.797680  0.841700  0.017540  1.0  -0.3599
  N  N2491  1  0.980890  0.715470  0.510430  1.0  -0.4344
  N  N2492  1  0.975530  0.725250  0.563430  1.0  -0.3213
  N  N2493  1  0.982410  0.646690  0.667670  1.0  -0.4697
  N  N2494  1  0.989060  0.646780  0.708940  1.0  -0.3048
  N  N2495  1  0.978500  0.693180  0.667460  1.0  -0.4224
  N  N2496  1  0.003500  0.535620  0.734360  1.0  -0.327
  N  N2497  1  0.992870  0.726190  0.731610  1.0  -0.3386
  N  N2498  1  0.003390  0.710150  0.789010  1.0  -0.4254
  N  N2499  1  0.008010  0.772330  0.768470  1.0  -0.3166
  N  N2500  1  0.017540  0.843080  0.797680  1.0  -0.3612
  N  N2501  1  0.715470  0.980890  0.293210  1.0  -0.4327
  N  N2502  1  0.725250  0.975530  0.235790  1.0  -0.3179
  N  N2503  1  0.646690  0.982410  0.203230  1.0  -0.4688
  N  N2504  1  0.646780  0.989060  0.155220  1.0  -0.3033
  N  N2505  1  0.693180  0.978500  0.160860  1.0  -0.4218
  N  N2506  1  0.535620  0.003500  0.226520  1.0  -0.3235
  N  N2507  1  0.726190  0.992870  0.049330  1.0  -0.3337
  N  N2508  1  0.710150  0.003390  0.997450  1.0  -0.4279
  N  N2509  1  0.772330  0.008010  0.951190  1.0  -0.3143
  N  N2510  1  0.843080  0.017540  0.841700  1.0  -0.36
  N  N2511  1  0.293210  0.510430  0.715470  1.0  -0.4349
  N  N2512  1  0.235790  0.563430  0.725250  1.0  -0.3184
  N  N2513  1  0.203230  0.667670  0.646690  1.0  -0.4688
  N  N2514  1  0.155220  0.708940  0.646780  1.0  -0.3
  N  N2515  1  0.160860  0.667460  0.693180  1.0  -0.4228
  N  N2516  1  0.226520  0.734360  0.535620  1.0  -0.3259
  N  N2517  1  0.049330  0.731610  0.726190  1.0  -0.333
  N  N2518  1  0.997450  0.789010  0.710150  1.0  -0.4236
  N  N2519  1  0.951190  0.768470  0.772330  1.0  -0.3119
  N  N2520  1  0.841700  0.797680  0.843080  1.0  -0.3594
  N  N2521  1  0.519110  0.989570  0.784530  1.0  -0.4353
  N  N2522  1  0.524470  0.936570  0.774750  1.0  -0.3176
  N  N2523  1  0.517590  0.832330  0.853310  1.0  -0.47
  N  N2524  1  0.510940  0.791060  0.853220  1.0  -0.2999
  N  N2525  1  0.521500  0.832540  0.806820  1.0  -0.4219
  N  N2526  1  0.496500  0.765640  0.964380  1.0  -0.3275
  N  N2527  1  0.507130  0.768390  0.773810  1.0  -0.3364
  N  N2528  1  0.496610  0.710990  0.789850  1.0  -0.4269
  N  N2529  1  0.491990  0.731530  0.727670  1.0  -0.3153
  N  N2530  1  0.482460  0.702320  0.656920  1.0  -0.3594
  N  N2531  1  0.989570  0.519110  0.206790  1.0  -0.4363
  N  N2532  1  0.936570  0.524470  0.264210  1.0  -0.3142
  N  N2533  1  0.832330  0.517590  0.296770  1.0  -0.4687
  N  N2534  1  0.791060  0.510940  0.344780  1.0  -0.3007
  N  N2535  1  0.832540  0.521500  0.339140  1.0  -0.421
  N  N2536  1  0.765640  0.496500  0.273480  1.0  -0.3268
  N  N2537  1  0.768390  0.507130  0.450670  1.0  -0.3358
  N  N2538  1  0.710990  0.496610  0.502550  1.0  -0.4284
  N  N2539  1  0.731530  0.491990  0.548810  1.0  -0.314
  N  N2540  1  0.702320  0.482460  0.658300  1.0  -0.3607
  N  N2541  1  0.206790  0.784530  0.989570  1.0  -0.4329
  N  N2542  1  0.264210  0.774750  0.936570  1.0  -0.3177
  N  N2543  1  0.296770  0.853310  0.832330  1.0  -0.4676
  N  N2544  1  0.344780  0.853220  0.791060  1.0  -0.3026
  N  N2545  1  0.339140  0.806820  0.832540  1.0  -0.4208
  N  N2546  1  0.273480  0.964380  0.765640  1.0  -0.3275
  N  N2547  1  0.450670  0.773810  0.768390  1.0  -0.3325
  N  N2548  1  0.502550  0.789850  0.710990  1.0  -0.4258
  N  N2549  1  0.548810  0.727670  0.731530  1.0  -0.3134
  N  N2550  1  0.658300  0.656920  0.702320  1.0  -0.3598
  N  N2551  1  0.784530  0.206790  0.519110  1.0  -0.4378
  N  N2552  1  0.774750  0.264210  0.524470  1.0  -0.3176
  N  N2553  1  0.853310  0.296770  0.517590  1.0  -0.4647
  N  N2554  1  0.853220  0.344780  0.510940  1.0  -0.3025
  N  N2555  1  0.806820  0.339140  0.521500  1.0  -0.4229
  N  N2556  1  0.964380  0.273480  0.496500  1.0  -0.3239
  N  N2557  1  0.773810  0.450670  0.507130  1.0  -0.3369
  N  N2558  1  0.789850  0.502550  0.496610  1.0  -0.4264
  N  N2559  1  0.727670  0.548810  0.491990  1.0  -0.3148
  N  N2560  1  0.656920  0.658300  0.482460  1.0  -0.3605
  N  N2561  1  0.206790  0.519110  0.784530  1.0  -0.4308
  N  N2562  1  0.264210  0.524470  0.774750  1.0  -0.3192
  N  N2563  1  0.296770  0.517590  0.853310  1.0  -0.4678
  N  N2564  1  0.344780  0.510940  0.853220  1.0  -0.3043
  N  N2565  1  0.339140  0.521500  0.806820  1.0  -0.4204
  N  N2566  1  0.273480  0.496500  0.964380  1.0  -0.3247
  N  N2567  1  0.450670  0.507130  0.773810  1.0  -0.3302
  N  N2568  1  0.502550  0.496610  0.789850  1.0  -0.4226
  N  N2569  1  0.548810  0.491990  0.727670  1.0  -0.3114
  N  N2570  1  0.658300  0.482460  0.656920  1.0  -0.3628
  N  N2571  1  0.784530  0.989570  0.206790  1.0  -0.4326
  N  N2572  1  0.774750  0.936570  0.264210  1.0  -0.318
  N  N2573  1  0.853310  0.832330  0.296770  1.0  -0.4693
  N  N2574  1  0.853220  0.791060  0.344780  1.0  -0.3014
  N  N2575  1  0.806820  0.832540  0.339140  1.0  -0.4233
  N  N2576  1  0.964380  0.765640  0.273480  1.0  -0.3237
  N  N2577  1  0.773810  0.768390  0.450670  1.0  -0.3353
  N  N2578  1  0.789850  0.710990  0.502550  1.0  -0.4275
  N  N2579  1  0.727670  0.731530  0.548810  1.0  -0.3141
  N  N2580  1  0.656920  0.702320  0.658300  1.0  -0.3593
  N  N2581  1  0.519110  0.206790  0.989570  1.0  -0.4381
  N  N2582  1  0.524470  0.264210  0.936570  1.0  -0.3204
  N  N2583  1  0.517590  0.296770  0.832330  1.0  -0.4646
  N  N2584  1  0.510940  0.344780  0.791060  1.0  -0.304
  N  N2585  1  0.521500  0.339140  0.832540  1.0  -0.4212
  N  N2586  1  0.496500  0.273480  0.765640  1.0  -0.3272
  N  N2587  1  0.507130  0.450670  0.768390  1.0  -0.3354
  N  N2588  1  0.496610  0.502550  0.710990  1.0  -0.4231
  N  N2589  1  0.491990  0.548810  0.731530  1.0  -0.315
  N  N2590  1  0.482460  0.658300  0.702320  1.0  -0.3613
  N  N2591  1  0.989570  0.784530  0.519110  1.0  -0.4354
  N  N2592  1  0.936570  0.774750  0.524470  1.0  -0.3155
  N  N2593  1  0.832330  0.853310  0.517590  1.0  -0.4698
  N  N2594  1  0.791060  0.853220  0.510940  1.0  -0.3015
  N  N2595  1  0.832540  0.806820  0.521500  1.0  -0.4213
  N  N2596  1  0.765640  0.964380  0.496500  1.0  -0.3275
  N  N2597  1  0.768390  0.773810  0.507130  1.0  -0.3355
  N  N2598  1  0.710990  0.789850  0.496610  1.0  -0.4292
  N  N2599  1  0.731530  0.727670  0.491990  1.0  -0.3154
  N  N2600  1  0.702320  0.656920  0.482460  1.0  -0.3603
  N  N2601  1  0.989570  0.206790  0.784530  1.0  -0.4381
  N  N2602  1  0.936570  0.264210  0.774750  1.0  -0.3153
  N  N2603  1  0.832330  0.296770  0.853310  1.0  -0.4648
  N  N2604  1  0.791060  0.344780  0.853220  1.0  -0.3019
  N  N2605  1  0.832540  0.339140  0.806820  1.0  -0.422
  N  N2606  1  0.765640  0.273480  0.964380  1.0  -0.3261
  N  N2607  1  0.768390  0.450670  0.773810  1.0  -0.3381
  N  N2608  1  0.710990  0.502550  0.789850  1.0  -0.4293
  N  N2609  1  0.731530  0.548810  0.727670  1.0  -0.3159
  N  N2610  1  0.702320  0.658300  0.656920  1.0  -0.3603
  N  N2611  1  0.519110  0.784530  0.206790  1.0  -0.4335
  N  N2612  1  0.524470  0.774750  0.264210  1.0  -0.3212
  N  N2613  1  0.517590  0.853310  0.296770  1.0  -0.4688
  N  N2614  1  0.510940  0.853220  0.344780  1.0  -0.3048
  N  N2615  1  0.521500  0.806820  0.339140  1.0  -0.4215
  N  N2616  1  0.496500  0.964380  0.273480  1.0  -0.3274
  N  N2617  1  0.507130  0.773810  0.450670  1.0  -0.3372
  N  N2618  1  0.496610  0.789850  0.502550  1.0  -0.4236
  N  N2619  1  0.491990  0.727670  0.548810  1.0  -0.3162
  N  N2620  1  0.482460  0.656920  0.658300  1.0  -0.3627
  N  N2621  1  0.784530  0.519110  0.989570  1.0  -0.4338
  N  N2622  1  0.774750  0.524470  0.936570  1.0  -0.3185
  N  N2623  1  0.853310  0.517590  0.832330  1.0  -0.4685
  N  N2624  1  0.853220  0.510940  0.791060  1.0  -0.3036
  N  N2625  1  0.806820  0.521500  0.832540  1.0  -0.4232
  N  N2626  1  0.964380  0.496500  0.765640  1.0  -0.3237
  N  N2627  1  0.773810  0.507130  0.768390  1.0  -0.3331
  N  N2628  1  0.789850  0.496610  0.710990  1.0  -0.426
  N  N2629  1  0.727670  0.491990  0.731530  1.0  -0.3137
  N  N2630  1  0.656920  0.482460  0.702320  1.0  -0.3614
  N  N2631  1  0.206790  0.989570  0.519110  1.0  -0.431
  N  N2632  1  0.264210  0.936570  0.524470  1.0  -0.3191
  N  N2633  1  0.296770  0.832330  0.517590  1.0  -0.4676
  N  N2634  1  0.344780  0.791060  0.510940  1.0  -0.3006
  N  N2635  1  0.339140  0.832540  0.521500  1.0  -0.4214
  N  N2636  1  0.273480  0.765640  0.496500  1.0  -0.3252
  N  N2637  1  0.450670  0.768390  0.507130  1.0  -0.3319
  N  N2638  1  0.502550  0.710990  0.496610  1.0  -0.4267
  N  N2639  1  0.548810  0.731530  0.491990  1.0  -0.313
  N  N2640  1  0.658300  0.702320  0.482460  1.0  -0.3592
