# generated using pymatgen
data_Mn3H80C63N8O9
_symmetry_space_group_name_H-M   'P 1'
_cell_length_a   20.34500000
_cell_length_b   30.59170000
_cell_length_c   30.59170000
_cell_angle_alpha   64.76800000
_cell_angle_beta   77.19210000
_cell_angle_gamma   102.80800000
_symmetry_Int_Tables_number   1
_chemical_formula_structural   Mn3H80C63N8O9
_chemical_formula_sum   'Mn18 H480 C378 N48 O54'
_cell_volume   15678.71234374
_cell_formula_units_Z   6
loop_
 _symmetry_equiv_pos_site_id
 _symmetry_equiv_pos_as_xyz
  1  'x, y, z'
loop_
 _atom_site_type_symbol
 _atom_site_label
 _atom_site_symmetry_multiplicity
 _atom_site_fract_x
 _atom_site_fract_y
 _atom_site_fract_z
 _atom_site_occupancy
 _atom_site_charge
  Mn  Mn1  1  0.611010  0.555570  0.822470  1.0  0.8585
  Mn  Mn2  1  0.609680  0.391750  0.951900  1.0  0.929
  Mn  Mn3  1  0.426120  0.616370  0.881530  1.0  0.8438
  Mn  Mn4  1  0.433480  0.822470  0.621960  1.0  0.8556
  Mn  Mn5  1  0.561580  0.951900  0.656350  1.0  0.9196
  Mn  Mn6  1  0.307650  0.881530  0.502100  1.0  0.8479
  Mn  Mn7  1  0.055440  0.621960  0.555570  1.0  0.8563
  Mn  Mn8  1  0.217930  0.656350  0.391750  1.0  0.9281
  Mn  Mn9  1  0.809750  0.502100  0.616370  1.0  0.8431
  Mn  Mn10  1  0.388990  0.444430  0.177530  1.0  0.8579
  Mn  Mn11  1  0.390320  0.608250  0.048100  1.0  0.9307
  Mn  Mn12  1  0.573880  0.383630  0.118470  1.0  0.8446
  Mn  Mn13  1  0.566520  0.177530  0.378040  1.0  0.8575
  Mn  Mn14  1  0.438420  0.048100  0.343650  1.0  0.9259
  Mn  Mn15  1  0.692350  0.118470  0.497900  1.0  0.8432
  Mn  Mn16  1  0.944560  0.378040  0.444430  1.0  0.857
  Mn  Mn17  1  0.782070  0.343650  0.608250  1.0  0.9233
  Mn  Mn18  1  0.190250  0.497900  0.383630  1.0  0.8419
  H  H19  1  0.511300  0.516700  0.726300  1.0  0.0975
  H  H20  1  0.490700  0.446500  0.713700  1.0  0.116
  H  H21  1  0.510300  0.372100  0.770100  1.0  0.1055
  H  H22  1  0.556200  0.374000  0.832000  1.0  0.0985
  H  H23  1  0.645400  0.527800  0.969300  1.0  0.0716
  H  H24  1  0.680500  0.486100  0.968700  1.0  0.0753
  H  H25  1  0.738100  0.589700  0.917200  1.0  0.0746
  H  H26  1  0.757000  0.550000  0.960900  1.0  0.0672
  H  H27  1  0.804600  0.571600  0.863700  1.0  0.0686
  H  H28  1  0.830000  0.542200  0.909600  1.0  0.0818
  H  H29  1  0.868000  0.652800  0.853400  1.0  0.092
  H  H30  1  0.922000  0.622400  0.849700  1.0  0.0989
  H  H31  1  0.856200  0.626200  0.944400  1.0  0.0928
  H  H32  1  0.905200  0.591900  0.943700  1.0  0.1007
  H  H33  1  0.962700  0.703900  0.879000  1.0  0.1018
  H  H34  1  0.009900  0.667800  0.885800  1.0  0.1077
  H  H35  1  0.941800  0.687300  0.966800  1.0  0.0591
  H  H36  1  0.985700  0.648600  0.975800  1.0  0.0819
  H  H37  1  0.090400  0.719200  0.909900  1.0  0.1019
  H  H38  1  0.045500  0.757000  0.906000  1.0  0.0572
  H  H39  1  0.030900  0.741300  0.983900  1.0  0.0755
  H  H40  1  0.057600  0.692700  0.997100  1.0  0.0831
  H  H41  1  0.135500  0.794100  0.920300  1.0  0.0546
  H  H42  1  0.162100  0.746400  0.928400  1.0  0.124
  H  H43  1  0.203500  0.761800  0.984600  1.0  0.0999
  H  H44  1  0.121400  0.730300  0.023300  1.0  0.091
  H  H45  1  0.150900  0.792200  0.991300  1.0  0.0833
  H  H46  1  0.750600  0.632200  0.802800  1.0  0.0722
  H  H47  1  0.870000  0.678200  0.751600  1.0  0.1016
  H  H48  1  0.839400  0.616600  0.663900  1.0  0.104
  H  H49  1  0.722800  0.567900  0.722300  1.0  0.059
  H  H50  1  0.978900  0.660800  0.673000  1.0  0.0998
  H  H51  1  0.953300  0.696700  0.629400  1.0  0.0842
  H  H52  1  0.827100  0.393500  0.897100  1.0  0.1033
  H  H53  1  0.913900  0.387700  0.934800  1.0  0.1002
  H  H54  1  0.889000  0.376500  0.018100  1.0  0.1048
  H  H55  1  0.780700  0.379700  0.058800  1.0  0.0855
  H  H56  1  0.405300  0.390800  0.038100  1.0  0.0787
  H  H57  1  0.435000  0.393300  0.081700  1.0  0.0799
  H  H58  1  0.376700  0.299500  0.079100  1.0  0.0729
  H  H59  1  0.411700  0.300700  0.120800  1.0  0.0729
  H  H60  1  0.284400  0.323800  0.113000  1.0  0.0734
  H  H61  1  0.320400  0.328100  0.153300  1.0  0.0605
  H  H62  1  0.255800  0.232700  0.155700  1.0  0.0648
  H  H63  1  0.297100  0.235900  0.193700  1.0  0.0696
  H  H64  1  0.209800  0.263400  0.230200  1.0  0.0638
  H  H65  1  0.168100  0.259000  0.192800  1.0  0.06
  H  H66  1  0.142300  0.169100  0.234000  1.0  0.0624
  H  H67  1  0.184600  0.173400  0.271000  1.0  0.0768
  H  H68  1  0.060400  0.199800  0.270700  1.0  0.0741
  H  H69  1  0.099200  0.194300  0.311700  1.0  0.0774
  H  H70  1  0.016000  0.109500  0.306100  1.0  0.0678
  H  H71  1  0.059800  0.102600  0.344500  1.0  0.0694
  H  H72  1  0.939800  0.135800  0.348900  1.0  0.0738
  H  H73  1  0.987500  0.137800  0.383600  1.0  0.0736
  H  H74  1  0.901100  0.045100  0.391100  1.0  0.0697
  H  H75  1  0.954900  0.044600  0.421800  1.0  0.0652
  H  H76  1  0.882800  0.069400  0.470300  1.0  0.0721
  H  H77  1  0.841900  0.014500  0.477200  1.0  0.0864
  H  H78  1  0.827300  0.064700  0.441300  1.0  0.0882
  H  H79  1  0.506100  0.783700  0.781800  1.0  0.102
  H  H80  1  0.605800  0.838500  0.705800  1.0  0.095
  H  H81  1  0.691700  0.807200  0.678400  1.0  0.101
  H  H82  1  0.676500  0.719400  0.728000  1.0  0.1015
  H  H83  1  0.439600  0.460100  0.963100  1.0  0.0822
  H  H84  1  0.469100  0.461600  0.909400  1.0  0.0955
  H  H85  1  0.351800  0.397600  0.966600  1.0  0.0659
  H  H86  1  0.322000  0.444400  0.955500  1.0  0.0638
  H  H87  1  0.360400  0.472700  0.868000  1.0  0.0642
  H  H88  1  0.400100  0.431800  0.875100  1.0  0.0685
  H  H89  1  0.247800  0.404900  0.915400  1.0  0.0949
  H  H90  1  0.286400  0.363600  0.924500  1.0  0.0882
  H  H91  1  0.284500  0.430000  0.826500  1.0  0.2312
  H  H92  1  0.315900  0.384000  0.839300  1.0  0.225
  H  H93  1  0.151400  0.834500  0.515800  1.0  0.082
  H  H94  1  0.048300  0.761800  0.569700  1.0  0.0973
  H  H95  1  0.106200  0.753500  0.686200  1.0  0.1203
  H  H96  1  0.221700  0.810000  0.624800  1.0  0.0835
  H  H97  1  0.948000  0.746900  0.671200  1.0  0.0744
  H  H98  1  0.986700  0.714600  0.706400  1.0  0.0739
  H  H99  1  0.237600  0.726300  0.757000  1.0  0.0982
  H  H100  1  0.204400  0.713700  0.839800  1.0  0.1152
  H  H101  1  0.280400  0.770100  0.857800  1.0  0.1051
  H  H102  1  0.388200  0.832000  0.794000  1.0  0.1001
  H  H103  1  0.614700  0.969300  0.502900  1.0  0.0714
  H  H104  1  0.649200  0.968700  0.545200  1.0  0.0747
  H  H105  1  0.655300  0.917200  0.493100  1.0  0.0778
  H  H106  1  0.717900  0.960900  0.489100  1.0  0.0639
  H  H107  1  0.668300  0.863700  0.564700  1.0  0.0687
  H  H108  1  0.739600  0.909600  0.548200  1.0  0.0781
  H  H109  1  0.721400  0.853400  0.493800  1.0  0.0911
  H  H110  1  0.771700  0.849700  0.527900  1.0  0.1031
  H  H111  1  0.800600  0.944400  0.429400  1.0  0.0971
  H  H112  1  0.848900  0.943700  0.464400  1.0  0.1006
  H  H113  1  0.841700  0.879000  0.417100  1.0  0.099
  H  H114  1  0.895700  0.885800  0.446400  1.0  0.1123
  H  H115  1  0.908600  0.966800  0.345900  1.0  0.0597
  H  H116  1  0.961500  0.975800  0.375600  1.0  0.0836
  H  H117  1  0.000300  0.909900  0.370900  1.0  0.0989
  H  H118  1  0.951500  0.906000  0.337000  1.0  0.0556
  H  H119  1  0.014800  0.983900  0.274800  1.0  0.074
  H  H120  1  0.054700  0.997100  0.310200  1.0  0.0818
  H  H121  1  0.055800  0.920300  0.285600  1.0  0.0535
  H  H122  1  0.090500  0.928400  0.325200  1.0  0.1193
  H  H123  1  0.188100  0.984600  0.253600  1.0  0.1003
  H  H124  1  0.144700  0.023300  0.246400  1.0  0.0886
  H  H125  1  0.142200  0.991300  0.216500  1.0  0.0903
  H  H126  1  0.553400  0.802800  0.565000  1.0  0.0717
  H  H127  1  0.621600  0.751600  0.570200  1.0  0.1004
  H  H128  1  0.503300  0.663900  0.719500  1.0  0.1013
  H  H129  1  0.445100  0.722300  0.709800  1.0  0.0598
  H  H130  1  0.651900  0.673000  0.666200  1.0  0.0978
  H  H131  1  0.582700  0.629400  0.673900  1.0  0.0846
  H  H132  1  0.724200  0.897100  0.709400  1.0  0.1041
  H  H133  1  0.848700  0.934800  0.677500  1.0  0.0991
  H  H134  1  0.907100  0.018100  0.605400  1.0  0.1056
  H  H135  1  0.839500  0.058800  0.561500  1.0  0.086
  H  H136  1  0.443400  0.038100  0.571100  1.0  0.0783
  H  H137  1  0.516700  0.081700  0.525000  1.0  0.0786
  H  H138  1  0.455800  0.079100  0.621400  1.0  0.0729
  H  H139  1  0.532500  0.120800  0.578500  1.0  0.0691
  H  H140  1  0.397400  0.113000  0.563200  1.0  0.071
  H  H141  1  0.473700  0.153300  0.518600  1.0  0.0603
  H  H142  1  0.411500  0.155700  0.611600  1.0  0.0669
  H  H143  1  0.490800  0.193700  0.570400  1.0  0.0693
  H  H144  1  0.440000  0.230200  0.506400  1.0  0.0628
  H  H145  1  0.360900  0.192800  0.548200  1.0  0.0631
  H  H146  1  0.376300  0.234000  0.596900  1.0  0.0624
  H  H147  1  0.455600  0.271000  0.555600  1.0  0.0737
  H  H148  1  0.331100  0.270700  0.529500  1.0  0.0762
  H  H149  1  0.410900  0.311700  0.494000  1.0  0.0775
  H  H150  1  0.322100  0.306100  0.584400  1.0  0.0646
  H  H151  1  0.404300  0.344500  0.552900  1.0  0.0696
  H  H152  1  0.288700  0.348900  0.515300  1.0  0.072
  H  H153  1  0.371100  0.383600  0.478600  1.0  0.0735
  H  H154  1  0.292200  0.391100  0.563800  1.0  0.0722
  H  H155  1  0.376700  0.421800  0.533600  1.0  0.068
  H  H156  1  0.353100  0.470300  0.460300  1.0  0.0725
  H  H157  1  0.319100  0.477200  0.508300  1.0  0.0843
  H  H158  1  0.268600  0.441300  0.494000  1.0  0.0859
  H  H159  1  0.287900  0.781800  0.434500  1.0  0.1026
  H  H160  1  0.311600  0.705800  0.455700  1.0  0.0945
  H  H161  1  0.370100  0.678400  0.514400  1.0  0.1017
  H  H162  1  0.404500  0.728000  0.552600  1.0  0.101
  H  H163  1  0.402700  0.963100  0.576800  1.0  0.0824
  H  H164  1  0.378500  0.909400  0.629000  1.0  0.0957
  H  H165  1  0.318400  0.966600  0.635800  1.0  0.0669
  H  H166  1  0.277500  0.955500  0.600100  1.0  0.0652
  H  H167  1  0.228400  0.868000  0.659300  1.0  0.0622
  H  H168  1  0.275200  0.875100  0.693100  1.0  0.0757
  H  H169  1  0.163200  0.915400  0.679700  1.0  0.0994
  H  H170  1  0.210900  0.924500  0.711900  1.0  0.0953
  H  H171  1  0.111000  0.826500  0.743500  1.0  0.2315
  H  H172  1  0.155200  0.839300  0.776700  1.0  0.2275
  H  H173  1  0.667200  0.515800  0.649700  1.0  0.0799
  H  H174  1  0.618000  0.569700  0.668500  1.0  0.0965
  H  H175  1  0.792400  0.686200  0.560300  1.0  0.1228
  H  H176  1  0.846500  0.624800  0.565200  1.0  0.0832
  H  H177  1  0.619200  0.671200  0.581900  1.0  0.0733
  H  H178  1  0.693100  0.706400  0.579000  1.0  0.0725
  H  H179  1  0.994600  0.757000  0.516700  1.0  0.0986
  H  H180  1  0.044200  0.839800  0.446500  1.0  0.1153
  H  H181  1  0.138200  0.857800  0.372100  1.0  0.1061
  H  H182  1  0.182200  0.794000  0.374000  1.0  0.0996
  H  H183  1  0.117600  0.502900  0.527800  1.0  0.0722
  H  H184  1  0.194400  0.545200  0.486100  1.0  0.0756
  H  H185  1  0.148400  0.493100  0.589700  1.0  0.0737
  H  H186  1  0.207000  0.489100  0.550000  1.0  0.0636
  H  H187  1  0.233000  0.564700  0.571600  1.0  0.0642
  H  H188  1  0.287800  0.548200  0.542200  1.0  0.0813
  H  H189  1  0.215200  0.493800  0.652800  1.0  0.0916
  H  H190  1  0.299600  0.527900  0.622400  1.0  0.1029
  H  H191  1  0.230000  0.429400  0.626200  1.0  0.096
  H  H192  1  0.313300  0.464400  0.591900  1.0  0.1003
  H  H193  1  0.258800  0.417100  0.703900  1.0  0.1007
  H  H194  1  0.342100  0.446400  0.667800  1.0  0.1103
  H  H195  1  0.254500  0.345900  0.687300  1.0  0.0581
  H  H196  1  0.337100  0.375600  0.648600  1.0  0.0825
  H  H197  1  0.371200  0.370900  0.719200  1.0  0.0972
  H  H198  1  0.288500  0.337000  0.757000  1.0  0.0626
  H  H199  1  0.289600  0.274800  0.741300  1.0  0.0725
  H  H200  1  0.364900  0.310200  0.692700  1.0  0.0822
  H  H201  1  0.341400  0.285600  0.794100  1.0  0.0566
  H  H202  1  0.415700  0.325200  0.746400  1.0  0.1161
  H  H203  1  0.441700  0.253600  0.761800  1.0  0.0996
  H  H204  1  0.391100  0.246400  0.730300  1.0  0.0874
  H  H205  1  0.358700  0.216500  0.792200  1.0  0.0885
  H  H206  1  0.118400  0.565000  0.632200  1.0  0.0719
  H  H207  1  0.191800  0.570200  0.678200  1.0  0.1014
  H  H208  1  0.222800  0.719500  0.616600  1.0  0.1022
  H  H209  1  0.154900  0.709800  0.567900  1.0  0.0605
  H  H210  1  0.318100  0.666200  0.660800  1.0  0.0968
  H  H211  1  0.256600  0.673900  0.696700  1.0  0.083
  H  H212  1  0.433600  0.709400  0.393500  1.0  0.1032
  H  H213  1  0.526200  0.677500  0.387700  1.0  0.0989
  H  H214  1  0.512500  0.605400  0.376500  1.0  0.1045
  H  H215  1  0.401000  0.561500  0.379700  1.0  0.0848
  H  H216  1  0.014500  0.571100  0.390800  1.0  0.0778
  H  H217  1  0.041700  0.525000  0.393300  1.0  0.0811
  H  H218  1  0.077200  0.621400  0.299500  1.0  0.0727
  H  H219  1  0.111000  0.578500  0.300700  1.0  0.068
  H  H220  1  0.960600  0.563200  0.323800  1.0  0.0661
  H  H221  1  0.992300  0.518600  0.328100  1.0  0.056
  H  H222  1  0.023100  0.611600  0.232700  1.0  0.0679
  H  H223  1  0.061200  0.570400  0.235900  1.0  0.0638
  H  H224  1  0.946400  0.506400  0.263400  1.0  0.061
  H  H225  1  0.909100  0.548200  0.259000  1.0  0.0628
  H  H226  1  0.973200  0.596900  0.169100  1.0  0.0641
  H  H227  1  0.011200  0.555600  0.173400  1.0  0.0661
  H  H228  1  0.860600  0.529500  0.199800  1.0  0.071
  H  H229  1  0.904900  0.494000  0.194300  1.0  0.0703
  H  H230  1  0.906500  0.584400  0.109500  1.0  0.066
  H  H231  1  0.957200  0.552900  0.102600  1.0  0.0685
  H  H232  1  0.804000  0.515300  0.135800  1.0  0.0702
  H  H233  1  0.849700  0.478600  0.137800  1.0  0.0738
  H  H234  1  0.856000  0.563800  0.045100  1.0  0.0716
  H  H235  1  0.910300  0.533600  0.044600  1.0  0.0686
  H  H236  1  0.813400  0.460300  0.069400  1.0  0.0718
  H  H237  1  0.827400  0.508300  0.014500  1.0  0.0818
  H  H238  1  0.762600  0.494000  0.064700  1.0  0.0914
  H  H239  1  0.722400  0.434500  0.783700  1.0  0.1022
  H  H240  1  0.767300  0.455700  0.838500  1.0  0.0944
  H  H241  1  0.884500  0.514400  0.807200  1.0  0.101
  H  H242  1  0.957100  0.552600  0.719400  1.0  0.1012
  H  H243  1  0.979500  0.576800  0.460100  1.0  0.0829
  H  H244  1  0.007500  0.629000  0.461600  1.0  0.0952
  H  H245  1  0.954200  0.635800  0.397600  1.0  0.0674
  H  H246  1  0.877600  0.600100  0.444400  1.0  0.0667
  H  H247  1  0.887700  0.659300  0.472700  1.0  0.0607
  H  H248  1  0.968300  0.693100  0.431800  1.0  0.0733
  H  H249  1  0.842900  0.679700  0.404900  1.0  0.1008
  H  H250  1  0.922800  0.711900  0.363600  1.0  0.0974
  H  H251  1  0.854500  0.743500  0.430000  1.0  0.2319
  H  H252  1  0.931900  0.776700  0.384000  1.0  0.2241
  H  H253  1  0.316900  0.649700  0.834500  1.0  0.0808
  H  H254  1  0.286500  0.668500  0.761800  1.0  0.0965
  H  H255  1  0.352700  0.560300  0.753500  1.0  0.121
  H  H256  1  0.411700  0.565200  0.810000  1.0  0.0836
  H  H257  1  0.201100  0.581900  0.746900  1.0  0.0708
  H  H258  1  0.272100  0.579000  0.714600  1.0  0.0729
  H  H259  1  0.488700  0.483300  0.273700  1.0  0.0989
  H  H260  1  0.509300  0.553500  0.286300  1.0  0.1159
  H  H261  1  0.489700  0.627900  0.229900  1.0  0.1058
  H  H262  1  0.443800  0.626000  0.168000  1.0  0.0991
  H  H263  1  0.354600  0.472200  0.030700  1.0  0.0725
  H  H264  1  0.319500  0.513900  0.031300  1.0  0.0735
  H  H265  1  0.261900  0.410300  0.082800  1.0  0.0706
  H  H266  1  0.243000  0.450000  0.039100  1.0  0.0665
  H  H267  1  0.195400  0.428400  0.136300  1.0  0.0681
  H  H268  1  0.170000  0.457800  0.090400  1.0  0.0799
  H  H269  1  0.132000  0.347200  0.146600  1.0  0.0928
  H  H270  1  0.078000  0.377600  0.150300  1.0  0.1002
  H  H271  1  0.143800  0.373800  0.055600  1.0  0.0944
  H  H272  1  0.094800  0.408100  0.056300  1.0  0.101
  H  H273  1  0.037300  0.296100  0.121000  1.0  0.1025
  H  H274  1  0.990100  0.332200  0.114200  1.0  0.1054
  H  H275  1  0.058200  0.312700  0.033200  1.0  0.0607
  H  H276  1  0.014300  0.351400  0.024200  1.0  0.0849
  H  H277  1  0.909600  0.280800  0.090100  1.0  0.1007
  H  H278  1  0.954500  0.243000  0.094000  1.0  0.0578
  H  H279  1  0.969100  0.258700  0.016100  1.0  0.0753
  H  H280  1  0.942400  0.307300  0.002900  1.0  0.0862
  H  H281  1  0.864500  0.205900  0.079700  1.0  0.0533
  H  H282  1  0.837900  0.253600  0.071600  1.0  0.1225
  H  H283  1  0.796500  0.238200  0.015400  1.0  0.103
  H  H284  1  0.878600  0.269700  0.976700  1.0  0.0887
  H  H285  1  0.849100  0.207800  0.008700  1.0  0.0835
  H  H286  1  0.249400  0.367800  0.197200  1.0  0.0702
  H  H287  1  0.130000  0.321800  0.248400  1.0  0.1012
  H  H288  1  0.160600  0.383400  0.336100  1.0  0.1029
  H  H289  1  0.277200  0.432100  0.277700  1.0  0.0595
  H  H290  1  0.021100  0.339200  0.327000  1.0  0.0983
  H  H291  1  0.046700  0.303300  0.370600  1.0  0.0836
  H  H292  1  0.172900  0.606500  0.102900  1.0  0.1034
  H  H293  1  0.086100  0.612300  0.065200  1.0  0.0998
  H  H294  1  0.111000  0.623500  0.981900  1.0  0.1025
  H  H295  1  0.219300  0.620300  0.941200  1.0  0.0853
  H  H296  1  0.594700  0.609200  0.961900  1.0  0.0781
  H  H297  1  0.565000  0.606700  0.918300  1.0  0.0813
  H  H298  1  0.623300  0.700500  0.920900  1.0  0.0733
  H  H299  1  0.588300  0.699300  0.879200  1.0  0.0707
  H  H300  1  0.715600  0.676200  0.887000  1.0  0.0718
  H  H301  1  0.679600  0.671900  0.846700  1.0  0.0616
  H  H302  1  0.744200  0.767300  0.844300  1.0  0.067
  H  H303  1  0.702900  0.764100  0.806300  1.0  0.0698
  H  H304  1  0.790200  0.736600  0.769800  1.0  0.0636
  H  H305  1  0.831900  0.741000  0.807200  1.0  0.062
  H  H306  1  0.857700  0.830900  0.766000  1.0  0.0627
  H  H307  1  0.815400  0.826600  0.729000  1.0  0.0746
  H  H308  1  0.939600  0.800200  0.729300  1.0  0.0738
  H  H309  1  0.900800  0.805700  0.688300  1.0  0.078
  H  H310  1  0.984000  0.890500  0.693900  1.0  0.0669
  H  H311  1  0.940200  0.897400  0.655500  1.0  0.0712
  H  H312  1  0.060200  0.864200  0.651100  1.0  0.0747
  H  H313  1  0.012500  0.862200  0.616400  1.0  0.0751
  H  H314  1  0.098900  0.954900  0.608900  1.0  0.0702
  H  H315  1  0.045100  0.955400  0.578200  1.0  0.0663
  H  H316  1  0.117200  0.930600  0.529700  1.0  0.0723
  H  H317  1  0.158100  0.985500  0.522800  1.0  0.0861
  H  H318  1  0.172700  0.935300  0.558700  1.0  0.0883
  H  H319  1  0.493900  0.216300  0.218200  1.0  0.1016
  H  H320  1  0.394200  0.161500  0.294200  1.0  0.0941
  H  H321  1  0.308300  0.192800  0.321600  1.0  0.1007
  H  H322  1  0.323500  0.280600  0.272000  1.0  0.1013
  H  H323  1  0.560400  0.539900  0.036900  1.0  0.0824
  H  H324  1  0.530900  0.538400  0.090600  1.0  0.096
  H  H325  1  0.648200  0.602400  0.033400  1.0  0.0654
  H  H326  1  0.678000  0.555600  0.044500  1.0  0.0657
  H  H327  1  0.639600  0.527300  0.132000  1.0  0.0635
  H  H328  1  0.599900  0.568200  0.124900  1.0  0.0683
  H  H329  1  0.752200  0.595100  0.084600  1.0  0.0952
  H  H330  1  0.713600  0.636400  0.075500  1.0  0.0929
  H  H331  1  0.715500  0.570000  0.173500  1.0  0.2314
  H  H332  1  0.684100  0.616000  0.160700  1.0  0.2247
  H  H333  1  0.848600  0.165500  0.484200  1.0  0.0799
  H  H334  1  0.951700  0.238200  0.430300  1.0  0.0966
  H  H335  1  0.893800  0.246500  0.313800  1.0  0.1221
  H  H336  1  0.778300  0.190000  0.375200  1.0  0.0828
  H  H337  1  0.052000  0.253100  0.328800  1.0  0.0735
  H  H338  1  0.013300  0.285400  0.293600  1.0  0.0734
  H  H339  1  0.762400  0.273700  0.243000  1.0  0.0978
  H  H340  1  0.795600  0.286300  0.160200  1.0  0.1154
  H  H341  1  0.719600  0.229900  0.142200  1.0  0.1053
  H  H342  1  0.611800  0.168000  0.206000  1.0  0.1
  H  H343  1  0.385300  0.030700  0.497100  1.0  0.0715
  H  H344  1  0.350800  0.031300  0.454800  1.0  0.0743
  H  H345  1  0.344700  0.082800  0.506900  1.0  0.0743
  H  H346  1  0.282100  0.039100  0.510900  1.0  0.0632
  H  H347  1  0.331700  0.136300  0.435300  1.0  0.0691
  H  H348  1  0.260400  0.090400  0.451800  1.0  0.0786
  H  H349  1  0.278600  0.146600  0.506200  1.0  0.0882
  H  H350  1  0.228300  0.150300  0.472100  1.0  0.1028
  H  H351  1  0.199400  0.055600  0.570600  1.0  0.0967
  H  H352  1  0.151100  0.056300  0.535600  1.0  0.0999
  H  H353  1  0.158300  0.121000  0.582900  1.0  0.1
  H  H354  1  0.104300  0.114200  0.553600  1.0  0.1131
  H  H355  1  0.091400  0.033200  0.654100  1.0  0.0621
  H  H356  1  0.038500  0.024200  0.624400  1.0  0.0832
  H  H357  1  0.999700  0.090100  0.629100  1.0  0.0994
  H  H358  1  0.048500  0.094000  0.663000  1.0  0.0582
  H  H359  1  0.985200  0.016100  0.725200  1.0  0.0741
  H  H360  1  0.945300  0.002900  0.689800  1.0  0.0819
  H  H361  1  0.944200  0.079700  0.714400  1.0  0.0548
  H  H362  1  0.909500  0.071600  0.674800  1.0  0.1187
  H  H363  1  0.811900  0.015400  0.746400  1.0  0.1021
  H  H364  1  0.855300  0.976700  0.753600  1.0  0.0874
  H  H365  1  0.857800  0.008700  0.783500  1.0  0.09
  H  H366  1  0.446600  0.197200  0.435000  1.0  0.0705
  H  H367  1  0.378400  0.248400  0.429800  1.0  0.1006
  H  H368  1  0.496700  0.336100  0.280500  1.0  0.1013
  H  H369  1  0.554900  0.277700  0.290200  1.0  0.0596
  H  H370  1  0.348100  0.327000  0.333800  1.0  0.0974
  H  H371  1  0.417300  0.370600  0.326100  1.0  0.082
  H  H372  1  0.275800  0.102900  0.290600  1.0  0.104
  H  H373  1  0.151300  0.065200  0.322500  1.0  0.0991
  H  H374  1  0.092900  0.981900  0.394600  1.0  0.104
  H  H375  1  0.160500  0.941200  0.438500  1.0  0.086
  H  H376  1  0.556600  0.961900  0.428900  1.0  0.079
  H  H377  1  0.483300  0.918300  0.475000  1.0  0.0769
  H  H378  1  0.544200  0.920900  0.378600  1.0  0.0716
  H  H379  1  0.467500  0.879200  0.421500  1.0  0.0656
  H  H380  1  0.602600  0.887000  0.436800  1.0  0.0721
  H  H381  1  0.526300  0.846700  0.481400  1.0  0.0606
  H  H382  1  0.588500  0.844300  0.388400  1.0  0.0668
  H  H383  1  0.509200  0.806300  0.429600  1.0  0.0691
  H  H384  1  0.560000  0.769800  0.493600  1.0  0.0625
  H  H385  1  0.639100  0.807200  0.451800  1.0  0.0634
  H  H386  1  0.623700  0.766000  0.403100  1.0  0.0635
  H  H387  1  0.544400  0.729000  0.444400  1.0  0.0725
  H  H388  1  0.668900  0.729300  0.470500  1.0  0.0746
  H  H389  1  0.589100  0.688300  0.506000  1.0  0.0766
  H  H390  1  0.677900  0.693900  0.415600  1.0  0.0653
  H  H391  1  0.595700  0.655500  0.447100  1.0  0.0714
  H  H392  1  0.711300  0.651100  0.484700  1.0  0.0728
  H  H393  1  0.628900  0.616400  0.521400  1.0  0.0753
  H  H394  1  0.707800  0.608900  0.436200  1.0  0.0716
  H  H395  1  0.623300  0.578200  0.466400  1.0  0.0675
  H  H396  1  0.646900  0.529700  0.539700  1.0  0.0714
  H  H397  1  0.680900  0.522800  0.491700  1.0  0.083
  H  H398  1  0.731400  0.558700  0.506000  1.0  0.087
  H  H399  1  0.712100  0.218200  0.565500  1.0  0.1028
  H  H400  1  0.688400  0.294200  0.544300  1.0  0.094
  H  H401  1  0.629900  0.321600  0.485600  1.0  0.1015
  H  H402  1  0.595500  0.272000  0.447400  1.0  0.1008
  H  H403  1  0.597300  0.036900  0.423200  1.0  0.083
  H  H404  1  0.621500  0.090600  0.371000  1.0  0.0962
  H  H405  1  0.681600  0.033400  0.364200  1.0  0.0668
  H  H406  1  0.722500  0.044500  0.399900  1.0  0.0657
  H  H407  1  0.771600  0.132000  0.340700  1.0  0.063
  H  H408  1  0.724800  0.124900  0.306900  1.0  0.0759
  H  H409  1  0.836800  0.084600  0.320300  1.0  0.0987
  H  H410  1  0.789100  0.075500  0.288100  1.0  0.096
  H  H411  1  0.889000  0.173500  0.256500  1.0  0.2294
  H  H412  1  0.844800  0.160700  0.223300  1.0  0.224
  H  H413  1  0.332800  0.484200  0.350300  1.0  0.0822
  H  H414  1  0.382000  0.430300  0.331500  1.0  0.0966
  H  H415  1  0.207600  0.313800  0.439700  1.0  0.1233
  H  H416  1  0.153500  0.375200  0.434800  1.0  0.083
  H  H417  1  0.380800  0.328800  0.418100  1.0  0.0729
  H  H418  1  0.306900  0.293600  0.421000  1.0  0.0737
  H  H419  1  0.005400  0.243000  0.483300  1.0  0.0999
  H  H420  1  0.955800  0.160200  0.553500  1.0  0.1146
  H  H421  1  0.861800  0.142200  0.627900  1.0  0.106
  H  H422  1  0.817800  0.206000  0.626000  1.0  0.1003
  H  H423  1  0.882400  0.497100  0.472200  1.0  0.0713
  H  H424  1  0.805600  0.454800  0.513900  1.0  0.0756
  H  H425  1  0.851600  0.506900  0.410300  1.0  0.0732
  H  H426  1  0.793000  0.510900  0.450000  1.0  0.0647
  H  H427  1  0.767000  0.435300  0.428400  1.0  0.0607
  H  H428  1  0.712200  0.451800  0.457800  1.0  0.0806
  H  H429  1  0.784800  0.506200  0.347200  1.0  0.0921
  H  H430  1  0.700400  0.472100  0.377600  1.0  0.102
  H  H431  1  0.770000  0.570600  0.373800  1.0  0.095
  H  H432  1  0.686700  0.535600  0.408100  1.0  0.0998
  H  H433  1  0.741200  0.582900  0.296100  1.0  0.1015
  H  H434  1  0.657900  0.553600  0.332200  1.0  0.1109
  H  H435  1  0.745500  0.654100  0.312700  1.0  0.0587
  H  H436  1  0.662900  0.624400  0.351400  1.0  0.0829
  H  H437  1  0.628800  0.629100  0.280800  1.0  0.0986
  H  H438  1  0.711500  0.663000  0.243000  1.0  0.0591
  H  H439  1  0.710400  0.725200  0.258700  1.0  0.0764
  H  H440  1  0.635100  0.689800  0.307300  1.0  0.0804
  H  H441  1  0.658600  0.714400  0.205900  1.0  0.0563
  H  H442  1  0.584300  0.674800  0.253600  1.0  0.1177
  H  H443  1  0.558300  0.746400  0.238200  1.0  0.0979
  H  H444  1  0.608900  0.753600  0.269700  1.0  0.0871
  H  H445  1  0.641300  0.783500  0.207800  1.0  0.0871
  H  H446  1  0.881600  0.435000  0.367800  1.0  0.0702
  H  H447  1  0.808200  0.429800  0.321800  1.0  0.1013
  H  H448  1  0.777200  0.280500  0.383400  1.0  0.102
  H  H449  1  0.845100  0.290200  0.432100  1.0  0.0605
  H  H450  1  0.681900  0.333800  0.339200  1.0  0.0982
  H  H451  1  0.743400  0.326100  0.303300  1.0  0.0831
  H  H452  1  0.566400  0.290600  0.606500  1.0  0.1032
  H  H453  1  0.473800  0.322500  0.612300  1.0  0.0993
  H  H454  1  0.487500  0.394600  0.623500  1.0  0.1029
  H  H455  1  0.599000  0.438500  0.620300  1.0  0.0848
  H  H456  1  0.985500  0.428900  0.609200  1.0  0.0771
  H  H457  1  0.958300  0.475000  0.606700  1.0  0.0813
  H  H458  1  0.922800  0.378600  0.700500  1.0  0.0717
  H  H459  1  0.889000  0.421500  0.699300  1.0  0.0695
  H  H460  1  0.039400  0.436800  0.676200  1.0  0.0679
  H  H461  1  0.007700  0.481400  0.671900  1.0  0.061
  H  H462  1  0.976900  0.388400  0.767300  1.0  0.0647
  H  H463  1  0.938800  0.429600  0.764100  1.0  0.064
  H  H464  1  0.053600  0.493600  0.736600  1.0  0.0641
  H  H465  1  0.090900  0.451800  0.741000  1.0  0.059
  H  H466  1  0.026800  0.403100  0.830900  1.0  0.0603
  H  H467  1  0.988800  0.444400  0.826600  1.0  0.0686
  H  H468  1  0.139400  0.470500  0.800200  1.0  0.0676
  H  H469  1  0.095100  0.506000  0.805700  1.0  0.0731
  H  H470  1  0.093500  0.415600  0.890500  1.0  0.0662
  H  H471  1  0.042800  0.447100  0.897400  1.0  0.0708
  H  H472  1  0.196000  0.484700  0.864200  1.0  0.0684
  H  H473  1  0.150300  0.521400  0.862200  1.0  0.0741
  H  H474  1  0.144000  0.436200  0.954900  1.0  0.0645
  H  H475  1  0.089700  0.466400  0.955400  1.0  0.0688
  H  H476  1  0.186600  0.539700  0.930600  1.0  0.0737
  H  H477  1  0.172600  0.491700  0.985500  1.0  0.0815
  H  H478  1  0.237400  0.506000  0.935300  1.0  0.0919
  H  H479  1  0.277600  0.565500  0.216300  1.0  0.102
  H  H480  1  0.232700  0.544300  0.161500  1.0  0.0941
  H  H481  1  0.115500  0.485600  0.192800  1.0  0.1013
  H  H482  1  0.042900  0.447400  0.280600  1.0  0.1004
  H  H483  1  0.020500  0.423200  0.539900  1.0  0.0833
  H  H484  1  0.992500  0.371000  0.538400  1.0  0.0957
  H  H485  1  0.045800  0.364200  0.602400  1.0  0.0685
  H  H486  1  0.122400  0.399900  0.555600  1.0  0.0659
  H  H487  1  0.112300  0.340700  0.527300  1.0  0.0624
  H  H488  1  0.031700  0.306900  0.568200  1.0  0.073
  H  H489  1  0.157100  0.320300  0.595100  1.0  0.0996
  H  H490  1  0.077200  0.288100  0.636400  1.0  0.098
  H  H491  1  0.145500  0.256500  0.570000  1.0  0.2298
  H  H492  1  0.068100  0.223300  0.616000  1.0  0.2255
  H  H493  1  0.683100  0.350300  0.165500  1.0  0.0822
  H  H494  1  0.713500  0.331500  0.238200  1.0  0.0975
  H  H495  1  0.647300  0.439700  0.246500  1.0  0.1212
  H  H496  1  0.588300  0.434800  0.190000  1.0  0.0839
  H  H497  1  0.798900  0.418100  0.253100  1.0  0.0716
  H  H498  1  0.727900  0.421000  0.285400  1.0  0.0724
  C  C499  1  0.555040  0.491930  0.781210  1.0  0.3032
  C  C500  1  0.523300  0.488200  0.746700  1.0  -0.1777
  C  C501  1  0.508600  0.446100  0.740000  1.0  -0.1476
  C  C502  1  0.521100  0.402400  0.773100  1.0  -0.1359
  C  C503  1  0.548630  0.403790  0.809500  1.0  -0.0507
  C  C504  1  0.566100  0.447380  0.814480  1.0  -0.1728
  C  C505  1  0.592370  0.444030  0.856520  1.0  0.5407
  C  C506  1  0.652080  0.519440  0.906400  1.0  0.5028
  C  C507  1  0.679640  0.520810  0.946890  1.0  -0.234
  C  C508  1  0.747300  0.556900  0.928800  1.0  -0.1271
  C  C509  1  0.812900  0.571200  0.894500  1.0  -0.149
  C  C510  1  0.879400  0.622000  0.873300  1.0  -0.1596
  C  C511  1  0.897900  0.624300  0.922400  1.0  -0.1581
  C  C512  1  0.967400  0.672100  0.904200  1.0  -0.1546
  C  C513  1  0.982500  0.680600  0.949600  1.0  -0.094
  C  C514  1  0.050100  0.724400  0.929500  1.0  -0.0866
  C  C515  1  0.062900  0.727000  0.969300  1.0  -0.0838
  C  C516  1  0.131400  0.759300  0.946100  1.0  -0.0559
  C  C517  1  0.153800  0.761000  0.990400  1.0  -0.3543
  C  C518  1  0.770400  0.627100  0.774900  1.0  0.1498
  C  C519  1  0.841200  0.655400  0.743800  1.0  -0.2139
  C  C520  1  0.871150  0.651800  0.701950  1.0  0.0995
  C  C521  1  0.824000  0.619600  0.693900  1.0  -0.179
  C  C522  1  0.753500  0.590700  0.728900  1.0  0.1836
  C  C523  1  0.950200  0.683600  0.665800  1.0  -0.2419
  C  C524  1  0.751480  0.390230  0.955090  1.0  0.2487
  C  C525  1  0.817200  0.390400  0.930300  1.0  -0.2584
  C  C526  1  0.868400  0.386400  0.953000  1.0  -0.1203
  C  C527  1  0.854500  0.380800  0.001700  1.0  -0.1256
  C  C528  1  0.789300  0.381500  0.026100  1.0  -0.0855
  C  C529  1  0.736330  0.384570  0.005080  1.0  -0.129
  C  C530  1  0.668780  0.384190  0.034550  1.0  0.5273
  C  C531  1  0.502910  0.382720  0.030590  1.0  0.5249
  C  C532  1  0.430400  0.375290  0.061590  1.0  -0.2569
  C  C533  1  0.384780  0.316960  0.099320  1.0  -0.1056
  C  C534  1  0.312400  0.309200  0.134400  1.0  -0.1116
  C  C535  1  0.267600  0.251300  0.174300  1.0  -0.0894
  C  C536  1  0.197900  0.244200  0.212200  1.0  -0.103
  C  C537  1  0.154400  0.188300  0.252000  1.0  -0.0823
  C  C538  1  0.086300  0.179700  0.290200  1.0  -0.0881
  C  C539  1  0.033600  0.123600  0.326800  1.0  -0.0945
  C  C540  1  0.969900  0.119000  0.366600  1.0  -0.0866
  C  C541  1  0.922500  0.062100  0.408400  1.0  -0.07
  C  C542  1  0.863800  0.051800  0.453000  1.0  -0.3113
  C  C543  1  0.527490  0.716380  0.798210  1.0  0.3035
  C  C544  1  0.539540  0.770380  0.769860  1.0  -0.2227
  C  C545  1  0.599500  0.803100  0.725300  1.0  -0.105
  C  C546  1  0.650400  0.784600  0.708900  1.0  -0.1036
  C  C547  1  0.640300  0.731700  0.738200  1.0  -0.0859
  C  C548  1  0.578460  0.697820  0.781240  1.0  -0.1518
  C  C549  1  0.569560  0.642760  0.805680  1.0  0.582
  C  C550  1  0.445880  0.525700  0.901260  1.0  0.61
  C  C551  1  0.432280  0.468660  0.930020  1.0  -0.2405
  C  C552  1  0.360000  0.433800  0.941000  1.0  -0.1192
  C  C553  1  0.357600  0.437500  0.891600  1.0  -0.0846
  C  C554  1  0.289400  0.398300  0.899200  1.0  -0.1153
  C  C555  1  0.279000  0.395400  0.853700  1.0  -0.1547
  C  C556  1  0.145500  0.815700  0.551300  1.0  0.0387
  C  C557  1  0.077100  0.777200  0.583600  1.0  -0.1368
  C  C558  1  0.055000  0.763700  0.629200  1.0  0.1561
  C  C559  1  0.114800  0.770800  0.650100  1.0  -0.1593
  C  C560  1  0.182500  0.803800  0.613500  1.0  0.0612
  C  C561  1  0.981100  0.727500  0.672200  1.0  -0.2171
  C  C562  1  0.336250  0.781210  0.726860  1.0  0.3057
  C  C563  1  0.270000  0.746700  0.765100  1.0  -0.1773
  C  C564  1  0.248600  0.740000  0.813900  1.0  -0.1481
  C  C565  1  0.294200  0.773100  0.824500  1.0  -0.1396
  C  C566  1  0.358130  0.809500  0.786710  1.0  -0.0484
  C  C567  1  0.380580  0.814480  0.738140  1.0  -0.1723
  C  C568  1  0.448890  0.856520  0.699450  1.0  0.5436
  C  C569  1  0.558480  0.906400  0.574160  1.0  0.5001
  C  C570  1  0.626530  0.946890  0.532300  1.0  -0.2267
  C  C571  1  0.676100  0.928800  0.514300  1.0  -0.1271
  C  C572  1  0.707400  0.894500  0.534300  1.0  -0.1486
  C  C573  1  0.752700  0.873300  0.504700  1.0  -0.1544
  C  C574  1  0.820300  0.922400  0.453300  1.0  -0.1583
  C  C575  1  0.871600  0.904200  0.423700  1.0  -0.1515
  C  C576  1  0.932100  0.949600  0.369800  1.0  -0.0939
  C  C577  1  0.979600  0.929500  0.346100  1.0  -0.0838
  C  C578  1  0.032200  0.969300  0.303700  1.0  -0.0837
  C  C579  1  0.077500  0.946100  0.294600  1.0  -0.0604
  C  C580  1  0.144200  0.990400  0.248600  1.0  -0.3559
  C  C581  1  0.545300  0.774900  0.598000  1.0  0.1507
  C  C582  1  0.585000  0.743800  0.600800  1.0  -0.2135
  C  C583  1  0.573100  0.701950  0.646250  1.0  0.0996
  C  C584  1  0.517900  0.693900  0.686500  1.0  -0.1795
  C  C585  1  0.482400  0.728900  0.680400  1.0  0.1849
  C  C586  1  0.616000  0.665800  0.650600  1.0  -0.2425
  C  C587  1  0.706570  0.955090  0.654680  1.0  0.2467
  C  C588  1  0.747500  0.930300  0.679300  1.0  -0.2594
  C  C589  1  0.821400  0.953000  0.660600  1.0  -0.1193
  C  C590  1  0.856200  0.001700  0.617500  1.0  -0.1277
  C  C591  1  0.815400  0.026100  0.592400  1.0  -0.0841
  C  C592  1  0.741410  0.005080  0.610350  1.0  -0.1299
  C  C593  1  0.703330  0.034550  0.581260  1.0  0.5305
  C  C594  1  0.533500  0.030590  0.586690  1.0  0.5315
  C  C595  1  0.491990  0.061590  0.563120  1.0  -0.2569
  C  C596  1  0.484100  0.099320  0.583720  1.0  -0.0994
  C  C597  1  0.446800  0.134400  0.556400  1.0  -0.1111
  C  C598  1  0.441900  0.174300  0.574400  1.0  -0.0859
  C  C599  1  0.410100  0.212200  0.543600  1.0  -0.1042
  C  C600  1  0.406400  0.252000  0.559700  1.0  -0.0817
  C  C601  1  0.376500  0.290200  0.530100  1.0  -0.0908
  C  C602  1  0.360400  0.326800  0.549600  1.0  -0.0965
  C  C603  1  0.336500  0.366600  0.514400  1.0  -0.0874
  C  C604  1  0.330900  0.408400  0.529500  1.0  -0.0742
  C  C605  1  0.316800  0.453000  0.495200  1.0  -0.3101
  C  C606  1  0.325700  0.798210  0.485410  1.0  0.304
  C  C607  1  0.309400  0.769860  0.459760  1.0  -0.2201
  C  C608  1  0.324800  0.725300  0.471600  1.0  -0.1081
  C  C609  1  0.359300  0.708900  0.506500  1.0  -0.1055
  C  C610  1  0.378500  0.738200  0.530100  1.0  -0.087
  C  C611  1  0.359700  0.781240  0.520940  1.0  -0.1506
  C  C612  1  0.375240  0.805680  0.551560  1.0  0.5811
  C  C613  1  0.347140  0.901260  0.573040  1.0  0.612
  C  C614  1  0.362300  0.930020  0.601320  1.0  -0.2397
  C  C615  1  0.301000  0.941000  0.625200  1.0  -0.1186
  C  C616  1  0.249200  0.891600  0.670900  1.0  -0.0888
  C  C617  1  0.188600  0.899200  0.702500  1.0  -0.1204
  C  C618  1  0.132700  0.853700  0.750900  1.0  -0.1535
  C  C619  1  0.696800  0.551300  0.633000  1.0  0.0397
  C  C620  1  0.660700  0.583600  0.639200  1.0  -0.137
  C  C621  1  0.684200  0.629200  0.607100  1.0  0.1557
  C  C622  1  0.764900  0.650100  0.579100  1.0  -0.1621
  C  C623  1  0.796000  0.613500  0.582700  1.0  0.0605
  C  C624  1  0.653300  0.672200  0.600300  1.0  -0.2131
  C  C625  1  0.063110  0.726860  0.491930  1.0  0.2981
  C  C626  1  0.035100  0.765100  0.488200  1.0  -0.1767
  C  C627  1  0.062500  0.813900  0.446100  1.0  -0.146
  C  C628  1  0.118700  0.824500  0.402400  1.0  -0.1356
  C  C629  1  0.144840  0.786710  0.403790  1.0  -0.0454
  C  C630  1  0.118720  0.738140  0.447380  1.0  -0.1733
  C  C631  1  0.148340  0.699450  0.444030  1.0  0.5401
  C  C632  1  0.132640  0.574160  0.519440  1.0  0.4995
  C  C633  1  0.158830  0.532300  0.520810  1.0  -0.226
  C  C634  1  0.190400  0.514300  0.556900  1.0  -0.134
  C  C635  1  0.241700  0.534300  0.571200  1.0  -0.1466
  C  C636  1  0.257400  0.504700  0.622000  1.0  -0.1578
  C  C637  1  0.273600  0.453300  0.624300  1.0  -0.1673
  C  C638  1  0.295300  0.423700  0.672100  1.0  -0.155
  C  C639  1  0.301900  0.369800  0.680600  1.0  -0.0943
  C  C640  1  0.325700  0.346100  0.724400  1.0  -0.0896
  C  C641  1  0.335900  0.303700  0.727000  1.0  -0.0812
  C  C642  1  0.372100  0.294600  0.759300  1.0  -0.0568
  C  C643  1  0.392800  0.248600  0.761000  1.0  -0.3535
  C  C644  1  0.143300  0.598000  0.627100  1.0  0.1506
  C  C645  1  0.185800  0.600800  0.655400  1.0  -0.2151
  C  C646  1  0.219350  0.646250  0.651800  1.0  0.0988
  C  C647  1  0.204400  0.686500  0.619600  1.0  -0.1779
  C  C648  1  0.162800  0.680400  0.590700  1.0  0.1844
  C  C649  1  0.266600  0.650600  0.683600  1.0  -0.2417
  C  C650  1  0.361250  0.654680  0.390230  1.0  0.2478
  C  C651  1  0.426800  0.679300  0.390400  1.0  -0.2599
  C  C652  1  0.482000  0.660600  0.386400  1.0  -0.1203
  C  C653  1  0.473700  0.617500  0.380800  1.0  -0.1259
  C  C654  1  0.407800  0.592400  0.381500  1.0  -0.0852
  C  C655  1  0.351760  0.610350  0.384570  1.0  -0.1283
  C  C656  1  0.284590  0.581260  0.384190  1.0  0.526
  C  C657  1  0.120190  0.586690  0.382720  1.0  0.5303
  C  C658  1  0.055110  0.563120  0.375290  1.0  -0.2603
  C  C659  1  0.067820  0.583720  0.316960  1.0  -0.1011
  C  C660  1  0.003200  0.556400  0.309200  1.0  -0.1093
  C  C661  1  0.016300  0.574400  0.251300  1.0  -0.0878
  C  C662  1  0.953700  0.543600  0.244200  1.0  -0.1051
  C  C663  1  0.966100  0.559700  0.188300  1.0  -0.0808
  C  C664  1  0.906600  0.530100  0.179700  1.0  -0.0881
  C  C665  1  0.910000  0.549600  0.123600  1.0  -0.0943
  C  C666  1  0.850900  0.514400  0.119000  1.0  -0.0866
  C  C667  1  0.860400  0.529500  0.062100  1.0  -0.07
  C  C668  1  0.812000  0.495200  0.051800  1.0  -0.3126
  C  C669  1  0.811110  0.485410  0.716380  1.0  0.3062
  C  C670  1  0.769160  0.459760  0.770380  1.0  -0.2182
  C  C671  1  0.796400  0.471600  0.803100  1.0  -0.1059
  C  C672  1  0.865800  0.506500  0.784600  1.0  -0.1036
  C  C673  1  0.908600  0.530100  0.731700  1.0  -0.0838
  C  C674  1  0.880640  0.520940  0.697820  1.0  -0.1489
  C  C675  1  0.926800  0.551560  0.642760  1.0  0.5811
  C  C676  1  0.920180  0.573040  0.525700  1.0  0.6105
  C  C677  1  0.963620  0.601320  0.468660  1.0  -0.2396
  C  C678  1  0.926200  0.625200  0.433800  1.0  -0.1206
  C  C679  1  0.920100  0.670900  0.437500  1.0  -0.0838
  C  C680  1  0.891100  0.702500  0.398300  1.0  -0.12
  C  C681  1  0.883600  0.750900  0.395400  1.0  -0.1618
  C  C682  1  0.329800  0.633000  0.815700  1.0  0.0395
  C  C683  1  0.299900  0.639200  0.777200  1.0  -0.1378
  C  C684  1  0.291300  0.607100  0.763700  1.0  0.1565
  C  C685  1  0.344000  0.579100  0.770800  1.0  -0.1645
  C  C686  1  0.378700  0.582700  0.803800  1.0  0.0605
  C  C687  1  0.253600  0.600300  0.727500  1.0  -0.2167
  C  C688  1  0.444960  0.508070  0.218790  1.0  0.3044
  C  C689  1  0.476700  0.511800  0.253300  1.0  -0.1766
  C  C690  1  0.491400  0.553900  0.260000  1.0  -0.1468
  C  C691  1  0.478900  0.597600  0.226900  1.0  -0.1361
  C  C692  1  0.451370  0.596210  0.190500  1.0  -0.0484
  C  C693  1  0.433900  0.552620  0.185520  1.0  -0.1739
  C  C694  1  0.407630  0.555970  0.143480  1.0  0.5433
  C  C695  1  0.347920  0.480560  0.093600  1.0  0.5011
  C  C696  1  0.320360  0.479190  0.053110  1.0  -0.2342
  C  C697  1  0.252700  0.443100  0.071200  1.0  -0.1286
  C  C698  1  0.187100  0.428800  0.105500  1.0  -0.1501
  C  C699  1  0.120600  0.378000  0.126700  1.0  -0.1598
  C  C700  1  0.102100  0.375700  0.077600  1.0  -0.1594
  C  C701  1  0.032600  0.327900  0.095800  1.0  -0.1558
  C  C702  1  0.017500  0.319400  0.050400  1.0  -0.0935
  C  C703  1  0.949900  0.275600  0.070500  1.0  -0.0856
  C  C704  1  0.937100  0.273000  0.030700  1.0  -0.0833
  C  C705  1  0.868600  0.240700  0.053900  1.0  -0.0549
  C  C706  1  0.846200  0.239000  0.009600  1.0  -0.3552
  C  C707  1  0.229600  0.372900  0.225100  1.0  0.1525
  C  C708  1  0.158800  0.344600  0.256200  1.0  -0.2154
  C  C709  1  0.128850  0.348200  0.298050  1.0  0.099
  C  C710  1  0.176000  0.380400  0.306100  1.0  -0.181
  C  C711  1  0.246500  0.409300  0.271100  1.0  0.1831
  C  C712  1  0.049800  0.316400  0.334200  1.0  -0.2428
  C  C713  1  0.248520  0.609770  0.044910  1.0  0.2485
  C  C714  1  0.182800  0.609600  0.069700  1.0  -0.2594
  C  C715  1  0.131600  0.613600  0.047000  1.0  -0.1199
  C  C716  1  0.145500  0.619200  0.998300  1.0  -0.1261
  C  C717  1  0.210700  0.618500  0.973900  1.0  -0.0863
  C  C718  1  0.263670  0.615430  0.994920  1.0  -0.1288
  C  C719  1  0.331220  0.615810  0.965450  1.0  0.5256
  C  C720  1  0.497090  0.617280  0.969410  1.0  0.5298
  C  C721  1  0.569600  0.624710  0.938410  1.0  -0.2572
  C  C722  1  0.615220  0.683040  0.900680  1.0  -0.1058
  C  C723  1  0.687600  0.690800  0.865600  1.0  -0.1108
  C  C724  1  0.732400  0.748700  0.825700  1.0  -0.0901
  C  C725  1  0.802100  0.755800  0.787800  1.0  -0.1025
  C  C726  1  0.845600  0.811700  0.748000  1.0  -0.0824
  C  C727  1  0.913700  0.820300  0.709800  1.0  -0.0886
  C  C728  1  0.966400  0.876400  0.673200  1.0  -0.0931
  C  C729  1  0.030100  0.881000  0.633400  1.0  -0.0871
  C  C730  1  0.077500  0.937900  0.591600  1.0  -0.07
  C  C731  1  0.136200  0.948200  0.547000  1.0  -0.3117
  C  C732  1  0.472510  0.283620  0.201790  1.0  0.302
  C  C733  1  0.460460  0.229620  0.230140  1.0  -0.2215
  C  C734  1  0.400500  0.196900  0.274700  1.0  -0.1048
  C  C735  1  0.349600  0.215400  0.291100  1.0  -0.1025
  C  C736  1  0.359700  0.268300  0.261800  1.0  -0.0847
  C  C737  1  0.421540  0.302180  0.218760  1.0  -0.1511
  C  C738  1  0.430440  0.357240  0.194320  1.0  0.5816
  C  C739  1  0.554120  0.474300  0.098740  1.0  0.6083
  C  C740  1  0.567720  0.531340  0.069980  1.0  -0.2399
  C  C741  1  0.640000  0.566200  0.059000  1.0  -0.1197
  C  C742  1  0.642400  0.562500  0.108400  1.0  -0.0849
  C  C743  1  0.710600  0.601700  0.100800  1.0  -0.1157
  C  C744  1  0.721000  0.604600  0.146300  1.0  -0.152
  C  C745  1  0.854500  0.184300  0.448700  1.0  0.0405
  C  C746  1  0.922900  0.222800  0.416400  1.0  -0.135
  C  C747  1  0.945000  0.236300  0.370800  1.0  0.1559
  C  C748  1  0.885200  0.229200  0.349900  1.0  -0.159
  C  C749  1  0.817500  0.196200  0.386500  1.0  0.0602
  C  C750  1  0.018900  0.272500  0.327800  1.0  -0.215
  C  C751  1  0.663750  0.218790  0.273140  1.0  0.3031
  C  C752  1  0.730000  0.253300  0.234900  1.0  -0.175
  C  C753  1  0.751400  0.260000  0.186100  1.0  -0.1463
  C  C754  1  0.705800  0.226900  0.175500  1.0  -0.1358
  C  C755  1  0.641870  0.190500  0.213290  1.0  -0.0487
  C  C756  1  0.619420  0.185520  0.261860  1.0  -0.1699
  C  C757  1  0.551110  0.143480  0.300550  1.0  0.5431
  C  C758  1  0.441520  0.093600  0.425840  1.0  0.5019
  C  C759  1  0.373470  0.053110  0.467700  1.0  -0.2309
  C  C760  1  0.323900  0.071200  0.485700  1.0  -0.1295
  C  C761  1  0.292600  0.105500  0.465700  1.0  -0.148
  C  C762  1  0.247300  0.126700  0.495300  1.0  -0.1543
  C  C763  1  0.179700  0.077600  0.546700  1.0  -0.1611
  C  C764  1  0.128400  0.095800  0.576300  1.0  -0.1528
  C  C765  1  0.067900  0.050400  0.630200  1.0  -0.0949
  C  C766  1  0.020400  0.070500  0.653900  1.0  -0.0837
  C  C767  1  0.967800  0.030700  0.696300  1.0  -0.0835
  C  C768  1  0.922500  0.053900  0.705400  1.0  -0.0618
  C  C769  1  0.855800  0.009600  0.751400  1.0  -0.3543
  C  C770  1  0.454700  0.225100  0.402000  1.0  0.1508
  C  C771  1  0.415000  0.256200  0.399200  1.0  -0.2148
  C  C772  1  0.426900  0.298050  0.353750  1.0  0.0996
  C  C773  1  0.482100  0.306100  0.313500  1.0  -0.1798
  C  C774  1  0.517600  0.271100  0.319600  1.0  0.1849
  C  C775  1  0.384000  0.334200  0.349400  1.0  -0.2437
  C  C776  1  0.293430  0.044910  0.345320  1.0  0.2482
  C  C777  1  0.252500  0.069700  0.320700  1.0  -0.2595
  C  C778  1  0.178600  0.047000  0.339400  1.0  -0.1188
  C  C779  1  0.143800  0.998300  0.382500  1.0  -0.1289
  C  C780  1  0.184600  0.973900  0.407600  1.0  -0.0851
  C  C781  1  0.258590  0.994920  0.389650  1.0  -0.1276
  C  C782  1  0.296670  0.965450  0.418740  1.0  0.5286
  C  C783  1  0.466500  0.969410  0.413310  1.0  0.5293
  C  C784  1  0.508010  0.938410  0.436880  1.0  -0.2559
  C  C785  1  0.515900  0.900680  0.416280  1.0  -0.1
  C  C786  1  0.553200  0.865600  0.443600  1.0  -0.1109
  C  C787  1  0.558100  0.825700  0.425600  1.0  -0.0879
  C  C788  1  0.589900  0.787800  0.456400  1.0  -0.1057
  C  C789  1  0.593600  0.748000  0.440300  1.0  -0.0825
  C  C790  1  0.623500  0.709800  0.469900  1.0  -0.0909
  C  C791  1  0.639600  0.673200  0.450400  1.0  -0.0952
  C  C792  1  0.663500  0.633400  0.485600  1.0  -0.0893
  C  C793  1  0.669100  0.591600  0.470500  1.0  -0.0715
  C  C794  1  0.683200  0.547000  0.504800  1.0  -0.3135
  C  C795  1  0.674300  0.201790  0.514590  1.0  0.3043
  C  C796  1  0.690600  0.230140  0.540240  1.0  -0.2191
  C  C797  1  0.675200  0.274700  0.528400  1.0  -0.1063
  C  C798  1  0.640700  0.291100  0.493500  1.0  -0.1042
  C  C799  1  0.621500  0.261800  0.469900  1.0  -0.0859
  C  C800  1  0.640300  0.218760  0.479060  1.0  -0.1495
  C  C801  1  0.624760  0.194320  0.448440  1.0  0.5806
  C  C802  1  0.652860  0.098740  0.426960  1.0  0.6097
  C  C803  1  0.637700  0.069980  0.398680  1.0  -0.2393
  C  C804  1  0.699000  0.059000  0.374800  1.0  -0.1205
  C  C805  1  0.750800  0.108400  0.329100  1.0  -0.0872
  C  C806  1  0.811400  0.100800  0.297500  1.0  -0.1224
  C  C807  1  0.867300  0.146300  0.249100  1.0  -0.1501
  C  C808  1  0.303200  0.448700  0.367000  1.0  0.0408
  C  C809  1  0.339300  0.416400  0.360800  1.0  -0.1355
  C  C810  1  0.315800  0.370800  0.392900  1.0  0.1561
  C  C811  1  0.235100  0.349900  0.420900  1.0  -0.1631
  C  C812  1  0.204000  0.386500  0.417300  1.0  0.0603
  C  C813  1  0.346700  0.327800  0.399700  1.0  -0.2134
  C  C814  1  0.936890  0.273140  0.508070  1.0  0.298
  C  C815  1  0.964900  0.234900  0.511800  1.0  -0.1771
  C  C816  1  0.937500  0.186100  0.553900  1.0  -0.1465
  C  C817  1  0.881300  0.175500  0.597600  1.0  -0.139
  C  C818  1  0.855160  0.213290  0.596210  1.0  -0.0442
  C  C819  1  0.881280  0.261860  0.552620  1.0  -0.1741
  C  C820  1  0.851660  0.300550  0.555970  1.0  0.5416
  C  C821  1  0.867360  0.425840  0.480560  1.0  0.5001
  C  C822  1  0.841170  0.467700  0.479190  1.0  -0.2252
  C  C823  1  0.809600  0.485700  0.443100  1.0  -0.1324
  C  C824  1  0.758300  0.465700  0.428800  1.0  -0.1473
  C  C825  1  0.742600  0.495300  0.378000  1.0  -0.1574
  C  C826  1  0.726400  0.546700  0.375700  1.0  -0.1638
  C  C827  1  0.704700  0.576300  0.327900  1.0  -0.1538
  C  C828  1  0.698100  0.630200  0.319400  1.0  -0.0957
  C  C829  1  0.674300  0.653900  0.275600  1.0  -0.0845
  C  C830  1  0.664100  0.696300  0.273000  1.0  -0.085
  C  C831  1  0.627900  0.705400  0.240700  1.0  -0.0555
  C  C832  1  0.607200  0.751400  0.239000  1.0  -0.3566
  C  C833  1  0.856700  0.402000  0.372900  1.0  0.1519
  C  C834  1  0.814200  0.399200  0.344600  1.0  -0.2139
  C  C835  1  0.780650  0.353750  0.348200  1.0  0.0985
  C  C836  1  0.795600  0.313500  0.380400  1.0  -0.1779
  C  C837  1  0.837200  0.319600  0.409300  1.0  0.1848
  C  C838  1  0.733400  0.349400  0.316400  1.0  -0.2427
  C  C839  1  0.638750  0.345320  0.609770  1.0  0.248
  C  C840  1  0.573200  0.320700  0.609600  1.0  -0.2609
  C  C841  1  0.518000  0.339400  0.613600  1.0  -0.1185
  C  C842  1  0.526300  0.382500  0.619200  1.0  -0.1253
  C  C843  1  0.592200  0.407600  0.618500  1.0  -0.0847
  C  C844  1  0.648240  0.389650  0.615430  1.0  -0.1285
  C  C845  1  0.715410  0.418740  0.615810  1.0  0.5267
  C  C846  1  0.879810  0.413310  0.617280  1.0  0.5314
  C  C847  1  0.944890  0.436880  0.624710  1.0  -0.2596
  C  C848  1  0.932180  0.416280  0.683040  1.0  -0.0992
  C  C849  1  0.996800  0.443600  0.690800  1.0  -0.1077
  C  C850  1  0.983700  0.425600  0.748700  1.0  -0.0866
  C  C851  1  0.046300  0.456400  0.755800  1.0  -0.104
  C  C852  1  0.033900  0.440300  0.811700  1.0  -0.0807
  C  C853  1  0.093400  0.469900  0.820300  1.0  -0.0872
  C  C854  1  0.090000  0.450400  0.876400  1.0  -0.093
  C  C855  1  0.149100  0.485600  0.881000  1.0  -0.0859
  C  C856  1  0.139600  0.470500  0.937900  1.0  -0.0714
  C  C857  1  0.188000  0.504800  0.948200  1.0  -0.3142
  C  C858  1  0.188890  0.514590  0.283620  1.0  0.3029
  C  C859  1  0.230840  0.540240  0.229620  1.0  -0.2199
  C  C860  1  0.203600  0.528400  0.196900  1.0  -0.1071
  C  C861  1  0.134200  0.493500  0.215400  1.0  -0.1038
  C  C862  1  0.091400  0.469900  0.268300  1.0  -0.0844
  C  C863  1  0.119360  0.479060  0.302180  1.0  -0.1505
  C  C864  1  0.073200  0.448440  0.357240  1.0  0.5814
  C  C865  1  0.079820  0.426960  0.474300  1.0  0.6111
  C  C866  1  0.036380  0.398680  0.531340  1.0  -0.2407
  C  C867  1  0.073800  0.374800  0.566200  1.0  -0.1212
  C  C868  1  0.079900  0.329100  0.562500  1.0  -0.0845
  C  C869  1  0.108900  0.297500  0.601700  1.0  -0.1206
  C  C870  1  0.116400  0.249100  0.604600  1.0  -0.1618
  C  C871  1  0.670200  0.367000  0.184300  1.0  0.0413
  C  C872  1  0.700100  0.360800  0.222800  1.0  -0.1359
  C  C873  1  0.708700  0.392900  0.236300  1.0  0.1556
  C  C874  1  0.656000  0.420900  0.229200  1.0  -0.1624
  C  C875  1  0.621300  0.417300  0.196200  1.0  0.0615
  C  C876  1  0.746400  0.399700  0.272500  1.0  -0.2148
  N  N877  1  0.611280  0.485760  0.861620  1.0  -0.3075
  N  N878  1  0.635420  0.477290  0.903430  1.0  -0.2693
  N  N879  1  0.728630  0.593230  0.768240  1.0  -0.2805
  N  N880  1  0.616600  0.386360  0.016260  1.0  -0.2323
  N  N881  1  0.553560  0.383680  0.049400  1.0  -0.2735
  N  N882  1  0.509820  0.608640  0.845480  1.0  -0.2808
  N  N883  1  0.505990  0.556370  0.864100  1.0  -0.2388
  N  N884  1  0.194930  0.828300  0.560510  1.0  -0.234
  N  N885  1  0.472900  0.861620  0.652620  1.0  -0.3059
  N  N886  1  0.538850  0.903430  0.619280  1.0  -0.274
  N  N887  1  0.496870  0.768240  0.638530  1.0  -0.2799
  N  N888  1  0.632860  0.016260  0.597380  1.0  -0.2296
  N  N889  1  0.602960  0.049400  0.566920  1.0  -0.2744
  N  N890  1  0.355300  0.845480  0.545880  1.0  -0.2805
  N  N891  1  0.370090  0.864100  0.579530  1.0  -0.2396
  N  N892  1  0.755440  0.560510  0.611190  1.0  -0.2332
  N  N893  1  0.125520  0.652620  0.485760  1.0  -0.3079
  N  N894  1  0.158130  0.619280  0.477290  1.0  -0.2686
  N  N895  1  0.135400  0.638530  0.593230  1.0  -0.2809
  N  N896  1  0.230240  0.597380  0.386360  1.0  -0.2316
  N  N897  1  0.169880  0.566920  0.383680  1.0  -0.2749
  N  N898  1  0.901180  0.545880  0.608640  1.0  -0.2803
  N  N899  1  0.949620  0.579530  0.556370  1.0  -0.2397
  N  N900  1  0.366630  0.611190  0.828300  1.0  -0.2362
  N  N901  1  0.388720  0.514240  0.138380  1.0  -0.3091
  N  N902  1  0.364580  0.522710  0.096570  1.0  -0.2686
  N  N903  1  0.271370  0.406770  0.231760  1.0  -0.2801
  N  N904  1  0.383400  0.613640  0.983740  1.0  -0.2343
  N  N905  1  0.446440  0.616320  0.950600  1.0  -0.2726
  N  N906  1  0.490180  0.391360  0.154520  1.0  -0.2793
  N  N907  1  0.494010  0.443630  0.135900  1.0  -0.2395
  N  N908  1  0.805070  0.171700  0.439490  1.0  -0.2353
  N  N909  1  0.527100  0.138380  0.347380  1.0  -0.3062
  N  N910  1  0.461150  0.096570  0.380720  1.0  -0.2726
  N  N911  1  0.503130  0.231760  0.361470  1.0  -0.2787
  N  N912  1  0.367140  0.983740  0.402620  1.0  -0.2302
  N  N913  1  0.397040  0.950600  0.433080  1.0  -0.2733
  N  N914  1  0.644700  0.154520  0.454120  1.0  -0.2792
  N  N915  1  0.629910  0.135900  0.420470  1.0  -0.2393
  N  N916  1  0.244560  0.439490  0.388810  1.0  -0.237
  N  N917  1  0.874480  0.347380  0.514240  1.0  -0.3085
  N  N918  1  0.841870  0.380720  0.522710  1.0  -0.2699
  N  N919  1  0.864600  0.361470  0.406770  1.0  -0.278
  N  N920  1  0.769760  0.402620  0.613640  1.0  -0.2288
  N  N921  1  0.830120  0.433080  0.616320  1.0  -0.2762
  N  N922  1  0.098820  0.454120  0.391360  1.0  -0.2796
  N  N923  1  0.050380  0.420470  0.443630  1.0  -0.2404
  N  N924  1  0.633370  0.388810  0.171700  1.0  -0.236
  O  O925  1  0.574730  0.537560  0.779470  1.0  -0.5854
  O  O926  1  0.594500  0.400900  0.888000  1.0  -0.6007
  O  O927  1  0.645280  0.561500  0.874360  1.0  -0.5936
  O  O928  1  0.704000  0.393700  0.931200  1.0  -0.5925
  O  O929  1  0.662700  0.381950  0.078450  1.0  -0.5891
  O  O930  1  0.512560  0.385630  0.985050  1.0  -0.5893
  O  O931  1  0.466410  0.687500  0.839470  1.0  -0.5614
  O  O932  1  0.617680  0.628800  0.786860  1.0  -0.5862
  O  O933  1  0.395790  0.541030  0.917760  1.0  -0.584
  O  O934  1  0.354200  0.779470  0.682970  1.0  -0.5876
  O  O935  1  0.482500  0.888000  0.711100  1.0  -0.6037
  O  O936  1  0.519640  0.874360  0.564140  1.0  -0.5936
  O  O937  1  0.635200  0.931200  0.675100  1.0  -0.5895
  O  O938  1  0.741150  0.078450  0.539600  1.0  -0.589
  O  O939  1  0.497610  0.985050  0.629320  1.0  -0.5905
  O  O940  1  0.305880  0.839470  0.473030  1.0  -0.5613
  O  O941  1  0.404540  0.786860  0.584340  1.0  -0.5867
  O  O942  1  0.313550  0.917760  0.541210  1.0  -0.582
  O  O943  1  0.037170  0.682970  0.537560  1.0  -0.5879
  O  O944  1  0.193600  0.711100  0.400900  1.0  -0.6056
  O  O945  1  0.083780  0.564140  0.561500  1.0  -0.5932
  O  O946  1  0.310300  0.675100  0.393700  1.0  -0.5916
  O  O947  1  0.280750  0.539600  0.381950  1.0  -0.5882
  O  O948  1  0.126930  0.629320  0.385630  1.0  -0.5852
  O  O949  1  0.778910  0.473030  0.687500  1.0  -0.5647
  O  O950  1  0.988880  0.584340  0.628800  1.0  -0.5868
  O  O951  1  0.854760  0.541210  0.541030  1.0  -0.5839
  O  O952  1  0.425270  0.462440  0.220530  1.0  -0.5855
  O  O953  1  0.405500  0.599100  0.112000  1.0  -0.6015
  O  O954  1  0.354720  0.438500  0.125640  1.0  -0.593
  O  O955  1  0.296000  0.606300  0.068800  1.0  -0.5908
  O  O956  1  0.337300  0.618050  0.921550  1.0  -0.5903
  O  O957  1  0.487440  0.614370  0.014950  1.0  -0.5886
  O  O958  1  0.533590  0.312500  0.160530  1.0  -0.5612
  O  O959  1  0.382320  0.371200  0.213140  1.0  -0.5848
  O  O960  1  0.604210  0.458970  0.082240  1.0  -0.5827
  O  O961  1  0.645800  0.220530  0.317030  1.0  -0.5863
  O  O962  1  0.517500  0.112000  0.288900  1.0  -0.6033
  O  O963  1  0.480360  0.125640  0.435860  1.0  -0.5934
  O  O964  1  0.364800  0.068800  0.324900  1.0  -0.5921
  O  O965  1  0.258850  0.921550  0.460400  1.0  -0.5906
  O  O966  1  0.502390  0.014950  0.370680  1.0  -0.5875
  O  O967  1  0.694120  0.160530  0.526970  1.0  -0.5597
  O  O968  1  0.595460  0.213140  0.415660  1.0  -0.5858
  O  O969  1  0.686450  0.082240  0.458790  1.0  -0.5824
  O  O970  1  0.962830  0.317030  0.462440  1.0  -0.5867
  O  O971  1  0.806400  0.288900  0.599100  1.0  -0.6052
  O  O972  1  0.916220  0.435860  0.438500  1.0  -0.5924
  O  O973  1  0.689700  0.324900  0.606300  1.0  -0.5899
  O  O974  1  0.719250  0.460400  0.618050  1.0  -0.591
  O  O975  1  0.873070  0.370680  0.614370  1.0  -0.5871
  O  O976  1  0.221090  0.526970  0.312500  1.0  -0.5625
  O  O977  1  0.011120  0.415660  0.371200  1.0  -0.5852
  O  O978  1  0.145240  0.458790  0.458970  1.0  -0.5837
