# generated using pymatgen
data_Cu5H22C38S3N2O21
_symmetry_space_group_name_H-M   'P 1'
_cell_length_a   31.23600000
_cell_length_b   31.23600000
_cell_length_c   28.19400000
_cell_angle_alpha   90.00000000
_cell_angle_beta   90.00000000
_cell_angle_gamma   90.00000000
_symmetry_Int_Tables_number   1
_chemical_formula_structural   Cu5H22C38S3N2O21
_chemical_formula_sum   'Cu40 H176 C304 S24 N16 O168'
_cell_volume   27508.53890102
_cell_formula_units_Z   8
loop_
 _symmetry_equiv_pos_site_id
 _symmetry_equiv_pos_as_xyz
  1  'x, y, z'
loop_
 _atom_site_type_symbol
 _atom_site_label
 _atom_site_symmetry_multiplicity
 _atom_site_fract_x
 _atom_site_fract_y
 _atom_site_fract_z
 _atom_site_occupancy
 _atom_site_charge
  Cu  Cu1  1  0.021580  0.408590  0.245610  1.0  0.8277
  Cu  Cu2  1  0.978420  0.591410  0.245610  1.0  0.8276
  Cu  Cu3  1  0.591410  0.021580  0.745610  1.0  0.8255
  Cu  Cu4  1  0.408590  0.978420  0.745610  1.0  0.8253
  Cu  Cu5  1  0.478420  0.908590  0.754390  1.0  0.8271
  Cu  Cu6  1  0.521580  0.091410  0.754390  1.0  0.8284
  Cu  Cu7  1  0.908590  0.521580  0.254390  1.0  0.8254
  Cu  Cu8  1  0.091410  0.478420  0.254390  1.0  0.8256
  Cu  Cu9  1  0.978420  0.591410  0.754390  1.0  0.8277
  Cu  Cu10  1  0.021580  0.408590  0.754390  1.0  0.8277
  Cu  Cu11  1  0.408590  0.978420  0.254390  1.0  0.8254
  Cu  Cu12  1  0.591410  0.021580  0.254390  1.0  0.8256
  Cu  Cu13  1  0.521580  0.091410  0.245610  1.0  0.8283
  Cu  Cu14  1  0.478420  0.908590  0.245610  1.0  0.8271
  Cu  Cu15  1  0.091410  0.478420  0.745610  1.0  0.8255
  Cu  Cu16  1  0.908590  0.521580  0.745610  1.0  0.8253
  Cu  Cu17  1  0.833020  0.192470  0.500000  1.0  0.9071
  Cu  Cu18  1  0.890260  0.130600  0.500000  1.0  0.8976
  Cu  Cu19  1  0.166980  0.807530  0.500000  1.0  0.9068
  Cu  Cu20  1  0.109740  0.869400  0.500000  1.0  0.8973
  Cu  Cu21  1  0.807530  0.833020  0.000000  1.0  0.9077
  Cu  Cu22  1  0.869400  0.890260  0.000000  1.0  0.9653
  Cu  Cu23  1  0.192470  0.166980  0.000000  1.0  0.9088
  Cu  Cu24  1  0.130600  0.109740  0.000000  1.0  0.9639
  Cu  Cu25  1  0.666980  0.692470  0.500000  1.0  0.9079
  Cu  Cu26  1  0.609740  0.630600  0.500000  1.0  0.9032
  Cu  Cu27  1  0.333020  0.307530  0.500000  1.0  0.9071
  Cu  Cu28  1  0.390260  0.369400  0.500000  1.0  0.9043
  Cu  Cu29  1  0.692470  0.333020  0.000000  1.0  0.9109
  Cu  Cu30  1  0.630600  0.390260  0.000000  1.0  0.903
  Cu  Cu31  1  0.307530  0.666980  0.000000  1.0  0.9109
  Cu  Cu32  1  0.369400  0.609740  0.000000  1.0  0.9031
  Cu  Cu33  1  0.000000  0.500000  0.299640  1.0  0.9386
  Cu  Cu34  1  0.500000  0.000000  0.799640  1.0  0.9386
  Cu  Cu35  1  0.500000  0.000000  0.700360  1.0  0.9378
  Cu  Cu36  1  0.000000  0.500000  0.200360  1.0  0.9378
  Cu  Cu37  1  0.000000  0.500000  0.700360  1.0  0.9378
  Cu  Cu38  1  0.500000  0.000000  0.200360  1.0  0.9378
  Cu  Cu39  1  0.500000  0.000000  0.299640  1.0  0.9386
  Cu  Cu40  1  0.000000  0.500000  0.799640  1.0  0.9386
  H  H41  1  0.889200  0.273300  0.391300  1.0  0.1158
  H  H42  1  0.925000  0.305700  0.329300  1.0  0.1324
  H  H43  1  0.007300  0.208200  0.326200  1.0  0.1258
  H  H44  1  0.971100  0.176800  0.389100  1.0  0.1091
  H  H45  1  0.983600  0.340700  0.301600  1.0  0.0974
  H  H46  1  0.010700  0.225900  0.245500  1.0  0.1255
  H  H47  1  0.048700  0.334700  0.183700  1.0  0.1028
  H  H48  1  0.015900  0.203200  0.169200  1.0  0.1194
  H  H49  1  0.049200  0.164200  0.108400  1.0  0.1226
  H  H50  1  0.138900  0.254400  0.101700  1.0  0.1146
  H  H51  1  0.105000  0.291500  0.161100  1.0  0.1172
  H  H52  1  0.110800  0.726700  0.391300  1.0  0.116
  H  H53  1  0.075000  0.694300  0.329300  1.0  0.1326
  H  H54  1  0.992700  0.791800  0.326200  1.0  0.1264
  H  H55  1  0.028900  0.823200  0.389100  1.0  0.1093
  H  H56  1  0.016400  0.659300  0.301600  1.0  0.0981
  H  H57  1  0.989300  0.774100  0.245500  1.0  0.1249
  H  H58  1  0.951300  0.665300  0.183700  1.0  0.1029
  H  H59  1  0.984100  0.796800  0.169200  1.0  0.1196
  H  H60  1  0.950800  0.835800  0.108400  1.0  0.1233
  H  H61  1  0.861100  0.745600  0.101700  1.0  0.1141
  H  H62  1  0.895000  0.708500  0.161100  1.0  0.1169
  H  H63  1  0.726700  0.889200  0.891300  1.0  0.1152
  H  H64  1  0.694300  0.925000  0.829300  1.0  0.1322
  H  H65  1  0.791800  0.007300  0.826200  1.0  0.1256
  H  H66  1  0.823200  0.971100  0.889100  1.0  0.1093
  H  H67  1  0.659300  0.983600  0.801600  1.0  0.0979
  H  H68  1  0.774100  0.010700  0.745500  1.0  0.1258
  H  H69  1  0.665300  0.048700  0.683700  1.0  0.1026
  H  H70  1  0.796800  0.015900  0.669200  1.0  0.1197
  H  H71  1  0.835800  0.049200  0.608400  1.0  0.1231
  H  H72  1  0.745600  0.138900  0.601700  1.0  0.1142
  H  H73  1  0.708500  0.105000  0.661100  1.0  0.117
  H  H74  1  0.273300  0.110800  0.891300  1.0  0.1156
  H  H75  1  0.305700  0.075000  0.829300  1.0  0.1326
  H  H76  1  0.208200  0.992700  0.826200  1.0  0.1252
  H  H77  1  0.176800  0.028900  0.889100  1.0  0.1091
  H  H78  1  0.340700  0.016400  0.801600  1.0  0.0977
  H  H79  1  0.225900  0.989300  0.745500  1.0  0.1273
  H  H80  1  0.334700  0.951300  0.683700  1.0  0.103
  H  H81  1  0.203200  0.984100  0.669200  1.0  0.1202
  H  H82  1  0.164200  0.950800  0.608400  1.0  0.1234
  H  H83  1  0.254400  0.861100  0.601700  1.0  0.1135
  H  H84  1  0.291500  0.895000  0.661100  1.0  0.1169
  H  H85  1  0.610800  0.773300  0.608700  1.0  0.1164
  H  H86  1  0.575000  0.805700  0.670700  1.0  0.1324
  H  H87  1  0.492700  0.708200  0.673800  1.0  0.1257
  H  H88  1  0.528900  0.676800  0.610900  1.0  0.1095
  H  H89  1  0.516400  0.840700  0.698400  1.0  0.0984
  H  H90  1  0.489300  0.725900  0.754500  1.0  0.1253
  H  H91  1  0.451300  0.834700  0.816300  1.0  0.1024
  H  H92  1  0.484100  0.703200  0.830800  1.0  0.1193
  H  H93  1  0.450800  0.664200  0.891600  1.0  0.1226
  H  H94  1  0.361100  0.754400  0.898300  1.0  0.1138
  H  H95  1  0.395000  0.791500  0.838900  1.0  0.1175
  H  H96  1  0.389200  0.226700  0.608700  1.0  0.1161
  H  H97  1  0.425000  0.194300  0.670700  1.0  0.1323
  H  H98  1  0.507300  0.291800  0.673800  1.0  0.1261
  H  H99  1  0.471100  0.323200  0.610900  1.0  0.11
  H  H100  1  0.483600  0.159300  0.698400  1.0  0.0987
  H  H101  1  0.510700  0.274100  0.754500  1.0  0.125
  H  H102  1  0.548700  0.165300  0.816300  1.0  0.1031
  H  H103  1  0.515900  0.296800  0.830800  1.0  0.1197
  H  H104  1  0.549200  0.335800  0.891600  1.0  0.1234
  H  H105  1  0.638900  0.245600  0.898300  1.0  0.1143
  H  H106  1  0.605000  0.208500  0.838900  1.0  0.1171
  H  H107  1  0.773300  0.389200  0.108700  1.0  0.1154
  H  H108  1  0.805700  0.425000  0.170700  1.0  0.132
  H  H109  1  0.708200  0.507300  0.173800  1.0  0.1257
  H  H110  1  0.676800  0.471100  0.110900  1.0  0.1098
  H  H111  1  0.840700  0.483600  0.198400  1.0  0.0986
  H  H112  1  0.725900  0.510700  0.254500  1.0  0.1276
  H  H113  1  0.834700  0.548700  0.316300  1.0  0.1028
  H  H114  1  0.703200  0.515900  0.330800  1.0  0.1196
  H  H115  1  0.664200  0.549200  0.391600  1.0  0.1233
  H  H116  1  0.754400  0.638900  0.398300  1.0  0.1137
  H  H117  1  0.791500  0.605000  0.338900  1.0  0.1174
  H  H118  1  0.226700  0.610800  0.108700  1.0  0.1159
  H  H119  1  0.194300  0.575000  0.170700  1.0  0.1322
  H  H120  1  0.291800  0.492700  0.173800  1.0  0.1251
  H  H121  1  0.323200  0.528900  0.110900  1.0  0.1096
  H  H122  1  0.159300  0.516400  0.198400  1.0  0.0987
  H  H123  1  0.274100  0.489300  0.254500  1.0  0.1255
  H  H124  1  0.165300  0.451300  0.316300  1.0  0.1027
  H  H125  1  0.296800  0.484100  0.330800  1.0  0.1202
  H  H126  1  0.335800  0.450800  0.391600  1.0  0.1233
  H  H127  1  0.245600  0.361100  0.398300  1.0  0.1135
  H  H128  1  0.208500  0.395000  0.338900  1.0  0.1169
  H  H129  1  0.110800  0.726700  0.608700  1.0  0.116
  H  H130  1  0.075000  0.694300  0.670700  1.0  0.1324
  H  H131  1  0.992700  0.791800  0.673800  1.0  0.126
  H  H132  1  0.028900  0.823200  0.610900  1.0  0.1098
  H  H133  1  0.016400  0.659300  0.698400  1.0  0.0987
  H  H134  1  0.989300  0.774100  0.754500  1.0  0.1249
  H  H135  1  0.951300  0.665300  0.816300  1.0  0.1027
  H  H136  1  0.984100  0.796800  0.830800  1.0  0.1199
  H  H137  1  0.950800  0.835800  0.891600  1.0  0.1229
  H  H138  1  0.861100  0.745600  0.898300  1.0  0.1141
  H  H139  1  0.895000  0.708500  0.838900  1.0  0.117
  H  H140  1  0.889200  0.273300  0.608700  1.0  0.1163
  H  H141  1  0.925000  0.305700  0.670700  1.0  0.1323
  H  H142  1  0.007300  0.208200  0.673800  1.0  0.1257
  H  H143  1  0.971100  0.176800  0.610900  1.0  0.1098
  H  H144  1  0.983600  0.340700  0.698400  1.0  0.0984
  H  H145  1  0.010700  0.225900  0.754500  1.0  0.1254
  H  H146  1  0.048700  0.334700  0.816300  1.0  0.1027
  H  H147  1  0.015900  0.203200  0.830800  1.0  0.1194
  H  H148  1  0.049200  0.164200  0.891600  1.0  0.1226
  H  H149  1  0.138900  0.254400  0.898300  1.0  0.1143
  H  H150  1  0.105000  0.291500  0.838900  1.0  0.1174
  H  H151  1  0.273300  0.110800  0.108700  1.0  0.1159
  H  H152  1  0.305700  0.075000  0.170700  1.0  0.1326
  H  H153  1  0.208200  0.992700  0.173800  1.0  0.1249
  H  H154  1  0.176800  0.028900  0.110900  1.0  0.1095
  H  H155  1  0.340700  0.016400  0.198400  1.0  0.0986
  H  H156  1  0.225900  0.989300  0.254500  1.0  0.1274
  H  H157  1  0.334700  0.951300  0.316300  1.0  0.103
  H  H158  1  0.203200  0.984100  0.330800  1.0  0.1201
  H  H159  1  0.164200  0.950800  0.391600  1.0  0.1229
  H  H160  1  0.254400  0.861100  0.398300  1.0  0.1133
  H  H161  1  0.291500  0.895000  0.338900  1.0  0.1169
  H  H162  1  0.726700  0.889200  0.108700  1.0  0.1152
  H  H163  1  0.694300  0.925000  0.170700  1.0  0.132
  H  H164  1  0.791800  0.007300  0.173800  1.0  0.1252
  H  H165  1  0.823200  0.971100  0.110900  1.0  0.1099
  H  H166  1  0.659300  0.983600  0.198400  1.0  0.0986
  H  H167  1  0.774100  0.010700  0.254500  1.0  0.1259
  H  H168  1  0.665300  0.048700  0.316300  1.0  0.1026
  H  H169  1  0.796800  0.015900  0.330800  1.0  0.1198
  H  H170  1  0.835800  0.049200  0.391600  1.0  0.123
  H  H171  1  0.745600  0.138900  0.398300  1.0  0.114
  H  H172  1  0.708500  0.105000  0.338900  1.0  0.1172
  H  H173  1  0.389200  0.226700  0.391300  1.0  0.116
  H  H174  1  0.425000  0.194300  0.329300  1.0  0.1324
  H  H175  1  0.507300  0.291800  0.326200  1.0  0.1264
  H  H176  1  0.471100  0.323200  0.389100  1.0  0.1095
  H  H177  1  0.483600  0.159300  0.301600  1.0  0.098
  H  H178  1  0.510700  0.274100  0.245500  1.0  0.1249
  H  H179  1  0.548700  0.165300  0.183700  1.0  0.1032
  H  H180  1  0.515900  0.296800  0.169200  1.0  0.1198
  H  H181  1  0.549200  0.335800  0.108400  1.0  0.1236
  H  H182  1  0.638900  0.245600  0.101700  1.0  0.1142
  H  H183  1  0.605000  0.208500  0.161100  1.0  0.1171
  H  H184  1  0.610800  0.773300  0.391300  1.0  0.1161
  H  H185  1  0.575000  0.805700  0.329300  1.0  0.1325
  H  H186  1  0.492700  0.708200  0.326200  1.0  0.1259
  H  H187  1  0.528900  0.676800  0.389100  1.0  0.1093
  H  H188  1  0.516400  0.840700  0.301600  1.0  0.0974
  H  H189  1  0.489300  0.725900  0.245500  1.0  0.1254
  H  H190  1  0.451300  0.834700  0.183700  1.0  0.1024
  H  H191  1  0.484100  0.703200  0.169200  1.0  0.1193
  H  H192  1  0.450800  0.664200  0.108400  1.0  0.1229
  H  H193  1  0.361100  0.754400  0.101700  1.0  0.1141
  H  H194  1  0.395000  0.791500  0.161100  1.0  0.1174
  H  H195  1  0.226700  0.610800  0.891300  1.0  0.1156
  H  H196  1  0.194300  0.575000  0.829300  1.0  0.1324
  H  H197  1  0.291800  0.492700  0.826200  1.0  0.1253
  H  H198  1  0.323200  0.528900  0.889100  1.0  0.1095
  H  H199  1  0.159300  0.516400  0.801600  1.0  0.0978
  H  H200  1  0.274100  0.489300  0.745500  1.0  0.1254
  H  H201  1  0.165300  0.451300  0.683700  1.0  0.1026
  H  H202  1  0.296800  0.484100  0.669200  1.0  0.1201
  H  H203  1  0.335800  0.450800  0.608400  1.0  0.1236
  H  H204  1  0.245600  0.361100  0.601700  1.0  0.1134
  H  H205  1  0.208500  0.395000  0.661100  1.0  0.1168
  H  H206  1  0.773300  0.389200  0.891300  1.0  0.1153
  H  H207  1  0.805700  0.425000  0.829300  1.0  0.1322
  H  H208  1  0.708200  0.507300  0.826200  1.0  0.1261
  H  H209  1  0.676800  0.471100  0.889100  1.0  0.1093
  H  H210  1  0.840700  0.483600  0.801600  1.0  0.098
  H  H211  1  0.725900  0.510700  0.745500  1.0  0.1275
  H  H212  1  0.834700  0.548700  0.683700  1.0  0.1029
  H  H213  1  0.703200  0.515900  0.669200  1.0  0.1198
  H  H214  1  0.664200  0.549200  0.608400  1.0  0.1234
  H  H215  1  0.754400  0.638900  0.601700  1.0  0.1141
  H  H216  1  0.791500  0.605000  0.661100  1.0  0.1172
  C  C217  1  0.902300  0.200300  0.435600  1.0  0.6991
  C  C218  1  0.926100  0.220820  0.396000  1.0  -0.1196
  C  C219  1  0.912900  0.259900  0.378100  1.0  -0.0201
  C  C220  1  0.934300  0.279400  0.340900  1.0  -0.153
  C  C221  1  0.983400  0.221700  0.338900  1.0  -0.1226
  C  C222  1  0.961300  0.202600  0.376900  1.0  -0.0084
  C  C223  1  0.970200  0.259300  0.320700  1.0  0.0889
  C  C224  1  0.996300  0.324200  0.277900  1.0  0.1595
  C  C225  1  0.992700  0.279690  0.280400  1.0  0.0746
  C  C226  1  0.012200  0.255600  0.244600  1.0  -0.0983
  C  C227  1  0.034200  0.276000  0.207400  1.0  0.0445
  C  C228  1  0.035000  0.320440  0.208300  1.0  0.1606
  C  C229  1  0.056700  0.251710  0.170200  1.0  0.0915
  C  C230  1  0.040700  0.213800  0.155300  1.0  -0.1134
  C  C231  1  0.061000  0.189800  0.118900  1.0  -0.0403
  C  C232  1  0.099000  0.205200  0.099300  1.0  -0.0745
  C  C233  1  0.114000  0.243200  0.115000  1.0  -0.0356
  C  C234  1  0.093300  0.265900  0.150500  1.0  -0.1248
  C  C235  1  0.121800  0.180200  0.063200  1.0  0.7017
  C  C236  1  0.097700  0.799700  0.435600  1.0  0.6992
  C  C237  1  0.073900  0.779180  0.396000  1.0  -0.1195
  C  C238  1  0.087100  0.740100  0.378100  1.0  -0.0199
  C  C239  1  0.065700  0.720600  0.340900  1.0  -0.1518
  C  C240  1  0.016600  0.778300  0.338900  1.0  -0.1232
  C  C241  1  0.038700  0.797400  0.376900  1.0  -0.0089
  C  C242  1  0.029800  0.740700  0.320700  1.0  0.0883
  C  C243  1  0.003700  0.675800  0.277900  1.0  0.1595
  C  C244  1  0.007300  0.720310  0.280400  1.0  0.0749
  C  C245  1  0.987800  0.744400  0.244600  1.0  -0.0985
  C  C246  1  0.965800  0.724000  0.207400  1.0  0.044
  C  C247  1  0.965000  0.679560  0.208300  1.0  0.1603
  C  C248  1  0.943300  0.748290  0.170200  1.0  0.0911
  C  C249  1  0.959300  0.786200  0.155300  1.0  -0.1119
  C  C250  1  0.939000  0.810200  0.118900  1.0  -0.0413
  C  C251  1  0.901000  0.794800  0.099300  1.0  -0.0746
  C  C252  1  0.886000  0.756800  0.115000  1.0  -0.0363
  C  C253  1  0.906700  0.734100  0.150500  1.0  -0.126
  C  C254  1  0.878200  0.819800  0.063200  1.0  0.7021
  C  C255  1  0.799700  0.902300  0.935600  1.0  0.6986
  C  C256  1  0.779180  0.926100  0.896000  1.0  -0.119
  C  C257  1  0.740100  0.912900  0.878100  1.0  -0.0197
  C  C258  1  0.720600  0.934300  0.840900  1.0  -0.1531
  C  C259  1  0.778300  0.983400  0.838900  1.0  -0.1212
  C  C260  1  0.797400  0.961300  0.876900  1.0  -0.0055
  C  C261  1  0.740700  0.970200  0.820700  1.0  0.0866
  C  C262  1  0.675800  0.996300  0.777900  1.0  0.1595
  C  C263  1  0.720310  0.992700  0.780400  1.0  0.0725
  C  C264  1  0.744400  0.012200  0.744600  1.0  -0.1035
  C  C265  1  0.724000  0.034200  0.707400  1.0  0.0426
  C  C266  1  0.679560  0.035000  0.708300  1.0  0.1607
  C  C267  1  0.748290  0.056700  0.670200  1.0  0.0904
  C  C268  1  0.786200  0.040700  0.655300  1.0  -0.1103
  C  C269  1  0.810200  0.061000  0.618900  1.0  -0.0398
  C  C270  1  0.794800  0.099000  0.599300  1.0  -0.0746
  C  C271  1  0.756800  0.114000  0.615000  1.0  -0.0395
  C  C272  1  0.734100  0.093300  0.650500  1.0  -0.1278
  C  C273  1  0.819800  0.121800  0.563200  1.0  0.7018
  C  C274  1  0.200300  0.097700  0.935600  1.0  0.6989
  C  C275  1  0.220820  0.073900  0.896000  1.0  -0.1194
  C  C276  1  0.259900  0.087100  0.878100  1.0  -0.0199
  C  C277  1  0.279400  0.065700  0.840900  1.0  -0.1543
  C  C278  1  0.221700  0.016600  0.838900  1.0  -0.1218
  C  C279  1  0.202600  0.038700  0.876900  1.0  -0.0063
  C  C280  1  0.259300  0.029800  0.820700  1.0  0.0871
  C  C281  1  0.324200  0.003700  0.777900  1.0  0.1599
  C  C282  1  0.279690  0.007300  0.780400  1.0  0.0724
  C  C283  1  0.255600  0.987800  0.744600  1.0  -0.1059
  C  C284  1  0.276000  0.965800  0.707400  1.0  0.0434
  C  C285  1  0.320440  0.965000  0.708300  1.0  0.16
  C  C286  1  0.251710  0.943300  0.670200  1.0  0.0909
  C  C287  1  0.213800  0.959300  0.655300  1.0  -0.1129
  C  C288  1  0.189800  0.939000  0.618900  1.0  -0.0422
  C  C289  1  0.205200  0.901000  0.599300  1.0  -0.0746
  C  C290  1  0.243200  0.886000  0.615000  1.0  -0.0387
  C  C291  1  0.265900  0.906700  0.650500  1.0  -0.1259
  C  C292  1  0.180200  0.878200  0.563200  1.0  0.7023
  C  C293  1  0.597700  0.700300  0.564400  1.0  0.6986
  C  C294  1  0.573900  0.720820  0.604000  1.0  -0.1198
  C  C295  1  0.587100  0.759900  0.621900  1.0  -0.0199
  C  C296  1  0.565700  0.779400  0.659100  1.0  -0.1534
  C  C297  1  0.516600  0.721700  0.661100  1.0  -0.1234
  C  C298  1  0.538700  0.702600  0.623100  1.0  -0.0083
  C  C299  1  0.529800  0.759300  0.679300  1.0  0.0887
  C  C300  1  0.503700  0.824200  0.722100  1.0  0.1587
  C  C301  1  0.507300  0.779690  0.719600  1.0  0.0751
  C  C302  1  0.487800  0.755600  0.755400  1.0  -0.0982
  C  C303  1  0.465800  0.776000  0.792600  1.0  0.0443
  C  C304  1  0.465000  0.820440  0.791700  1.0  0.1598
  C  C305  1  0.443300  0.751710  0.829800  1.0  0.0914
  C  C306  1  0.459300  0.713800  0.844700  1.0  -0.1118
  C  C307  1  0.439000  0.689800  0.881100  1.0  -0.0398
  C  C308  1  0.401000  0.705200  0.900700  1.0  -0.0737
  C  C309  1  0.386000  0.743200  0.885000  1.0  -0.0366
  C  C310  1  0.406700  0.765900  0.849500  1.0  -0.1273
  C  C311  1  0.378200  0.680200  0.936800  1.0  0.7022
  C  C312  1  0.402300  0.299700  0.564400  1.0  0.6991
  C  C313  1  0.426100  0.279180  0.604000  1.0  -0.1199
  C  C314  1  0.412900  0.240100  0.621900  1.0  -0.0208
  C  C315  1  0.434300  0.220600  0.659100  1.0  -0.1531
  C  C316  1  0.483400  0.278300  0.661100  1.0  -0.1212
  C  C317  1  0.461300  0.297400  0.623100  1.0  -0.0084
  C  C318  1  0.470200  0.240700  0.679300  1.0  0.0888
  C  C319  1  0.496300  0.175800  0.722100  1.0  0.1579
  C  C320  1  0.492700  0.220310  0.719600  1.0  0.0749
  C  C321  1  0.512200  0.244400  0.755400  1.0  -0.0988
  C  C322  1  0.534200  0.224000  0.792600  1.0  0.0449
  C  C323  1  0.535000  0.179560  0.791700  1.0  0.1598
  C  C324  1  0.556700  0.248290  0.829800  1.0  0.0919
  C  C325  1  0.540700  0.286200  0.844700  1.0  -0.1145
  C  C326  1  0.561000  0.310200  0.881100  1.0  -0.0411
  C  C327  1  0.599000  0.294800  0.900700  1.0  -0.0742
  C  C328  1  0.614000  0.256800  0.885000  1.0  -0.0356
  C  C329  1  0.593300  0.234100  0.849500  1.0  -0.1237
  C  C330  1  0.621800  0.319800  0.936800  1.0  0.7018
  C  C331  1  0.700300  0.402300  0.064400  1.0  0.6983
  C  C332  1  0.720820  0.426100  0.104000  1.0  -0.1195
  C  C333  1  0.759900  0.412900  0.121900  1.0  -0.0208
  C  C334  1  0.779400  0.434300  0.159100  1.0  -0.1545
  C  C335  1  0.721700  0.483400  0.161100  1.0  -0.1214
  C  C336  1  0.702600  0.461300  0.123100  1.0  -0.0064
  C  C337  1  0.759300  0.470200  0.179300  1.0  0.0872
  C  C338  1  0.824200  0.496300  0.222100  1.0  0.1592
  C  C339  1  0.779690  0.492700  0.219600  1.0  0.0727
  C  C340  1  0.755600  0.512200  0.255400  1.0  -0.1064
  C  C341  1  0.776000  0.534200  0.292600  1.0  0.0436
  C  C342  1  0.820440  0.535000  0.291700  1.0  0.1599
  C  C343  1  0.751710  0.556700  0.329800  1.0  0.0914
  C  C344  1  0.713800  0.540700  0.344700  1.0  -0.1127
  C  C345  1  0.689800  0.561000  0.381100  1.0  -0.0422
  C  C346  1  0.705200  0.599000  0.400700  1.0  -0.074
  C  C347  1  0.743200  0.614000  0.385000  1.0  -0.0384
  C  C348  1  0.765900  0.593300  0.349500  1.0  -0.1261
  C  C349  1  0.680200  0.621800  0.436800  1.0  0.7023
  C  C350  1  0.299700  0.597700  0.064400  1.0  0.6988
  C  C351  1  0.279180  0.573900  0.104000  1.0  -0.1195
  C  C352  1  0.240100  0.587100  0.121900  1.0  -0.0204
  C  C353  1  0.220600  0.565700  0.159100  1.0  -0.1548
  C  C354  1  0.278300  0.516600  0.161100  1.0  -0.1214
  C  C355  1  0.297400  0.538700  0.123100  1.0  -0.0055
  C  C356  1  0.240700  0.529800  0.179300  1.0  0.0869
  C  C357  1  0.175800  0.503700  0.222100  1.0  0.1582
  C  C358  1  0.220310  0.507300  0.219600  1.0  0.0728
  C  C359  1  0.244400  0.487800  0.255400  1.0  -0.1038
  C  C360  1  0.224000  0.465800  0.292600  1.0  0.0428
  C  C361  1  0.179560  0.465000  0.291700  1.0  0.1599
  C  C362  1  0.248290  0.443300  0.329800  1.0  0.0909
  C  C363  1  0.286200  0.459300  0.344700  1.0  -0.1113
  C  C364  1  0.310200  0.439000  0.381100  1.0  -0.039
  C  C365  1  0.294800  0.401000  0.400700  1.0  -0.0742
  C  C366  1  0.256800  0.386000  0.385000  1.0  -0.0389
  C  C367  1  0.234100  0.406700  0.349500  1.0  -0.1264
  C  C368  1  0.319800  0.378200  0.436800  1.0  0.7021
  C  C369  1  0.097700  0.799700  0.564400  1.0  0.699
  C  C370  1  0.073900  0.779180  0.604000  1.0  -0.1198
  C  C371  1  0.087100  0.740100  0.621900  1.0  -0.0204
  C  C372  1  0.065700  0.720600  0.659100  1.0  -0.1521
  C  C373  1  0.016600  0.778300  0.661100  1.0  -0.1231
  C  C374  1  0.038700  0.797400  0.623100  1.0  -0.0087
  C  C375  1  0.029800  0.740700  0.679300  1.0  0.0885
  C  C376  1  0.003700  0.675800  0.722100  1.0  0.1582
  C  C377  1  0.007300  0.720310  0.719600  1.0  0.0752
  C  C378  1  0.987800  0.744400  0.755400  1.0  -0.0987
  C  C379  1  0.965800  0.724000  0.792600  1.0  0.0443
  C  C380  1  0.965000  0.679560  0.791700  1.0  0.1596
  C  C381  1  0.943300  0.748290  0.829800  1.0  0.0915
  C  C382  1  0.959300  0.786200  0.844700  1.0  -0.112
  C  C383  1  0.939000  0.810200  0.881100  1.0  -0.0409
  C  C384  1  0.901000  0.794800  0.900700  1.0  -0.0741
  C  C385  1  0.886000  0.756800  0.885000  1.0  -0.0361
  C  C386  1  0.906700  0.734100  0.849500  1.0  -0.1258
  C  C387  1  0.878200  0.819800  0.936800  1.0  0.7022
  C  C388  1  0.902300  0.200300  0.564400  1.0  0.6988
  C  C389  1  0.926100  0.220820  0.604000  1.0  -0.1201
  C  C390  1  0.912900  0.259900  0.621900  1.0  -0.0204
  C  C391  1  0.934300  0.279400  0.659100  1.0  -0.1533
  C  C392  1  0.983400  0.221700  0.661100  1.0  -0.1224
  C  C393  1  0.961300  0.202600  0.623100  1.0  -0.0083
  C  C394  1  0.970200  0.259300  0.679300  1.0  0.089
  C  C395  1  0.996300  0.324200  0.722100  1.0  0.1585
  C  C396  1  0.992700  0.279690  0.719600  1.0  0.0747
  C  C397  1  0.012200  0.255600  0.755400  1.0  -0.0984
  C  C398  1  0.034200  0.276000  0.792600  1.0  0.0449
  C  C399  1  0.035000  0.320440  0.791700  1.0  0.1601
  C  C400  1  0.056700  0.251710  0.829800  1.0  0.0919
  C  C401  1  0.040700  0.213800  0.844700  1.0  -0.1135
  C  C402  1  0.061000  0.189800  0.881100  1.0  -0.0402
  C  C403  1  0.099000  0.205200  0.900700  1.0  -0.0739
  C  C404  1  0.114000  0.243200  0.885000  1.0  -0.0356
  C  C405  1  0.093300  0.265900  0.849500  1.0  -0.1247
  C  C406  1  0.121800  0.180200  0.936800  1.0  0.7018
  C  C407  1  0.200300  0.097700  0.064400  1.0  0.6986
  C  C408  1  0.220820  0.073900  0.104000  1.0  -0.1197
  C  C409  1  0.259900  0.087100  0.121900  1.0  -0.02
  C  C410  1  0.279400  0.065700  0.159100  1.0  -0.1545
  C  C411  1  0.221700  0.016600  0.161100  1.0  -0.1218
  C  C412  1  0.202600  0.038700  0.123100  1.0  -0.0066
  C  C413  1  0.259300  0.029800  0.179300  1.0  0.0871
  C  C414  1  0.324200  0.003700  0.222100  1.0  0.159
  C  C415  1  0.279690  0.007300  0.219600  1.0  0.0727
  C  C416  1  0.255600  0.987800  0.255400  1.0  -0.1061
  C  C417  1  0.276000  0.965800  0.292600  1.0  0.0436
  C  C418  1  0.320440  0.965000  0.291700  1.0  0.1597
  C  C419  1  0.251710  0.943300  0.329800  1.0  0.0914
  C  C420  1  0.213800  0.959300  0.344700  1.0  -0.1129
  C  C421  1  0.189800  0.939000  0.381100  1.0  -0.0423
  C  C422  1  0.205200  0.901000  0.400700  1.0  -0.074
  C  C423  1  0.243200  0.886000  0.385000  1.0  -0.0385
  C  C424  1  0.265900  0.906700  0.349500  1.0  -0.1258
  C  C425  1  0.180200  0.878200  0.436800  1.0  0.7025
  C  C426  1  0.799700  0.902300  0.064400  1.0  0.6985
  C  C427  1  0.779180  0.926100  0.104000  1.0  -0.1194
  C  C428  1  0.740100  0.912900  0.121900  1.0  -0.0201
  C  C429  1  0.720600  0.934300  0.159100  1.0  -0.1533
  C  C430  1  0.778300  0.983400  0.161100  1.0  -0.1211
  C  C431  1  0.797400  0.961300  0.123100  1.0  -0.0054
  C  C432  1  0.740700  0.970200  0.179300  1.0  0.0869
  C  C433  1  0.675800  0.996300  0.222100  1.0  0.1583
  C  C434  1  0.720310  0.992700  0.219600  1.0  0.0728
  C  C435  1  0.744400  0.012200  0.255400  1.0  -0.1035
  C  C436  1  0.724000  0.034200  0.292600  1.0  0.0428
  C  C437  1  0.679560  0.035000  0.291700  1.0  0.16
  C  C438  1  0.748290  0.056700  0.329800  1.0  0.0907
  C  C439  1  0.786200  0.040700  0.344700  1.0  -0.1107
  C  C440  1  0.810200  0.061000  0.381100  1.0  -0.0394
  C  C441  1  0.794800  0.099000  0.400700  1.0  -0.0742
  C  C442  1  0.756800  0.114000  0.385000  1.0  -0.0395
  C  C443  1  0.734100  0.093300  0.349500  1.0  -0.1277
  C  C444  1  0.819800  0.121800  0.436800  1.0  0.702
  C  C445  1  0.402300  0.299700  0.435600  1.0  0.6993
  C  C446  1  0.426100  0.279180  0.396000  1.0  -0.1195
  C  C447  1  0.412900  0.240100  0.378100  1.0  -0.0202
  C  C448  1  0.434300  0.220600  0.340900  1.0  -0.1527
  C  C449  1  0.483400  0.278300  0.338900  1.0  -0.1217
  C  C450  1  0.461300  0.297400  0.376900  1.0  -0.0088
  C  C451  1  0.470200  0.240700  0.320700  1.0  0.0886
  C  C452  1  0.496300  0.175800  0.277900  1.0  0.1591
  C  C453  1  0.492700  0.220310  0.280400  1.0  0.0745
  C  C454  1  0.512200  0.244400  0.244600  1.0  -0.0987
  C  C455  1  0.534200  0.224000  0.207400  1.0  0.0446
  C  C456  1  0.535000  0.179560  0.208300  1.0  0.1599
  C  C457  1  0.556700  0.248290  0.170200  1.0  0.0915
  C  C458  1  0.540700  0.286200  0.155300  1.0  -0.1147
  C  C459  1  0.561000  0.310200  0.118900  1.0  -0.0416
  C  C460  1  0.599000  0.294800  0.099300  1.0  -0.0746
  C  C461  1  0.614000  0.256800  0.115000  1.0  -0.0358
  C  C462  1  0.593300  0.234100  0.150500  1.0  -0.1236
  C  C463  1  0.621800  0.319800  0.063200  1.0  0.7016
  C  C464  1  0.597700  0.700300  0.435600  1.0  0.6988
  C  C465  1  0.573900  0.720820  0.396000  1.0  -0.1195
  C  C466  1  0.587100  0.759900  0.378100  1.0  -0.0196
  C  C467  1  0.565700  0.779400  0.340900  1.0  -0.1531
  C  C468  1  0.516600  0.721700  0.338900  1.0  -0.1232
  C  C469  1  0.538700  0.702600  0.376900  1.0  -0.0083
  C  C470  1  0.529800  0.759300  0.320700  1.0  0.0884
  C  C471  1  0.503700  0.824200  0.277900  1.0  0.1596
  C  C472  1  0.507300  0.779690  0.280400  1.0  0.075
  C  C473  1  0.487800  0.755600  0.244600  1.0  -0.0981
  C  C474  1  0.465800  0.776000  0.207400  1.0  0.0439
  C  C475  1  0.465000  0.820440  0.208300  1.0  0.1611
  C  C476  1  0.443300  0.751710  0.170200  1.0  0.0909
  C  C477  1  0.459300  0.713800  0.155300  1.0  -0.1113
  C  C478  1  0.439000  0.689800  0.118900  1.0  -0.0398
  C  C479  1  0.401000  0.705200  0.099300  1.0  -0.0745
  C  C480  1  0.386000  0.743200  0.115000  1.0  -0.0364
  C  C481  1  0.406700  0.765900  0.150500  1.0  -0.1276
  C  C482  1  0.378200  0.680200  0.063200  1.0  0.7021
  C  C483  1  0.299700  0.597700  0.935600  1.0  0.6989
  C  C484  1  0.279180  0.573900  0.896000  1.0  -0.1194
  C  C485  1  0.240100  0.587100  0.878100  1.0  -0.0201
  C  C486  1  0.220600  0.565700  0.840900  1.0  -0.1546
  C  C487  1  0.278300  0.516600  0.838900  1.0  -0.1214
  C  C488  1  0.297400  0.538700  0.876900  1.0  -0.0053
  C  C489  1  0.240700  0.529800  0.820700  1.0  0.0867
  C  C490  1  0.175800  0.503700  0.777900  1.0  0.1593
  C  C491  1  0.220310  0.507300  0.780400  1.0  0.0725
  C  C492  1  0.244400  0.487800  0.744600  1.0  -0.1037
  C  C493  1  0.224000  0.465800  0.707400  1.0  0.0425
  C  C494  1  0.179560  0.465000  0.708300  1.0  0.1606
  C  C495  1  0.248290  0.443300  0.670200  1.0  0.0906
  C  C496  1  0.286200  0.459300  0.655300  1.0  -0.1111
  C  C497  1  0.310200  0.439000  0.618900  1.0  -0.0394
  C  C498  1  0.294800  0.401000  0.599300  1.0  -0.0747
  C  C499  1  0.256800  0.386000  0.615000  1.0  -0.0391
  C  C500  1  0.234100  0.406700  0.650500  1.0  -0.1267
  C  C501  1  0.319800  0.378200  0.563200  1.0  0.7019
  C  C502  1  0.700300  0.402300  0.935600  1.0  0.6986
  C  C503  1  0.720820  0.426100  0.896000  1.0  -0.1188
  C  C504  1  0.759900  0.412900  0.878100  1.0  -0.0206
  C  C505  1  0.779400  0.434300  0.840900  1.0  -0.1542
  C  C506  1  0.721700  0.483400  0.838900  1.0  -0.1213
  C  C507  1  0.702600  0.461300  0.876900  1.0  -0.0064
  C  C508  1  0.759300  0.470200  0.820700  1.0  0.0871
  C  C509  1  0.824200  0.496300  0.777900  1.0  0.1603
  C  C510  1  0.779690  0.492700  0.780400  1.0  0.0724
  C  C511  1  0.755600  0.512200  0.744600  1.0  -0.1062
  C  C512  1  0.776000  0.534200  0.707400  1.0  0.0434
  C  C513  1  0.820440  0.535000  0.708300  1.0  0.1603
  C  C514  1  0.751710  0.556700  0.670200  1.0  0.0909
  C  C515  1  0.713800  0.540700  0.655300  1.0  -0.1126
  C  C516  1  0.689800  0.561000  0.618900  1.0  -0.0423
  C  C517  1  0.705200  0.599000  0.599300  1.0  -0.0744
  C  C518  1  0.743200  0.614000  0.615000  1.0  -0.0382
  C  C519  1  0.765900  0.593300  0.650500  1.0  -0.126
  C  C520  1  0.680200  0.621800  0.563200  1.0  0.7022
  S  S521  1  0.056000  0.432110  0.344160  1.0  1.5938
  S  S522  1  0.944000  0.567890  0.344160  1.0  1.5935
  S  S523  1  0.567890  0.056000  0.844160  1.0  1.5938
  S  S524  1  0.432110  0.944000  0.844160  1.0  1.5935
  S  S525  1  0.444000  0.932110  0.655840  1.0  1.5917
  S  S526  1  0.556000  0.067890  0.655840  1.0  1.5919
  S  S527  1  0.932110  0.556000  0.155840  1.0  1.5919
  S  S528  1  0.067890  0.444000  0.155840  1.0  1.5917
  S  S529  1  0.944000  0.567890  0.655840  1.0  1.5917
  S  S530  1  0.056000  0.432110  0.655840  1.0  1.5918
  S  S531  1  0.432110  0.944000  0.155840  1.0  1.5919
  S  S532  1  0.567890  0.056000  0.155840  1.0  1.5919
  S  S533  1  0.556000  0.067890  0.344160  1.0  1.5938
  S  S534  1  0.444000  0.932110  0.344160  1.0  1.5937
  S  S535  1  0.067890  0.444000  0.844160  1.0  1.5938
  S  S536  1  0.932110  0.556000  0.844160  1.0  1.5934
  S  S537  1  0.919450  0.419450  0.250000  1.0  1.5917
  S  S538  1  0.080550  0.580550  0.250000  1.0  1.5931
  S  S539  1  0.580550  0.919450  0.750000  1.0  1.5933
  S  S540  1  0.419450  0.080550  0.750000  1.0  1.5917
  S  S541  1  0.080550  0.580550  0.750000  1.0  1.5931
  S  S542  1  0.919450  0.419450  0.750000  1.0  1.5917
  S  S543  1  0.419450  0.080550  0.250000  1.0  1.5917
  S  S544  1  0.580550  0.919450  0.250000  1.0  1.5933
  N  N545  1  0.017030  0.344080  0.242860  1.0  -0.3038
  N  N546  1  0.982970  0.655920  0.242860  1.0  -0.3033
  N  N547  1  0.655920  0.017030  0.742860  1.0  -0.301
  N  N548  1  0.344080  0.982970  0.742860  1.0  -0.3008
  N  N549  1  0.482970  0.844080  0.757140  1.0  -0.3036
  N  N550  1  0.517030  0.155920  0.757140  1.0  -0.3034
  N  N551  1  0.844080  0.517030  0.257140  1.0  -0.3007
  N  N552  1  0.155920  0.482970  0.257140  1.0  -0.3014
  N  N553  1  0.982970  0.655920  0.757140  1.0  -0.3032
  N  N554  1  0.017030  0.344080  0.757140  1.0  -0.3038
  N  N555  1  0.344080  0.982970  0.257140  1.0  -0.3008
  N  N556  1  0.655920  0.017030  0.257140  1.0  -0.301
  N  N557  1  0.517030  0.155920  0.242860  1.0  -0.3034
  N  N558  1  0.482970  0.844080  0.242860  1.0  -0.3036
  N  N559  1  0.155920  0.482970  0.742860  1.0  -0.3015
  N  N560  1  0.844080  0.517030  0.742860  1.0  -0.3007
  O  O561  1  0.156950  0.195100  0.048840  1.0  -0.5595
  O  O562  1  0.104780  0.146010  0.049090  1.0  -0.5581
  O  O563  1  0.869180  0.217960  0.450750  1.0  -0.5573
  O  O564  1  0.917330  0.165390  0.450270  1.0  -0.5609
  O  O565  1  0.034380  0.400160  0.314340  1.0  -0.7223
  O  O566  1  0.025860  0.468130  0.351920  1.0  -0.6877
  O  O567  1  0.093500  0.447600  0.319310  1.0  -0.6876
  O  O568  1  0.067430  0.413860  0.388860  1.0  -0.4945
  O  O569  1  0.958940  0.419000  0.220800  1.0  -0.7222
  O  O570  1  0.918600  0.382530  0.281800  1.0  -0.6105
  O  O571  1  0.843050  0.804900  0.048840  1.0  -0.5591
  O  O572  1  0.895220  0.853990  0.049090  1.0  -0.5582
  O  O573  1  0.130820  0.782040  0.450750  1.0  -0.5573
  O  O574  1  0.082670  0.834610  0.450270  1.0  -0.5603
  O  O575  1  0.965620  0.599840  0.314340  1.0  -0.7238
  O  O576  1  0.974140  0.531870  0.351920  1.0  -0.689
  O  O577  1  0.906500  0.552400  0.319310  1.0  -0.6875
  O  O578  1  0.932570  0.586140  0.388860  1.0  -0.4966
  O  O579  1  0.041060  0.581000  0.220800  1.0  -0.7231
  O  O580  1  0.081400  0.617470  0.281800  1.0  -0.6104
  O  O581  1  0.804900  0.156950  0.548840  1.0  -0.5589
  O  O582  1  0.853990  0.104780  0.549090  1.0  -0.5589
  O  O583  1  0.782040  0.869180  0.950750  1.0  -0.5572
  O  O584  1  0.834610  0.917330  0.950270  1.0  -0.5615
  O  O585  1  0.599840  0.034380  0.814340  1.0  -0.7219
  O  O586  1  0.531870  0.025860  0.851920  1.0  -0.69
  O  O587  1  0.552400  0.093500  0.819310  1.0  -0.6897
  O  O588  1  0.586140  0.067430  0.888860  1.0  -0.4954
  O  O589  1  0.581000  0.958940  0.720800  1.0  -0.721
  O  O590  1  0.617470  0.918600  0.781800  1.0  -0.6115
  O  O591  1  0.195100  0.843050  0.548840  1.0  -0.5586
  O  O592  1  0.146010  0.895220  0.549090  1.0  -0.5587
  O  O593  1  0.217960  0.130820  0.950750  1.0  -0.5572
  O  O594  1  0.165390  0.082670  0.950270  1.0  -0.5603
  O  O595  1  0.400160  0.965620  0.814340  1.0  -0.7207
  O  O596  1  0.468130  0.974140  0.851920  1.0  -0.6867
  O  O597  1  0.447600  0.906500  0.819310  1.0  -0.6899
  O  O598  1  0.413860  0.932570  0.888860  1.0  -0.4958
  O  O599  1  0.419000  0.041060  0.720800  1.0  -0.7216
  O  O600  1  0.382530  0.081400  0.781800  1.0  -0.611
  O  O601  1  0.343050  0.695100  0.951160  1.0  -0.5591
  O  O602  1  0.395220  0.646010  0.950910  1.0  -0.559
  O  O603  1  0.630820  0.717960  0.549250  1.0  -0.5572
  O  O604  1  0.582670  0.665390  0.549730  1.0  -0.5603
  O  O605  1  0.465620  0.900160  0.685660  1.0  -0.7268
  O  O606  1  0.474140  0.968130  0.648080  1.0  -0.6868
  O  O607  1  0.406500  0.947600  0.680690  1.0  -0.6894
  O  O608  1  0.432570  0.913860  0.611140  1.0  -0.4967
  O  O609  1  0.541060  0.919000  0.779200  1.0  -0.7218
  O  O610  1  0.581400  0.882530  0.718200  1.0  -0.6101
  O  O611  1  0.656950  0.304900  0.951160  1.0  -0.5593
  O  O612  1  0.604780  0.353990  0.950910  1.0  -0.5582
  O  O613  1  0.369180  0.282040  0.549250  1.0  -0.5577
  O  O614  1  0.417330  0.334610  0.549730  1.0  -0.5606
  O  O615  1  0.534380  0.099840  0.685660  1.0  -0.7284
  O  O616  1  0.525860  0.031870  0.648080  1.0  -0.6851
  O  O617  1  0.593500  0.052400  0.680690  1.0  -0.691
  O  O618  1  0.567430  0.086140  0.611140  1.0  -0.4971
  O  O619  1  0.458940  0.081000  0.779200  1.0  -0.7225
  O  O620  1  0.418600  0.117470  0.718200  1.0  -0.612
  O  O621  1  0.695100  0.656950  0.451160  1.0  -0.5581
  O  O622  1  0.646010  0.604780  0.450910  1.0  -0.5586
  O  O623  1  0.717960  0.369180  0.049250  1.0  -0.5575
  O  O624  1  0.665390  0.417330  0.049730  1.0  -0.5607
  O  O625  1  0.900160  0.534380  0.185660  1.0  -0.7253
  O  O626  1  0.968130  0.525860  0.148080  1.0  -0.6859
  O  O627  1  0.947600  0.593500  0.180690  1.0  -0.6925
  O  O628  1  0.913860  0.567430  0.111140  1.0  -0.4973
  O  O629  1  0.919000  0.458940  0.279200  1.0  -0.7201
  O  O630  1  0.882530  0.418600  0.218200  1.0  -0.6122
  O  O631  1  0.304900  0.343050  0.451160  1.0  -0.5584
  O  O632  1  0.353990  0.395220  0.450910  1.0  -0.5592
  O  O633  1  0.282040  0.630820  0.049250  1.0  -0.557
  O  O634  1  0.334610  0.582670  0.049730  1.0  -0.5603
  O  O635  1  0.099840  0.465620  0.185660  1.0  -0.726
  O  O636  1  0.031870  0.474140  0.148080  1.0  -0.6855
  O  O637  1  0.052400  0.406500  0.180690  1.0  -0.6925
  O  O638  1  0.086140  0.432570  0.111140  1.0  -0.4971
  O  O639  1  0.081000  0.541060  0.279200  1.0  -0.7212
  O  O640  1  0.117470  0.581400  0.218200  1.0  -0.6121
  O  O641  1  0.843050  0.804900  0.951160  1.0  -0.5591
  O  O642  1  0.895220  0.853990  0.950910  1.0  -0.5586
  O  O643  1  0.130820  0.782040  0.549250  1.0  -0.5574
  O  O644  1  0.082670  0.834610  0.549730  1.0  -0.5603
  O  O645  1  0.965620  0.599840  0.685660  1.0  -0.7274
  O  O646  1  0.974140  0.531870  0.648080  1.0  -0.6857
  O  O647  1  0.906500  0.552400  0.680690  1.0  -0.6896
  O  O648  1  0.932570  0.586140  0.611140  1.0  -0.4976
  O  O649  1  0.041060  0.581000  0.779200  1.0  -0.7218
  O  O650  1  0.081400  0.617470  0.718200  1.0  -0.6116
  O  O651  1  0.156950  0.195100  0.951160  1.0  -0.5596
  O  O652  1  0.104780  0.146010  0.950910  1.0  -0.5582
  O  O653  1  0.869180  0.217960  0.549250  1.0  -0.5573
  O  O654  1  0.917330  0.165390  0.549730  1.0  -0.5608
  O  O655  1  0.034380  0.400160  0.685660  1.0  -0.7274
  O  O656  1  0.025860  0.468130  0.648080  1.0  -0.686
  O  O657  1  0.093500  0.447600  0.680690  1.0  -0.6906
  O  O658  1  0.067430  0.413860  0.611140  1.0  -0.4978
  O  O659  1  0.958940  0.419000  0.779200  1.0  -0.7222
  O  O660  1  0.918600  0.382530  0.718200  1.0  -0.6105
  O  O661  1  0.195100  0.843050  0.451160  1.0  -0.5587
  O  O662  1  0.146010  0.895220  0.450910  1.0  -0.5587
  O  O663  1  0.217960  0.130820  0.049250  1.0  -0.557
  O  O664  1  0.165390  0.082670  0.049730  1.0  -0.5604
  O  O665  1  0.400160  0.965620  0.185660  1.0  -0.7251
  O  O666  1  0.468130  0.974140  0.148080  1.0  -0.6856
  O  O667  1  0.447600  0.906500  0.180690  1.0  -0.6925
  O  O668  1  0.413860  0.932570  0.111140  1.0  -0.4976
  O  O669  1  0.419000  0.041060  0.279200  1.0  -0.7219
  O  O670  1  0.382530  0.081400  0.218200  1.0  -0.6121
  O  O671  1  0.804900  0.156950  0.451160  1.0  -0.5588
  O  O672  1  0.853990  0.104780  0.450910  1.0  -0.5592
  O  O673  1  0.782040  0.869180  0.049250  1.0  -0.5573
  O  O674  1  0.834610  0.917330  0.049730  1.0  -0.5614
  O  O675  1  0.599840  0.034380  0.185660  1.0  -0.7268
  O  O676  1  0.531870  0.025860  0.148080  1.0  -0.6861
  O  O677  1  0.552400  0.093500  0.180690  1.0  -0.6925
  O  O678  1  0.586140  0.067430  0.111140  1.0  -0.4979
  O  O679  1  0.581000  0.958940  0.279200  1.0  -0.7194
  O  O680  1  0.617470  0.918600  0.218200  1.0  -0.6118
  O  O681  1  0.656950  0.304900  0.048840  1.0  -0.5592
  O  O682  1  0.604780  0.353990  0.049090  1.0  -0.5584
  O  O683  1  0.369180  0.282040  0.450750  1.0  -0.5576
  O  O684  1  0.417330  0.334610  0.450270  1.0  -0.5608
  O  O685  1  0.534380  0.099840  0.314340  1.0  -0.7237
  O  O686  1  0.525860  0.031870  0.351920  1.0  -0.6891
  O  O687  1  0.593500  0.052400  0.319310  1.0  -0.6876
  O  O688  1  0.567430  0.086140  0.388860  1.0  -0.4943
  O  O689  1  0.458940  0.081000  0.220800  1.0  -0.7226
  O  O690  1  0.418600  0.117470  0.281800  1.0  -0.6111
  O  O691  1  0.343050  0.695100  0.048840  1.0  -0.559
  O  O692  1  0.395220  0.646010  0.049090  1.0  -0.5591
  O  O693  1  0.630820  0.717960  0.450750  1.0  -0.5572
  O  O694  1  0.582670  0.665390  0.450270  1.0  -0.5601
  O  O695  1  0.465620  0.900160  0.314340  1.0  -0.7222
  O  O696  1  0.474140  0.968130  0.351920  1.0  -0.6875
  O  O697  1  0.406500  0.947600  0.319310  1.0  -0.6875
  O  O698  1  0.432570  0.913860  0.388860  1.0  -0.4951
  O  O699  1  0.541060  0.919000  0.220800  1.0  -0.723
  O  O700  1  0.581400  0.882530  0.281800  1.0  -0.6093
  O  O701  1  0.304900  0.343050  0.548840  1.0  -0.5583
  O  O702  1  0.353990  0.395220  0.549090  1.0  -0.5593
  O  O703  1  0.282040  0.630820  0.950750  1.0  -0.5569
  O  O704  1  0.334610  0.582670  0.950270  1.0  -0.5603
  O  O705  1  0.099840  0.465620  0.814340  1.0  -0.7205
  O  O706  1  0.031870  0.474140  0.851920  1.0  -0.6875
  O  O707  1  0.052400  0.406500  0.819310  1.0  -0.6893
  O  O708  1  0.086140  0.432570  0.888860  1.0  -0.4949
  O  O709  1  0.081000  0.541060  0.720800  1.0  -0.7222
  O  O710  1  0.117470  0.581400  0.781800  1.0  -0.6103
  O  O711  1  0.695100  0.656950  0.548840  1.0  -0.5578
  O  O712  1  0.646010  0.604780  0.549090  1.0  -0.5589
  O  O713  1  0.717960  0.369180  0.950750  1.0  -0.5576
  O  O714  1  0.665390  0.417330  0.950270  1.0  -0.5608
  O  O715  1  0.900160  0.534380  0.814340  1.0  -0.7209
  O  O716  1  0.968130  0.525860  0.851920  1.0  -0.6893
  O  O717  1  0.947600  0.593500  0.819310  1.0  -0.6906
  O  O718  1  0.913860  0.567430  0.888860  1.0  -0.4955
  O  O719  1  0.919000  0.458940  0.720800  1.0  -0.7204
  O  O720  1  0.882530  0.418600  0.781800  1.0  -0.6126
  O  O721  1  0.029910  0.470090  0.250000  1.0  -1.0298
  O  O722  1  0.970090  0.529910  0.250000  1.0  -1.0295
  O  O723  1  0.529910  0.029910  0.750000  1.0  -1.0297
  O  O724  1  0.470090  0.970090  0.750000  1.0  -1.0297
  O  O725  1  0.970090  0.529910  0.750000  1.0  -1.0295
  O  O726  1  0.029910  0.470090  0.750000  1.0  -1.0298
  O  O727  1  0.470090  0.970090  0.250000  1.0  -1.0297
  O  O728  1  0.529910  0.029910  0.250000  1.0  -1.0297
