# generated using pymatgen
data_KCd2H24(C3O)16
_symmetry_space_group_name_H-M   'P 1'
_cell_length_a   30.41330000
_cell_length_b   34.58800000
_cell_length_c   27.59210000
_cell_angle_alpha   90.00000000
_cell_angle_beta   90.00000000
_cell_angle_gamma   90.00000000
_symmetry_Int_Tables_number   1
_chemical_formula_structural   KCd2H24(C3O)16
_chemical_formula_sum   'K16 Cd32 H384 C768 O256'
_cell_volume   29025.10179480
_cell_formula_units_Z   16
loop_
 _symmetry_equiv_pos_site_id
 _symmetry_equiv_pos_as_xyz
  1  'x, y, z'
loop_
 _atom_site_type_symbol
 _atom_site_label
 _atom_site_symmetry_multiplicity
 _atom_site_fract_x
 _atom_site_fract_y
 _atom_site_fract_z
 _atom_site_occupancy
 _atom_site_charge
  K  K1  1  0.789070  0.444950  0.462990  1.0  0.9452
  K  K2  1  0.789070  0.944950  0.962990  1.0  0.9452
  K  K3  1  0.289070  0.444950  0.962990  1.0  0.9452
  K  K4  1  0.289070  0.944950  0.462990  1.0  0.9452
  K  K5  1  0.210930  0.555050  0.462990  1.0  0.9448
  K  K6  1  0.210930  0.055050  0.962990  1.0  0.9448
  K  K7  1  0.710930  0.555050  0.962990  1.0  0.9448
  K  K8  1  0.710930  0.055050  0.462990  1.0  0.9448
  K  K9  1  0.039070  0.805050  0.712990  1.0  0.9449
  K  K10  1  0.039070  0.305050  0.212990  1.0  0.9449
  K  K11  1  0.539070  0.805050  0.212990  1.0  0.9449
  K  K12  1  0.539070  0.305050  0.712990  1.0  0.9449
  K  K13  1  0.460930  0.694950  0.712990  1.0  0.9446
  K  K14  1  0.460930  0.194950  0.212990  1.0  0.9446
  K  K15  1  0.960930  0.694950  0.212990  1.0  0.9446
  K  K16  1  0.960930  0.194950  0.712990  1.0  0.9446
  Cd  Cd17  1  0.747060  0.393720  0.368710  1.0  1.1034
  Cd  Cd18  1  0.839110  0.497820  0.553170  1.0  1.0697
  Cd  Cd19  1  0.747060  0.893720  0.868710  1.0  1.1034
  Cd  Cd20  1  0.839110  0.997820  0.053170  1.0  1.0697
  Cd  Cd21  1  0.247060  0.393720  0.868710  1.0  1.1034
  Cd  Cd22  1  0.339110  0.497820  0.053170  1.0  1.0697
  Cd  Cd23  1  0.247060  0.893720  0.368710  1.0  1.1034
  Cd  Cd24  1  0.339110  0.997820  0.553170  1.0  1.0697
  Cd  Cd25  1  0.252940  0.606280  0.368710  1.0  1.1022
  Cd  Cd26  1  0.160890  0.502180  0.553170  1.0  1.0698
  Cd  Cd27  1  0.252940  0.106280  0.868710  1.0  1.1022
  Cd  Cd28  1  0.160890  0.002180  0.053170  1.0  1.0698
  Cd  Cd29  1  0.752940  0.606280  0.868710  1.0  1.1022
  Cd  Cd30  1  0.660890  0.502180  0.053170  1.0  1.0698
  Cd  Cd31  1  0.752940  0.106280  0.368710  1.0  1.1022
  Cd  Cd32  1  0.660890  0.002180  0.553170  1.0  1.0698
  Cd  Cd33  1  0.997060  0.856280  0.618710  1.0  1.1027
  Cd  Cd34  1  0.089110  0.752180  0.803170  1.0  1.069
  Cd  Cd35  1  0.997060  0.356280  0.118710  1.0  1.1027
  Cd  Cd36  1  0.089110  0.252180  0.303170  1.0  1.0689
  Cd  Cd37  1  0.497060  0.856280  0.118710  1.0  1.1027
  Cd  Cd38  1  0.589110  0.752180  0.303170  1.0  1.069
  Cd  Cd39  1  0.497060  0.356280  0.618710  1.0  1.1027
  Cd  Cd40  1  0.589110  0.252180  0.803170  1.0  1.0689
  Cd  Cd41  1  0.502940  0.643720  0.618710  1.0  1.1029
  Cd  Cd42  1  0.410890  0.747820  0.803170  1.0  1.0693
  Cd  Cd43  1  0.502940  0.143720  0.118710  1.0  1.1029
  Cd  Cd44  1  0.410890  0.247820  0.303170  1.0  1.0694
  Cd  Cd45  1  0.002940  0.643720  0.118710  1.0  1.1029
  Cd  Cd46  1  0.910890  0.747820  0.303170  1.0  1.0693
  Cd  Cd47  1  0.002940  0.143720  0.618710  1.0  1.1029
  Cd  Cd48  1  0.910890  0.247820  0.803170  1.0  1.0694
  H  H49  1  0.632600  0.329600  0.666800  1.0  0.1279
  H  H50  1  0.659400  0.356500  0.589400  1.0  0.123
  H  H51  1  0.920900  0.216400  0.506400  1.0  0.1321
  H  H52  1  0.699100  0.398700  0.547000  1.0  0.1362
  H  H53  1  0.849100  0.298700  0.401700  1.0  0.1143
  H  H54  1  0.751100  0.440500  0.670100  1.0  0.1185
  H  H55  1  0.690400  0.468000  0.500800  1.0  0.1247
  H  H56  1  0.824400  0.342300  0.531200  1.0  0.1065
  H  H57  1  0.576000  0.581100  0.488300  1.0  0.1174
  H  H58  1  0.893000  0.251200  0.433000  1.0  0.1307
  H  H59  1  0.726200  0.412900  0.749600  1.0  0.1155
  H  H60  1  0.893200  0.259400  0.640200  1.0  0.121
  H  H61  1  0.618800  0.542700  0.616100  1.0  0.1292
  H  H62  1  0.649300  0.508200  0.374100  1.0  0.1415
  H  H63  1  0.665800  0.501200  0.577100  1.0  0.1278
  H  H64  1  0.688700  0.368300  0.792400  1.0  0.1438
  H  H65  1  0.855200  0.307800  0.606600  1.0  0.1218
  H  H66  1  0.606800  0.552800  0.411100  1.0  0.1357
  H  H67  1  0.726300  0.588900  0.525400  1.0  0.1385
  H  H68  1  0.756100  0.550100  0.391200  1.0  0.1414
  H  H69  1  0.692800  0.644100  0.491600  1.0  0.1316
  H  H70  1  0.688100  0.641300  0.291100  1.0  0.138
  H  H71  1  0.733500  0.590100  0.325400  1.0  0.1176
  H  H72  1  0.663100  0.680200  0.422900  1.0  0.1274
  H  H73  1  0.632600  0.829600  0.166800  1.0  0.1279
  H  H74  1  0.659400  0.856500  0.089400  1.0  0.123
  H  H75  1  0.920900  0.716400  0.006400  1.0  0.1321
  H  H76  1  0.699100  0.898700  0.047000  1.0  0.1362
  H  H77  1  0.849100  0.798700  0.901700  1.0  0.1143
  H  H78  1  0.751100  0.940500  0.170100  1.0  0.1185
  H  H79  1  0.690400  0.968000  0.000800  1.0  0.1247
  H  H80  1  0.824400  0.842300  0.031200  1.0  0.1065
  H  H81  1  0.576000  0.081100  0.988300  1.0  0.1174
  H  H82  1  0.893000  0.751200  0.933000  1.0  0.1307
  H  H83  1  0.726200  0.912900  0.249600  1.0  0.1155
  H  H84  1  0.893200  0.759400  0.140200  1.0  0.121
  H  H85  1  0.618800  0.042700  0.116100  1.0  0.1292
  H  H86  1  0.649300  0.008200  0.874100  1.0  0.1415
  H  H87  1  0.665800  0.001200  0.077100  1.0  0.1278
  H  H88  1  0.688700  0.868300  0.292400  1.0  0.1438
  H  H89  1  0.855200  0.807800  0.106600  1.0  0.1218
  H  H90  1  0.606800  0.052800  0.911100  1.0  0.1357
  H  H91  1  0.726300  0.088900  0.025400  1.0  0.1385
  H  H92  1  0.756100  0.050100  0.891200  1.0  0.1414
  H  H93  1  0.692800  0.144100  0.991600  1.0  0.1316
  H  H94  1  0.688100  0.141300  0.791100  1.0  0.138
  H  H95  1  0.733500  0.090100  0.825400  1.0  0.1176
  H  H96  1  0.663100  0.180200  0.922900  1.0  0.1274
  H  H97  1  0.132600  0.329600  0.166800  1.0  0.1279
  H  H98  1  0.159400  0.356500  0.089400  1.0  0.123
  H  H99  1  0.420900  0.216400  0.006400  1.0  0.1321
  H  H100  1  0.199100  0.398700  0.047000  1.0  0.1362
  H  H101  1  0.349100  0.298700  0.901700  1.0  0.1143
  H  H102  1  0.251100  0.440500  0.170100  1.0  0.1185
  H  H103  1  0.190400  0.468000  0.000800  1.0  0.1247
  H  H104  1  0.324400  0.342300  0.031200  1.0  0.1065
  H  H105  1  0.076000  0.581100  0.988300  1.0  0.1174
  H  H106  1  0.393000  0.251200  0.933000  1.0  0.1307
  H  H107  1  0.226200  0.412900  0.249600  1.0  0.1155
  H  H108  1  0.393200  0.259400  0.140200  1.0  0.121
  H  H109  1  0.118800  0.542700  0.116100  1.0  0.1292
  H  H110  1  0.149300  0.508200  0.874100  1.0  0.1415
  H  H111  1  0.165800  0.501200  0.077100  1.0  0.1278
  H  H112  1  0.188700  0.368300  0.292400  1.0  0.1438
  H  H113  1  0.355200  0.307800  0.106600  1.0  0.1218
  H  H114  1  0.106800  0.552800  0.911100  1.0  0.1357
  H  H115  1  0.226300  0.588900  0.025400  1.0  0.1385
  H  H116  1  0.256100  0.550100  0.891200  1.0  0.1414
  H  H117  1  0.192800  0.644100  0.991600  1.0  0.1316
  H  H118  1  0.188100  0.641300  0.791100  1.0  0.138
  H  H119  1  0.233500  0.590100  0.825400  1.0  0.1176
  H  H120  1  0.163100  0.680200  0.922900  1.0  0.1274
  H  H121  1  0.132600  0.829600  0.666800  1.0  0.1279
  H  H122  1  0.159400  0.856500  0.589400  1.0  0.123
  H  H123  1  0.420900  0.716400  0.506400  1.0  0.1321
  H  H124  1  0.199100  0.898700  0.547000  1.0  0.1362
  H  H125  1  0.349100  0.798700  0.401700  1.0  0.1143
  H  H126  1  0.251100  0.940500  0.670100  1.0  0.1185
  H  H127  1  0.190400  0.968000  0.500800  1.0  0.1247
  H  H128  1  0.324400  0.842300  0.531200  1.0  0.1065
  H  H129  1  0.076000  0.081100  0.488300  1.0  0.1174
  H  H130  1  0.393000  0.751200  0.433000  1.0  0.1307
  H  H131  1  0.226200  0.912900  0.749600  1.0  0.1155
  H  H132  1  0.393200  0.759400  0.640200  1.0  0.121
  H  H133  1  0.118800  0.042700  0.616100  1.0  0.1292
  H  H134  1  0.149300  0.008200  0.374100  1.0  0.1415
  H  H135  1  0.165800  0.001200  0.577100  1.0  0.1278
  H  H136  1  0.188700  0.868300  0.792400  1.0  0.1438
  H  H137  1  0.355200  0.807800  0.606600  1.0  0.1218
  H  H138  1  0.106800  0.052800  0.411100  1.0  0.1357
  H  H139  1  0.226300  0.088900  0.525400  1.0  0.1385
  H  H140  1  0.256100  0.050100  0.391200  1.0  0.1414
  H  H141  1  0.192800  0.144100  0.491600  1.0  0.1316
  H  H142  1  0.188100  0.141300  0.291100  1.0  0.138
  H  H143  1  0.233500  0.090100  0.325400  1.0  0.1176
  H  H144  1  0.163100  0.180200  0.422900  1.0  0.1274
  H  H145  1  0.367400  0.670400  0.666800  1.0  0.1284
  H  H146  1  0.340600  0.643500  0.589400  1.0  0.1234
  H  H147  1  0.079100  0.783600  0.506400  1.0  0.1315
  H  H148  1  0.300900  0.601300  0.547000  1.0  0.1351
  H  H149  1  0.150900  0.701300  0.401700  1.0  0.1141
  H  H150  1  0.248900  0.559500  0.670100  1.0  0.1174
  H  H151  1  0.309600  0.532000  0.500800  1.0  0.1249
  H  H152  1  0.175600  0.657700  0.531200  1.0  0.106
  H  H153  1  0.424000  0.418900  0.488300  1.0  0.1176
  H  H154  1  0.107000  0.748800  0.433000  1.0  0.1298
  H  H155  1  0.273800  0.587100  0.749600  1.0  0.1153
  H  H156  1  0.106800  0.740600  0.640200  1.0  0.1203
  H  H157  1  0.381200  0.457300  0.616100  1.0  0.1294
  H  H158  1  0.350700  0.491800  0.374100  1.0  0.1427
  H  H159  1  0.334200  0.498800  0.577100  1.0  0.1274
  H  H160  1  0.311300  0.631700  0.792400  1.0  0.1438
  H  H161  1  0.144800  0.692200  0.606600  1.0  0.1213
  H  H162  1  0.393200  0.447200  0.411100  1.0  0.135
  H  H163  1  0.273700  0.411100  0.525400  1.0  0.1383
  H  H164  1  0.243900  0.449900  0.391200  1.0  0.1416
  H  H165  1  0.307200  0.355900  0.491600  1.0  0.1316
  H  H166  1  0.311900  0.358700  0.291100  1.0  0.1378
  H  H167  1  0.266500  0.409900  0.325400  1.0  0.1173
  H  H168  1  0.336900  0.319800  0.422900  1.0  0.1273
  H  H169  1  0.367400  0.170400  0.166800  1.0  0.1284
  H  H170  1  0.340600  0.143500  0.089400  1.0  0.1234
  H  H171  1  0.079100  0.283600  0.006400  1.0  0.1315
  H  H172  1  0.300900  0.101300  0.047000  1.0  0.1351
  H  H173  1  0.150900  0.201300  0.901700  1.0  0.1141
  H  H174  1  0.248900  0.059500  0.170100  1.0  0.1174
  H  H175  1  0.309600  0.032000  0.000800  1.0  0.1249
  H  H176  1  0.175600  0.157700  0.031200  1.0  0.106
  H  H177  1  0.424000  0.918900  0.988300  1.0  0.1176
  H  H178  1  0.107000  0.248800  0.933000  1.0  0.1298
  H  H179  1  0.273800  0.087100  0.249600  1.0  0.1153
  H  H180  1  0.106800  0.240600  0.140200  1.0  0.1203
  H  H181  1  0.381200  0.957300  0.116100  1.0  0.1294
  H  H182  1  0.350700  0.991800  0.874100  1.0  0.1427
  H  H183  1  0.334200  0.998800  0.077100  1.0  0.1274
  H  H184  1  0.311300  0.131700  0.292400  1.0  0.1438
  H  H185  1  0.144800  0.192200  0.106600  1.0  0.1213
  H  H186  1  0.393200  0.947200  0.911100  1.0  0.135
  H  H187  1  0.273700  0.911100  0.025400  1.0  0.1383
  H  H188  1  0.243900  0.949900  0.891200  1.0  0.1416
  H  H189  1  0.307200  0.855900  0.991600  1.0  0.1316
  H  H190  1  0.311900  0.858700  0.791100  1.0  0.1378
  H  H191  1  0.266500  0.909900  0.825400  1.0  0.1173
  H  H192  1  0.336900  0.819800  0.922900  1.0  0.1273
  H  H193  1  0.867400  0.670400  0.166800  1.0  0.1284
  H  H194  1  0.840600  0.643500  0.089400  1.0  0.1234
  H  H195  1  0.579100  0.783600  0.006400  1.0  0.1315
  H  H196  1  0.800900  0.601300  0.047000  1.0  0.1351
  H  H197  1  0.650900  0.701300  0.901700  1.0  0.1141
  H  H198  1  0.748900  0.559500  0.170100  1.0  0.1174
  H  H199  1  0.809600  0.532000  0.000800  1.0  0.1249
  H  H200  1  0.675600  0.657700  0.031200  1.0  0.106
  H  H201  1  0.924000  0.418900  0.988300  1.0  0.1176
  H  H202  1  0.607000  0.748800  0.933000  1.0  0.1298
  H  H203  1  0.773800  0.587100  0.249600  1.0  0.1153
  H  H204  1  0.606800  0.740600  0.140200  1.0  0.1203
  H  H205  1  0.881200  0.457300  0.116100  1.0  0.1294
  H  H206  1  0.850700  0.491800  0.874100  1.0  0.1427
  H  H207  1  0.834200  0.498800  0.077100  1.0  0.1274
  H  H208  1  0.811300  0.631700  0.292400  1.0  0.1438
  H  H209  1  0.644800  0.692200  0.106600  1.0  0.1213
  H  H210  1  0.893200  0.447200  0.911100  1.0  0.135
  H  H211  1  0.773700  0.411100  0.025400  1.0  0.1383
  H  H212  1  0.743900  0.449900  0.891200  1.0  0.1416
  H  H213  1  0.807200  0.355900  0.991600  1.0  0.1316
  H  H214  1  0.811900  0.358700  0.791100  1.0  0.1378
  H  H215  1  0.766500  0.409900  0.825400  1.0  0.1173
  H  H216  1  0.836900  0.319800  0.922900  1.0  0.1273
  H  H217  1  0.867400  0.170400  0.666800  1.0  0.1284
  H  H218  1  0.840600  0.143500  0.589400  1.0  0.1234
  H  H219  1  0.579100  0.283600  0.506400  1.0  0.1315
  H  H220  1  0.800900  0.101300  0.547000  1.0  0.1351
  H  H221  1  0.650900  0.201300  0.401700  1.0  0.1141
  H  H222  1  0.748900  0.059500  0.670100  1.0  0.1174
  H  H223  1  0.809600  0.032000  0.500800  1.0  0.1249
  H  H224  1  0.675600  0.157700  0.531200  1.0  0.106
  H  H225  1  0.924000  0.918900  0.488300  1.0  0.1176
  H  H226  1  0.607000  0.248800  0.433000  1.0  0.1298
  H  H227  1  0.773800  0.087100  0.749600  1.0  0.1153
  H  H228  1  0.606800  0.240600  0.640200  1.0  0.1203
  H  H229  1  0.881200  0.957300  0.616100  1.0  0.1294
  H  H230  1  0.850700  0.991800  0.374100  1.0  0.1427
  H  H231  1  0.834200  0.998800  0.577100  1.0  0.1274
  H  H232  1  0.811300  0.131700  0.792400  1.0  0.1438
  H  H233  1  0.644800  0.192200  0.606600  1.0  0.1213
  H  H234  1  0.893200  0.947200  0.411100  1.0  0.135
  H  H235  1  0.773700  0.911100  0.525400  1.0  0.1383
  H  H236  1  0.743900  0.949900  0.391200  1.0  0.1416
  H  H237  1  0.807200  0.855900  0.491600  1.0  0.1316
  H  H238  1  0.811900  0.858700  0.291100  1.0  0.1378
  H  H239  1  0.766500  0.909900  0.325400  1.0  0.1173
  H  H240  1  0.836900  0.819800  0.422900  1.0  0.1273
  H  H241  1  0.882600  0.920400  0.916800  1.0  0.1288
  H  H242  1  0.909400  0.893500  0.839400  1.0  0.1234
  H  H243  1  0.170900  0.033600  0.756400  1.0  0.1317
  H  H244  1  0.949100  0.851300  0.797000  1.0  0.1356
  H  H245  1  0.099100  0.951300  0.651700  1.0  0.1138
  H  H246  1  0.001100  0.809500  0.920100  1.0  0.1179
  H  H247  1  0.940400  0.782000  0.750800  1.0  0.1248
  H  H248  1  0.074400  0.907700  0.781200  1.0  0.1064
  H  H249  1  0.826000  0.668900  0.738300  1.0  0.1169
  H  H250  1  0.143000  0.998800  0.683000  1.0  0.1296
  H  H251  1  0.976200  0.837100  0.999600  1.0  0.1155
  H  H252  1  0.143200  0.990600  0.890200  1.0  0.1211
  H  H253  1  0.868800  0.707300  0.866100  1.0  0.1295
  H  H254  1  0.899300  0.741800  0.624100  1.0  0.1419
  H  H255  1  0.915800  0.748800  0.827100  1.0  0.1275
  H  H256  1  0.938700  0.881700  0.042400  1.0  0.1437
  H  H257  1  0.105200  0.942200  0.856600  1.0  0.1219
  H  H258  1  0.856800  0.697200  0.661100  1.0  0.135
  H  H259  1  0.976300  0.661100  0.775400  1.0  0.1377
  H  H260  1  0.006100  0.699900  0.641200  1.0  0.1413
  H  H261  1  0.942800  0.605900  0.741600  1.0  0.1314
  H  H262  1  0.938100  0.608700  0.541100  1.0  0.1381
  H  H263  1  0.983500  0.659900  0.575400  1.0  0.1174
  H  H264  1  0.913100  0.569800  0.672900  1.0  0.1271
  H  H265  1  0.882600  0.420400  0.416800  1.0  0.1288
  H  H266  1  0.909400  0.393500  0.339400  1.0  0.1234
  H  H267  1  0.170900  0.533600  0.256400  1.0  0.1317
  H  H268  1  0.949100  0.351300  0.297000  1.0  0.1356
  H  H269  1  0.099100  0.451300  0.151700  1.0  0.1138
  H  H270  1  0.001100  0.309500  0.420100  1.0  0.1179
  H  H271  1  0.940400  0.282000  0.250800  1.0  0.1248
  H  H272  1  0.074400  0.407700  0.281200  1.0  0.1064
  H  H273  1  0.826000  0.168900  0.238300  1.0  0.1169
  H  H274  1  0.143000  0.498800  0.183000  1.0  0.1296
  H  H275  1  0.976200  0.337100  0.499600  1.0  0.1155
  H  H276  1  0.143200  0.490600  0.390200  1.0  0.1211
  H  H277  1  0.868800  0.207300  0.366100  1.0  0.1295
  H  H278  1  0.899300  0.241800  0.124100  1.0  0.1419
  H  H279  1  0.915800  0.248800  0.327100  1.0  0.1275
  H  H280  1  0.938700  0.381700  0.542400  1.0  0.1437
  H  H281  1  0.105200  0.442200  0.356600  1.0  0.1219
  H  H282  1  0.856800  0.197200  0.161100  1.0  0.135
  H  H283  1  0.976300  0.161100  0.275400  1.0  0.1377
  H  H284  1  0.006100  0.199900  0.141200  1.0  0.1413
  H  H285  1  0.942800  0.105900  0.241600  1.0  0.1314
  H  H286  1  0.938100  0.108700  0.041100  1.0  0.1381
  H  H287  1  0.983500  0.159900  0.075400  1.0  0.1174
  H  H288  1  0.913100  0.069800  0.172900  1.0  0.1271
  H  H289  1  0.382600  0.920400  0.416800  1.0  0.1288
  H  H290  1  0.409400  0.893500  0.339400  1.0  0.1234
  H  H291  1  0.670900  0.033600  0.256400  1.0  0.1317
  H  H292  1  0.449100  0.851300  0.297000  1.0  0.1356
  H  H293  1  0.599100  0.951300  0.151700  1.0  0.1138
  H  H294  1  0.501100  0.809500  0.420100  1.0  0.1179
  H  H295  1  0.440400  0.782000  0.250800  1.0  0.1248
  H  H296  1  0.574400  0.907700  0.281200  1.0  0.1064
  H  H297  1  0.326000  0.668900  0.238300  1.0  0.1169
  H  H298  1  0.643000  0.998800  0.183000  1.0  0.1296
  H  H299  1  0.476200  0.837100  0.499600  1.0  0.1155
  H  H300  1  0.643200  0.990600  0.390200  1.0  0.1211
  H  H301  1  0.368800  0.707300  0.366100  1.0  0.1295
  H  H302  1  0.399300  0.741800  0.124100  1.0  0.1419
  H  H303  1  0.415800  0.748800  0.327100  1.0  0.1275
  H  H304  1  0.438700  0.881700  0.542400  1.0  0.1437
  H  H305  1  0.605200  0.942200  0.356600  1.0  0.1219
  H  H306  1  0.356800  0.697200  0.161100  1.0  0.135
  H  H307  1  0.476300  0.661100  0.275400  1.0  0.1377
  H  H308  1  0.506100  0.699900  0.141200  1.0  0.1413
  H  H309  1  0.442800  0.605900  0.241600  1.0  0.1314
  H  H310  1  0.438100  0.608700  0.041100  1.0  0.1381
  H  H311  1  0.483500  0.659900  0.075400  1.0  0.1174
  H  H312  1  0.413100  0.569800  0.172900  1.0  0.1271
  H  H313  1  0.382600  0.420400  0.916800  1.0  0.1288
  H  H314  1  0.409400  0.393500  0.839400  1.0  0.1234
  H  H315  1  0.670900  0.533600  0.756400  1.0  0.1317
  H  H316  1  0.449100  0.351300  0.797000  1.0  0.1356
  H  H317  1  0.599100  0.451300  0.651700  1.0  0.1138
  H  H318  1  0.501100  0.309500  0.920100  1.0  0.1179
  H  H319  1  0.440400  0.282000  0.750800  1.0  0.1248
  H  H320  1  0.574400  0.407700  0.781200  1.0  0.1064
  H  H321  1  0.326000  0.168900  0.738300  1.0  0.1169
  H  H322  1  0.643000  0.498800  0.683000  1.0  0.1296
  H  H323  1  0.476200  0.337100  0.999600  1.0  0.1155
  H  H324  1  0.643200  0.490600  0.890200  1.0  0.1211
  H  H325  1  0.368800  0.207300  0.866100  1.0  0.1295
  H  H326  1  0.399300  0.241800  0.624100  1.0  0.1419
  H  H327  1  0.415800  0.248800  0.827100  1.0  0.1275
  H  H328  1  0.438700  0.381700  0.042400  1.0  0.1437
  H  H329  1  0.605200  0.442200  0.856600  1.0  0.1219
  H  H330  1  0.356800  0.197200  0.661100  1.0  0.135
  H  H331  1  0.476300  0.161100  0.775400  1.0  0.1377
  H  H332  1  0.506100  0.199900  0.641200  1.0  0.1413
  H  H333  1  0.442800  0.105900  0.741600  1.0  0.1314
  H  H334  1  0.438100  0.108700  0.541100  1.0  0.1381
  H  H335  1  0.483500  0.159900  0.575400  1.0  0.1174
  H  H336  1  0.413100  0.069800  0.672900  1.0  0.1271
  H  H337  1  0.617400  0.579600  0.916800  1.0  0.1278
  H  H338  1  0.590600  0.606500  0.839400  1.0  0.1233
  H  H339  1  0.329100  0.466400  0.756400  1.0  0.1316
  H  H340  1  0.550900  0.648700  0.797000  1.0  0.1357
  H  H341  1  0.400900  0.548700  0.651700  1.0  0.1145
  H  H342  1  0.498900  0.690500  0.920100  1.0  0.1183
  H  H343  1  0.559600  0.718000  0.750800  1.0  0.1246
  H  H344  1  0.425600  0.592300  0.781200  1.0  0.1059
  H  H345  1  0.674000  0.831100  0.738300  1.0  0.1181
  H  H346  1  0.357000  0.501200  0.683000  1.0  0.1307
  H  H347  1  0.523800  0.662900  0.999600  1.0  0.1154
  H  H348  1  0.356800  0.509400  0.890200  1.0  0.1205
  H  H349  1  0.631200  0.792700  0.866100  1.0  0.1291
  H  H350  1  0.600700  0.758200  0.624100  1.0  0.142
  H  H351  1  0.584200  0.751200  0.827100  1.0  0.1274
  H  H352  1  0.561300  0.618300  0.042400  1.0  0.1439
  H  H353  1  0.394800  0.557800  0.856600  1.0  0.1212
  H  H354  1  0.643200  0.802800  0.661100  1.0  0.1351
  H  H355  1  0.523700  0.838900  0.775400  1.0  0.1391
  H  H356  1  0.493900  0.800100  0.641200  1.0  0.1412
  H  H357  1  0.557200  0.894100  0.741600  1.0  0.1317
  H  H358  1  0.561900  0.891300  0.541100  1.0  0.1377
  H  H359  1  0.516500  0.840100  0.575400  1.0  0.1172
  H  H360  1  0.586900  0.930200  0.672900  1.0  0.1272
  H  H361  1  0.617400  0.079600  0.416800  1.0  0.1278
  H  H362  1  0.590600  0.106500  0.339400  1.0  0.1233
  H  H363  1  0.329100  0.966400  0.256400  1.0  0.1316
  H  H364  1  0.550900  0.148700  0.297000  1.0  0.1357
  H  H365  1  0.400900  0.048700  0.151700  1.0  0.1145
  H  H366  1  0.498900  0.190500  0.420100  1.0  0.1183
  H  H367  1  0.559600  0.218000  0.250800  1.0  0.1246
  H  H368  1  0.425600  0.092300  0.281200  1.0  0.1059
  H  H369  1  0.674000  0.331100  0.238300  1.0  0.1181
  H  H370  1  0.357000  0.001200  0.183000  1.0  0.1307
  H  H371  1  0.523800  0.162900  0.499600  1.0  0.1154
  H  H372  1  0.356800  0.009400  0.390200  1.0  0.1205
  H  H373  1  0.631200  0.292700  0.366100  1.0  0.1291
  H  H374  1  0.600700  0.258200  0.124100  1.0  0.142
  H  H375  1  0.584200  0.251200  0.327100  1.0  0.1274
  H  H376  1  0.561300  0.118300  0.542400  1.0  0.1439
  H  H377  1  0.394800  0.057800  0.356600  1.0  0.1212
  H  H378  1  0.643200  0.302800  0.161100  1.0  0.1351
  H  H379  1  0.523700  0.338900  0.275400  1.0  0.1391
  H  H380  1  0.493900  0.300100  0.141200  1.0  0.1412
  H  H381  1  0.557200  0.394100  0.241600  1.0  0.1317
  H  H382  1  0.561900  0.391300  0.041100  1.0  0.1377
  H  H383  1  0.516500  0.340100  0.075400  1.0  0.1172
  H  H384  1  0.586900  0.430200  0.172900  1.0  0.1272
  H  H385  1  0.117400  0.579600  0.416800  1.0  0.1278
  H  H386  1  0.090600  0.606500  0.339400  1.0  0.1233
  H  H387  1  0.829100  0.466400  0.256400  1.0  0.1316
  H  H388  1  0.050900  0.648700  0.297000  1.0  0.1357
  H  H389  1  0.900900  0.548700  0.151700  1.0  0.1145
  H  H390  1  0.998900  0.690500  0.420100  1.0  0.1183
  H  H391  1  0.059600  0.718000  0.250800  1.0  0.1246
  H  H392  1  0.925600  0.592300  0.281200  1.0  0.1059
  H  H393  1  0.174000  0.831100  0.238300  1.0  0.1181
  H  H394  1  0.857000  0.501200  0.183000  1.0  0.1307
  H  H395  1  0.023800  0.662900  0.499600  1.0  0.1154
  H  H396  1  0.856800  0.509400  0.390200  1.0  0.1205
  H  H397  1  0.131200  0.792700  0.366100  1.0  0.1291
  H  H398  1  0.100700  0.758200  0.124100  1.0  0.142
  H  H399  1  0.084200  0.751200  0.327100  1.0  0.1274
  H  H400  1  0.061300  0.618300  0.542400  1.0  0.1439
  H  H401  1  0.894800  0.557800  0.356600  1.0  0.1212
  H  H402  1  0.143200  0.802800  0.161100  1.0  0.1351
  H  H403  1  0.023700  0.838900  0.275400  1.0  0.1391
  H  H404  1  0.993900  0.800100  0.141200  1.0  0.1412
  H  H405  1  0.057200  0.894100  0.241600  1.0  0.1317
  H  H406  1  0.061900  0.891300  0.041100  1.0  0.1377
  H  H407  1  0.016500  0.840100  0.075400  1.0  0.1172
  H  H408  1  0.086900  0.930200  0.172900  1.0  0.1272
  H  H409  1  0.117400  0.079600  0.916800  1.0  0.1278
  H  H410  1  0.090600  0.106500  0.839400  1.0  0.1233
  H  H411  1  0.829100  0.966400  0.756400  1.0  0.1316
  H  H412  1  0.050900  0.148700  0.797000  1.0  0.1357
  H  H413  1  0.900900  0.048700  0.651700  1.0  0.1145
  H  H414  1  0.998900  0.190500  0.920100  1.0  0.1183
  H  H415  1  0.059600  0.218000  0.750800  1.0  0.1246
  H  H416  1  0.925600  0.092300  0.781200  1.0  0.1059
  H  H417  1  0.174000  0.331100  0.738300  1.0  0.1181
  H  H418  1  0.857000  0.001200  0.683000  1.0  0.1307
  H  H419  1  0.023800  0.162900  0.999600  1.0  0.1154
  H  H420  1  0.856800  0.009400  0.890200  1.0  0.1205
  H  H421  1  0.131200  0.292700  0.866100  1.0  0.1291
  H  H422  1  0.100700  0.258200  0.624100  1.0  0.142
  H  H423  1  0.084200  0.251200  0.827100  1.0  0.1274
  H  H424  1  0.061300  0.118300  0.042400  1.0  0.1439
  H  H425  1  0.894800  0.057800  0.856600  1.0  0.1212
  H  H426  1  0.143200  0.302800  0.661100  1.0  0.1351
  H  H427  1  0.023700  0.338900  0.775400  1.0  0.1391
  H  H428  1  0.993900  0.300100  0.641200  1.0  0.1412
  H  H429  1  0.057200  0.394100  0.741600  1.0  0.1317
  H  H430  1  0.061900  0.391300  0.541100  1.0  0.1377
  H  H431  1  0.016500  0.340100  0.575400  1.0  0.1172
  H  H432  1  0.086900  0.430200  0.672900  1.0  0.1272
  C  C433  1  0.652000  0.345800  0.683100  1.0  -0.0359
  C  C434  1  0.655900  0.343700  0.733400  1.0  -0.0936
  C  C435  1  0.937200  0.200100  0.598400  1.0  0.6805
  C  C436  1  0.677700  0.372600  0.657600  1.0  0.0512
  C  C437  1  0.632200  0.313300  0.761300  1.0  0.7243
  C  C438  1  0.677600  0.373600  0.605900  1.0  -0.1102
  C  C439  1  0.734100  0.422400  0.606000  1.0  -0.1048
  C  C440  1  0.912400  0.232000  0.576200  1.0  -0.0952
  C  C441  1  0.907800  0.234800  0.526300  1.0  -0.0197
  C  C442  1  0.646400  0.512800  0.507800  1.0  0.053
  C  C443  1  0.702000  0.397500  0.580500  1.0  -0.1246
  C  C444  1  0.853900  0.297700  0.434900  1.0  -0.0413
  C  C445  1  0.733300  0.422800  0.653900  1.0  -0.0293
  C  C446  1  0.672800  0.483900  0.435000  1.0  -0.1376
  C  C447  1  0.835200  0.325800  0.464600  1.0  -0.1041
  C  C448  1  0.673000  0.485100  0.483200  1.0  -0.0709
  C  C449  1  0.766100  0.447300  0.577400  1.0  0.7381
  C  C450  1  0.807800  0.358400  0.442400  1.0  0.7142
  C  C451  1  0.706600  0.397400  0.681900  1.0  0.0435
  C  C452  1  0.863200  0.292900  0.535500  1.0  0.0524
  C  C453  1  0.838300  0.323700  0.512200  1.0  -0.0447
  C  C454  1  0.593900  0.564700  0.506300  1.0  -0.0213
  C  C455  1  0.621400  0.539000  0.481500  1.0  0.0546
  C  C456  1  0.879000  0.268600  0.453600  1.0  -0.1087
  C  C457  1  0.592300  0.566600  0.555100  1.0  -0.1586
  C  C458  1  0.699300  0.452800  0.409500  1.0  0.7182
  C  C459  1  0.708400  0.395400  0.733100  1.0  -0.0543
  C  C460  1  0.749000  0.566000  0.460900  1.0  -0.1147
  C  C461  1  0.890900  0.261000  0.606700  1.0  -0.0426
  C  C462  1  0.619400  0.541800  0.582400  1.0  -0.0752
  C  C463  1  0.561800  0.594800  0.579200  1.0  0.6935
  C  C464  1  0.883700  0.265100  0.505300  1.0  0.0588
  C  C465  1  0.774500  0.533600  0.481300  1.0  0.7159
  C  C466  1  0.648400  0.509400  0.407800  1.0  -0.0754
  C  C467  1  0.646700  0.516400  0.559000  1.0  -0.05
  C  C468  1  0.685600  0.369700  0.758900  1.0  -0.0957
  C  C469  1  0.703200  0.628800  0.425800  1.0  0.049
  C  C470  1  0.868300  0.289500  0.586700  1.0  -0.0418
  C  C471  1  0.647100  0.698800  0.330900  1.0  0.688
  C  C472  1  0.623400  0.535900  0.429900  1.0  -0.0791
  C  C473  1  0.726700  0.592800  0.492100  1.0  -0.0732
  C  C474  1  0.744200  0.568500  0.411900  1.0  -0.102
  C  C475  1  0.719900  0.601400  0.393800  1.0  -0.0148
  C  C476  1  0.705300  0.625400  0.471700  1.0  -0.0737
  C  C477  1  0.676300  0.665900  0.356400  1.0  -0.0493
  C  C478  1  0.692700  0.639300  0.324400  1.0  -0.0587
  C  C479  1  0.718300  0.606900  0.345700  1.0  -0.0551
  C  C480  1  0.677600  0.662400  0.403200  1.0  -0.0395
  C  C481  1  0.652000  0.845800  0.183100  1.0  -0.0359
  C  C482  1  0.655900  0.843700  0.233400  1.0  -0.0936
  C  C483  1  0.937200  0.700100  0.098400  1.0  0.6805
  C  C484  1  0.677700  0.872600  0.157600  1.0  0.0512
  C  C485  1  0.632200  0.813300  0.261300  1.0  0.7243
  C  C486  1  0.677600  0.873600  0.105900  1.0  -0.1102
  C  C487  1  0.734100  0.922400  0.106000  1.0  -0.1048
  C  C488  1  0.912400  0.732000  0.076200  1.0  -0.0952
  C  C489  1  0.907800  0.734800  0.026300  1.0  -0.0197
  C  C490  1  0.646400  0.012800  0.007800  1.0  0.053
  C  C491  1  0.702000  0.897500  0.080500  1.0  -0.1246
  C  C492  1  0.853900  0.797700  0.934900  1.0  -0.0413
  C  C493  1  0.733300  0.922800  0.153900  1.0  -0.0293
  C  C494  1  0.672800  0.983900  0.935000  1.0  -0.1376
  C  C495  1  0.835200  0.825800  0.964600  1.0  -0.1041
  C  C496  1  0.673000  0.985100  0.983200  1.0  -0.0709
  C  C497  1  0.766100  0.947300  0.077400  1.0  0.7381
  C  C498  1  0.807800  0.858400  0.942400  1.0  0.7142
  C  C499  1  0.706600  0.897400  0.181900  1.0  0.0435
  C  C500  1  0.863200  0.792900  0.035500  1.0  0.0524
  C  C501  1  0.838300  0.823700  0.012200  1.0  -0.0447
  C  C502  1  0.593900  0.064700  0.006300  1.0  -0.0213
  C  C503  1  0.621400  0.039000  0.981500  1.0  0.0546
  C  C504  1  0.879000  0.768600  0.953600  1.0  -0.1087
  C  C505  1  0.592300  0.066600  0.055100  1.0  -0.1586
  C  C506  1  0.699300  0.952800  0.909500  1.0  0.7182
  C  C507  1  0.708400  0.895400  0.233100  1.0  -0.0543
  C  C508  1  0.749000  0.066000  0.960900  1.0  -0.1147
  C  C509  1  0.890900  0.761000  0.106700  1.0  -0.0426
  C  C510  1  0.619400  0.041800  0.082400  1.0  -0.0752
  C  C511  1  0.561800  0.094800  0.079200  1.0  0.6935
  C  C512  1  0.883700  0.765100  0.005300  1.0  0.0588
  C  C513  1  0.774500  0.033600  0.981300  1.0  0.7159
  C  C514  1  0.648400  0.009400  0.907800  1.0  -0.0754
  C  C515  1  0.646700  0.016400  0.059000  1.0  -0.05
  C  C516  1  0.685600  0.869700  0.258900  1.0  -0.0957
  C  C517  1  0.703200  0.128800  0.925800  1.0  0.049
  C  C518  1  0.868300  0.789500  0.086700  1.0  -0.0418
  C  C519  1  0.647100  0.198800  0.830900  1.0  0.688
  C  C520  1  0.623400  0.035900  0.929900  1.0  -0.0791
  C  C521  1  0.726700  0.092800  0.992100  1.0  -0.0732
  C  C522  1  0.744200  0.068500  0.911900  1.0  -0.102
  C  C523  1  0.719900  0.101400  0.893800  1.0  -0.0148
  C  C524  1  0.705300  0.125400  0.971700  1.0  -0.0737
  C  C525  1  0.676300  0.165900  0.856400  1.0  -0.0493
  C  C526  1  0.692700  0.139300  0.824400  1.0  -0.0587
  C  C527  1  0.718300  0.106900  0.845700  1.0  -0.0551
  C  C528  1  0.677600  0.162400  0.903200  1.0  -0.0395
  C  C529  1  0.152000  0.345800  0.183100  1.0  -0.0359
  C  C530  1  0.155900  0.343700  0.233400  1.0  -0.0936
  C  C531  1  0.437200  0.200100  0.098400  1.0  0.6805
  C  C532  1  0.177700  0.372600  0.157600  1.0  0.0512
  C  C533  1  0.132200  0.313300  0.261300  1.0  0.7243
  C  C534  1  0.177600  0.373600  0.105900  1.0  -0.1102
  C  C535  1  0.234100  0.422400  0.106000  1.0  -0.1048
  C  C536  1  0.412400  0.232000  0.076200  1.0  -0.0952
  C  C537  1  0.407800  0.234800  0.026300  1.0  -0.0197
  C  C538  1  0.146400  0.512800  0.007800  1.0  0.053
  C  C539  1  0.202000  0.397500  0.080500  1.0  -0.1246
  C  C540  1  0.353900  0.297700  0.934900  1.0  -0.0413
  C  C541  1  0.233300  0.422800  0.153900  1.0  -0.0293
  C  C542  1  0.172800  0.483900  0.935000  1.0  -0.1376
  C  C543  1  0.335200  0.325800  0.964600  1.0  -0.1041
  C  C544  1  0.173000  0.485100  0.983200  1.0  -0.0709
  C  C545  1  0.266100  0.447300  0.077400  1.0  0.7381
  C  C546  1  0.307800  0.358400  0.942400  1.0  0.7142
  C  C547  1  0.206600  0.397400  0.181900  1.0  0.0435
  C  C548  1  0.363200  0.292900  0.035500  1.0  0.0524
  C  C549  1  0.338300  0.323700  0.012200  1.0  -0.0447
  C  C550  1  0.093900  0.564700  0.006300  1.0  -0.0213
  C  C551  1  0.121400  0.539000  0.981500  1.0  0.0546
  C  C552  1  0.379000  0.268600  0.953600  1.0  -0.1087
  C  C553  1  0.092300  0.566600  0.055100  1.0  -0.1586
  C  C554  1  0.199300  0.452800  0.909500  1.0  0.7182
  C  C555  1  0.208400  0.395400  0.233100  1.0  -0.0543
  C  C556  1  0.249000  0.566000  0.960900  1.0  -0.1147
  C  C557  1  0.390900  0.261000  0.106700  1.0  -0.0426
  C  C558  1  0.119400  0.541800  0.082400  1.0  -0.0752
  C  C559  1  0.061800  0.594800  0.079200  1.0  0.6935
  C  C560  1  0.383700  0.265100  0.005300  1.0  0.0588
  C  C561  1  0.274500  0.533600  0.981300  1.0  0.7159
  C  C562  1  0.148400  0.509400  0.907800  1.0  -0.0754
  C  C563  1  0.146700  0.516400  0.059000  1.0  -0.05
  C  C564  1  0.185600  0.369700  0.258900  1.0  -0.0957
  C  C565  1  0.203200  0.628800  0.925800  1.0  0.049
  C  C566  1  0.368300  0.289500  0.086700  1.0  -0.0418
  C  C567  1  0.147100  0.698800  0.830900  1.0  0.688
  C  C568  1  0.123400  0.535900  0.929900  1.0  -0.0791
  C  C569  1  0.226700  0.592800  0.992100  1.0  -0.0732
  C  C570  1  0.244200  0.568500  0.911900  1.0  -0.102
  C  C571  1  0.219900  0.601400  0.893800  1.0  -0.0148
  C  C572  1  0.205300  0.625400  0.971700  1.0  -0.0737
  C  C573  1  0.176300  0.665900  0.856400  1.0  -0.0493
  C  C574  1  0.192700  0.639300  0.824400  1.0  -0.0587
  C  C575  1  0.218300  0.606900  0.845700  1.0  -0.0551
  C  C576  1  0.177600  0.662400  0.903200  1.0  -0.0395
  C  C577  1  0.152000  0.845800  0.683100  1.0  -0.0359
  C  C578  1  0.155900  0.843700  0.733400  1.0  -0.0936
  C  C579  1  0.437200  0.700100  0.598400  1.0  0.6805
  C  C580  1  0.177700  0.872600  0.657600  1.0  0.0512
  C  C581  1  0.132200  0.813300  0.761300  1.0  0.7243
  C  C582  1  0.177600  0.873600  0.605900  1.0  -0.1102
  C  C583  1  0.234100  0.922400  0.606000  1.0  -0.1048
  C  C584  1  0.412400  0.732000  0.576200  1.0  -0.0952
  C  C585  1  0.407800  0.734800  0.526300  1.0  -0.0197
  C  C586  1  0.146400  0.012800  0.507800  1.0  0.053
  C  C587  1  0.202000  0.897500  0.580500  1.0  -0.1246
  C  C588  1  0.353900  0.797700  0.434900  1.0  -0.0413
  C  C589  1  0.233300  0.922800  0.653900  1.0  -0.0293
  C  C590  1  0.172800  0.983900  0.435000  1.0  -0.1376
  C  C591  1  0.335200  0.825800  0.464600  1.0  -0.1041
  C  C592  1  0.173000  0.985100  0.483200  1.0  -0.0709
  C  C593  1  0.266100  0.947300  0.577400  1.0  0.7381
  C  C594  1  0.307800  0.858400  0.442400  1.0  0.7142
  C  C595  1  0.206600  0.897400  0.681900  1.0  0.0435
  C  C596  1  0.363200  0.792900  0.535500  1.0  0.0524
  C  C597  1  0.338300  0.823700  0.512200  1.0  -0.0447
  C  C598  1  0.093900  0.064700  0.506300  1.0  -0.0213
  C  C599  1  0.121400  0.039000  0.481500  1.0  0.0546
  C  C600  1  0.379000  0.768600  0.453600  1.0  -0.1087
  C  C601  1  0.092300  0.066600  0.555100  1.0  -0.1586
  C  C602  1  0.199300  0.952800  0.409500  1.0  0.7182
  C  C603  1  0.208400  0.895400  0.733100  1.0  -0.0543
  C  C604  1  0.249000  0.066000  0.460900  1.0  -0.1147
  C  C605  1  0.390900  0.761000  0.606700  1.0  -0.0426
  C  C606  1  0.119400  0.041800  0.582400  1.0  -0.0752
  C  C607  1  0.061800  0.094800  0.579200  1.0  0.6935
  C  C608  1  0.383700  0.765100  0.505300  1.0  0.0588
  C  C609  1  0.274500  0.033600  0.481300  1.0  0.7159
  C  C610  1  0.148400  0.009400  0.407800  1.0  -0.0754
  C  C611  1  0.146700  0.016400  0.559000  1.0  -0.05
  C  C612  1  0.185600  0.869700  0.758900  1.0  -0.0957
  C  C613  1  0.203200  0.128800  0.425800  1.0  0.049
  C  C614  1  0.368300  0.789500  0.586700  1.0  -0.0418
  C  C615  1  0.147100  0.198800  0.330900  1.0  0.688
  C  C616  1  0.123400  0.035900  0.429900  1.0  -0.0791
  C  C617  1  0.226700  0.092800  0.492100  1.0  -0.0732
  C  C618  1  0.244200  0.068500  0.411900  1.0  -0.102
  C  C619  1  0.219900  0.101400  0.393800  1.0  -0.0148
  C  C620  1  0.205300  0.125400  0.471700  1.0  -0.0737
  C  C621  1  0.176300  0.165900  0.356400  1.0  -0.0493
  C  C622  1  0.192700  0.139300  0.324400  1.0  -0.0587
  C  C623  1  0.218300  0.106900  0.345700  1.0  -0.0551
  C  C624  1  0.177600  0.162400  0.403200  1.0  -0.0395
  C  C625  1  0.348000  0.654200  0.683100  1.0  -0.0358
  C  C626  1  0.344100  0.656300  0.733400  1.0  -0.0946
  C  C627  1  0.062800  0.799900  0.598400  1.0  0.68
  C  C628  1  0.322300  0.627400  0.657600  1.0  0.0515
  C  C629  1  0.367800  0.686700  0.761300  1.0  0.7221
  C  C630  1  0.322400  0.626400  0.605900  1.0  -0.1099
  C  C631  1  0.265900  0.577600  0.606000  1.0  -0.1039
  C  C632  1  0.087600  0.768000  0.576200  1.0  -0.0949
  C  C633  1  0.092200  0.765200  0.526300  1.0  -0.0205
  C  C634  1  0.353600  0.487200  0.507800  1.0  0.0529
  C  C635  1  0.298000  0.602500  0.580500  1.0  -0.1233
  C  C636  1  0.146100  0.702300  0.434900  1.0  -0.0425
  C  C637  1  0.266700  0.577200  0.653900  1.0  -0.0297
  C  C638  1  0.327200  0.516100  0.435000  1.0  -0.1373
  C  C639  1  0.164800  0.674200  0.464600  1.0  -0.1016
  C  C640  1  0.327000  0.514900  0.483200  1.0  -0.0714
  C  C641  1  0.233900  0.552700  0.577400  1.0  0.7379
  C  C642  1  0.192200  0.641600  0.442400  1.0  0.715
  C  C643  1  0.293400  0.602600  0.681900  1.0  0.0445
  C  C644  1  0.136800  0.707100  0.535500  1.0  0.0521
  C  C645  1  0.161700  0.676300  0.512200  1.0  -0.0456
  C  C646  1  0.406100  0.435300  0.506300  1.0  -0.0193
  C  C647  1  0.378600  0.461000  0.481500  1.0  0.0529
  C  C648  1  0.121000  0.731400  0.453600  1.0  -0.1099
  C  C649  1  0.407700  0.433400  0.555100  1.0  -0.1595
  C  C650  1  0.300700  0.547200  0.409500  1.0  0.7195
  C  C651  1  0.291600  0.604600  0.733100  1.0  -0.0554
  C  C652  1  0.251000  0.434000  0.460900  1.0  -0.1156
  C  C653  1  0.109100  0.739000  0.606700  1.0  -0.0442
  C  C654  1  0.380600  0.458200  0.582400  1.0  -0.0743
  C  C655  1  0.438200  0.405200  0.579200  1.0  0.6932
  C  C656  1  0.116300  0.734900  0.505300  1.0  0.0591
  C  C657  1  0.225500  0.466400  0.481300  1.0  0.7159
  C  C658  1  0.351600  0.490600  0.407800  1.0  -0.0747
  C  C659  1  0.353300  0.483600  0.559000  1.0  -0.0479
  C  C660  1  0.314400  0.630300  0.758900  1.0  -0.0958
  C  C661  1  0.296800  0.371200  0.425800  1.0  0.0474
  C  C662  1  0.131700  0.710500  0.586700  1.0  -0.043
  C  C663  1  0.352900  0.301200  0.330900  1.0  0.6879
  C  C664  1  0.376600  0.464100  0.429900  1.0  -0.0809
  C  C665  1  0.273300  0.407200  0.492100  1.0  -0.0765
  C  C666  1  0.255800  0.431500  0.411900  1.0  -0.1024
  C  C667  1  0.280100  0.398600  0.393800  1.0  -0.0151
  C  C668  1  0.294700  0.374600  0.471700  1.0  -0.0742
  C  C669  1  0.323700  0.334100  0.356400  1.0  -0.0492
  C  C670  1  0.307300  0.360700  0.324400  1.0  -0.058
  C  C671  1  0.281700  0.393100  0.345700  1.0  -0.0563
  C  C672  1  0.322400  0.337600  0.403200  1.0  -0.0382
  C  C673  1  0.348000  0.154200  0.183100  1.0  -0.0358
  C  C674  1  0.344100  0.156300  0.233400  1.0  -0.0946
  C  C675  1  0.062800  0.299900  0.098400  1.0  0.68
  C  C676  1  0.322300  0.127400  0.157600  1.0  0.0515
  C  C677  1  0.367800  0.186700  0.261300  1.0  0.7221
  C  C678  1  0.322400  0.126400  0.105900  1.0  -0.1099
  C  C679  1  0.265900  0.077600  0.106000  1.0  -0.1039
  C  C680  1  0.087600  0.268000  0.076200  1.0  -0.0949
  C  C681  1  0.092200  0.265200  0.026300  1.0  -0.0205
  C  C682  1  0.353600  0.987200  0.007800  1.0  0.0529
  C  C683  1  0.298000  0.102500  0.080500  1.0  -0.1233
  C  C684  1  0.146100  0.202300  0.934900  1.0  -0.0425
  C  C685  1  0.266700  0.077200  0.153900  1.0  -0.0297
  C  C686  1  0.327200  0.016100  0.935000  1.0  -0.1373
  C  C687  1  0.164800  0.174200  0.964600  1.0  -0.1016
  C  C688  1  0.327000  0.014900  0.983200  1.0  -0.0714
  C  C689  1  0.233900  0.052700  0.077400  1.0  0.7379
  C  C690  1  0.192200  0.141600  0.942400  1.0  0.715
  C  C691  1  0.293400  0.102600  0.181900  1.0  0.0445
  C  C692  1  0.136800  0.207100  0.035500  1.0  0.0521
  C  C693  1  0.161700  0.176300  0.012200  1.0  -0.0456
  C  C694  1  0.406100  0.935300  0.006300  1.0  -0.0193
  C  C695  1  0.378600  0.961000  0.981500  1.0  0.0529
  C  C696  1  0.121000  0.231400  0.953600  1.0  -0.1099
  C  C697  1  0.407700  0.933400  0.055100  1.0  -0.1595
  C  C698  1  0.300700  0.047200  0.909500  1.0  0.7195
  C  C699  1  0.291600  0.104600  0.233100  1.0  -0.0554
  C  C700  1  0.251000  0.934000  0.960900  1.0  -0.1156
  C  C701  1  0.109100  0.239000  0.106700  1.0  -0.0442
  C  C702  1  0.380600  0.958200  0.082400  1.0  -0.0743
  C  C703  1  0.438200  0.905200  0.079200  1.0  0.6932
  C  C704  1  0.116300  0.234900  0.005300  1.0  0.0591
  C  C705  1  0.225500  0.966400  0.981300  1.0  0.7159
  C  C706  1  0.351600  0.990600  0.907800  1.0  -0.0747
  C  C707  1  0.353300  0.983600  0.059000  1.0  -0.0479
  C  C708  1  0.314400  0.130300  0.258900  1.0  -0.0958
  C  C709  1  0.296800  0.871200  0.925800  1.0  0.0474
  C  C710  1  0.131700  0.210500  0.086700  1.0  -0.043
  C  C711  1  0.352900  0.801200  0.830900  1.0  0.6879
  C  C712  1  0.376600  0.964100  0.929900  1.0  -0.0809
  C  C713  1  0.273300  0.907200  0.992100  1.0  -0.0765
  C  C714  1  0.255800  0.931500  0.911900  1.0  -0.1024
  C  C715  1  0.280100  0.898600  0.893800  1.0  -0.0151
  C  C716  1  0.294700  0.874600  0.971700  1.0  -0.0742
  C  C717  1  0.323700  0.834100  0.856400  1.0  -0.0492
  C  C718  1  0.307300  0.860700  0.824400  1.0  -0.058
  C  C719  1  0.281700  0.893100  0.845700  1.0  -0.0563
  C  C720  1  0.322400  0.837600  0.903200  1.0  -0.0382
  C  C721  1  0.848000  0.654200  0.183100  1.0  -0.0358
  C  C722  1  0.844100  0.656300  0.233400  1.0  -0.0946
  C  C723  1  0.562800  0.799900  0.098400  1.0  0.68
  C  C724  1  0.822300  0.627400  0.157600  1.0  0.0515
  C  C725  1  0.867800  0.686700  0.261300  1.0  0.7221
  C  C726  1  0.822400  0.626400  0.105900  1.0  -0.1099
  C  C727  1  0.765900  0.577600  0.106000  1.0  -0.1039
  C  C728  1  0.587600  0.768000  0.076200  1.0  -0.0949
  C  C729  1  0.592200  0.765200  0.026300  1.0  -0.0205
  C  C730  1  0.853600  0.487200  0.007800  1.0  0.0529
  C  C731  1  0.798000  0.602500  0.080500  1.0  -0.1233
  C  C732  1  0.646100  0.702300  0.934900  1.0  -0.0425
  C  C733  1  0.766700  0.577200  0.153900  1.0  -0.0297
  C  C734  1  0.827200  0.516100  0.935000  1.0  -0.1373
  C  C735  1  0.664800  0.674200  0.964600  1.0  -0.1016
  C  C736  1  0.827000  0.514900  0.983200  1.0  -0.0714
  C  C737  1  0.733900  0.552700  0.077400  1.0  0.7379
  C  C738  1  0.692200  0.641600  0.942400  1.0  0.715
  C  C739  1  0.793400  0.602600  0.181900  1.0  0.0445
  C  C740  1  0.636800  0.707100  0.035500  1.0  0.0521
  C  C741  1  0.661700  0.676300  0.012200  1.0  -0.0456
  C  C742  1  0.906100  0.435300  0.006300  1.0  -0.0193
  C  C743  1  0.878600  0.461000  0.981500  1.0  0.0529
  C  C744  1  0.621000  0.731400  0.953600  1.0  -0.1099
  C  C745  1  0.907700  0.433400  0.055100  1.0  -0.1595
  C  C746  1  0.800700  0.547200  0.909500  1.0  0.7195
  C  C747  1  0.791600  0.604600  0.233100  1.0  -0.0554
  C  C748  1  0.751000  0.434000  0.960900  1.0  -0.1156
  C  C749  1  0.609100  0.739000  0.106700  1.0  -0.0442
  C  C750  1  0.880600  0.458200  0.082400  1.0  -0.0743
  C  C751  1  0.938200  0.405200  0.079200  1.0  0.6932
  C  C752  1  0.616300  0.734900  0.005300  1.0  0.0591
  C  C753  1  0.725500  0.466400  0.981300  1.0  0.7159
  C  C754  1  0.851600  0.490600  0.907800  1.0  -0.0747
  C  C755  1  0.853300  0.483600  0.059000  1.0  -0.0479
  C  C756  1  0.814400  0.630300  0.258900  1.0  -0.0958
  C  C757  1  0.796800  0.371200  0.925800  1.0  0.0474
  C  C758  1  0.631700  0.710500  0.086700  1.0  -0.043
  C  C759  1  0.852900  0.301200  0.830900  1.0  0.6879
  C  C760  1  0.876600  0.464100  0.929900  1.0  -0.0809
  C  C761  1  0.773300  0.407200  0.992100  1.0  -0.0765
  C  C762  1  0.755800  0.431500  0.911900  1.0  -0.1024
  C  C763  1  0.780100  0.398600  0.893800  1.0  -0.0151
  C  C764  1  0.794700  0.374600  0.971700  1.0  -0.0742
  C  C765  1  0.823700  0.334100  0.856400  1.0  -0.0492
  C  C766  1  0.807300  0.360700  0.824400  1.0  -0.058
  C  C767  1  0.781700  0.393100  0.845700  1.0  -0.0563
  C  C768  1  0.822400  0.337600  0.903200  1.0  -0.0382
  C  C769  1  0.848000  0.154200  0.683100  1.0  -0.0358
  C  C770  1  0.844100  0.156300  0.733400  1.0  -0.0946
  C  C771  1  0.562800  0.299900  0.598400  1.0  0.68
  C  C772  1  0.822300  0.127400  0.657600  1.0  0.0515
  C  C773  1  0.867800  0.186700  0.761300  1.0  0.7221
  C  C774  1  0.822400  0.126400  0.605900  1.0  -0.1099
  C  C775  1  0.765900  0.077600  0.606000  1.0  -0.1039
  C  C776  1  0.587600  0.268000  0.576200  1.0  -0.0949
  C  C777  1  0.592200  0.265200  0.526300  1.0  -0.0205
  C  C778  1  0.853600  0.987200  0.507800  1.0  0.0529
  C  C779  1  0.798000  0.102500  0.580500  1.0  -0.1233
  C  C780  1  0.646100  0.202300  0.434900  1.0  -0.0425
  C  C781  1  0.766700  0.077200  0.653900  1.0  -0.0297
  C  C782  1  0.827200  0.016100  0.435000  1.0  -0.1373
  C  C783  1  0.664800  0.174200  0.464600  1.0  -0.1016
  C  C784  1  0.827000  0.014900  0.483200  1.0  -0.0714
  C  C785  1  0.733900  0.052700  0.577400  1.0  0.7379
  C  C786  1  0.692200  0.141600  0.442400  1.0  0.715
  C  C787  1  0.793400  0.102600  0.681900  1.0  0.0445
  C  C788  1  0.636800  0.207100  0.535500  1.0  0.0521
  C  C789  1  0.661700  0.176300  0.512200  1.0  -0.0456
  C  C790  1  0.906100  0.935300  0.506300  1.0  -0.0193
  C  C791  1  0.878600  0.961000  0.481500  1.0  0.0529
  C  C792  1  0.621000  0.231400  0.453600  1.0  -0.1099
  C  C793  1  0.907700  0.933400  0.555100  1.0  -0.1595
  C  C794  1  0.800700  0.047200  0.409500  1.0  0.7195
  C  C795  1  0.791600  0.104600  0.733100  1.0  -0.0554
  C  C796  1  0.751000  0.934000  0.460900  1.0  -0.1156
  C  C797  1  0.609100  0.239000  0.606700  1.0  -0.0442
  C  C798  1  0.880600  0.958200  0.582400  1.0  -0.0743
  C  C799  1  0.938200  0.905200  0.579200  1.0  0.6932
  C  C800  1  0.616300  0.234900  0.505300  1.0  0.0591
  C  C801  1  0.725500  0.966400  0.481300  1.0  0.7159
  C  C802  1  0.851600  0.990600  0.407800  1.0  -0.0747
  C  C803  1  0.853300  0.983600  0.559000  1.0  -0.0479
  C  C804  1  0.814400  0.130300  0.758900  1.0  -0.0958
  C  C805  1  0.796800  0.871200  0.425800  1.0  0.0474
  C  C806  1  0.631700  0.210500  0.586700  1.0  -0.043
  C  C807  1  0.852900  0.801200  0.330900  1.0  0.6879
  C  C808  1  0.876600  0.964100  0.429900  1.0  -0.0809
  C  C809  1  0.773300  0.907200  0.492100  1.0  -0.0765
  C  C810  1  0.755800  0.931500  0.411900  1.0  -0.1024
  C  C811  1  0.780100  0.898600  0.393800  1.0  -0.0151
  C  C812  1  0.794700  0.874600  0.471700  1.0  -0.0742
  C  C813  1  0.823700  0.834100  0.356400  1.0  -0.0492
  C  C814  1  0.807300  0.860700  0.324400  1.0  -0.058
  C  C815  1  0.781700  0.893100  0.345700  1.0  -0.0563
  C  C816  1  0.822400  0.837600  0.403200  1.0  -0.0382
  C  C817  1  0.902000  0.904200  0.933100  1.0  -0.0365
  C  C818  1  0.905900  0.906300  0.983400  1.0  -0.0938
  C  C819  1  0.187200  0.049900  0.848400  1.0  0.6807
  C  C820  1  0.927700  0.877400  0.907600  1.0  0.0517
  C  C821  1  0.882200  0.936700  0.011300  1.0  0.7231
  C  C822  1  0.927600  0.876400  0.855900  1.0  -0.1104
  C  C823  1  0.984100  0.827600  0.856000  1.0  -0.1048
  C  C824  1  0.162400  0.018000  0.826200  1.0  -0.0949
  C  C825  1  0.157800  0.015200  0.776300  1.0  -0.0193
  C  C826  1  0.896400  0.737200  0.757800  1.0  0.0525
  C  C827  1  0.952000  0.852500  0.830500  1.0  -0.1234
  C  C828  1  0.103900  0.952300  0.684900  1.0  -0.0425
  C  C829  1  0.983300  0.827200  0.903900  1.0  -0.0291
  C  C830  1  0.922800  0.766100  0.685000  1.0  -0.1376
  C  C831  1  0.085200  0.924200  0.714600  1.0  -0.1041
  C  C832  1  0.923000  0.764900  0.733200  1.0  -0.0729
  C  C833  1  0.016100  0.802700  0.827400  1.0  0.7373
  C  C834  1  0.057800  0.891600  0.692400  1.0  0.7138
  C  C835  1  0.956600  0.852600  0.931900  1.0  0.0436
  C  C836  1  0.113200  0.957100  0.785500  1.0  0.0524
  C  C837  1  0.088300  0.926300  0.762200  1.0  -0.044
  C  C838  1  0.843900  0.685300  0.756300  1.0  -0.0208
  C  C839  1  0.871400  0.711000  0.731500  1.0  0.0547
  C  C840  1  0.129000  0.981400  0.703600  1.0  -0.1099
  C  C841  1  0.842300  0.683400  0.805100  1.0  -0.1597
  C  C842  1  0.949300  0.797200  0.659500  1.0  0.7199
  C  C843  1  0.958400  0.854600  0.983100  1.0  -0.055
  C  C844  1  0.999000  0.684000  0.710900  1.0  -0.1153
  C  C845  1  0.140900  0.989000  0.856700  1.0  -0.0422
  C  C846  1  0.869400  0.708200  0.832400  1.0  -0.0753
  C  C847  1  0.811800  0.655200  0.829200  1.0  0.6935
  C  C848  1  0.133700  0.984900  0.755300  1.0  0.0595
  C  C849  1  0.024500  0.716400  0.731300  1.0  0.7161
  C  C850  1  0.898400  0.740600  0.657800  1.0  -0.0751
  C  C851  1  0.896700  0.733600  0.809000  1.0  -0.0495
  C  C852  1  0.935600  0.880300  0.008900  1.0  -0.0949
  C  C853  1  0.953200  0.621200  0.675800  1.0  0.0476
  C  C854  1  0.118300  0.960500  0.836700  1.0  -0.0418
  C  C855  1  0.897100  0.551200  0.580900  1.0  0.6882
  C  C856  1  0.873400  0.714100  0.679900  1.0  -0.0788
  C  C857  1  0.976700  0.657200  0.742100  1.0  -0.0761
  C  C858  1  0.994200  0.681500  0.661900  1.0  -0.1024
  C  C859  1  0.969900  0.648600  0.643800  1.0  -0.0158
  C  C860  1  0.955300  0.624600  0.721700  1.0  -0.0753
  C  C861  1  0.926300  0.584100  0.606400  1.0  -0.0488
  C  C862  1  0.942700  0.610700  0.574400  1.0  -0.0577
  C  C863  1  0.968300  0.643100  0.595700  1.0  -0.057
  C  C864  1  0.927600  0.587600  0.653200  1.0  -0.038
  C  C865  1  0.902000  0.404200  0.433100  1.0  -0.0365
  C  C866  1  0.905900  0.406300  0.483400  1.0  -0.0938
  C  C867  1  0.187200  0.549900  0.348400  1.0  0.6807
  C  C868  1  0.927700  0.377400  0.407600  1.0  0.0517
  C  C869  1  0.882200  0.436700  0.511300  1.0  0.7231
  C  C870  1  0.927600  0.376400  0.355900  1.0  -0.1104
  C  C871  1  0.984100  0.327600  0.356000  1.0  -0.1048
  C  C872  1  0.162400  0.518000  0.326200  1.0  -0.0949
  C  C873  1  0.157800  0.515200  0.276300  1.0  -0.0193
  C  C874  1  0.896400  0.237200  0.257800  1.0  0.0525
  C  C875  1  0.952000  0.352500  0.330500  1.0  -0.1234
  C  C876  1  0.103900  0.452300  0.184900  1.0  -0.0425
  C  C877  1  0.983300  0.327200  0.403900  1.0  -0.0291
  C  C878  1  0.922800  0.266100  0.185000  1.0  -0.1376
  C  C879  1  0.085200  0.424200  0.214600  1.0  -0.1041
  C  C880  1  0.923000  0.264900  0.233200  1.0  -0.0729
  C  C881  1  0.016100  0.302700  0.327400  1.0  0.7373
  C  C882  1  0.057800  0.391600  0.192400  1.0  0.7138
  C  C883  1  0.956600  0.352600  0.431900  1.0  0.0436
  C  C884  1  0.113200  0.457100  0.285500  1.0  0.0524
  C  C885  1  0.088300  0.426300  0.262200  1.0  -0.044
  C  C886  1  0.843900  0.185300  0.256300  1.0  -0.0208
  C  C887  1  0.871400  0.211000  0.231500  1.0  0.0547
  C  C888  1  0.129000  0.481400  0.203600  1.0  -0.1099
  C  C889  1  0.842300  0.183400  0.305100  1.0  -0.1597
  C  C890  1  0.949300  0.297200  0.159500  1.0  0.7199
  C  C891  1  0.958400  0.354600  0.483100  1.0  -0.055
  C  C892  1  0.999000  0.184000  0.210900  1.0  -0.1153
  C  C893  1  0.140900  0.489000  0.356700  1.0  -0.0422
  C  C894  1  0.869400  0.208200  0.332400  1.0  -0.0753
  C  C895  1  0.811800  0.155200  0.329200  1.0  0.6935
  C  C896  1  0.133700  0.484900  0.255300  1.0  0.0595
  C  C897  1  0.024500  0.216400  0.231300  1.0  0.7161
  C  C898  1  0.898400  0.240600  0.157800  1.0  -0.0751
  C  C899  1  0.896700  0.233600  0.309000  1.0  -0.0495
  C  C900  1  0.935600  0.380300  0.508900  1.0  -0.0949
  C  C901  1  0.953200  0.121200  0.175800  1.0  0.0476
  C  C902  1  0.118300  0.460500  0.336700  1.0  -0.0418
  C  C903  1  0.897100  0.051200  0.080900  1.0  0.6882
  C  C904  1  0.873400  0.214100  0.179900  1.0  -0.0788
  C  C905  1  0.976700  0.157200  0.242100  1.0  -0.0761
  C  C906  1  0.994200  0.181500  0.161900  1.0  -0.1024
  C  C907  1  0.969900  0.148600  0.143800  1.0  -0.0158
  C  C908  1  0.955300  0.124600  0.221700  1.0  -0.0753
  C  C909  1  0.926300  0.084100  0.106400  1.0  -0.0488
  C  C910  1  0.942700  0.110700  0.074400  1.0  -0.0577
  C  C911  1  0.968300  0.143100  0.095700  1.0  -0.057
  C  C912  1  0.927600  0.087600  0.153200  1.0  -0.038
  C  C913  1  0.402000  0.904200  0.433100  1.0  -0.0365
  C  C914  1  0.405900  0.906300  0.483400  1.0  -0.0938
  C  C915  1  0.687200  0.049900  0.348400  1.0  0.6807
  C  C916  1  0.427700  0.877400  0.407600  1.0  0.0517
  C  C917  1  0.382200  0.936700  0.511300  1.0  0.7231
  C  C918  1  0.427600  0.876400  0.355900  1.0  -0.1104
  C  C919  1  0.484100  0.827600  0.356000  1.0  -0.1048
  C  C920  1  0.662400  0.018000  0.326200  1.0  -0.0949
  C  C921  1  0.657800  0.015200  0.276300  1.0  -0.0193
  C  C922  1  0.396400  0.737200  0.257800  1.0  0.0525
  C  C923  1  0.452000  0.852500  0.330500  1.0  -0.1234
  C  C924  1  0.603900  0.952300  0.184900  1.0  -0.0425
  C  C925  1  0.483300  0.827200  0.403900  1.0  -0.0291
  C  C926  1  0.422800  0.766100  0.185000  1.0  -0.1376
  C  C927  1  0.585200  0.924200  0.214600  1.0  -0.1041
  C  C928  1  0.423000  0.764900  0.233200  1.0  -0.0729
  C  C929  1  0.516100  0.802700  0.327400  1.0  0.7373
  C  C930  1  0.557800  0.891600  0.192400  1.0  0.7138
  C  C931  1  0.456600  0.852600  0.431900  1.0  0.0436
  C  C932  1  0.613200  0.957100  0.285500  1.0  0.0524
  C  C933  1  0.588300  0.926300  0.262200  1.0  -0.044
  C  C934  1  0.343900  0.685300  0.256300  1.0  -0.0208
  C  C935  1  0.371400  0.711000  0.231500  1.0  0.0547
  C  C936  1  0.629000  0.981400  0.203600  1.0  -0.1099
  C  C937  1  0.342300  0.683400  0.305100  1.0  -0.1597
  C  C938  1  0.449300  0.797200  0.159500  1.0  0.7199
  C  C939  1  0.458400  0.854600  0.483100  1.0  -0.055
  C  C940  1  0.499000  0.684000  0.210900  1.0  -0.1153
  C  C941  1  0.640900  0.989000  0.356700  1.0  -0.0422
  C  C942  1  0.369400  0.708200  0.332400  1.0  -0.0753
  C  C943  1  0.311800  0.655200  0.329200  1.0  0.6935
  C  C944  1  0.633700  0.984900  0.255300  1.0  0.0595
  C  C945  1  0.524500  0.716400  0.231300  1.0  0.7161
  C  C946  1  0.398400  0.740600  0.157800  1.0  -0.0751
  C  C947  1  0.396700  0.733600  0.309000  1.0  -0.0495
  C  C948  1  0.435600  0.880300  0.508900  1.0  -0.0949
  C  C949  1  0.453200  0.621200  0.175800  1.0  0.0476
  C  C950  1  0.618300  0.960500  0.336700  1.0  -0.0418
  C  C951  1  0.397100  0.551200  0.080900  1.0  0.6882
  C  C952  1  0.373400  0.714100  0.179900  1.0  -0.0788
  C  C953  1  0.476700  0.657200  0.242100  1.0  -0.0761
  C  C954  1  0.494200  0.681500  0.161900  1.0  -0.1024
  C  C955  1  0.469900  0.648600  0.143800  1.0  -0.0158
  C  C956  1  0.455300  0.624600  0.221700  1.0  -0.0753
  C  C957  1  0.426300  0.584100  0.106400  1.0  -0.0488
  C  C958  1  0.442700  0.610700  0.074400  1.0  -0.0577
  C  C959  1  0.468300  0.643100  0.095700  1.0  -0.057
  C  C960  1  0.427600  0.587600  0.153200  1.0  -0.038
  C  C961  1  0.402000  0.404200  0.933100  1.0  -0.0365
  C  C962  1  0.405900  0.406300  0.983400  1.0  -0.0938
  C  C963  1  0.687200  0.549900  0.848400  1.0  0.6807
  C  C964  1  0.427700  0.377400  0.907600  1.0  0.0517
  C  C965  1  0.382200  0.436700  0.011300  1.0  0.7231
  C  C966  1  0.427600  0.376400  0.855900  1.0  -0.1104
  C  C967  1  0.484100  0.327600  0.856000  1.0  -0.1048
  C  C968  1  0.662400  0.518000  0.826200  1.0  -0.0949
  C  C969  1  0.657800  0.515200  0.776300  1.0  -0.0193
  C  C970  1  0.396400  0.237200  0.757800  1.0  0.0525
  C  C971  1  0.452000  0.352500  0.830500  1.0  -0.1234
  C  C972  1  0.603900  0.452300  0.684900  1.0  -0.0425
  C  C973  1  0.483300  0.327200  0.903900  1.0  -0.0291
  C  C974  1  0.422800  0.266100  0.685000  1.0  -0.1376
  C  C975  1  0.585200  0.424200  0.714600  1.0  -0.1041
  C  C976  1  0.423000  0.264900  0.733200  1.0  -0.0729
  C  C977  1  0.516100  0.302700  0.827400  1.0  0.7373
  C  C978  1  0.557800  0.391600  0.692400  1.0  0.7138
  C  C979  1  0.456600  0.352600  0.931900  1.0  0.0436
  C  C980  1  0.613200  0.457100  0.785500  1.0  0.0524
  C  C981  1  0.588300  0.426300  0.762200  1.0  -0.044
  C  C982  1  0.343900  0.185300  0.756300  1.0  -0.0208
  C  C983  1  0.371400  0.211000  0.731500  1.0  0.0547
  C  C984  1  0.629000  0.481400  0.703600  1.0  -0.1099
  C  C985  1  0.342300  0.183400  0.805100  1.0  -0.1597
  C  C986  1  0.449300  0.297200  0.659500  1.0  0.7199
  C  C987  1  0.458400  0.354600  0.983100  1.0  -0.055
  C  C988  1  0.499000  0.184000  0.710900  1.0  -0.1153
  C  C989  1  0.640900  0.489000  0.856700  1.0  -0.0422
  C  C990  1  0.369400  0.208200  0.832400  1.0  -0.0753
  C  C991  1  0.311800  0.155200  0.829200  1.0  0.6935
  C  C992  1  0.633700  0.484900  0.755300  1.0  0.0595
  C  C993  1  0.524500  0.216400  0.731300  1.0  0.7161
  C  C994  1  0.398400  0.240600  0.657800  1.0  -0.0751
  C  C995  1  0.396700  0.233600  0.809000  1.0  -0.0495
  C  C996  1  0.435600  0.380300  0.008900  1.0  -0.0949
  C  C997  1  0.453200  0.121200  0.675800  1.0  0.0476
  C  C998  1  0.618300  0.460500  0.836700  1.0  -0.0418
  C  C999  1  0.397100  0.051200  0.580900  1.0  0.6882
  C  C1000  1  0.373400  0.214100  0.679900  1.0  -0.0788
  C  C1001  1  0.476700  0.157200  0.742100  1.0  -0.0761
  C  C1002  1  0.494200  0.181500  0.661900  1.0  -0.1024
  C  C1003  1  0.469900  0.148600  0.643800  1.0  -0.0158
  C  C1004  1  0.455300  0.124600  0.721700  1.0  -0.0753
  C  C1005  1  0.426300  0.084100  0.606400  1.0  -0.0488
  C  C1006  1  0.442700  0.110700  0.574400  1.0  -0.0577
  C  C1007  1  0.468300  0.143100  0.595700  1.0  -0.057
  C  C1008  1  0.427600  0.087600  0.653200  1.0  -0.038
  C  C1009  1  0.598000  0.595800  0.933100  1.0  -0.0361
  C  C1010  1  0.594100  0.593700  0.983400  1.0  -0.094
  C  C1011  1  0.312800  0.450100  0.848400  1.0  0.6801
  C  C1012  1  0.572300  0.622600  0.907600  1.0  0.0511
  C  C1013  1  0.617800  0.563300  0.011300  1.0  0.7231
  C  C1014  1  0.572400  0.623600  0.855900  1.0  -0.1094
  C  C1015  1  0.515900  0.672400  0.856000  1.0  -0.1039
  C  C1016  1  0.337600  0.482000  0.826200  1.0  -0.0953
  C  C1017  1  0.342200  0.484800  0.776300  1.0  -0.021
  C  C1018  1  0.603600  0.762800  0.757800  1.0  0.0538
  C  C1019  1  0.548000  0.647500  0.830500  1.0  -0.1247
  C  C1020  1  0.396100  0.547700  0.684900  1.0  -0.0418
  C  C1021  1  0.516700  0.672800  0.903900  1.0  -0.031
  C  C1022  1  0.577200  0.733900  0.685000  1.0  -0.138
  C  C1023  1  0.414800  0.575800  0.714600  1.0  -0.1016
  C  C1024  1  0.577000  0.735100  0.733200  1.0  -0.0692
  C  C1025  1  0.483900  0.697300  0.827400  1.0  0.739
  C  C1026  1  0.442200  0.608400  0.692400  1.0  0.7145
  C  C1027  1  0.543400  0.647400  0.931900  1.0  0.0443
  C  C1028  1  0.386800  0.542900  0.785500  1.0  0.0521
  C  C1029  1  0.411700  0.573700  0.762200  1.0  -0.0454
  C  C1030  1  0.656100  0.814700  0.756300  1.0  -0.0197
  C  C1031  1  0.628600  0.789000  0.731500  1.0  0.053
  C  C1032  1  0.371000  0.518600  0.703600  1.0  -0.1096
  C  C1033  1  0.657700  0.816600  0.805100  1.0  -0.1594
  C  C1034  1  0.550700  0.702800  0.659500  1.0  0.7193
  C  C1035  1  0.541600  0.645400  0.983100  1.0  -0.0549
  C  C1036  1  0.501000  0.816000  0.710900  1.0  -0.1142
  C  C1037  1  0.359100  0.511000  0.856700  1.0  -0.0448
  C  C1038  1  0.630600  0.791800  0.832400  1.0  -0.0738
  C  C1039  1  0.688200  0.844800  0.829200  1.0  0.6934
  C  C1040  1  0.366300  0.515100  0.755300  1.0  0.0588
  C  C1041  1  0.475500  0.783600  0.731300  1.0  0.7149
  C  C1042  1  0.601600  0.759400  0.657800  1.0  -0.0753
  C  C1043  1  0.603300  0.766400  0.809000  1.0  -0.0483
  C  C1044  1  0.564400  0.619700  0.008900  1.0  -0.0958
  C  C1045  1  0.546800  0.878800  0.675800  1.0  0.0495
  C  C1046  1  0.381700  0.539500  0.836700  1.0  -0.0419
  C  C1047  1  0.602900  0.948800  0.580900  1.0  0.6877
  C  C1048  1  0.626600  0.785900  0.679900  1.0  -0.0808
  C  C1049  1  0.523300  0.842800  0.742100  1.0  -0.0738
  C  C1050  1  0.505800  0.818500  0.661900  1.0  -0.1018
  C  C1051  1  0.530100  0.851400  0.643800  1.0  -0.014
  C  C1052  1  0.544700  0.875400  0.721700  1.0  -0.0732
  C  C1053  1  0.573700  0.915900  0.606400  1.0  -0.0499
  C  C1054  1  0.557300  0.889300  0.574400  1.0  -0.0591
  C  C1055  1  0.531700  0.856900  0.595700  1.0  -0.0546
  C  C1056  1  0.572400  0.912400  0.653200  1.0  -0.039
  C  C1057  1  0.598000  0.095800  0.433100  1.0  -0.0361
  C  C1058  1  0.594100  0.093700  0.483400  1.0  -0.094
  C  C1059  1  0.312800  0.950100  0.348400  1.0  0.6801
  C  C1060  1  0.572300  0.122600  0.407600  1.0  0.0511
  C  C1061  1  0.617800  0.063300  0.511300  1.0  0.7231
  C  C1062  1  0.572400  0.123600  0.355900  1.0  -0.1094
  C  C1063  1  0.515900  0.172400  0.356000  1.0  -0.1039
  C  C1064  1  0.337600  0.982000  0.326200  1.0  -0.0953
  C  C1065  1  0.342200  0.984800  0.276300  1.0  -0.021
  C  C1066  1  0.603600  0.262800  0.257800  1.0  0.0538
  C  C1067  1  0.548000  0.147500  0.330500  1.0  -0.1247
  C  C1068  1  0.396100  0.047700  0.184900  1.0  -0.0418
  C  C1069  1  0.516700  0.172800  0.403900  1.0  -0.031
  C  C1070  1  0.577200  0.233900  0.185000  1.0  -0.138
  C  C1071  1  0.414800  0.075800  0.214600  1.0  -0.1016
  C  C1072  1  0.577000  0.235100  0.233200  1.0  -0.0692
  C  C1073  1  0.483900  0.197300  0.327400  1.0  0.739
  C  C1074  1  0.442200  0.108400  0.192400  1.0  0.7145
  C  C1075  1  0.543400  0.147400  0.431900  1.0  0.0443
  C  C1076  1  0.386800  0.042900  0.285500  1.0  0.0521
  C  C1077  1  0.411700  0.073700  0.262200  1.0  -0.0454
  C  C1078  1  0.656100  0.314700  0.256300  1.0  -0.0197
  C  C1079  1  0.628600  0.289000  0.231500  1.0  0.053
  C  C1080  1  0.371000  0.018600  0.203600  1.0  -0.1096
  C  C1081  1  0.657700  0.316600  0.305100  1.0  -0.1594
  C  C1082  1  0.550700  0.202800  0.159500  1.0  0.7193
  C  C1083  1  0.541600  0.145400  0.483100  1.0  -0.0549
  C  C1084  1  0.501000  0.316000  0.210900  1.0  -0.1142
  C  C1085  1  0.359100  0.011000  0.356700  1.0  -0.0448
  C  C1086  1  0.630600  0.291800  0.332400  1.0  -0.0738
  C  C1087  1  0.688200  0.344800  0.329200  1.0  0.6934
  C  C1088  1  0.366300  0.015100  0.255300  1.0  0.0588
  C  C1089  1  0.475500  0.283600  0.231300  1.0  0.7149
  C  C1090  1  0.601600  0.259400  0.157800  1.0  -0.0753
  C  C1091  1  0.603300  0.266400  0.309000  1.0  -0.0483
  C  C1092  1  0.564400  0.119700  0.508900  1.0  -0.0958
  C  C1093  1  0.546800  0.378800  0.175800  1.0  0.0495
  C  C1094  1  0.381700  0.039500  0.336700  1.0  -0.0419
  C  C1095  1  0.602900  0.448800  0.080900  1.0  0.6877
  C  C1096  1  0.626600  0.285900  0.179900  1.0  -0.0808
  C  C1097  1  0.523300  0.342800  0.242100  1.0  -0.0738
  C  C1098  1  0.505800  0.318500  0.161900  1.0  -0.1018
  C  C1099  1  0.530100  0.351400  0.143800  1.0  -0.014
  C  C1100  1  0.544700  0.375400  0.221700  1.0  -0.0732
  C  C1101  1  0.573700  0.415900  0.106400  1.0  -0.0499
  C  C1102  1  0.557300  0.389300  0.074400  1.0  -0.0591
  C  C1103  1  0.531700  0.356900  0.095700  1.0  -0.0546
  C  C1104  1  0.572400  0.412400  0.153200  1.0  -0.039
  C  C1105  1  0.098000  0.595800  0.433100  1.0  -0.0361
  C  C1106  1  0.094100  0.593700  0.483400  1.0  -0.094
  C  C1107  1  0.812800  0.450100  0.348400  1.0  0.6801
  C  C1108  1  0.072300  0.622600  0.407600  1.0  0.0511
  C  C1109  1  0.117800  0.563300  0.511300  1.0  0.7231
  C  C1110  1  0.072400  0.623600  0.355900  1.0  -0.1094
  C  C1111  1  0.015900  0.672400  0.356000  1.0  -0.1039
  C  C1112  1  0.837600  0.482000  0.326200  1.0  -0.0953
  C  C1113  1  0.842200  0.484800  0.276300  1.0  -0.021
  C  C1114  1  0.103600  0.762800  0.257800  1.0  0.0538
  C  C1115  1  0.048000  0.647500  0.330500  1.0  -0.1247
  C  C1116  1  0.896100  0.547700  0.184900  1.0  -0.0418
  C  C1117  1  0.016700  0.672800  0.403900  1.0  -0.031
  C  C1118  1  0.077200  0.733900  0.185000  1.0  -0.138
  C  C1119  1  0.914800  0.575800  0.214600  1.0  -0.1016
  C  C1120  1  0.077000  0.735100  0.233200  1.0  -0.0692
  C  C1121  1  0.983900  0.697300  0.327400  1.0  0.739
  C  C1122  1  0.942200  0.608400  0.192400  1.0  0.7145
  C  C1123  1  0.043400  0.647400  0.431900  1.0  0.0443
  C  C1124  1  0.886800  0.542900  0.285500  1.0  0.0521
  C  C1125  1  0.911700  0.573700  0.262200  1.0  -0.0454
  C  C1126  1  0.156100  0.814700  0.256300  1.0  -0.0197
  C  C1127  1  0.128600  0.789000  0.231500  1.0  0.053
  C  C1128  1  0.871000  0.518600  0.203600  1.0  -0.1096
  C  C1129  1  0.157700  0.816600  0.305100  1.0  -0.1594
  C  C1130  1  0.050700  0.702800  0.159500  1.0  0.7193
  C  C1131  1  0.041600  0.645400  0.483100  1.0  -0.0549
  C  C1132  1  0.001000  0.816000  0.210900  1.0  -0.1142
  C  C1133  1  0.859100  0.511000  0.356700  1.0  -0.0448
  C  C1134  1  0.130600  0.791800  0.332400  1.0  -0.0738
  C  C1135  1  0.188200  0.844800  0.329200  1.0  0.6934
  C  C1136  1  0.866300  0.515100  0.255300  1.0  0.0588
  C  C1137  1  0.975500  0.783600  0.231300  1.0  0.7149
  C  C1138  1  0.101600  0.759400  0.157800  1.0  -0.0753
  C  C1139  1  0.103300  0.766400  0.309000  1.0  -0.0483
  C  C1140  1  0.064400  0.619700  0.508900  1.0  -0.0958
  C  C1141  1  0.046800  0.878800  0.175800  1.0  0.0495
  C  C1142  1  0.881700  0.539500  0.336700  1.0  -0.0419
  C  C1143  1  0.102900  0.948800  0.080900  1.0  0.6877
  C  C1144  1  0.126600  0.785900  0.179900  1.0  -0.0808
  C  C1145  1  0.023300  0.842800  0.242100  1.0  -0.0738
  C  C1146  1  0.005800  0.818500  0.161900  1.0  -0.1018
  C  C1147  1  0.030100  0.851400  0.143800  1.0  -0.014
  C  C1148  1  0.044700  0.875400  0.221700  1.0  -0.0732
  C  C1149  1  0.073700  0.915900  0.106400  1.0  -0.0499
  C  C1150  1  0.057300  0.889300  0.074400  1.0  -0.0591
  C  C1151  1  0.031700  0.856900  0.095700  1.0  -0.0546
  C  C1152  1  0.072400  0.912400  0.153200  1.0  -0.039
  C  C1153  1  0.098000  0.095800  0.933100  1.0  -0.0361
  C  C1154  1  0.094100  0.093700  0.983400  1.0  -0.094
  C  C1155  1  0.812800  0.950100  0.848400  1.0  0.6801
  C  C1156  1  0.072300  0.122600  0.907600  1.0  0.0511
  C  C1157  1  0.117800  0.063300  0.011300  1.0  0.7231
  C  C1158  1  0.072400  0.123600  0.855900  1.0  -0.1094
  C  C1159  1  0.015900  0.172400  0.856000  1.0  -0.1039
  C  C1160  1  0.837600  0.982000  0.826200  1.0  -0.0953
  C  C1161  1  0.842200  0.984800  0.776300  1.0  -0.021
  C  C1162  1  0.103600  0.262800  0.757800  1.0  0.0538
  C  C1163  1  0.048000  0.147500  0.830500  1.0  -0.1247
  C  C1164  1  0.896100  0.047700  0.684900  1.0  -0.0418
  C  C1165  1  0.016700  0.172800  0.903900  1.0  -0.031
  C  C1166  1  0.077200  0.233900  0.685000  1.0  -0.138
  C  C1167  1  0.914800  0.075800  0.714600  1.0  -0.1016
  C  C1168  1  0.077000  0.235100  0.733200  1.0  -0.0692
  C  C1169  1  0.983900  0.197300  0.827400  1.0  0.739
  C  C1170  1  0.942200  0.108400  0.692400  1.0  0.7145
  C  C1171  1  0.043400  0.147400  0.931900  1.0  0.0443
  C  C1172  1  0.886800  0.042900  0.785500  1.0  0.0521
  C  C1173  1  0.911700  0.073700  0.762200  1.0  -0.0454
  C  C1174  1  0.156100  0.314700  0.756300  1.0  -0.0197
  C  C1175  1  0.128600  0.289000  0.731500  1.0  0.053
  C  C1176  1  0.871000  0.018600  0.703600  1.0  -0.1096
  C  C1177  1  0.157700  0.316600  0.805100  1.0  -0.1594
  C  C1178  1  0.050700  0.202800  0.659500  1.0  0.7193
  C  C1179  1  0.041600  0.145400  0.983100  1.0  -0.0549
  C  C1180  1  0.001000  0.316000  0.710900  1.0  -0.1142
  C  C1181  1  0.859100  0.011000  0.856700  1.0  -0.0448
  C  C1182  1  0.130600  0.291800  0.832400  1.0  -0.0738
  C  C1183  1  0.188200  0.344800  0.829200  1.0  0.6934
  C  C1184  1  0.866300  0.015100  0.755300  1.0  0.0588
  C  C1185  1  0.975500  0.283600  0.731300  1.0  0.7149
  C  C1186  1  0.101600  0.259400  0.657800  1.0  -0.0753
  C  C1187  1  0.103300  0.266400  0.809000  1.0  -0.0483
  C  C1188  1  0.064400  0.119700  0.008900  1.0  -0.0958
  C  C1189  1  0.046800  0.378800  0.675800  1.0  0.0495
  C  C1190  1  0.881700  0.039500  0.836700  1.0  -0.0419
  C  C1191  1  0.102900  0.448800  0.580900  1.0  0.6877
  C  C1192  1  0.126600  0.285900  0.679900  1.0  -0.0808
  C  C1193  1  0.023300  0.342800  0.742100  1.0  -0.0738
  C  C1194  1  0.005800  0.318500  0.661900  1.0  -0.1018
  C  C1195  1  0.030100  0.351400  0.643800  1.0  -0.014
  C  C1196  1  0.044700  0.375400  0.721700  1.0  -0.0732
  C  C1197  1  0.073700  0.415900  0.606400  1.0  -0.0499
  C  C1198  1  0.057300  0.389300  0.574400  1.0  -0.0591
  C  C1199  1  0.031700  0.356900  0.595700  1.0  -0.0546
  C  C1200  1  0.072400  0.412400  0.653200  1.0  -0.039
  O  O1201  1  0.602880  0.292910  0.738800  1.0  -0.6967
  O  O1202  1  0.726000  0.432600  0.434400  1.0  -0.6782
  O  O1203  1  0.939200  0.197320  0.642700  1.0  -0.6475
  O  O1204  1  0.779100  0.502860  0.457800  1.0  -0.6034
  O  O1205  1  0.794000  0.352410  0.398900  1.0  -0.5885
  O  O1206  1  0.765300  0.444280  0.532600  1.0  -0.6443
  O  O1207  1  0.791100  0.468240  0.601900  1.0  -0.5776
  O  O1208  1  0.641000  0.306400  0.803800  1.0  -0.5752
  O  O1209  1  0.800100  0.387130  0.467700  1.0  -0.6339
  O  O1210  1  0.534500  0.613000  0.554500  1.0  -0.5634
  O  O1211  1  0.958300  0.177300  0.568900  1.0  -0.5807
  O  O1212  1  0.790300  0.539760  0.523600  1.0  -0.6312
  O  O1213  1  0.563200  0.597500  0.625200  1.0  -0.6228
  O  O1214  1  0.694000  0.447100  0.365000  1.0  -0.6646
  O  O1215  1  0.649000  0.705400  0.289400  1.0  -0.5144
  O  O1216  1  0.622400  0.716800  0.361600  1.0  -0.5871
  O  O1217  1  0.602880  0.792910  0.238800  1.0  -0.6967
  O  O1218  1  0.726000  0.932600  0.934400  1.0  -0.6782
  O  O1219  1  0.939200  0.697320  0.142700  1.0  -0.6475
  O  O1220  1  0.779100  0.002860  0.957800  1.0  -0.6034
  O  O1221  1  0.794000  0.852410  0.898900  1.0  -0.5885
  O  O1222  1  0.765300  0.944280  0.032600  1.0  -0.6443
  O  O1223  1  0.791100  0.968240  0.101900  1.0  -0.5776
  O  O1224  1  0.641000  0.806400  0.303800  1.0  -0.5752
  O  O1225  1  0.800100  0.887130  0.967700  1.0  -0.6339
  O  O1226  1  0.534500  0.113000  0.054500  1.0  -0.5634
  O  O1227  1  0.958300  0.677300  0.068900  1.0  -0.5807
  O  O1228  1  0.790300  0.039760  0.023600  1.0  -0.6312
  O  O1229  1  0.563200  0.097500  0.125200  1.0  -0.6228
  O  O1230  1  0.694000  0.947100  0.865000  1.0  -0.6646
  O  O1231  1  0.649000  0.205400  0.789400  1.0  -0.5144
  O  O1232  1  0.622400  0.216800  0.861600  1.0  -0.5871
  O  O1233  1  0.102880  0.292910  0.238800  1.0  -0.6967
  O  O1234  1  0.226000  0.432600  0.934400  1.0  -0.6782
  O  O1235  1  0.439200  0.197320  0.142700  1.0  -0.6475
  O  O1236  1  0.279100  0.502860  0.957800  1.0  -0.6034
  O  O1237  1  0.294000  0.352410  0.898900  1.0  -0.5885
  O  O1238  1  0.265300  0.444280  0.032600  1.0  -0.6443
  O  O1239  1  0.291100  0.468240  0.101900  1.0  -0.5776
  O  O1240  1  0.141000  0.306400  0.303800  1.0  -0.5752
  O  O1241  1  0.300100  0.387130  0.967700  1.0  -0.6339
  O  O1242  1  0.034500  0.613000  0.054500  1.0  -0.5623
  O  O1243  1  0.458300  0.177300  0.068900  1.0  -0.5806
  O  O1244  1  0.290300  0.539760  0.023600  1.0  -0.6312
  O  O1245  1  0.063200  0.597500  0.125200  1.0  -0.6228
  O  O1246  1  0.194000  0.447100  0.865000  1.0  -0.6646
  O  O1247  1  0.149000  0.705400  0.789400  1.0  -0.5144
  O  O1248  1  0.122400  0.716800  0.861600  1.0  -0.5871
  O  O1249  1  0.102880  0.792910  0.738800  1.0  -0.6967
  O  O1250  1  0.226000  0.932600  0.434400  1.0  -0.6782
  O  O1251  1  0.439200  0.697320  0.642700  1.0  -0.6475
  O  O1252  1  0.279100  0.002860  0.457800  1.0  -0.6034
  O  O1253  1  0.294000  0.852410  0.398900  1.0  -0.5885
  O  O1254  1  0.265300  0.944280  0.532600  1.0  -0.6443
  O  O1255  1  0.291100  0.968240  0.601900  1.0  -0.5776
  O  O1256  1  0.141000  0.806400  0.803800  1.0  -0.5752
  O  O1257  1  0.300100  0.887130  0.467700  1.0  -0.6339
  O  O1258  1  0.034500  0.113000  0.554500  1.0  -0.5623
  O  O1259  1  0.458300  0.677300  0.568900  1.0  -0.5806
  O  O1260  1  0.290300  0.039760  0.523600  1.0  -0.6312
  O  O1261  1  0.063200  0.097500  0.625200  1.0  -0.6228
  O  O1262  1  0.194000  0.947100  0.365000  1.0  -0.6646
  O  O1263  1  0.149000  0.205400  0.289400  1.0  -0.5144
  O  O1264  1  0.122400  0.216800  0.361600  1.0  -0.5871
  O  O1265  1  0.397120  0.707090  0.738800  1.0  -0.6976
  O  O1266  1  0.274000  0.567400  0.434400  1.0  -0.6796
  O  O1267  1  0.060800  0.802680  0.642700  1.0  -0.6476
  O  O1268  1  0.220900  0.497140  0.457800  1.0  -0.6031
  O  O1269  1  0.206000  0.647590  0.398900  1.0  -0.5871
  O  O1270  1  0.234700  0.555720  0.532600  1.0  -0.6453
  O  O1271  1  0.208900  0.531760  0.601900  1.0  -0.5783
  O  O1272  1  0.359000  0.693600  0.803800  1.0  -0.5762
  O  O1273  1  0.199900  0.612870  0.467700  1.0  -0.6348
  O  O1274  1  0.465500  0.387000  0.554500  1.0  -0.5632
  O  O1275  1  0.041700  0.822700  0.568900  1.0  -0.5823
  O  O1276  1  0.209700  0.460240  0.523600  1.0  -0.633
  O  O1277  1  0.436800  0.402500  0.625200  1.0  -0.623
  O  O1278  1  0.306000  0.552900  0.365000  1.0  -0.6651
  O  O1279  1  0.351000  0.294600  0.289400  1.0  -0.5143
  O  O1280  1  0.377600  0.283200  0.361600  1.0  -0.586
  O  O1281  1  0.397120  0.207090  0.238800  1.0  -0.6976
  O  O1282  1  0.274000  0.067400  0.934400  1.0  -0.6796
  O  O1283  1  0.060800  0.302680  0.142700  1.0  -0.6476
  O  O1284  1  0.220900  0.997140  0.957800  1.0  -0.6031
  O  O1285  1  0.206000  0.147590  0.898900  1.0  -0.5871
  O  O1286  1  0.234700  0.055720  0.032600  1.0  -0.6453
  O  O1287  1  0.208900  0.031760  0.101900  1.0  -0.5783
  O  O1288  1  0.359000  0.193600  0.303800  1.0  -0.5762
  O  O1289  1  0.199900  0.112870  0.967700  1.0  -0.6348
  O  O1290  1  0.465500  0.887000  0.054500  1.0  -0.5632
  O  O1291  1  0.041700  0.322700  0.068900  1.0  -0.5823
  O  O1292  1  0.209700  0.960240  0.023600  1.0  -0.633
  O  O1293  1  0.436800  0.902500  0.125200  1.0  -0.623
  O  O1294  1  0.306000  0.052900  0.865000  1.0  -0.6651
  O  O1295  1  0.351000  0.794600  0.789400  1.0  -0.5143
  O  O1296  1  0.377600  0.783200  0.861600  1.0  -0.586
  O  O1297  1  0.897120  0.707090  0.238800  1.0  -0.6976
  O  O1298  1  0.774000  0.567400  0.934400  1.0  -0.6796
  O  O1299  1  0.560800  0.802680  0.142700  1.0  -0.6476
  O  O1300  1  0.720900  0.497140  0.957800  1.0  -0.6031
  O  O1301  1  0.706000  0.647590  0.898900  1.0  -0.5871
  O  O1302  1  0.734700  0.555720  0.032600  1.0  -0.6453
  O  O1303  1  0.708900  0.531760  0.101900  1.0  -0.5783
  O  O1304  1  0.859000  0.693600  0.303800  1.0  -0.5762
  O  O1305  1  0.699900  0.612870  0.967700  1.0  -0.6348
  O  O1306  1  0.965500  0.387000  0.054500  1.0  -0.5624
  O  O1307  1  0.541700  0.822700  0.068900  1.0  -0.5818
  O  O1308  1  0.709700  0.460240  0.023600  1.0  -0.633
  O  O1309  1  0.936800  0.402500  0.125200  1.0  -0.623
  O  O1310  1  0.806000  0.552900  0.865000  1.0  -0.6651
  O  O1311  1  0.851000  0.294600  0.789400  1.0  -0.5143
  O  O1312  1  0.877600  0.283200  0.861600  1.0  -0.586
  O  O1313  1  0.897120  0.207090  0.738800  1.0  -0.6976
  O  O1314  1  0.774000  0.067400  0.434400  1.0  -0.6796
  O  O1315  1  0.560800  0.302680  0.642700  1.0  -0.6476
  O  O1316  1  0.720900  0.997140  0.457800  1.0  -0.6031
  O  O1317  1  0.706000  0.147590  0.398900  1.0  -0.5871
  O  O1318  1  0.734700  0.055720  0.532600  1.0  -0.6453
  O  O1319  1  0.708900  0.031760  0.601900  1.0  -0.5783
  O  O1320  1  0.859000  0.193600  0.803800  1.0  -0.5762
  O  O1321  1  0.699900  0.112870  0.467700  1.0  -0.6348
  O  O1322  1  0.965500  0.887000  0.554500  1.0  -0.5624
  O  O1323  1  0.541700  0.322700  0.568900  1.0  -0.5818
  O  O1324  1  0.709700  0.960240  0.523600  1.0  -0.633
  O  O1325  1  0.936800  0.902500  0.625200  1.0  -0.623
  O  O1326  1  0.806000  0.052900  0.365000  1.0  -0.6651
  O  O1327  1  0.851000  0.794600  0.289400  1.0  -0.5143
  O  O1328  1  0.877600  0.783200  0.361600  1.0  -0.586
  O  O1329  1  0.852880  0.957090  0.988800  1.0  -0.6966
  O  O1330  1  0.976000  0.817400  0.684400  1.0  -0.6789
  O  O1331  1  0.189200  0.052680  0.892700  1.0  -0.6473
  O  O1332  1  0.029100  0.747140  0.707800  1.0  -0.6029
  O  O1333  1  0.044000  0.897590  0.648900  1.0  -0.5884
  O  O1334  1  0.015300  0.805720  0.782600  1.0  -0.6449
  O  O1335  1  0.041100  0.781760  0.851900  1.0  -0.5783
  O  O1336  1  0.891000  0.943600  0.053800  1.0  -0.5748
  O  O1337  1  0.050100  0.862870  0.717700  1.0  -0.6343
  O  O1338  1  0.784500  0.637000  0.804500  1.0  -0.5609
  O  O1339  1  0.208300  0.072700  0.818900  1.0  -0.5827
  O  O1340  1  0.040300  0.710240  0.773600  1.0  -0.6325
  O  O1341  1  0.813200  0.652500  0.875200  1.0  -0.6227
  O  O1342  1  0.944000  0.802900  0.615000  1.0  -0.6656
  O  O1343  1  0.899000  0.544600  0.539400  1.0  -0.5144
  O  O1344  1  0.872400  0.533200  0.611600  1.0  -0.5863
  O  O1345  1  0.852880  0.457090  0.488800  1.0  -0.6966
  O  O1346  1  0.976000  0.317400  0.184400  1.0  -0.6789
  O  O1347  1  0.189200  0.552680  0.392700  1.0  -0.6473
  O  O1348  1  0.029100  0.247140  0.207800  1.0  -0.6029
  O  O1349  1  0.044000  0.397590  0.148900  1.0  -0.5884
  O  O1350  1  0.015300  0.305720  0.282600  1.0  -0.6449
  O  O1351  1  0.041100  0.281760  0.351900  1.0  -0.5783
  O  O1352  1  0.891000  0.443600  0.553800  1.0  -0.5748
  O  O1353  1  0.050100  0.362870  0.217700  1.0  -0.6343
  O  O1354  1  0.784500  0.137000  0.304500  1.0  -0.5609
  O  O1355  1  0.208300  0.572700  0.318900  1.0  -0.5827
  O  O1356  1  0.040300  0.210240  0.273600  1.0  -0.6325
  O  O1357  1  0.813200  0.152500  0.375200  1.0  -0.6227
  O  O1358  1  0.944000  0.302900  0.115000  1.0  -0.6656
  O  O1359  1  0.899000  0.044600  0.039400  1.0  -0.5144
  O  O1360  1  0.872400  0.033200  0.111600  1.0  -0.5863
  O  O1361  1  0.352880  0.957090  0.488800  1.0  -0.6966
  O  O1362  1  0.476000  0.817400  0.184400  1.0  -0.6789
  O  O1363  1  0.689200  0.052680  0.392700  1.0  -0.6473
  O  O1364  1  0.529100  0.747140  0.207800  1.0  -0.6029
  O  O1365  1  0.544000  0.897590  0.148900  1.0  -0.5884
  O  O1366  1  0.515300  0.805720  0.282600  1.0  -0.6449
  O  O1367  1  0.541100  0.781760  0.351900  1.0  -0.5783
  O  O1368  1  0.391000  0.943600  0.553800  1.0  -0.5748
  O  O1369  1  0.550100  0.862870  0.217700  1.0  -0.6343
  O  O1370  1  0.284500  0.637000  0.304500  1.0  -0.5594
  O  O1371  1  0.708300  0.072700  0.318900  1.0  -0.5823
  O  O1372  1  0.540300  0.710240  0.273600  1.0  -0.6325
  O  O1373  1  0.313200  0.652500  0.375200  1.0  -0.6227
  O  O1374  1  0.444000  0.802900  0.115000  1.0  -0.6656
  O  O1375  1  0.399000  0.544600  0.039400  1.0  -0.5144
  O  O1376  1  0.372400  0.533200  0.111600  1.0  -0.5863
  O  O1377  1  0.352880  0.457090  0.988800  1.0  -0.6966
  O  O1378  1  0.476000  0.317400  0.684400  1.0  -0.6789
  O  O1379  1  0.689200  0.552680  0.892700  1.0  -0.6473
  O  O1380  1  0.529100  0.247140  0.707800  1.0  -0.6029
  O  O1381  1  0.544000  0.397590  0.648900  1.0  -0.5884
  O  O1382  1  0.515300  0.305720  0.782600  1.0  -0.6449
  O  O1383  1  0.541100  0.281760  0.851900  1.0  -0.5783
  O  O1384  1  0.391000  0.443600  0.053800  1.0  -0.5748
  O  O1385  1  0.550100  0.362870  0.717700  1.0  -0.6343
  O  O1386  1  0.284500  0.137000  0.804500  1.0  -0.5594
  O  O1387  1  0.708300  0.572700  0.818900  1.0  -0.5823
  O  O1388  1  0.540300  0.210240  0.773600  1.0  -0.6325
  O  O1389  1  0.313200  0.152500  0.875200  1.0  -0.6227
  O  O1390  1  0.444000  0.302900  0.615000  1.0  -0.6656
  O  O1391  1  0.399000  0.044600  0.539400  1.0  -0.5144
  O  O1392  1  0.372400  0.033200  0.611600  1.0  -0.5863
  O  O1393  1  0.647120  0.542910  0.988800  1.0  -0.6971
  O  O1394  1  0.524000  0.682600  0.684400  1.0  -0.6791
  O  O1395  1  0.310800  0.447320  0.892700  1.0  -0.6478
  O  O1396  1  0.470900  0.752860  0.707800  1.0  -0.603
  O  O1397  1  0.456000  0.602410  0.648900  1.0  -0.5878
  O  O1398  1  0.484700  0.694280  0.782600  1.0  -0.645
  O  O1399  1  0.458900  0.718240  0.851900  1.0  -0.5774
  O  O1400  1  0.609000  0.556400  0.053800  1.0  -0.5757
  O  O1401  1  0.449900  0.637130  0.717700  1.0  -0.6343
  O  O1402  1  0.715500  0.863000  0.804500  1.0  -0.5619
  O  O1403  1  0.291700  0.427300  0.818900  1.0  -0.58
  O  O1404  1  0.459700  0.789760  0.773600  1.0  -0.6323
  O  O1405  1  0.686800  0.847500  0.875200  1.0  -0.6232
  O  O1406  1  0.556000  0.697100  0.615000  1.0  -0.665
  O  O1407  1  0.601000  0.955400  0.539400  1.0  -0.5145
  O  O1408  1  0.627600  0.966800  0.611600  1.0  -0.5867
  O  O1409  1  0.647120  0.042910  0.488800  1.0  -0.6971
  O  O1410  1  0.524000  0.182600  0.184400  1.0  -0.6791
  O  O1411  1  0.310800  0.947320  0.392700  1.0  -0.6478
  O  O1412  1  0.470900  0.252860  0.207800  1.0  -0.603
  O  O1413  1  0.456000  0.102410  0.148900  1.0  -0.5878
  O  O1414  1  0.484700  0.194280  0.282600  1.0  -0.645
  O  O1415  1  0.458900  0.218240  0.351900  1.0  -0.5774
  O  O1416  1  0.609000  0.056400  0.553800  1.0  -0.5757
  O  O1417  1  0.449900  0.137130  0.217700  1.0  -0.6343
  O  O1418  1  0.715500  0.363000  0.304500  1.0  -0.5619
  O  O1419  1  0.291700  0.927300  0.318900  1.0  -0.58
  O  O1420  1  0.459700  0.289760  0.273600  1.0  -0.6323
  O  O1421  1  0.686800  0.347500  0.375200  1.0  -0.6232
  O  O1422  1  0.556000  0.197100  0.115000  1.0  -0.665
  O  O1423  1  0.601000  0.455400  0.039400  1.0  -0.5145
  O  O1424  1  0.627600  0.466800  0.111600  1.0  -0.5867
  O  O1425  1  0.147120  0.542910  0.488800  1.0  -0.6971
  O  O1426  1  0.024000  0.682600  0.184400  1.0  -0.6791
  O  O1427  1  0.810800  0.447320  0.392700  1.0  -0.6478
  O  O1428  1  0.970900  0.752860  0.207800  1.0  -0.603
  O  O1429  1  0.956000  0.602410  0.148900  1.0  -0.5878
  O  O1430  1  0.984700  0.694280  0.282600  1.0  -0.645
  O  O1431  1  0.958900  0.718240  0.351900  1.0  -0.5774
  O  O1432  1  0.109000  0.556400  0.553800  1.0  -0.5757
  O  O1433  1  0.949900  0.637130  0.217700  1.0  -0.6343
  O  O1434  1  0.215500  0.863000  0.304500  1.0  -0.5604
  O  O1435  1  0.791700  0.427300  0.318900  1.0  -0.5796
  O  O1436  1  0.959700  0.789760  0.273600  1.0  -0.6323
  O  O1437  1  0.186800  0.847500  0.375200  1.0  -0.6232
  O  O1438  1  0.056000  0.697100  0.115000  1.0  -0.665
  O  O1439  1  0.101000  0.955400  0.039400  1.0  -0.5145
  O  O1440  1  0.127600  0.966800  0.111600  1.0  -0.5867
  O  O1441  1  0.147120  0.042910  0.988800  1.0  -0.6971
  O  O1442  1  0.024000  0.182600  0.684400  1.0  -0.6791
  O  O1443  1  0.810800  0.947320  0.892700  1.0  -0.6478
  O  O1444  1  0.970900  0.252860  0.707800  1.0  -0.603
  O  O1445  1  0.956000  0.102410  0.648900  1.0  -0.5878
  O  O1446  1  0.984700  0.194280  0.782600  1.0  -0.645
  O  O1447  1  0.958900  0.218240  0.851900  1.0  -0.5774
  O  O1448  1  0.109000  0.056400  0.053800  1.0  -0.5757
  O  O1449  1  0.949900  0.137130  0.717700  1.0  -0.6343
  O  O1450  1  0.215500  0.363000  0.804500  1.0  -0.5604
  O  O1451  1  0.791700  0.927300  0.818900  1.0  -0.5796
  O  O1452  1  0.959700  0.289760  0.773600  1.0  -0.6323
  O  O1453  1  0.186800  0.347500  0.875200  1.0  -0.6232
  O  O1454  1  0.056000  0.197100  0.615000  1.0  -0.665
  O  O1455  1  0.101000  0.455400  0.539400  1.0  -0.5145
  O  O1456  1  0.127600  0.466800  0.611600  1.0  -0.5867
