# generated using pymatgen
data_Zn5H72C81(N3O2)6
_symmetry_space_group_name_H-M   'P 1'
_cell_length_a   20.37300000
_cell_length_b   23.78840000
_cell_length_c   38.34470000
_cell_angle_alpha   81.53910000
_cell_angle_beta   74.59400000
_cell_angle_gamma   64.64570000
_symmetry_Int_Tables_number   1
_chemical_formula_structural   Zn5H72C81(N3O2)6
_chemical_formula_sum   'Zn20 H288 C324 N72 O48'
_cell_volume   16178.09564358
_cell_formula_units_Z   4
loop_
 _symmetry_equiv_pos_site_id
 _symmetry_equiv_pos_as_xyz
  1  'x, y, z'
loop_
 _atom_site_type_symbol
 _atom_site_label
 _atom_site_symmetry_multiplicity
 _atom_site_fract_x
 _atom_site_fract_y
 _atom_site_fract_z
 _atom_site_occupancy
 _atom_site_charge
  Zn  Zn1  1  0.811340  0.844100  0.860280  1.0  0.9488
  Zn  Zn2  1  0.718800  0.754990  0.842650  1.0  0.773
  Zn  Zn3  1  0.519050  0.842210  0.866230  1.0  0.8998
  Zn  Zn4  1  0.770030  0.724680  0.747780  1.0  0.8968
  Zn  Zn5  1  0.769830  0.609320  0.896960  1.0  0.9428
  Zn  Zn6  1  0.484280  0.344100  0.360280  1.0  0.9533
  Zn  Zn7  1  0.683560  0.254990  0.342650  1.0  0.7723
  Zn  Zn8  1  0.772510  0.342210  0.366230  1.0  0.8969
  Zn  Zn9  1  0.757510  0.224680  0.247780  1.0  0.8982
  Zn  Zn10  1  0.723890  0.109320  0.396960  1.0  0.9429
  Zn  Zn11  1  0.515720  0.655900  0.639720  1.0  0.9519
  Zn  Zn12  1  0.316440  0.745010  0.657350  1.0  0.7741
  Zn  Zn13  1  0.227490  0.657790  0.633770  1.0  0.8977
  Zn  Zn14  1  0.242490  0.775320  0.752220  1.0  0.8991
  Zn  Zn15  1  0.276110  0.890680  0.603040  1.0  0.9469
  Zn  Zn16  1  0.188660  0.155900  0.139720  1.0  0.9504
  Zn  Zn17  1  0.281200  0.245010  0.157350  1.0  0.7737
  Zn  Zn18  1  0.480950  0.157790  0.133770  1.0  0.8989
  Zn  Zn19  1  0.229970  0.275320  0.252220  1.0  0.8965
  Zn  Zn20  1  0.230170  0.390680  0.103040  1.0  0.9465
  H  H21  1  0.742600  0.215500  0.138300  1.0  0.1036
  H  H22  1  0.420900  0.871100  0.797900  1.0  0.1259
  H  H23  1  0.952300  0.424600  0.930400  1.0  0.0999
  H  H24  1  0.915100  0.988400  0.848000  1.0  0.1044
  H  H25  1  0.763600  0.412200  0.926200  1.0  0.1073
  H  H26  1  0.997400  0.796700  0.649900  1.0  0.1279
  H  H27  1  0.010400  0.853700  0.657500  1.0  0.1106
  H  H28  1  0.065400  0.786000  0.665800  1.0  0.1261
  H  H29  1  0.003600  0.321100  0.947300  1.0  0.1337
  H  H30  1  0.461200  0.991400  0.890600  1.0  0.0974
  H  H31  1  0.454100  0.135100  0.914300  1.0  0.1051
  H  H32  1  0.418900  0.119800  0.887200  1.0  0.1409
  H  H33  1  0.407200  0.095200  0.927600  1.0  0.1495
  H  H34  1  0.814700  0.307200  0.941800  1.0  0.1332
  H  H35  1  0.324300  0.736300  0.967500  1.0  0.1375
  H  H36  1  0.349600  0.664300  0.966100  1.0  0.1218
  H  H37  1  0.356800  0.691900  0.998900  1.0  0.1237
  H  H38  1  0.700200  0.990200  0.887200  1.0  0.1205
  H  H39  1  0.173100  0.096800  0.908400  1.0  0.122
  H  H40  1  0.874200  0.107700  0.981300  1.0  0.065
  H  H41  1  0.952400  0.051000  0.979000  1.0  0.0715
  H  H42  1  0.907200  0.771100  0.695900  1.0  0.1244
  H  H43  1  0.960200  0.144900  0.134500  1.0  0.0971
  H  H44  1  0.871800  0.014100  0.971500  1.0  0.1138
  H  H45  1  0.988500  0.129800  0.074200  1.0  0.0992
  H  H46  1  0.864200  0.216700  0.972700  1.0  0.0752
  H  H47  1  0.907800  0.200000  0.932400  1.0  0.0845
  H  H48  1  0.065700  0.141400  0.950400  1.0  0.0718
  H  H49  1  0.041900  0.119600  0.920800  1.0  0.0774
  H  H50  1  0.419200  0.771400  0.926200  1.0  0.0983
  H  H51  1  0.613700  0.581700  0.950700  1.0  0.1251
  H  H52  1  0.038200  0.887800  0.744600  1.0  0.1225
  H  H53  1  0.083800  0.845200  0.711400  1.0  0.1111
  H  H54  1  0.019700  0.910400  0.706400  1.0  0.1212
  H  H55  1  0.946600  0.059600  0.867600  1.0  0.1168
  H  H56  1  0.624400  0.778200  0.701000  1.0  0.1277
  H  H57  1  0.944800  0.866800  0.784200  1.0  0.1271
  H  H58  1  0.768600  0.205900  0.074100  1.0  0.1257
  H  H59  1  0.838600  0.943800  0.951800  1.0  0.1078
  H  H60  1  0.879000  0.376000  0.827800  1.0  0.1345
  H  H61  1  0.830800  0.384000  0.800200  1.0  0.1341
  H  H62  1  0.916500  0.367100  0.786500  1.0  0.1334
  H  H63  1  0.858300  0.477900  0.704300  1.0  0.1332
  H  H64  1  0.916100  0.418100  0.720100  1.0  0.1395
  H  H65  1  0.831200  0.431000  0.730600  1.0  0.1284
  H  H66  1  0.535200  0.541800  0.983400  1.0  0.0883
  H  H67  1  0.460800  0.587700  0.007100  1.0  0.1129
  H  H68  1  0.459300  0.561000  0.972400  1.0  0.1194
  H  H69  1  0.547600  0.141700  0.904900  1.0  0.1077
  H  H70  1  0.617400  0.100400  0.921000  1.0  0.1472
  H  H71  1  0.627500  0.116500  0.879300  1.0  0.1373
  H  H72  1  0.544600  0.805000  0.661000  1.0  0.1302
  H  H73  1  0.468500  0.800600  0.680000  1.0  0.114
  H  H74  1  0.471800  0.865800  0.670000  1.0  0.1232
  H  H75  1  0.335900  0.899000  0.761800  1.0  0.1304
  H  H76  1  0.365600  0.917600  0.721800  1.0  0.1167
  H  H77  1  0.358300  0.853800  0.730600  1.0  0.1219
  H  H78  1  0.044100  0.595400  0.982600  1.0  0.1116
  H  H79  1  0.985900  0.565400  0.994000  1.0  0.1312
  H  H80  1  0.050100  0.543800  0.959200  1.0  0.1346
  H  H81  1  0.933800  0.772500  0.915700  1.0  0.1196
  H  H82  1  0.904800  0.584800  0.941800  1.0  0.1064
  H  H83  1  0.295700  0.038500  0.875900  1.0  0.1101
  H  H84  1  0.160200  0.939300  0.956900  1.0  0.1121
  H  H85  1  0.283500  0.884700  0.927100  1.0  0.0767
  H  H86  1  0.031100  0.737500  0.951500  1.0  0.1263
  H  H87  1  0.019400  0.692000  0.984200  1.0  0.1185
  H  H88  1  0.080900  0.665700  0.949100  1.0  0.1087
  H  H89  1  0.832800  0.572900  0.726100  1.0  0.153
  H  H90  1  0.841500  0.483100  0.848300  1.0  0.0977
  H  H91  1  0.996100  0.095500  0.017700  1.0  0.0682
  H  H92  1  0.989700  0.164500  0.011300  1.0  0.0698
  H  H93  1  0.903600  0.715500  0.638300  1.0  0.1033
  H  H94  1  0.910100  0.371100  0.297900  1.0  0.1267
  H  H95  1  0.692700  0.924600  0.430400  1.0  0.1001
  H  H96  1  0.248500  0.488400  0.348000  1.0  0.105
  H  H97  1  0.898000  0.912200  0.426200  1.0  0.1068
  H  H98  1  0.556000  0.296700  0.149900  1.0  0.1286
  H  H99  1  0.478400  0.353700  0.157500  1.0  0.1138
  H  H100  1  0.482800  0.286000  0.165800  1.0  0.1262
  H  H101  1  0.728000  0.821100  0.447300  1.0  0.1347
  H  H102  1  0.656800  0.491400  0.390600  1.0  0.0959
  H  H103  1  0.496500  0.635100  0.414300  1.0  0.1063
  H  H104  1  0.574100  0.619800  0.387200  1.0  0.1421
  H  H105  1  0.570000  0.595200  0.427600  1.0  0.1504
  H  H106  1  0.936300  0.807200  0.441800  1.0  0.1332
  H  H107  1  0.971900  0.236300  0.467500  1.0  0.1377
  H  H108  1  0.020000  0.164300  0.466100  1.0  0.1214
  H  H109  1  0.952400  0.191900  0.498900  1.0  0.1234
  H  H110  1  0.422400  0.490200  0.387200  1.0  0.1213
  H  H111  1  0.821700  0.596800  0.408400  1.0  0.1234
  H  H112  1  0.036800  0.607700  0.481300  1.0  0.0659
  H  H113  1  0.017600  0.551000  0.479000  1.0  0.0721
  H  H114  1  0.625800  0.271100  0.195900  1.0  0.1242
  H  H115  1  0.760400  0.644900  0.634500  1.0  0.0986
  H  H116  1  0.142600  0.514100  0.471500  1.0  0.1138
  H  H117  1  0.807500  0.629800  0.574200  1.0  0.0989
  H  H118  1  0.946400  0.716700  0.472700  1.0  0.0771
  H  H119  1  0.959800  0.700000  0.432400  1.0  0.0862
  H  H120  1  0.842500  0.641400  0.450400  1.0  0.0702
  H  H121  1  0.917700  0.619600  0.420800  1.0  0.0755
  H  H122  1  0.883200  0.271400  0.426200  1.0  0.0988
  H  H123  1  0.853900  0.081700  0.450700  1.0  0.1252
  H  H124  1  0.329400  0.387800  0.244600  1.0  0.1219
  H  H125  1  0.359600  0.345200  0.211400  1.0  0.1108
  H  H126  1  0.363500  0.410400  0.206400  1.0  0.1224
  H  H127  1  0.126200  0.559600  0.367600  1.0  0.1166
  H  H128  1  0.896400  0.278200  0.201000  1.0  0.1291
  H  H129  1  0.404200  0.366800  0.284200  1.0  0.127
  H  H130  1  0.951400  0.705900  0.574100  1.0  0.125
  H  H131  1  0.265800  0.443800  0.451800  1.0  0.1075
  H  H132  1  0.917200  0.876000  0.327800  1.0  0.1351
  H  H133  1  0.985000  0.884000  0.300200  1.0  0.1351
  H  H134  1  0.929900  0.867100  0.286500  1.0  0.134
  H  H135  1  0.959500  0.977900  0.204300  1.0  0.1312
  H  H136  1  0.945700  0.918100  0.220100  1.0  0.1384
  H  H137  1  0.007200  0.931000  0.230600  1.0  0.1303
  H  H138  1  0.939600  0.041800  0.483400  1.0  0.0888
  H  H139  1  0.944400  0.087700  0.507100  1.0  0.1134
  H  H140  1  0.007300  0.061000  0.472400  1.0  0.1173
  H  H141  1  0.405800  0.641700  0.404900  1.0  0.1081
  H  H142  1  0.361200  0.600400  0.421000  1.0  0.1472
  H  H143  1  0.376700  0.616500  0.379300  1.0  0.1356
  H  H144  1  0.989400  0.305000  0.161000  1.0  0.1284
  H  H145  1  0.050900  0.300600  0.180000  1.0  0.1147
  H  H146  1  0.992400  0.365800  0.170000  1.0  0.1236
  H  H147  1  0.003300  0.399000  0.261800  1.0  0.1298
  H  H148  1  0.995000  0.417600  0.221800  1.0  0.1167
  H  H149  1  0.057300  0.353800  0.230600  1.0  0.1223
  H  H150  1  0.377900  0.095400  0.482600  1.0  0.1122
  H  H151  1  0.454700  0.065400  0.494000  1.0  0.1301
  H  H152  1  0.446900  0.043800  0.459200  1.0  0.1336
  H  H153  1  0.378000  0.272500  0.415700  1.0  0.1195
  H  H154  1  0.568600  0.084800  0.441800  1.0  0.1062
  H  H155  1  0.789900  0.538500  0.375900  1.0  0.1105
  H  H156  1  0.943600  0.439300  0.456900  1.0  0.1133
  H  H157  1  0.904700  0.384700  0.427100  1.0  0.0772
  H  H158  1  0.279900  0.237500  0.451500  1.0  0.1259
  H  H159  1  0.304400  0.192000  0.484200  1.0  0.1172
  H  H160  1  0.304300  0.165700  0.449100  1.0  0.1087
  H  H161  1  0.868200  0.072900  0.226100  1.0  0.1529
  H  H162  1  0.827100  0.983100  0.348300  1.0  0.0973
  H  H163  1  0.890700  0.595500  0.517700  1.0  0.0674
  H  H164  1  0.834500  0.664500  0.511300  1.0  0.0694
  H  H165  1  0.096400  0.284500  0.361700  1.0  0.1024
  H  H166  1  0.089900  0.628900  0.702100  1.0  0.1268
  H  H167  1  0.307300  0.075400  0.569600  1.0  0.1002
  H  H168  1  0.751500  0.511600  0.652000  1.0  0.1056
  H  H169  1  0.102000  0.087800  0.573800  1.0  0.1062
  H  H170  1  0.444000  0.703300  0.850100  1.0  0.1293
  H  H171  1  0.521600  0.646300  0.842500  1.0  0.1122
  H  H172  1  0.517200  0.714000  0.834200  1.0  0.1261
  H  H173  1  0.272000  0.178900  0.552700  1.0  0.1342
  H  H174  1  0.343200  0.508600  0.609400  1.0  0.0968
  H  H175  1  0.503500  0.364900  0.585700  1.0  0.1061
  H  H176  1  0.425900  0.380200  0.612800  1.0  0.1406
  H  H177  1  0.430000  0.404800  0.572400  1.0  0.1503
  H  H178  1  0.063700  0.192800  0.558200  1.0  0.1327
  H  H179  1  0.028100  0.763700  0.532500  1.0  0.1382
  H  H180  1  0.980000  0.835700  0.533900  1.0  0.1214
  H  H181  1  0.047600  0.808100  0.501100  1.0  0.1234
  H  H182  1  0.577600  0.509800  0.612800  1.0  0.1204
  H  H183  1  0.178300  0.403200  0.591600  1.0  0.123
  H  H184  1  0.963200  0.392300  0.518700  1.0  0.0676
  H  H185  1  0.982400  0.449000  0.521000  1.0  0.0711
  H  H186  1  0.374200  0.728900  0.804100  1.0  0.1234
  H  H187  1  0.239600  0.355100  0.365500  1.0  0.0983
  H  H188  1  0.857400  0.485900  0.528500  1.0  0.1138
  H  H189  1  0.192500  0.370200  0.425800  1.0  0.0992
  H  H190  1  0.053600  0.283300  0.527300  1.0  0.0777
  H  H191  1  0.040200  0.300000  0.567600  1.0  0.0848
  H  H192  1  0.157500  0.358600  0.549600  1.0  0.0713
  H  H193  1  0.082300  0.380400  0.579200  1.0  0.0757
  H  H194  1  0.116800  0.728600  0.573800  1.0  0.0997
  H  H195  1  0.146100  0.918300  0.549300  1.0  0.125
  H  H196  1  0.670600  0.612200  0.755400  1.0  0.1225
  H  H197  1  0.640400  0.654800  0.788600  1.0  0.1103
  H  H198  1  0.636500  0.589600  0.793600  1.0  0.1207
  H  H199  1  0.873800  0.440400  0.632400  1.0  0.1173
  H  H200  1  0.103600  0.721800  0.799000  1.0  0.1275
  H  H201  1  0.595800  0.633200  0.715800  1.0  0.1268
  H  H202  1  0.048600  0.294100  0.425900  1.0  0.1248
  H  H203  1  0.734200  0.556200  0.548200  1.0  0.1082
  H  H204  1  0.082800  0.124000  0.672200  1.0  0.1356
  H  H205  1  0.015000  0.116000  0.699800  1.0  0.1346
  H  H206  1  0.070100  0.132900  0.713500  1.0  0.1345
  H  H207  1  0.040500  0.022100  0.795700  1.0  0.1338
  H  H208  1  0.054300  0.081900  0.779900  1.0  0.1387
  H  H209  1  0.992800  0.069000  0.769400  1.0  0.1278
  H  H210  1  0.060400  0.958200  0.516600  1.0  0.0883
  H  H211  1  0.055600  0.912300  0.492900  1.0  0.1134
  H  H212  1  0.992700  0.939000  0.527600  1.0  0.1187
  H  H213  1  0.594200  0.358300  0.595100  1.0  0.1087
  H  H214  1  0.638800  0.399600  0.579000  1.0  0.1505
  H  H215  1  0.623300  0.383500  0.620700  1.0  0.1359
  H  H216  1  0.010600  0.695000  0.839000  1.0  0.1271
  H  H217  1  0.949100  0.699400  0.820000  1.0  0.1152
  H  H218  1  0.007600  0.634200  0.830000  1.0  0.125
  H  H219  1  0.996700  0.601000  0.738200  1.0  0.1289
  H  H220  1  0.005000  0.582400  0.778200  1.0  0.1155
  H  H221  1  0.942700  0.646200  0.769400  1.0  0.1232
  H  H222  1  0.622100  0.904600  0.517400  1.0  0.1151
  H  H223  1  0.545300  0.934600  0.506000  1.0  0.1297
  H  H224  1  0.553100  0.956200  0.540800  1.0  0.1343
  H  H225  1  0.622000  0.727500  0.584300  1.0  0.1188
  H  H226  1  0.431400  0.915200  0.558200  1.0  0.1065
  H  H227  1  0.210100  0.461500  0.624100  1.0  0.111
  H  H228  1  0.056400  0.560700  0.543100  1.0  0.1129
  H  H229  1  0.095300  0.615300  0.572900  1.0  0.0771
  H  H230  1  0.720100  0.762500  0.548500  1.0  0.1262
  H  H231  1  0.695600  0.808000  0.515800  1.0  0.1172
  H  H232  1  0.695700  0.834300  0.550900  1.0  0.1079
  H  H233  1  0.131800  0.927100  0.773900  1.0  0.1521
  H  H234  1  0.172900  0.016900  0.651700  1.0  0.0972
  H  H235  1  0.109300  0.404500  0.482300  1.0  0.0675
  H  H236  1  0.165500  0.335500  0.488700  1.0  0.069
  H  H237  1  0.257400  0.784500  0.861700  1.0  0.104
  H  H238  1  0.579100  0.128900  0.202100  1.0  0.1265
  H  H239  1  0.047700  0.575400  0.069600  1.0  0.0995
  H  H240  1  0.084900  0.011600  0.152000  1.0  0.1051
  H  H241  1  0.236400  0.587800  0.073800  1.0  0.1079
  H  H242  1  0.002600  0.203300  0.350100  1.0  0.1277
  H  H243  1  0.989600  0.146300  0.342500  1.0  0.1098
  H  H244  1  0.934600  0.214000  0.334200  1.0  0.1274
  H  H245  1  0.996400  0.678900  0.052700  1.0  0.1335
  H  H246  1  0.538800  0.008600  0.109400  1.0  0.0967
  H  H247  1  0.545900  0.864900  0.085700  1.0  0.1048
  H  H248  1  0.581100  0.880200  0.112800  1.0  0.1413
  H  H249  1  0.592800  0.904800  0.072400  1.0  0.152
  H  H250  1  0.185300  0.692800  0.058200  1.0  0.1331
  H  H251  1  0.675700  0.263700  0.032500  1.0  0.1376
  H  H252  1  0.650400  0.335700  0.033900  1.0  0.1207
  H  H253  1  0.643200  0.308100  0.001100  1.0  0.1245
  H  H254  1  0.299800  0.009800  0.112800  1.0  0.1209
  H  H255  1  0.826900  0.903200  0.091600  1.0  0.1226
  H  H256  1  0.125800  0.892300  0.018700  1.0  0.0646
  H  H257  1  0.047600  0.949000  0.021000  1.0  0.0708
  H  H258  1  0.092800  0.228900  0.304100  1.0  0.1244
  H  H259  1  0.039800  0.855100  0.865500  1.0  0.0967
  H  H260  1  0.128200  0.985900  0.028500  1.0  0.1146
  H  H261  1  0.011500  0.870200  0.925800  1.0  0.0989
  H  H262  1  0.135800  0.783300  0.027300  1.0  0.0752
  H  H263  1  0.092200  0.800000  0.067600  1.0  0.0845
  H  H264  1  0.934300  0.858600  0.049600  1.0  0.0705
  H  H265  1  0.958100  0.880400  0.079200  1.0  0.0771
  H  H266  1  0.580800  0.228600  0.073800  1.0  0.0996
  H  H267  1  0.386300  0.418300  0.049300  1.0  0.1259
  H  H268  1  0.961800  0.112200  0.255400  1.0  0.1231
  H  H269  1  0.916200  0.154800  0.288600  1.0  0.1117
  H  H270  1  0.980300  0.089600  0.293600  1.0  0.1202
  H  H271  1  0.053400  0.940400  0.132400  1.0  0.1177
  H  H272  1  0.375600  0.221800  0.299000  1.0  0.1282
  H  H273  1  0.055200  0.133200  0.215800  1.0  0.1274
  H  H274  1  0.231400  0.794100  0.925900  1.0  0.1258
  H  H275  1  0.161400  0.056200  0.048200  1.0  0.1072
  H  H276  1  0.121000  0.624000  0.172200  1.0  0.1355
  H  H277  1  0.169200  0.616000  0.199800  1.0  0.1358
  H  H278  1  0.083500  0.632900  0.213500  1.0  0.1326
  H  H279  1  0.141700  0.522100  0.295700  1.0  0.1341
  H  H280  1  0.083900  0.581900  0.279900  1.0  0.1375
  H  H281  1  0.168800  0.569000  0.269400  1.0  0.1231
  H  H282  1  0.464800  0.458200  0.016600  1.0  0.0887
  H  H283  1  0.539200  0.412300  0.992900  1.0  0.1129
  H  H284  1  0.540700  0.439000  0.027600  1.0  0.12
  H  H285  1  0.452400  0.858300  0.095100  1.0  0.1086
  H  H286  1  0.382600  0.899600  0.079000  1.0  0.1486
  H  H287  1  0.372500  0.883500  0.120700  1.0  0.1367
  H  H288  1  0.455400  0.195000  0.339000  1.0  0.1291
  H  H289  1  0.531500  0.199400  0.320000  1.0  0.1145
  H  H290  1  0.528200  0.134200  0.330000  1.0  0.1239
  H  H291  1  0.664100  0.101000  0.238200  1.0  0.1296
  H  H292  1  0.634400  0.082400  0.278200  1.0  0.1149
  H  H293  1  0.641700  0.146200  0.269400  1.0  0.1225
  H  H294  1  0.955900  0.404600  0.017400  1.0  0.1136
  H  H295  1  0.014100  0.434600  0.006000  1.0  0.1303
  H  H296  1  0.949900  0.456200  0.040800  1.0  0.1346
  H  H297  1  0.066200  0.227500  0.084300  1.0  0.1191
  H  H298  1  0.095200  0.415200  0.058200  1.0  0.1057
  H  H299  1  0.704300  0.961500  0.124100  1.0  0.1104
  H  H300  1  0.839800  0.060700  0.043100  1.0  0.1105
  H  H301  1  0.716500  0.115300  0.072900  1.0  0.0766
  H  H302  1  0.968900  0.262500  0.048500  1.0  0.1271
  H  H303  1  0.980600  0.308000  0.015800  1.0  0.1182
  H  H304  1  0.919100  0.334300  0.050900  1.0  0.1081
  H  H305  1  0.167200  0.427100  0.273900  1.0  0.1541
  H  H306  1  0.158500  0.516900  0.151700  1.0  0.0972
  H  H307  1  0.003900  0.904500  0.982300  1.0  0.0681
  H  H308  1  0.010300  0.835500  0.988700  1.0  0.0694
  C  C309  1  0.791760  0.199810  0.125070  1.0  -0.0435
  C  C310  1  0.460860  0.853050  0.778630  1.0  -0.0854
  C  C311  1  0.925190  0.400630  0.932790  1.0  -0.0347
  C  C312  1  0.302380  0.955130  0.900310  1.0  -0.1617
  C  C313  1  0.905620  0.994140  0.872620  1.0  -0.0335
  C  C314  1  0.811700  0.393400  0.930000  1.0  -0.0384
  C  C315  1  0.014320  0.812580  0.665780  1.0  -0.3934
  C  C316  1  0.956120  0.339380  0.942780  1.0  -0.2582
  C  C317  1  0.440200  0.689200  0.952800  1.0  0.0583
  C  C318  1  0.506800  0.991990  0.890010  1.0  -0.0761
  C  C319  1  0.441540  0.104320  0.907600  1.0  -0.3824
  C  C320  1  0.841430  0.331390  0.939550  1.0  -0.1769
  C  C321  1  0.645020  0.938720  0.879640  1.0  0.1641
  C  C322  1  0.360000  0.696080  0.973320  1.0  -0.3774
  C  C323  1  0.654030  0.991140  0.887200  1.0  -0.1044
  C  C324  1  0.195590  0.053850  0.912170  1.0  -0.144
  C  C325  1  0.910570  0.044080  0.921980  1.0  0.2671
  C  C326  1  0.156310  0.022240  0.937140  1.0  0.2363
  C  C327  1  0.533940  0.721830  0.913890  1.0  0.0195
  C  C328  1  0.926110  0.091340  0.968300  1.0  0.0586
  C  C329  1  0.914050  0.790150  0.713350  1.0  -0.0581
  C  C330  1  0.921650  0.156990  0.122710  1.0  -0.0308
  C  C331  1  0.962200  0.136860  0.969540  1.0  -0.0322
  C  C332  1  0.872080  0.960160  0.898080  1.0  -0.1222
  C  C333  1  0.577210  0.939490  0.881290  1.0  0.1079
  C  C334  1  0.879630  0.009430  0.946910  1.0  -0.2709
  C  C335  1  0.938740  0.147920  0.086400  1.0  -0.1854
  C  C336  1  0.913340  0.201520  0.956600  1.0  0.0837
  C  C337  1  0.914170  0.305120  0.945940  1.0  0.2319
  C  C338  1  0.042450  0.115690  0.946250  1.0  0.0699
  C  C339  1  0.457180  0.733410  0.930630  1.0  -0.0958
  C  C340  1  0.965440  0.814850  0.704870  1.0  0.0496
  C  C341  1  0.883160  0.165300  0.067580  1.0  0.2332
  C  C342  1  0.576360  0.618680  0.944600  1.0  -0.0859
  C  C343  1  0.884060  0.822640  0.775040  1.0  0.0675
  C  C344  1  0.035420  0.874930  0.722630  1.0  -0.3215
  C  C345  1  0.924720  0.036470  0.884290  1.0  -0.2268
  C  C346  1  0.584540  0.796660  0.720260  1.0  -0.0659
  C  C347  1  0.871180  0.793930  0.749110  1.0  0.1059
  C  C348  1  0.937530  0.848260  0.766680  1.0  -0.128
  C  C349  1  0.826280  0.192630  0.182810  1.0  0.6729
  C  C350  1  0.806970  0.192850  0.086210  1.0  -0.1257
  C  C351  1  0.859850  0.967280  0.935020  1.0  -0.0091
  C  C352  1  0.848430  0.183770  0.142570  1.0  -0.1156
  C  C353  1  0.534270  0.825690  0.782970  1.0  0.1232
  C  C354  1  0.595940  0.797240  0.754880  1.0  0.1304
  C  C355  1  0.872130  0.390140  0.803800  1.0  -0.3915
  C  C356  1  0.866200  0.449880  0.725120  1.0  -0.3424
  C  C357  1  0.978490  0.844510  0.731510  1.0  0.0085
  C  C358  1  0.854090  0.489420  0.760400  1.0  -0.1424
  C  C359  1  0.855200  0.463400  0.798400  1.0  -0.0083
  C  C360  1  0.853780  0.428690  0.925950  1.0  -0.1377
  C  C361  1  0.498400  0.632790  0.959010  1.0  -0.0496
  C  C362  1  0.487400  0.574900  0.982900  1.0  -0.314
  C  C363  1  0.514900  0.042700  0.897300  1.0  0.0609
  C  C364  1  0.586300  0.045200  0.894800  1.0  -0.0554
  C  C365  1  0.595690  0.107220  0.900600  1.0  -0.3939
  C  C366  1  0.449930  0.852440  0.744700  1.0  0.0539
  C  C367  1  0.513350  0.824030  0.716070  1.0  -0.0303
  C  C368  1  0.498030  0.823880  0.678060  1.0  -0.3852
  C  C369  1  0.369970  0.883630  0.739230  1.0  -0.3922
  C  C370  1  0.817150  0.561600  0.816100  1.0  0.2219
  C  C371  1  0.814860  0.588810  0.781870  1.0  0.1085
  C  C372  1  0.016310  0.578710  0.973870  1.0  -0.3613
  C  C373  1  0.929480  0.734630  0.920610  1.0  -0.0448
  C  C374  1  0.973080  0.688130  0.941910  1.0  0.0147
  C  C375  1  0.963870  0.631730  0.949930  1.0  -0.0357
  C  C376  1  0.911500  0.621650  0.936150  1.0  -0.0536
  C  C377  1  0.269590  0.019000  0.893020  1.0  -0.0591
  C  C378  1  0.187020  0.960320  0.941840  1.0  -0.2358
  C  C379  1  0.261550  0.927660  0.923240  1.0  -0.0024
  C  C380  1  0.818490  0.497280  0.915940  1.0  0.6532
  C  C381  1  0.031880  0.696750  0.958290  1.0  -0.3714
  C  C382  1  0.384390  0.915000  0.883020  1.0  0.6625
  C  C383  1  0.833570  0.555610  0.749450  1.0  -0.0488
  C  C384  1  0.838760  0.499110  0.824770  1.0  -0.083
  C  C385  1  0.966660  0.137170  0.009390  1.0  0.0818
  C  C386  1  0.592780  0.665550  0.920090  1.0  0.0485
  C  C387  1  0.870090  0.668370  0.913850  1.0  0.1646
  C  C388  1  0.879870  0.723320  0.906940  1.0  0.1422
  C  C389  1  0.851760  0.911480  0.885600  1.0  0.6228
  C  C390  1  0.883360  0.699810  0.625070  1.0  -0.0448
  C  C391  1  0.907460  0.353050  0.278630  1.0  -0.0846
  C  C392  1  0.741390  0.900630  0.432790  1.0  -0.0351
  C  C393  1  0.842180  0.455130  0.400310  1.0  -0.1634
  C  C394  1  0.227620  0.494140  0.372620  1.0  -0.0341
  C  C395  1  0.864900  0.893400  0.430000  1.0  -0.0377
  C  C396  1  0.507320  0.312580  0.165780  1.0  -0.3959
  C  C397  1  0.761720  0.839380  0.442780  1.0  -0.2597
  C  C398  1  0.917800  0.189200  0.452800  1.0  0.0603
  C  C399  1  0.611200  0.491990  0.390010  1.0  -0.0741
  C  C400  1  0.546540  0.604320  0.407600  1.0  -0.3838
  C  C401  1  0.887630  0.831390  0.439550  1.0  -0.1786
  C  C402  1  0.536620  0.438720  0.379640  1.0  0.163
  C  C403  1  0.970600  0.196080  0.473320  1.0  -0.3746
  C  C404  1  0.467630  0.491140  0.387200  1.0  -0.1074
  C  C405  1  0.838390  0.553850  0.412170  1.0  -0.1468
  C  C406  1  0.123370  0.544080  0.421980  1.0  0.2694
  C  C407  1  0.884310  0.522240  0.437140  1.0  0.2354
  C  C408  1  0.830340  0.221830  0.413890  1.0  0.02
  C  C409  1  0.014250  0.591340  0.468300  1.0  0.0494
  C  C410  1  0.582450  0.290150  0.213350  1.0  -0.0553
  C  C411  1  0.798650  0.656990  0.622710  1.0  -0.0328
  C  C412  1  0.931400  0.636860  0.469540  1.0  -0.0322
  C  C413  1  0.269680  0.460160  0.398080  1.0  -0.122
  C  C414  1  0.602010  0.439490  0.381290  1.0  0.1094
  C  C415  1  0.164030  0.509430  0.446910  1.0  -0.2705
  C  C416  1  0.826940  0.647920  0.586400  1.0  -0.1818
  C  C417  1  0.928540  0.701520  0.456600  1.0  0.0855
  C  C418  1  0.834770  0.805120  0.445940  1.0  0.2326
  C  C419  1  0.895610  0.615690  0.446250  1.0  0.0684
  C  C420  1  0.878780  0.233410  0.430630  1.0  -0.0947
  C  C421  1  0.514840  0.314850  0.204870  1.0  0.0545
  C  C422  1  0.883960  0.665300  0.567580  1.0  0.2339
  C  C423  1  0.860360  0.118680  0.444600  1.0  -0.0878
  C  C424  1  0.518260  0.322640  0.275040  1.0  0.0642
  C  C425  1  0.367020  0.374930  0.222630  1.0  -0.3201
  C  C426  1  0.154520  0.536470  0.384290  1.0  -0.2256
  C  C427  1  0.898540  0.296660  0.220260  1.0  -0.0684
  C  C428  1  0.585780  0.293930  0.249110  1.0  0.1045
  C  C429  1  0.447530  0.348260  0.266680  1.0  -0.1274
  C  C430  1  0.798280  0.692630  0.682810  1.0  0.6738
  C  C431  1  0.913970  0.692850  0.586210  1.0  -0.1266
  C  C432  1  0.237850  0.467280  0.435020  1.0  -0.0088
  C  C433  1  0.825230  0.683770  0.642570  1.0  -0.1169
  C  C434  1  0.857070  0.325690  0.282970  1.0  0.1232
  C  C435  1  0.851940  0.297240  0.254880  1.0  0.131
  C  C436  1  0.933930  0.890140  0.303800  1.0  -0.3912
  C  C437  1  0.958800  0.949880  0.225120  1.0  -0.338
  C  C438  1  0.445490  0.344510  0.231510  1.0  0.0105
  C  C439  1  0.896090  0.989420  0.260400  1.0  -0.1434
  C  C440  1  0.883000  0.963400  0.298400  1.0  -0.0069
  C  C441  1  0.791580  0.928690  0.425950  1.0  -0.1375
  C  C442  1  0.909800  0.132790  0.459010  1.0  -0.049
  C  C443  1  0.954800  0.074900  0.482900  1.0  -0.3131
  C  C444  1  0.545100  0.542700  0.397300  1.0  0.0615
  C  C445  1  0.473700  0.545200  0.394800  1.0  -0.0553
  C  C446  1  0.396490  0.607220  0.400600  1.0  -0.3914
  C  C447  1  0.952930  0.352440  0.244700  1.0  0.0527
  C  C448  1  0.946550  0.324030  0.216070  1.0  -0.0342
  C  C449  1  0.000030  0.323880  0.178060  1.0  -0.382
  C  C450  1  0.007170  0.383630  0.239230  1.0  -0.3925
  C  C451  1  0.805150  0.061600  0.316100  1.0  0.2213
  C  C452  1  0.814460  0.088810  0.281870  1.0  0.1106
  C  C453  1  0.431110  0.078710  0.473870  1.0  -0.3601
  C  C454  1  0.415280  0.234630  0.420610  1.0  -0.0437
  C  C455  1  0.396880  0.188130  0.441910  1.0  0.0142
  C  C456  1  0.454470  0.131730  0.449930  1.0  -0.0357
  C  C457  1  0.530700  0.121650  0.436150  1.0  -0.0515
  C  C458  1  0.818390  0.519000  0.393020  1.0  -0.0624
  C  C459  1  0.910820  0.460320  0.441840  1.0  -0.2364
  C  C460  1  0.887550  0.427660  0.423240  1.0  -0.003
  C  C461  1  0.768290  0.997280  0.415940  1.0  0.6537
  C  C462  1  0.313080  0.196750  0.458290  1.0  -0.3762
  C  C463  1  0.817590  0.415000  0.383020  1.0  0.6628
  C  C464  1  0.861370  0.055610  0.249450  1.0  -0.0503
  C  C465  1  0.837360  0.999110  0.324770  1.0  -0.0829
  C  C466  1  0.886780  0.637170  0.509390  1.0  0.0774
  C  C467  1  0.821580  0.165550  0.420090  1.0  0.0498
  C  C468  1  0.547690  0.168370  0.413850  1.0  0.1618
  C  C469  1  0.489870  0.223320  0.406940  1.0  0.1408
  C  C470  1  0.351160  0.411480  0.385600  1.0  0.622
  C  C471  1  0.116640  0.300190  0.374930  1.0  -0.0451
  C  C472  1  0.092540  0.646950  0.721370  1.0  -0.0863
  C  C473  1  0.258610  0.099370  0.567210  1.0  -0.0349
  C  C474  1  0.157820  0.544870  0.599690  1.0  -0.1637
  C  C475  1  0.772380  0.505860  0.627380  1.0  -0.0323
  C  C476  1  0.135100  0.106600  0.570000  1.0  -0.0373
  C  C477  1  0.492680  0.687420  0.834220  1.0  -0.3921
  C  C478  1  0.238280  0.160620  0.557220  1.0  -0.2605
  C  C479  1  0.082200  0.810800  0.547200  1.0  0.0593
  C  C480  1  0.388800  0.508010  0.609990  1.0  -0.076
  C  C481  1  0.453460  0.395680  0.592400  1.0  -0.3851
  C  C482  1  0.112370  0.168610  0.560450  1.0  -0.1782
  C  C483  1  0.463380  0.561280  0.620360  1.0  0.1647
  C  C484  1  0.029400  0.803920  0.526680  1.0  -0.3742
  C  C485  1  0.532370  0.508860  0.612800  1.0  -0.1044
  C  C486  1  0.161610  0.446150  0.587830  1.0  -0.1451
  C  C487  1  0.876630  0.455920  0.578020  1.0  0.2673
  C  C488  1  0.115690  0.477760  0.562860  1.0  0.237
  C  C489  1  0.169660  0.778170  0.586110  1.0  0.0185
  C  C490  1  0.985750  0.408660  0.531700  1.0  0.0539
  C  C491  1  0.417550  0.709850  0.786650  1.0  -0.0551
  C  C492  1  0.201350  0.343010  0.377290  1.0  -0.0329
  C  C493  1  0.068600  0.363140  0.530460  1.0  -0.0317
  C  C494  1  0.730320  0.539840  0.601920  1.0  -0.1217
  C  C495  1  0.397990  0.560510  0.618710  1.0  0.1078
  C  C496  1  0.835970  0.490570  0.553090  1.0  -0.2704
  C  C497  1  0.173060  0.352080  0.413600  1.0  -0.1822
  C  C498  1  0.071460  0.298480  0.543400  1.0  0.0858
  C  C499  1  0.165230  0.194880  0.554060  1.0  0.2313
  C  C500  1  0.104390  0.384310  0.553750  1.0  0.0673
  C  C501  1  0.121220  0.766590  0.569370  1.0  -0.0955
  C  C502  1  0.485160  0.685150  0.795130  1.0  0.0524
  C  C503  1  0.116040  0.334700  0.432420  1.0  0.234
  C  C504  1  0.139640  0.881320  0.555400  1.0  -0.0878
  C  C505  1  0.481740  0.677360  0.724960  1.0  0.067
  C  C506  1  0.632980  0.625070  0.777370  1.0  -0.3204
  C  C507  1  0.845480  0.463530  0.615710  1.0  -0.2266
  C  C508  1  0.101460  0.703340  0.779740  1.0  -0.0657
  C  C509  1  0.414220  0.706070  0.750890  1.0  0.1058
  C  C510  1  0.552470  0.651740  0.733320  1.0  -0.1247
  C  C511  1  0.201720  0.307370  0.317190  1.0  0.6743
  C  C512  1  0.086030  0.307150  0.413790  1.0  -0.1304
  C  C513  1  0.762150  0.532720  0.564980  1.0  -0.0072
  C  C514  1  0.174770  0.316230  0.357430  1.0  -0.1154
  C  C515  1  0.142930  0.674310  0.717030  1.0  0.122
  C  C516  1  0.148060  0.702760  0.745120  1.0  0.1301
  C  C517  1  0.066070  0.109860  0.696200  1.0  -0.3896
  C  C518  1  0.041200  0.050120  0.774880  1.0  -0.3379
  C  C519  1  0.554510  0.655490  0.768490  1.0  0.0082
  C  C520  1  0.103910  0.010580  0.739600  1.0  -0.1435
  C  C521  1  0.117000  0.036600  0.701600  1.0  -0.0073
  C  C522  1  0.208420  0.071310  0.574050  1.0  -0.1382
  C  C523  1  0.090200  0.867210  0.540990  1.0  -0.0476
  C  C524  1  0.045200  0.925100  0.517100  1.0  -0.3136
  C  C525  1  0.454900  0.457300  0.602700  1.0  0.0608
  C  C526  1  0.526300  0.454800  0.605200  1.0  -0.0554
  C  C527  1  0.603510  0.392780  0.599400  1.0  -0.3944
  C  C528  1  0.047070  0.647560  0.755300  1.0  0.0534
  C  C529  1  0.053450  0.675970  0.783930  1.0  -0.0307
  C  C530  1  0.999970  0.676120  0.821940  1.0  -0.3812
  C  C531  1  0.992830  0.616370  0.760770  1.0  -0.3937
  C  C532  1  0.194850  0.938400  0.683900  1.0  0.2207
  C  C533  1  0.185540  0.911190  0.718130  1.0  0.1101
  C  C534  1  0.568890  0.921290  0.526130  1.0  -0.3609
  C  C535  1  0.584720  0.765370  0.579390  1.0  -0.0428
  C  C536  1  0.603120  0.811870  0.558090  1.0  0.0143
  C  C537  1  0.545530  0.868270  0.550070  1.0  -0.0351
  C  C538  1  0.469300  0.878350  0.563850  1.0  -0.0535
  C  C539  1  0.181610  0.481000  0.606980  1.0  -0.0621
  C  C540  1  0.089180  0.539680  0.558160  1.0  -0.2375
  C  C541  1  0.112450  0.572340  0.576760  1.0  -0.0037
  C  C542  1  0.231710  0.002720  0.584060  1.0  0.6536
  C  C543  1  0.686920  0.803250  0.541710  1.0  -0.3752
  C  C544  1  0.182410  0.585000  0.616980  1.0  0.6629
  C  C545  1  0.138630  0.944390  0.750550  1.0  -0.0502
  C  C546  1  0.162640  0.000890  0.675230  1.0  -0.0824
  C  C547  1  0.113220  0.362830  0.490610  1.0  0.0793
  C  C548  1  0.178420  0.834450  0.579910  1.0  0.0507
  C  C549  1  0.452310  0.831630  0.586150  1.0  0.1627
  C  C550  1  0.510130  0.776680  0.593060  1.0  0.1428
  C  C551  1  0.648840  0.588520  0.614400  1.0  0.6234
  C  C552  1  0.208240  0.800190  0.874930  1.0  -0.0438
  C  C553  1  0.539140  0.146950  0.221370  1.0  -0.0836
  C  C554  1  0.074810  0.599370  0.067210  1.0  -0.0333
  C  C555  1  0.697620  0.044870  0.099690  1.0  -0.1619
  C  C556  1  0.094380  0.005860  0.127380  1.0  -0.0309
  C  C557  1  0.188300  0.606600  0.070000  1.0  -0.0384
  C  C558  1  0.985680  0.187420  0.334220  1.0  -0.3908
  C  C559  1  0.043880  0.660620  0.057220  1.0  -0.2607
  C  C560  1  0.559800  0.310800  0.047200  1.0  0.0584
  C  C561  1  0.493200  0.008010  0.109990  1.0  -0.0743
  C  C562  1  0.558460  0.895680  0.092400  1.0  -0.3848
  C  C563  1  0.158570  0.668610  0.060450  1.0  -0.178
  C  C564  1  0.354980  0.061280  0.120360  1.0  0.1641
  C  C565  1  0.640000  0.303920  0.026680  1.0  -0.377
  C  C566  1  0.345970  0.008860  0.112800  1.0  -0.1072
  C  C567  1  0.804410  0.946150  0.087830  1.0  -0.1429
  C  C568  1  0.089430  0.955920  0.078020  1.0  0.267
  C  C569  1  0.843690  0.977760  0.062860  1.0  0.2351
  C  C570  1  0.466060  0.278170  0.086110  1.0  0.0173
  C  C571  1  0.073890  0.908660  0.031700  1.0  0.0556
  C  C572  1  0.085950  0.209850  0.286650  1.0  -0.0566
  C  C573  1  0.078350  0.843010  0.877290  1.0  -0.0307
  C  C574  1  0.037800  0.863140  0.030460  1.0  -0.0319
  C  C575  1  0.127920  0.039840  0.101920  1.0  -0.1217
  C  C576  1  0.422790  0.060510  0.118710  1.0  0.1107
  C  C577  1  0.120370  0.990570  0.053090  1.0  -0.2682
  C  C578  1  0.061260  0.852080  0.913600  1.0  -0.1849
  C  C579  1  0.086660  0.798480  0.043400  1.0  0.0827
  C  C580  1  0.085830  0.694880  0.054060  1.0  0.2303
  C  C581  1  0.957550  0.884310  0.053750  1.0  0.0716
  C  C582  1  0.542820  0.266590  0.069370  1.0  -0.0954
  C  C583  1  0.034560  0.185150  0.295130  1.0  0.0536
  C  C584  1  0.116840  0.834700  0.932420  1.0  0.2329
  C  C585  1  0.423640  0.381320  0.055400  1.0  -0.0843
  C  C586  1  0.115940  0.177360  0.224960  1.0  0.0667
  C  C587  1  0.964580  0.125070  0.277370  1.0  -0.3199
  C  C588  1  0.075280  0.963530  0.115710  1.0  -0.2256
  C  C589  1  0.415460  0.203340  0.279740  1.0  -0.0643
  C  C590  1  0.128820  0.206070  0.250890  1.0  0.1067
  C  C591  1  0.062470  0.151740  0.233320  1.0  -0.127
  C  C592  1  0.173720  0.807370  0.817190  1.0  0.6737
  C  C593  1  0.193030  0.807150  0.913790  1.0  -0.1258
  C  C594  1  0.140150  0.032720  0.064980  1.0  -0.0069
  C  C595  1  0.151570  0.816230  0.857430  1.0  -0.1157
  C  C596  1  0.465730  0.174310  0.217030  1.0  0.123
  C  C597  1  0.404060  0.202760  0.245120  1.0  0.1309
  C  C598  1  0.127870  0.609860  0.196200  1.0  -0.3908
  C  C599  1  0.133800  0.550120  0.274880  1.0  -0.342
  C  C600  1  0.021510  0.155490  0.268490  1.0  0.0094
  C  C601  1  0.145910  0.510580  0.239600  1.0  -0.1436
  C  C602  1  0.144800  0.536600  0.201600  1.0  -0.0076
  C  C603  1  0.146220  0.571310  0.074050  1.0  -0.1379
  C  C604  1  0.501600  0.367210  0.040990  1.0  -0.0494
  C  C605  1  0.512600  0.425100  0.017100  1.0  -0.3134
  C  C606  1  0.485100  0.957300  0.102700  1.0  0.0619
  C  C607  1  0.413700  0.954800  0.105200  1.0  -0.0549
  C  C608  1  0.404310  0.892780  0.099400  1.0  -0.3938
  C  C609  1  0.550070  0.147560  0.255300  1.0  0.052
  C  C610  1  0.486650  0.175970  0.283930  1.0  -0.0312
  C  C611  1  0.501970  0.176120  0.321940  1.0  -0.381
  C  C612  1  0.630030  0.116370  0.260770  1.0  -0.393
  C  C613  1  0.182850  0.438400  0.183900  1.0  0.223
  C  C614  1  0.185140  0.411190  0.218130  1.0  0.1095
  C  C615  1  0.983690  0.421290  0.026130  1.0  -0.3603
  C  C616  1  0.070520  0.265370  0.079390  1.0  -0.0432
  C  C617  1  0.026920  0.311870  0.058090  1.0  0.0137
  C  C618  1  0.036130  0.368270  0.050070  1.0  -0.0359
  C  C619  1  0.088500  0.378350  0.063850  1.0  -0.0526
  C  C620  1  0.730410  0.981000  0.106980  1.0  -0.0603
  C  C621  1  0.812980  0.039680  0.058160  1.0  -0.2346
  C  C622  1  0.738450  0.072340  0.076760  1.0  -0.0027
  C  C623  1  0.181510  0.502720  0.084060  1.0  0.6531
  C  C624  1  0.968120  0.303250  0.041710  1.0  -0.3726
  C  C625  1  0.615610  0.085000  0.116980  1.0  0.6624
  C  C626  1  0.166430  0.444390  0.250550  1.0  -0.0495
  C  C627  1  0.161240  0.500890  0.175230  1.0  -0.0804
  C  C628  1  0.033340  0.862830  0.990610  1.0  0.0811
  C  C629  1  0.407220  0.334450  0.079910  1.0  0.0492
  C  C630  1  0.129910  0.331630  0.086150  1.0  0.1656
  C  C631  1  0.120130  0.276680  0.093060  1.0  0.144
  C  C632  1  0.148240  0.088520  0.114400  1.0  0.6235
  N  N633  1  0.817470  0.771980  0.765960  1.0  -0.2061
  N  N634  1  0.795580  0.786680  0.801460  1.0  -0.1533
  N  N635  1  0.835470  0.817290  0.807330  1.0  -0.2457
  N  N636  1  0.832910  0.758080  0.884900  1.0  -0.3101
  N  N637  1  0.796720  0.725420  0.879100  1.0  -0.0974
  N  N638  1  0.818210  0.670020  0.896960  1.0  -0.3126
  N  N639  1  0.660210  0.668290  0.900490  1.0  -0.2691
  N  N640  1  0.639990  0.725140  0.882480  1.0  -0.1164
  N  N641  1  0.564030  0.757440  0.890300  1.0  -0.2266
  N  N642  1  0.562940  0.818370  0.813350  1.0  -0.2881
  N  N643  1  0.638990  0.786880  0.803960  1.0  -0.1397
  N  N644  1  0.660710  0.773730  0.767950  1.0  -0.2581
  N  N645  1  0.586410  0.882160  0.872400  1.0  -0.3027
  N  N646  1  0.661500  0.849240  0.864960  1.0  -0.136
  N  N647  1  0.698430  0.882280  0.869580  1.0  -0.2671
  N  N648  1  0.789180  0.652770  0.783090  1.0  -0.3853
  N  N649  1  0.776170  0.661110  0.819570  1.0  -0.1608
  N  N650  1  0.790710  0.607900  0.840360  1.0  -0.4224
  N  N651  1  0.644590  0.271980  0.265960  1.0  -0.209
  N  N652  1  0.616280  0.286680  0.301460  1.0  -0.1542
  N  N653  1  0.539910  0.317290  0.307330  1.0  -0.2437
  N  N654  1  0.524110  0.258080  0.384900  1.0  -0.3075
  N  N655  1  0.598760  0.225420  0.379100  1.0  -0.0967
  N  N656  1  0.614810  0.170020  0.396960  1.0  -0.3155
  N  N657  1  0.771010  0.168290  0.400490  1.0  -0.2663
  N  N658  1  0.752390  0.225140  0.382480  1.0  -0.1177
  N  N659  1  0.788230  0.257440  0.390300  1.0  -0.228
  N  N660  1  0.805340  0.318370  0.313350  1.0  -0.2876
  N  N661  1  0.770170  0.286880  0.303960  1.0  -0.1401
  N  N662  1  0.797610  0.273730  0.267950  1.0  -0.2577
  N  N663  1  0.659030  0.382160  0.372400  1.0  -0.3019
  N  N664  1  0.624300  0.349240  0.364960  1.0  -0.136
  N  N665  1  0.549710  0.382280  0.369580  1.0  -0.2671
  N  N666  1  0.774960  0.152770  0.283090  1.0  -0.384
  N  N667  1  0.743150  0.161110  0.319570  1.0  -0.1606
  N  N668  1  0.761030  0.107900  0.340360  1.0  -0.4228
  N  N669  1  0.355410  0.728020  0.734040  1.0  -0.2059
  N  N670  1  0.383720  0.713320  0.698540  1.0  -0.1528
  N  N671  1  0.460090  0.682710  0.692670  1.0  -0.244
  N  N672  1  0.475890  0.741920  0.615100  1.0  -0.3101
  N  N673  1  0.401240  0.774580  0.620900  1.0  -0.0966
  N  N674  1  0.385190  0.829980  0.603040  1.0  -0.3152
  N  N675  1  0.228990  0.831710  0.599510  1.0  -0.2675
  N  N676  1  0.247610  0.774860  0.617520  1.0  -0.1173
  N  N677  1  0.211770  0.742560  0.609700  1.0  -0.2276
  N  N678  1  0.194660  0.681630  0.686650  1.0  -0.2902
  N  N679  1  0.229830  0.713120  0.696040  1.0  -0.1391
  N  N680  1  0.202390  0.726270  0.732050  1.0  -0.2555
  N  N681  1  0.340970  0.617840  0.627600  1.0  -0.3019
  N  N682  1  0.375700  0.650760  0.635040  1.0  -0.1353
  N  N683  1  0.450290  0.617720  0.630420  1.0  -0.2662
  N  N684  1  0.225040  0.847230  0.716910  1.0  -0.3818
  N  N685  1  0.256850  0.838890  0.680430  1.0  -0.159
  N  N686  1  0.238970  0.892100  0.659640  1.0  -0.423
  N  N687  1  0.182530  0.228020  0.234040  1.0  -0.2052
  N  N688  1  0.204420  0.213320  0.198540  1.0  -0.1531
  N  N689  1  0.164530  0.182710  0.192670  1.0  -0.2435
  N  N690  1  0.167090  0.241920  0.115100  1.0  -0.3103
  N  N691  1  0.203280  0.274580  0.120900  1.0  -0.0976
  N  N692  1  0.181790  0.329980  0.103040  1.0  -0.315
  N  N693  1  0.339790  0.331710  0.099510  1.0  -0.2685
  N  N694  1  0.360010  0.274860  0.117520  1.0  -0.1179
  N  N695  1  0.435970  0.242560  0.109700  1.0  -0.2281
  N  N696  1  0.437060  0.181630  0.186650  1.0  -0.291
  N  N697  1  0.361010  0.213120  0.196040  1.0  -0.1389
  N  N698  1  0.339290  0.226270  0.232050  1.0  -0.2545
  N  N699  1  0.413590  0.117840  0.127600  1.0  -0.3025
  N  N700  1  0.338500  0.150760  0.135040  1.0  -0.1351
  N  N701  1  0.301570  0.117720  0.130420  1.0  -0.267
  N  N702  1  0.210820  0.347230  0.216910  1.0  -0.3837
  N  N703  1  0.223830  0.338890  0.180430  1.0  -0.1602
  N  N704  1  0.209290  0.392100  0.159640  1.0  -0.4232
  O  O705  1  0.759060  0.218480  0.197500  1.0  -0.5738
  O  O706  1  0.878820  0.176270  0.198890  1.0  -0.5906
  O  O707  1  0.412500  0.862960  0.891640  1.0  -0.5542
  O  O708  1  0.414180  0.942980  0.855860  1.0  -0.6252
  O  O709  1  0.860500  0.905240  0.853780  1.0  -0.5557
  O  O710  1  0.821270  0.881930  0.910130  1.0  -0.5935
  O  O711  1  0.860440  0.527020  0.909300  1.0  -0.5898
  O  O712  1  0.753450  0.522320  0.911380  1.0  -0.5716
  O  O713  1  0.932330  0.086520  0.929840  1.0  -0.3255
  O  O714  1  0.892070  0.158980  0.030700  1.0  -0.2747
  O  O715  1  0.949200  0.242080  0.956440  1.0  -0.2917
  O  O716  1  0.083070  0.052200  0.956220  1.0  -0.2697
  O  O717  1  0.824960  0.718480  0.697500  1.0  -0.5766
  O  O718  1  0.746020  0.676270  0.698890  1.0  -0.59
  O  O719  1  0.832900  0.362960  0.391640  1.0  -0.5567
  O  O720  1  0.786980  0.442980  0.355860  1.0  -0.6257
  O  O721  1  0.380480  0.405240  0.353780  1.0  -0.5582
  O  O722  1  0.386670  0.381930  0.410130  1.0  -0.5971
  O  O723  1  0.703240  0.027020  0.409300  1.0  -0.5917
  O  O724  1  0.812850  0.022320  0.411380  1.0  -0.571
  O  O725  1  0.051310  0.586520  0.429840  1.0  -0.3283
  O  O726  1  0.918250  0.658980  0.530700  1.0  -0.2764
  O  O727  1  0.852280  0.742080  0.456440  1.0  -0.2949
  O  O728  1  0.908510  0.552200  0.456220  1.0  -0.2718
  O  O729  1  0.175040  0.281520  0.302500  1.0  -0.5773
  O  O730  1  0.253980  0.323730  0.301110  1.0  -0.5912
  O  O731  1  0.167100  0.637040  0.608360  1.0  -0.5569
  O  O732  1  0.213020  0.557020  0.644140  1.0  -0.6277
  O  O733  1  0.619520  0.594760  0.646220  1.0  -0.5599
  O  O734  1  0.613330  0.618070  0.589870  1.0  -0.5944
  O  O735  1  0.296760  0.972980  0.590700  1.0  -0.5916
  O  O736  1  0.187150  0.977680  0.588620  1.0  -0.57
  O  O737  1  0.948690  0.413480  0.570160  1.0  -0.3317
  O  O738  1  0.081750  0.341020  0.469300  1.0  -0.2768
  O  O739  1  0.147720  0.257920  0.543560  1.0  -0.2954
  O  O740  1  0.091490  0.447800  0.543780  1.0  -0.2712
  O  O741  1  0.240940  0.781520  0.802500  1.0  -0.5738
  O  O742  1  0.121180  0.823730  0.801110  1.0  -0.5911
  O  O743  1  0.587500  0.137040  0.108360  1.0  -0.5558
  O  O744  1  0.585820  0.057020  0.144140  1.0  -0.6258
  O  O745  1  0.139500  0.094760  0.146220  1.0  -0.5582
  O  O746  1  0.178730  0.118070  0.089870  1.0  -0.5948
  O  O747  1  0.139560  0.472980  0.090700  1.0  -0.5903
  O  O748  1  0.246550  0.477680  0.088620  1.0  -0.5714
  O  O749  1  0.067670  0.913480  0.070160  1.0  -0.3278
  O  O750  1  0.107930  0.841020  0.969300  1.0  -0.2755
  O  O751  1  0.050800  0.757920  0.043560  1.0  -0.2925
  O  O752  1  0.916930  0.947800  0.043780  1.0  -0.271
