# generated using pymatgen
data_Zn5H64C93(N3O2)6
_symmetry_space_group_name_H-M   'P 1'
_cell_length_a   24.42380000
_cell_length_b   27.12420000
_cell_length_c   30.94230000
_cell_angle_alpha   115.30600000
_cell_angle_beta   113.24500000
_cell_angle_gamma   90.00000000
_symmetry_Int_Tables_number   1
_chemical_formula_structural   Zn5H64C93(N3O2)6
_chemical_formula_sum   'Zn20 H256 C372 N72 O48'
_cell_volume   16672.31348101
_cell_formula_units_Z   4
loop_
 _symmetry_equiv_pos_site_id
 _symmetry_equiv_pos_as_xyz
  1  'x, y, z'
loop_
 _atom_site_type_symbol
 _atom_site_label
 _atom_site_symmetry_multiplicity
 _atom_site_fract_x
 _atom_site_fract_y
 _atom_site_fract_z
 _atom_site_occupancy
 _atom_site_charge
  Zn  Zn1  1  0.852800  0.930900  0.551400  1.0  0.7862
  Zn  Zn2  1  0.812100  0.998200  0.469400  1.0  0.9996
  Zn  Zn3  1  0.011200  0.977100  0.637200  1.0  0.9498
  Zn  Zn4  1  0.823100  0.783500  0.471600  1.0  0.9367
  Zn  Zn5  1  0.763800  0.964000  0.627200  1.0  0.9421
  Zn  Zn6  1  0.301400  0.569100  0.448600  1.0  0.7864
  Zn  Zn7  1  0.342700  0.501800  0.530600  1.0  0.9994
  Zn  Zn8  1  0.374000  0.522900  0.362800  1.0  0.9468
  Zn  Zn9  1  0.351500  0.716500  0.528400  1.0  0.9364
  Zn  Zn10  1  0.136600  0.536000  0.372800  1.0  0.9439
  Zn  Zn11  1  0.147200  0.069100  0.448600  1.0  0.7871
  Zn  Zn12  1  0.187900  0.001800  0.530600  1.0  0.9998
  Zn  Zn13  1  0.988800  0.022900  0.362800  1.0  0.9487
  Zn  Zn14  1  0.176900  0.216500  0.528400  1.0  0.9363
  Zn  Zn15  1  0.236200  0.036000  0.372800  1.0  0.9417
  Zn  Zn16  1  0.698600  0.430900  0.551400  1.0  0.7865
  Zn  Zn17  1  0.657300  0.498200  0.469400  1.0  0.9987
  Zn  Zn18  1  0.626000  0.477100  0.637200  1.0  0.9501
  Zn  Zn19  1  0.648500  0.283500  0.471600  1.0  0.9368
  Zn  Zn20  1  0.863400  0.464000  0.627200  1.0  0.9431
  H  H21  1  0.683700  0.853500  0.616200  1.0  0.1462
  H  H22  1  0.658000  0.758300  0.588800  1.0  0.122
  H  H23  1  0.678500  0.688200  0.526800  1.0  0.1208
  H  H24  1  0.743300  0.708500  0.496400  1.0  0.1224
  H  H25  1  0.091500  0.066900  0.622000  1.0  0.1252
  H  H26  1  0.102000  0.130300  0.589600  1.0  0.0979
  H  H27  1  0.023800  0.133800  0.521600  1.0  0.1031
  H  H28  1  0.923800  0.088500  0.485800  1.0  0.1149
  H  H29  1  0.729900  0.098300  0.498200  1.0  0.1201
  H  H30  1  0.670900  0.144700  0.537200  1.0  0.0817
  H  H31  1  0.647500  0.130100  0.591200  1.0  0.1038
  H  H32  1  0.682800  0.068200  0.619600  1.0  0.1357
  H  H33  1  0.103700  0.881600  0.623600  1.0  0.1274
  H  H34  1  0.946800  0.718500  0.485800  1.0  0.1227
  H  H35  1  0.055300  0.720600  0.515000  1.0  0.1166
  H  H36  1  0.126800  0.798900  0.585400  1.0  0.0995
  H  H37  1  0.751100  0.736600  0.336800  1.0  0.1149
  H  H38  1  0.721700  0.747200  0.261200  1.0  0.0919
  H  H39  1  0.724800  0.824700  0.259000  1.0  0.1114
  H  H40  1  0.744000  0.912200  0.336600  1.0  0.154
  H  H41  1  0.853700  0.030900  0.758600  1.0  0.1045
  H  H42  1  0.936600  0.082900  0.840200  1.0  0.1214
  H  H43  1  0.033900  0.090000  0.845400  1.0  0.1095
  H  H44  1  0.048400  0.045100  0.769200  1.0  0.1193
  H  H45  1  0.724200  0.101000  0.757400  1.0  0.1094
  H  H46  1  0.677200  0.127000  0.816800  1.0  0.115
  H  H47  1  0.714900  0.990500  0.832600  1.0  0.1288
  H  H48  1  0.718000  0.956100  0.748600  1.0  0.1066
  H  H49  1  0.697500  0.174600  0.908800  1.0  0.1147
  H  H50  1  0.671600  0.205500  0.979400  1.0  0.1939
  H  H51  1  0.633400  0.047700  0.951400  1.0  0.1261
  H  H52  1  0.659300  0.016800  0.881000  1.0  0.1223
  H  H53  1  0.654400  0.219200  0.032200  1.0  0.0968
  H  H54  1  0.687000  0.179900  0.054600  1.0  0.124
  H  H55  1  0.167400  0.984800  0.788400  1.0  0.1207
  H  H56  1  0.264400  0.024300  0.862400  1.0  0.1363
  H  H57  1  0.293800  0.125200  0.803800  1.0  0.1263
  H  H58  1  0.195800  0.094300  0.744200  1.0  0.0755
  H  H59  1  0.364300  0.025600  0.890400  1.0  0.1233
  H  H60  1  0.461200  0.055000  0.959800  1.0  0.1277
  H  H61  1  0.466700  0.208200  0.970800  1.0  0.1975
  H  H62  1  0.369800  0.178800  0.901400  1.0  0.1108
  H  H63  1  0.533600  0.186500  0.065000  1.0  0.0937
  H  H64  1  0.537600  0.207400  0.026400  1.0  0.0897
  H  H65  1  0.599900  0.136200  0.081200  1.0  0.0861
  H  H66  1  0.668300  0.164800  0.115600  1.0  0.0802
  H  H67  1  0.789300  0.629400  0.325600  1.0  0.3223
  H  H68  1  0.713000  0.542800  0.256600  1.0  0.0758
  H  H69  1  0.767800  0.495900  0.366600  1.0  0.1515
  H  H70  1  0.797800  0.591800  0.429400  1.0  0.0896
  H  H71  1  0.796300  0.445200  0.250600  1.0  0.1244
  H  H72  1  0.765500  0.352600  0.186000  1.0  0.1167
  H  H73  1  0.603700  0.347400  0.190800  1.0  0.1252
  H  H74  1  0.634400  0.440000  0.255200  1.0  0.1065
  H  H75  1  0.595900  0.284600  0.103000  1.0  0.0862
  H  H76  1  0.602400  0.259100  0.141600  1.0  0.0929
  H  H77  1  0.783200  0.145300  0.428200  1.0  0.0871
  H  H78  1  0.746200  0.182200  0.368200  1.0  0.1408
  H  H79  1  0.713300  0.027700  0.250000  1.0  0.1256
  H  H80  1  0.736300  0.994700  0.316800  1.0  0.1162
  H  H81  1  0.642300  0.163600  0.282200  1.0  0.1171
  H  H82  1  0.599800  0.183900  0.211800  1.0  0.1269
  H  H83  1  0.724900  0.120300  0.161800  1.0  0.1217
  H  H84  1  0.767400  0.100000  0.232400  1.0  0.1279
  H  H85  1  0.067500  0.646500  0.383800  1.0  0.1475
  H  H86  1  0.069200  0.741700  0.411200  1.0  0.1228
  H  H87  1  0.151700  0.811800  0.473200  1.0  0.1212
  H  H88  1  0.246900  0.791500  0.503600  1.0  0.1223
  H  H89  1  0.469500  0.433100  0.378000  1.0  0.1256
  H  H90  1  0.512400  0.369700  0.410400  1.0  0.0955
  H  H91  1  0.502200  0.366200  0.478400  1.0  0.103
  H  H92  1  0.438000  0.411500  0.514200  1.0  0.116
  H  H93  1  0.231700  0.401700  0.501800  1.0  0.1182
  H  H94  1  0.133700  0.355300  0.462800  1.0  0.0811
  H  H95  1  0.056300  0.369900  0.408800  1.0  0.1036
  H  H96  1  0.063200  0.431800  0.380400  1.0  0.1351
  H  H97  1  0.480100  0.618400  0.376400  1.0  0.1277
  H  H98  1  0.461000  0.781500  0.514200  1.0  0.1206
  H  H99  1  0.540300  0.779400  0.485000  1.0  0.1172
  H  H100  1  0.541400  0.701100  0.414600  1.0  0.1013
  H  H101  1  0.414300  0.763400  0.663200  1.0  0.1143
  H  H102  1  0.460500  0.752800  0.738800  1.0  0.0918
  H  H103  1  0.465800  0.675300  0.741000  1.0  0.1107
  H  H104  1  0.407400  0.587800  0.663400  1.0  0.1537
  H  H105  1  0.095100  0.469100  0.241400  1.0  0.105
  H  H106  1  0.096400  0.417100  0.159800  1.0  0.1202
  H  H107  1  0.188500  0.410000  0.154600  1.0  0.1103
  H  H108  1  0.279200  0.454900  0.230800  1.0  0.1201
  H  H109  1  0.966800  0.399000  0.242600  1.0  0.1092
  H  H110  1  0.860400  0.373000  0.183200  1.0  0.1128
  H  H111  1  0.882300  0.509500  0.167400  1.0  0.1304
  H  H112  1  0.969400  0.543900  0.251400  1.0  0.1062
  H  H113  1  0.788700  0.325400  0.091200  1.0  0.1145
  H  H114  1  0.692200  0.294500  0.020600  1.0  0.1938
  H  H115  1  0.682000  0.452300  0.048600  1.0  0.1278
  H  H116  1  0.778300  0.483200  0.119000  1.0  0.1235
  H  H117  1  0.622200  0.280800  0.967800  1.0  0.0983
  H  H118  1  0.632400  0.320100  0.945400  1.0  0.1186
  H  H119  1  0.379000  0.515200  0.211600  1.0  0.1201
  H  H120  1  0.402000  0.475700  0.137600  1.0  0.1355
  H  H121  1  0.490000  0.374800  0.196200  1.0  0.1226
  H  H122  1  0.451600  0.405700  0.255800  1.0  0.076
  H  H123  1  0.473900  0.474400  0.109600  1.0  0.123
  H  H124  1  0.501400  0.445000  0.040200  1.0  0.1275
  H  H125  1  0.495900  0.291800  0.029200  1.0  0.1972
  H  H126  1  0.468400  0.321200  0.098600  1.0  0.1135
  H  H127  1  0.468600  0.313500  0.935000  1.0  0.0963
  H  H128  1  0.511200  0.292600  0.973600  1.0  0.0909
  H  H129  1  0.518700  0.363800  0.918800  1.0  0.0876
  H  H130  1  0.552700  0.335200  0.884400  1.0  0.0735
  H  H131  1  0.463700  0.870600  0.674400  1.0  0.3225
  H  H132  1  0.456400  0.957200  0.743400  1.0  0.0723
  H  H133  1  0.401200  0.004100  0.633400  1.0  0.1511
  H  H134  1  0.368400  0.908200  0.570600  1.0  0.0919
  H  H135  1  0.545700  0.054800  0.749400  1.0  0.1229
  H  H136  1  0.579500  0.147400  0.814000  1.0  0.1184
  H  H137  1  0.412900  0.152600  0.809200  1.0  0.1251
  H  H138  1  0.379200  0.060000  0.744800  1.0  0.1068
  H  H139  1  0.492900  0.215400  0.897000  1.0  0.085
  H  H140  1  0.460800  0.240900  0.858400  1.0  0.0994
  H  H141  1  0.355000  0.354700  0.571800  1.0  0.0865
  H  H142  1  0.378000  0.317800  0.631800  1.0  0.1407
  H  H143  1  0.463300  0.472300  0.750000  1.0  0.1254
  H  H144  1  0.419500  0.505300  0.683200  1.0  0.1163
  H  H145  1  0.360100  0.336400  0.717800  1.0  0.1161
  H  H146  1  0.388000  0.316100  0.788200  1.0  0.1269
  H  H147  1  0.563100  0.379700  0.838200  1.0  0.1212
  H  H148  1  0.535000  0.400000  0.767600  1.0  0.127
  H  H149  1  0.316300  0.146500  0.383800  1.0  0.1466
  H  H150  1  0.342000  0.241700  0.411200  1.0  0.1219
  H  H151  1  0.321500  0.311800  0.473200  1.0  0.1209
  H  H152  1  0.256700  0.291500  0.503600  1.0  0.1199
  H  H153  1  0.908500  0.933100  0.378000  1.0  0.1251
  H  H154  1  0.898000  0.869700  0.410400  1.0  0.0985
  H  H155  1  0.976200  0.866200  0.478400  1.0  0.1039
  H  H156  1  0.076200  0.911500  0.514200  1.0  0.1147
  H  H157  1  0.270100  0.901700  0.501800  1.0  0.12
  H  H158  1  0.329100  0.855300  0.462800  1.0  0.0806
  H  H159  1  0.352500  0.869900  0.408800  1.0  0.1037
  H  H160  1  0.317200  0.931800  0.380400  1.0  0.1356
  H  H161  1  0.896300  0.118400  0.376400  1.0  0.1278
  H  H162  1  0.053200  0.281500  0.514200  1.0  0.1218
  H  H163  1  0.944700  0.279400  0.485000  1.0  0.1166
  H  H164  1  0.873200  0.201100  0.414600  1.0  0.1018
  H  H165  1  0.248900  0.263400  0.663200  1.0  0.1151
  H  H166  1  0.278300  0.252800  0.738800  1.0  0.0931
  H  H167  1  0.275200  0.175300  0.741000  1.0  0.1116
  H  H168  1  0.256000  0.087800  0.663400  1.0  0.1537
  H  H169  1  0.146300  0.969100  0.241400  1.0  0.1049
  H  H170  1  0.063400  0.917100  0.159800  1.0  0.1206
  H  H171  1  0.966100  0.910000  0.154600  1.0  0.1098
  H  H172  1  0.951600  0.954900  0.230800  1.0  0.1188
  H  H173  1  0.275800  0.899000  0.242600  1.0  0.1097
  H  H174  1  0.322800  0.873000  0.183200  1.0  0.1156
  H  H175  1  0.285100  0.009500  0.167400  1.0  0.1295
  H  H176  1  0.282000  0.043900  0.251400  1.0  0.1075
  H  H177  1  0.302500  0.825400  0.091200  1.0  0.1154
  H  H178  1  0.328400  0.794500  0.020600  1.0  0.191
  H  H179  1  0.366600  0.952300  0.048600  1.0  0.1264
  H  H180  1  0.340700  0.983200  0.119000  1.0  0.1222
  H  H181  1  0.345600  0.780800  0.967800  1.0  0.0958
  H  H182  1  0.313000  0.820100  0.945400  1.0  0.1169
  H  H183  1  0.832600  0.015200  0.211600  1.0  0.1203
  H  H184  1  0.735600  0.975700  0.137600  1.0  0.1361
  H  H185  1  0.706200  0.874800  0.196200  1.0  0.1265
  H  H186  1  0.804200  0.905700  0.255800  1.0  0.0749
  H  H187  1  0.635700  0.974400  0.109600  1.0  0.1223
  H  H188  1  0.538800  0.945000  0.040200  1.0  0.1266
  H  H189  1  0.533300  0.791800  0.029200  1.0  0.195
  H  H190  1  0.630200  0.821200  0.098600  1.0  0.1103
  H  H191  1  0.466400  0.813500  0.935000  1.0  0.0962
  H  H192  1  0.462400  0.792600  0.973600  1.0  0.0904
  H  H193  1  0.400100  0.863800  0.918800  1.0  0.0864
  H  H194  1  0.331700  0.835200  0.884400  1.0  0.0745
  H  H195  1  0.210700  0.370600  0.674400  1.0  0.3251
  H  H196  1  0.287000  0.457200  0.743400  1.0  0.0751
  H  H197  1  0.232200  0.504100  0.633400  1.0  0.1517
  H  H198  1  0.202200  0.408200  0.570600  1.0  0.0914
  H  H199  1  0.203700  0.554800  0.749400  1.0  0.1233
  H  H200  1  0.234500  0.647400  0.814000  1.0  0.1158
  H  H201  1  0.396300  0.652600  0.809200  1.0  0.1246
  H  H202  1  0.365600  0.560000  0.744800  1.0  0.1065
  H  H203  1  0.404100  0.715400  0.897000  1.0  0.0855
  H  H204  1  0.397600  0.740900  0.858400  1.0  0.0929
  H  H205  1  0.216800  0.854700  0.571800  1.0  0.088
  H  H206  1  0.253800  0.817800  0.631800  1.0  0.1414
  H  H207  1  0.286700  0.972300  0.750000  1.0  0.1256
  H  H208  1  0.263700  0.005300  0.683200  1.0  0.1161
  H  H209  1  0.357700  0.836400  0.717800  1.0  0.1171
  H  H210  1  0.400200  0.816100  0.788200  1.0  0.1268
  H  H211  1  0.275100  0.879700  0.838200  1.0  0.1217
  H  H212  1  0.232600  0.900000  0.767600  1.0  0.1284
  H  H213  1  0.932500  0.353500  0.616200  1.0  0.1476
  H  H214  1  0.930800  0.258300  0.588800  1.0  0.1218
  H  H215  1  0.848300  0.188200  0.526800  1.0  0.1205
  H  H216  1  0.753100  0.208500  0.496400  1.0  0.1201
  H  H217  1  0.530500  0.566900  0.622000  1.0  0.1251
  H  H218  1  0.487600  0.630300  0.589600  1.0  0.0966
  H  H219  1  0.497800  0.633800  0.521600  1.0  0.1031
  H  H220  1  0.562000  0.588500  0.485800  1.0  0.1158
  H  H221  1  0.768300  0.598300  0.498200  1.0  0.1189
  H  H222  1  0.866300  0.644700  0.537200  1.0  0.0809
  H  H223  1  0.943700  0.630100  0.591200  1.0  0.1044
  H  H224  1  0.936800  0.568200  0.619600  1.0  0.1346
  H  H225  1  0.519900  0.381600  0.623600  1.0  0.1273
  H  H226  1  0.539000  0.218500  0.485800  1.0  0.1211
  H  H227  1  0.459700  0.220600  0.515000  1.0  0.1167
  H  H228  1  0.458600  0.298900  0.585400  1.0  0.1014
  H  H229  1  0.585700  0.236600  0.336800  1.0  0.1154
  H  H230  1  0.539500  0.247200  0.261200  1.0  0.0917
  H  H231  1  0.534200  0.324700  0.259000  1.0  0.1113
  H  H232  1  0.592600  0.412200  0.336600  1.0  0.1542
  H  H233  1  0.904900  0.530900  0.758600  1.0  0.1056
  H  H234  1  0.903600  0.582900  0.840200  1.0  0.1203
  H  H235  1  0.811500  0.590000  0.845400  1.0  0.1101
  H  H236  1  0.720800  0.545100  0.769200  1.0  0.1195
  H  H237  1  0.033200  0.601000  0.757400  1.0  0.1096
  H  H238  1  0.139600  0.627000  0.816800  1.0  0.1128
  H  H239  1  0.117700  0.490500  0.832600  1.0  0.1302
  H  H240  1  0.030600  0.456100  0.748600  1.0  0.1062
  H  H241  1  0.211300  0.674600  0.908800  1.0  0.1153
  H  H242  1  0.307800  0.705500  0.979400  1.0  0.1964
  H  H243  1  0.318000  0.547700  0.951400  1.0  0.1264
  H  H244  1  0.221700  0.516800  0.881000  1.0  0.1249
  H  H245  1  0.377800  0.719200  0.032200  1.0  0.0982
  H  H246  1  0.367600  0.679900  0.054600  1.0  0.1177
  H  H247  1  0.621000  0.484800  0.788400  1.0  0.1198
  H  H248  1  0.598000  0.524300  0.862400  1.0  0.135
  H  H249  1  0.510000  0.625200  0.803800  1.0  0.1259
  H  H250  1  0.548400  0.594300  0.744200  1.0  0.0762
  H  H251  1  0.526100  0.525600  0.890400  1.0  0.1229
  H  H252  1  0.498600  0.555000  0.959800  1.0  0.1284
  H  H253  1  0.504100  0.708200  0.970800  1.0  0.1983
  H  H254  1  0.531600  0.678800  0.901400  1.0  0.1113
  H  H255  1  0.531400  0.686500  0.065000  1.0  0.0979
  H  H256  1  0.488800  0.707400  0.026400  1.0  0.093
  H  H257  1  0.481300  0.636200  0.081200  1.0  0.0885
  H  H258  1  0.447300  0.664800  0.115600  1.0  0.0701
  H  H259  1  0.536300  0.129400  0.325600  1.0  0.3245
  H  H260  1  0.543600  0.042800  0.256600  1.0  0.0731
  H  H261  1  0.598800  0.995900  0.366600  1.0  0.1514
  H  H262  1  0.631600  0.091800  0.429400  1.0  0.0912
  H  H263  1  0.454300  0.945200  0.250600  1.0  0.1242
  H  H264  1  0.420500  0.852600  0.186000  1.0  0.1179
  H  H265  1  0.587100  0.847400  0.190800  1.0  0.1245
  H  H266  1  0.620800  0.940000  0.255200  1.0  0.1068
  H  H267  1  0.507100  0.784600  0.103000  1.0  0.0857
  H  H268  1  0.539200  0.759100  0.141600  1.0  0.1012
  H  H269  1  0.645000  0.645300  0.428200  1.0  0.0874
  H  H270  1  0.622000  0.682200  0.368200  1.0  0.1397
  H  H271  1  0.536700  0.527700  0.250000  1.0  0.1255
  H  H272  1  0.580500  0.494700  0.316800  1.0  0.116
  H  H273  1  0.639900  0.663600  0.282200  1.0  0.1162
  H  H274  1  0.612000  0.683900  0.211800  1.0  0.1262
  H  H275  1  0.436900  0.620300  0.161800  1.0  0.1215
  H  H276  1  0.465000  0.600000  0.232400  1.0  0.1265
  C  C277  1  0.752000  0.793000  0.536000  1.0  0.2686
  C  C278  1  0.737000  0.835000  0.570000  1.0  0.1355
  C  C279  1  0.696000  0.826000  0.594000  1.0  -0.1228
  C  C280  1  0.680000  0.769000  0.574000  1.0  -0.0882
  C  C281  1  0.695000  0.725000  0.538000  1.0  -0.1134
  C  C282  1  0.732000  0.737000  0.520000  1.0  -0.1928
  C  C283  1  0.951000  0.047000  0.532000  1.0  0.1994
  C  C284  1  0.996000  0.041000  0.572000  1.0  0.1583
  C  C285  1  0.059000  0.071000  0.596000  1.0  -0.1198
  C  C286  1  0.065000  0.108000  0.576000  1.0  -0.1388
  C  C287  1  0.015000  0.111000  0.534000  1.0  -0.1017
  C  C288  1  0.956000  0.084000  0.512000  1.0  -0.1119
  C  C289  1  0.742000  0.051000  0.538000  1.0  0.1738
  C  C290  1  0.721000  0.091000  0.522000  1.0  -0.1193
  C  C291  1  0.687000  0.117000  0.546000  1.0  -0.0681
  C  C292  1  0.673000  0.109000  0.578000  1.0  -0.078
  C  C293  1  0.693000  0.073000  0.596000  1.0  -0.0763
  C  C294  1  0.733000  0.040000  0.574000  1.0  0.1391
  C  C295  1  0.074000  0.851000  0.596000  1.0  -0.0476
  C  C296  1  0.007000  0.855000  0.572000  1.0  0.0275
  C  C297  1  0.961000  0.804000  0.532000  1.0  0.0711
  C  C298  1  0.976000  0.751000  0.510000  1.0  -0.1142
  C  C299  1  0.042000  0.753000  0.530000  1.0  -0.11
  C  C300  1  0.086000  0.802000  0.572000  1.0  -0.1032
  C  C301  1  0.774000  0.871000  0.384000  1.0  0.2488
  C  C302  1  0.777000  0.824000  0.384000  1.0  0.2286
  C  C303  1  0.754000  0.771000  0.338000  1.0  -0.0703
  C  C304  1  0.736000  0.779000  0.294000  1.0  -0.1148
  C  C305  1  0.735000  0.826000  0.292000  1.0  -0.0982
  C  C306  1  0.750000  0.879000  0.338000  1.0  -0.1214
  C  C307  1  0.960000  0.011000  0.718000  1.0  0.0796
  C  C308  1  0.901000  0.007000  0.714000  1.0  0.1662
  C  C309  1  0.892000  0.034000  0.760000  1.0  -0.0813
  C  C310  1  0.943000  0.065000  0.810000  1.0  -0.0975
  C  C311  1  0.000000  0.069000  0.812000  1.0  -0.1068
  C  C312  1  0.010000  0.042000  0.768000  1.0  -0.1174
  C  C313  1  0.742000  0.995000  0.698000  1.0  0.4913
  C  C314  1  0.728000  0.024000  0.746000  1.0  0.089
  C  C315  1  0.717000  0.076000  0.768000  1.0  -0.0586
  C  C316  1  0.694000  0.095000  0.810000  1.0  -0.1195
  C  C317  1  0.698000  0.068000  0.840000  1.0  -0.0885
  C  C318  1  0.711000  0.014000  0.816000  1.0  -0.0926
  C  C319  1  0.719000  0.994000  0.766000  1.0  -0.0638
  C  C320  1  0.685000  0.149000  0.918000  1.0  -0.1179
  C  C321  1  0.669000  0.168000  0.960000  1.0  -0.2018
  C  C322  1  0.650000  0.130000  0.972000  1.0  0.1716
  C  C323  1  0.646000  0.073000  0.942000  1.0  -0.2192
  C  C324  1  0.661000  0.055000  0.900000  1.0  -0.1227
  C  C325  1  0.681000  0.093000  0.888000  1.0  0.022
  C  C326  1  0.647000  0.188000  0.038000  1.0  -0.0065
  C  C327  1  0.109000  0.003000  0.706000  1.0  0.352
  C  C328  1  0.176000  0.032000  0.754000  1.0  -0.069
  C  C329  1  0.194000  0.013000  0.792000  1.0  -0.048
  C  C330  1  0.252000  0.036000  0.836000  1.0  -0.116
  C  C331  1  0.291000  0.080000  0.840000  1.0  -0.0728
  C  C332  1  0.269000  0.098000  0.802000  1.0  -0.1999
  C  C333  1  0.211000  0.076000  0.764000  1.0  -0.0534
  C  C334  1  0.357000  0.099000  0.888000  1.0  -0.0105
  C  C335  1  0.385000  0.062000  0.906000  1.0  -0.1269
  C  C336  1  0.443000  0.080000  0.948000  1.0  -0.1637
  C  C337  1  0.473000  0.135000  0.972000  1.0  0.0983
  C  C338  1  0.446000  0.172000  0.954000  1.0  -0.1297
  C  C339  1  0.389000  0.154000  0.914000  1.0  -0.1054
  C  C340  1  0.553000  0.183000  0.042000  1.0  -0.0269
  C  C341  1  0.621000  0.206000  0.078000  1.0  0.1778
  C  C342  1  0.627000  0.172000  0.106000  1.0  0.0104
  C  C343  1  0.800000  0.682000  0.420000  1.0  0.2
  C  C344  1  0.779000  0.620000  0.380000  1.0  0.3312
  C  C345  1  0.773000  0.610000  0.334000  1.0  0.0025
  C  C346  1  0.738000  0.550000  0.292000  1.0  -0.1044
  C  C347  1  0.741000  0.509000  0.302000  1.0  0.1829
  C  C348  1  0.764000  0.523000  0.356000  1.0  -0.1354
  C  C349  1  0.783000  0.582000  0.394000  1.0  -0.0197
  C  C350  1  0.719000  0.452000  0.260000  1.0  0.0387
  C  C351  1  0.757000  0.426000  0.238000  1.0  -0.1475
  C  C352  1  0.739000  0.370000  0.200000  1.0  -0.1184
  C  C353  1  0.682000  0.341000  0.182000  1.0  0.2742
  C  C354  1  0.642000  0.367000  0.202000  1.0  -0.1935
  C  C355  1  0.661000  0.422000  0.242000  1.0  -0.0874
  C  C356  1  0.620000  0.264000  0.120000  1.0  -0.1621
  C  C357  1  0.786000  0.047000  0.418000  1.0  0.282
  C  C358  1  0.766000  0.072000  0.380000  1.0  0.2082
  C  C359  1  0.767000  0.121000  0.392000  1.0  -0.0611
  C  C360  1  0.746000  0.144000  0.356000  1.0  -0.1875
  C  C361  1  0.724000  0.108000  0.302000  1.0  0.066
  C  C362  1  0.724000  0.052000  0.286000  1.0  -0.1523
  C  C363  1  0.741000  0.033000  0.326000  1.0  -0.0739
  C  C364  1  0.709000  0.130000  0.264000  1.0  0.0596
  C  C365  1  0.659000  0.155000  0.258000  1.0  -0.1683
  C  C366  1  0.633000  0.167000  0.216000  1.0  -0.1523
  C  C367  1  0.658000  0.154000  0.180000  1.0  -0.0148
  C  C368  1  0.708000  0.129000  0.186000  1.0  -0.0713
  C  C369  1  0.734000  0.117000  0.228000  1.0  -0.1689
  C  C370  1  0.216000  0.707000  0.464000  1.0  0.2674
  C  C371  1  0.167000  0.665000  0.430000  1.0  0.1361
  C  C372  1  0.102000  0.674000  0.406000  1.0  -0.1228
  C  C373  1  0.106000  0.731000  0.426000  1.0  -0.0916
  C  C374  1  0.157000  0.775000  0.462000  1.0  -0.1155
  C  C375  1  0.212000  0.763000  0.480000  1.0  -0.1922
  C  C376  1  0.419000  0.453000  0.468000  1.0  0.2012
  C  C377  1  0.424000  0.459000  0.428000  1.0  0.1549
  C  C378  1  0.463000  0.429000  0.404000  1.0  -0.1197
  C  C379  1  0.489000  0.392000  0.424000  1.0  -0.137
  C  C380  1  0.481000  0.389000  0.466000  1.0  -0.101
  C  C381  1  0.444000  0.416000  0.488000  1.0  -0.1127
  C  C382  1  0.204000  0.449000  0.462000  1.0  0.1742
  C  C383  1  0.199000  0.409000  0.478000  1.0  -0.1211
  C  C384  1  0.141000  0.383000  0.454000  1.0  -0.0661
  C  C385  1  0.095000  0.391000  0.422000  1.0  -0.0768
  C  C386  1  0.097000  0.427000  0.404000  1.0  -0.0744
  C  C387  1  0.159000  0.460000  0.426000  1.0  0.1396
  C  C388  1  0.478000  0.649000  0.404000  1.0  -0.0473
  C  C389  1  0.435000  0.645000  0.428000  1.0  0.0283
  C  C390  1  0.429000  0.696000  0.468000  1.0  0.0717
  C  C391  1  0.466000  0.749000  0.490000  1.0  -0.112
  C  C392  1  0.512000  0.747000  0.470000  1.0  -0.1111
  C  C393  1  0.514000  0.698000  0.428000  1.0  -0.1028
  C  C394  1  0.390000  0.629000  0.616000  1.0  0.2475
  C  C395  1  0.393000  0.676000  0.616000  1.0  0.2266
  C  C396  1  0.416000  0.729000  0.662000  1.0  -0.0733
  C  C397  1  0.442000  0.721000  0.706000  1.0  -0.1147
  C  C398  1  0.443000  0.674000  0.708000  1.0  -0.0982
  C  C399  1  0.412000  0.621000  0.662000  1.0  -0.1198
  C  C400  1  0.242000  0.489000  0.282000  1.0  0.0833
  C  C401  1  0.187000  0.493000  0.286000  1.0  0.1644
  C  C402  1  0.132000  0.466000  0.240000  1.0  -0.0813
  C  C403  1  0.133000  0.435000  0.190000  1.0  -0.0991
  C  C404  1  0.188000  0.431000  0.188000  1.0  -0.1038
  C  C405  1  0.242000  0.458000  0.232000  1.0  -0.1211
  C  C406  1  0.044000  0.505000  0.302000  1.0  0.4884
  C  C407  1  0.982000  0.476000  0.254000  1.0  0.0832
  C  C408  1  0.949000  0.424000  0.232000  1.0  -0.0589
  C  C409  1  0.884000  0.405000  0.190000  1.0  -0.1173
  C  C410  1  0.858000  0.432000  0.160000  1.0  -0.0858
  C  C411  1  0.895000  0.486000  0.184000  1.0  -0.0965
  C  C412  1  0.953000  0.506000  0.234000  1.0  -0.0659
  C  C413  1  0.767000  0.351000  0.082000  1.0  -0.1131
  C  C414  1  0.709000  0.332000  0.040000  1.0  -0.2043
  C  C415  1  0.678000  0.370000  0.028000  1.0  0.1717
  C  C416  1  0.704000  0.427000  0.058000  1.0  -0.2215
  C  C417  1  0.761000  0.445000  0.100000  1.0  -0.1212
  C  C418  1  0.793000  0.407000  0.112000  1.0  0.0253
  C  C419  1  0.609000  0.312000  0.962000  1.0  -0.0049
  C  C420  1  0.403000  0.497000  0.294000  1.0  0.3553
  C  C421  1  0.422000  0.468000  0.246000  1.0  -0.0668
  C  C422  1  0.402000  0.487000  0.208000  1.0  -0.0507
  C  C423  1  0.416000  0.464000  0.164000  1.0  -0.1196
  C  C424  1  0.451000  0.420000  0.160000  1.0  -0.0707
  C  C425  1  0.467000  0.402000  0.198000  1.0  -0.1997
  C  C426  1  0.447000  0.424000  0.236000  1.0  -0.0537
  C  C427  1  0.469000  0.401000  0.112000  1.0  -0.0094
  C  C428  1  0.479000  0.438000  0.094000  1.0  -0.1294
  C  C429  1  0.495000  0.420000  0.052000  1.0  -0.1606
  C  C430  1  0.501000  0.365000  0.028000  1.0  0.0977
  C  C431  1  0.492000  0.328000  0.046000  1.0  -0.1299
  C  C432  1  0.475000  0.346000  0.086000  1.0  -0.104
  C  C433  1  0.511000  0.317000  0.958000  1.0  -0.0272
  C  C434  1  0.543000  0.294000  0.922000  1.0  0.1795
  C  C435  1  0.521000  0.328000  0.894000  1.0  0.0097
  C  C436  1  0.380000  0.818000  0.580000  1.0  0.199
  C  C437  1  0.399000  0.880000  0.620000  1.0  0.3326
  C  C438  1  0.439000  0.890000  0.666000  1.0  -0.0016
  C  C439  1  0.446000  0.950000  0.708000  1.0  -0.1034
  C  C440  1  0.439000  0.991000  0.698000  1.0  0.1837
  C  C441  1  0.408000  0.977000  0.644000  1.0  -0.1342
  C  C442  1  0.389000  0.918000  0.606000  1.0  -0.0224
  C  C443  1  0.459000  0.048000  0.740000  1.0  0.0389
  C  C444  1  0.519000  0.074000  0.762000  1.0  -0.1491
  C  C445  1  0.539000  0.130000  0.800000  1.0  -0.1217
  C  C446  1  0.500000  0.159000  0.818000  1.0  0.2753
  C  C447  1  0.440000  0.133000  0.798000  1.0  -0.1954
  C  C448  1  0.419000  0.078000  0.758000  1.0  -0.0879
  C  C449  1  0.500000  0.236000  0.880000  1.0  -0.1626
  C  C450  1  0.368000  0.453000  0.582000  1.0  0.2735
  C  C451  1  0.386000  0.428000  0.620000  1.0  0.2065
  C  C452  1  0.375000  0.379000  0.608000  1.0  -0.0622
  C  C453  1  0.390000  0.356000  0.644000  1.0  -0.1846
  C  C454  1  0.422000  0.392000  0.698000  1.0  0.0657
  C  C455  1  0.438000  0.448000  0.714000  1.0  -0.151
  C  C456  1  0.415000  0.467000  0.674000  1.0  -0.0747
  C  C457  1  0.445000  0.370000  0.736000  1.0  0.0579
  C  C458  1  0.401000  0.345000  0.742000  1.0  -0.1654
  C  C459  1  0.417000  0.333000  0.784000  1.0  -0.1522
  C  C460  1  0.478000  0.346000  0.820000  1.0  -0.0135
  C  C461  1  0.522000  0.371000  0.814000  1.0  -0.0665
  C  C462  1  0.506000  0.383000  0.772000  1.0  -0.1676
  C  C463  1  0.248000  0.207000  0.464000  1.0  0.269
  C  C464  1  0.263000  0.165000  0.430000  1.0  0.1374
  C  C465  1  0.304000  0.174000  0.406000  1.0  -0.1213
  C  C466  1  0.320000  0.231000  0.426000  1.0  -0.088
  C  C467  1  0.305000  0.275000  0.462000  1.0  -0.115
  C  C468  1  0.268000  0.263000  0.480000  1.0  -0.1953
  C  C469  1  0.049000  0.953000  0.468000  1.0  0.2001
  C  C470  1  0.004000  0.959000  0.428000  1.0  0.1547
  C  C471  1  0.941000  0.929000  0.404000  1.0  -0.1217
  C  C472  1  0.935000  0.892000  0.424000  1.0  -0.1381
  C  C473  1  0.985000  0.889000  0.466000  1.0  -0.1007
  C  C474  1  0.044000  0.916000  0.488000  1.0  -0.1102
  C  C475  1  0.258000  0.949000  0.462000  1.0  0.1737
  C  C476  1  0.279000  0.909000  0.478000  1.0  -0.121
  C  C477  1  0.313000  0.883000  0.454000  1.0  -0.0681
  C  C478  1  0.327000  0.891000  0.422000  1.0  -0.0747
  C  C479  1  0.307000  0.927000  0.404000  1.0  -0.0754
  C  C480  1  0.267000  0.960000  0.426000  1.0  0.1381
  C  C481  1  0.926000  0.149000  0.404000  1.0  -0.0482
  C  C482  1  0.993000  0.145000  0.428000  1.0  0.0249
  C  C483  1  0.039000  0.196000  0.468000  1.0  0.0737
  C  C484  1  0.024000  0.249000  0.490000  1.0  -0.1127
  C  C485  1  0.958000  0.247000  0.470000  1.0  -0.1128
  C  C486  1  0.914000  0.198000  0.428000  1.0  -0.1023
  C  C487  1  0.226000  0.129000  0.616000  1.0  0.2465
  C  C488  1  0.223000  0.176000  0.616000  1.0  0.2274
  C  C489  1  0.246000  0.229000  0.662000  1.0  -0.0706
  C  C490  1  0.264000  0.221000  0.706000  1.0  -0.115
  C  C491  1  0.265000  0.174000  0.708000  1.0  -0.0962
  C  C492  1  0.250000  0.121000  0.662000  1.0  -0.1207
  C  C493  1  0.040000  0.989000  0.282000  1.0  0.0799
  C  C494  1  0.099000  0.993000  0.286000  1.0  0.1659
  C  C495  1  0.108000  0.966000  0.240000  1.0  -0.0815
  C  C496  1  0.057000  0.935000  0.190000  1.0  -0.0956
  C  C497  1  0.000000  0.931000  0.188000  1.0  -0.1117
  C  C498  1  0.990000  0.958000  0.232000  1.0  -0.1188
  C  C499  1  0.258000  0.005000  0.302000  1.0  0.4915
  C  C500  1  0.272000  0.976000  0.254000  1.0  0.089
  C  C501  1  0.283000  0.924000  0.232000  1.0  -0.0591
  C  C502  1  0.306000  0.905000  0.190000  1.0  -0.1195
  C  C503  1  0.302000  0.932000  0.160000  1.0  -0.0897
  C  C504  1  0.289000  0.986000  0.184000  1.0  -0.0954
  C  C505  1  0.281000  0.006000  0.234000  1.0  -0.065
  C  C506  1  0.315000  0.851000  0.082000  1.0  -0.1171
  C  C507  1  0.331000  0.832000  0.040000  1.0  -0.2012
  C  C508  1  0.350000  0.870000  0.028000  1.0  0.1715
  C  C509  1  0.354000  0.927000  0.058000  1.0  -0.2186
  C  C510  1  0.339000  0.945000  0.100000  1.0  -0.1197
  C  C511  1  0.319000  0.907000  0.112000  1.0  0.0238
  C  C512  1  0.353000  0.812000  0.962000  1.0  -0.007
  C  C513  1  0.891000  0.997000  0.294000  1.0  0.3533
  C  C514  1  0.824000  0.968000  0.246000  1.0  -0.0687
  C  C515  1  0.806000  0.987000  0.208000  1.0  -0.0479
  C  C516  1  0.748000  0.964000  0.164000  1.0  -0.115
  C  C517  1  0.709000  0.920000  0.160000  1.0  -0.0721
  C  C518  1  0.731000  0.902000  0.198000  1.0  -0.2011
  C  C519  1  0.789000  0.924000  0.236000  1.0  -0.0528
  C  C520  1  0.643000  0.901000  0.112000  1.0  -0.0107
  C  C521  1  0.615000  0.938000  0.094000  1.0  -0.1264
  C  C522  1  0.557000  0.920000  0.052000  1.0  -0.1633
  C  C523  1  0.527000  0.865000  0.028000  1.0  0.0964
  C  C524  1  0.554000  0.828000  0.046000  1.0  -0.1295
  C  C525  1  0.611000  0.846000  0.086000  1.0  -0.103
  C  C526  1  0.447000  0.817000  0.958000  1.0  -0.0239
  C  C527  1  0.379000  0.794000  0.922000  1.0  0.1789
  C  C528  1  0.373000  0.828000  0.894000  1.0  0.012
  C  C529  1  0.200000  0.318000  0.580000  1.0  0.1997
  C  C530  1  0.221000  0.380000  0.620000  1.0  0.3335
  C  C531  1  0.227000  0.390000  0.666000  1.0  0.0029
  C  C532  1  0.262000  0.450000  0.708000  1.0  -0.1041
  C  C533  1  0.259000  0.491000  0.698000  1.0  0.1826
  C  C534  1  0.236000  0.477000  0.644000  1.0  -0.1372
  C  C535  1  0.217000  0.418000  0.606000  1.0  -0.0229
  C  C536  1  0.281000  0.548000  0.740000  1.0  0.039
  C  C537  1  0.243000  0.574000  0.762000  1.0  -0.1484
  C  C538  1  0.261000  0.630000  0.800000  1.0  -0.1176
  C  C539  1  0.318000  0.659000  0.818000  1.0  0.2745
  C  C540  1  0.358000  0.633000  0.798000  1.0  -0.1966
  C  C541  1  0.339000  0.578000  0.758000  1.0  -0.088
  C  C542  1  0.380000  0.736000  0.880000  1.0  -0.1633
  C  C543  1  0.214000  0.953000  0.582000  1.0  0.2731
  C  C544  1  0.234000  0.928000  0.620000  1.0  0.2115
  C  C545  1  0.233000  0.879000  0.608000  1.0  -0.0626
  C  C546  1  0.254000  0.856000  0.644000  1.0  -0.1859
  C  C547  1  0.276000  0.892000  0.698000  1.0  0.0662
  C  C548  1  0.276000  0.948000  0.714000  1.0  -0.1511
  C  C549  1  0.259000  0.967000  0.674000  1.0  -0.0748
  C  C550  1  0.291000  0.870000  0.736000  1.0  0.059
  C  C551  1  0.341000  0.845000  0.742000  1.0  -0.1686
  C  C552  1  0.367000  0.833000  0.784000  1.0  -0.15
  C  C553  1  0.342000  0.846000  0.820000  1.0  -0.0142
  C  C554  1  0.292000  0.871000  0.814000  1.0  -0.0716
  C  C555  1  0.266000  0.883000  0.772000  1.0  -0.1698
  C  C556  1  0.784000  0.293000  0.536000  1.0  0.2661
  C  C557  1  0.833000  0.335000  0.570000  1.0  0.1325
  C  C558  1  0.898000  0.326000  0.594000  1.0  -0.1183
  C  C559  1  0.894000  0.269000  0.574000  1.0  -0.0881
  C  C560  1  0.843000  0.225000  0.538000  1.0  -0.1155
  C  C561  1  0.788000  0.237000  0.520000  1.0  -0.194
  C  C562  1  0.581000  0.547000  0.532000  1.0  0.2008
  C  C563  1  0.576000  0.541000  0.572000  1.0  0.1547
  C  C564  1  0.537000  0.571000  0.596000  1.0  -0.1203
  C  C565  1  0.511000  0.608000  0.576000  1.0  -0.1351
  C  C566  1  0.519000  0.611000  0.534000  1.0  -0.1011
  C  C567  1  0.556000  0.584000  0.512000  1.0  -0.1111
  C  C568  1  0.796000  0.551000  0.538000  1.0  0.1756
  C  C569  1  0.801000  0.591000  0.522000  1.0  -0.1235
  C  C570  1  0.859000  0.617000  0.546000  1.0  -0.0658
  C  C571  1  0.905000  0.609000  0.578000  1.0  -0.0725
  C  C572  1  0.903000  0.573000  0.596000  1.0  -0.0738
  C  C573  1  0.841000  0.540000  0.574000  1.0  0.1402
  C  C574  1  0.522000  0.351000  0.596000  1.0  -0.0489
  C  C575  1  0.565000  0.355000  0.572000  1.0  0.0286
  C  C576  1  0.571000  0.304000  0.532000  1.0  0.0717
  C  C577  1  0.534000  0.251000  0.510000  1.0  -0.1123
  C  C578  1  0.488000  0.253000  0.530000  1.0  -0.1093
  C  C579  1  0.486000  0.302000  0.572000  1.0  -0.1006
  C  C580  1  0.610000  0.371000  0.384000  1.0  0.2489
  C  C581  1  0.607000  0.324000  0.384000  1.0  0.2268
  C  C582  1  0.584000  0.271000  0.338000  1.0  -0.0719
  C  C583  1  0.558000  0.279000  0.294000  1.0  -0.1168
  C  C584  1  0.557000  0.326000  0.292000  1.0  -0.0981
  C  C585  1  0.588000  0.379000  0.338000  1.0  -0.1192
  C  C586  1  0.758000  0.511000  0.718000  1.0  0.0821
  C  C587  1  0.813000  0.507000  0.714000  1.0  0.1669
  C  C588  1  0.868000  0.534000  0.760000  1.0  -0.0812
  C  C589  1  0.867000  0.565000  0.810000  1.0  -0.0989
  C  C590  1  0.812000  0.569000  0.812000  1.0  -0.1041
  C  C591  1  0.758000  0.542000  0.768000  1.0  -0.1204
  C  C592  1  0.956000  0.495000  0.698000  1.0  0.4908
  C  C593  1  0.018000  0.524000  0.746000  1.0  0.0836
  C  C594  1  0.051000  0.576000  0.768000  1.0  -0.0595
  C  C595  1  0.116000  0.595000  0.810000  1.0  -0.1173
  C  C596  1  0.142000  0.568000  0.840000  1.0  -0.0849
  C  C597  1  0.105000  0.514000  0.816000  1.0  -0.0943
  C  C598  1  0.047000  0.494000  0.766000  1.0  -0.0643
  C  C599  1  0.233000  0.649000  0.918000  1.0  -0.1158
  C  C600  1  0.291000  0.668000  0.960000  1.0  -0.2072
  C  C601  1  0.322000  0.630000  0.972000  1.0  0.1716
  C  C602  1  0.296000  0.573000  0.942000  1.0  -0.2228
  C  C603  1  0.239000  0.555000  0.900000  1.0  -0.1228
  C  C604  1  0.207000  0.593000  0.888000  1.0  0.0249
  C  C605  1  0.391000  0.688000  0.038000  1.0  -0.0066
  C  C606  1  0.597000  0.503000  0.706000  1.0  0.353
  C  C607  1  0.578000  0.532000  0.754000  1.0  -0.0685
  C  C608  1  0.598000  0.513000  0.792000  1.0  -0.0488
  C  C609  1  0.584000  0.536000  0.836000  1.0  -0.1196
  C  C610  1  0.549000  0.580000  0.840000  1.0  -0.0708
  C  C611  1  0.533000  0.598000  0.802000  1.0  -0.1962
  C  C612  1  0.553000  0.576000  0.764000  1.0  -0.0543
  C  C613  1  0.531000  0.599000  0.888000  1.0  -0.0079
  C  C614  1  0.521000  0.562000  0.906000  1.0  -0.1274
  C  C615  1  0.505000  0.580000  0.948000  1.0  -0.1594
  C  C616  1  0.499000  0.635000  0.972000  1.0  0.0997
  C  C617  1  0.508000  0.672000  0.954000  1.0  -0.1302
  C  C618  1  0.525000  0.654000  0.914000  1.0  -0.1039
  C  C619  1  0.489000  0.683000  0.042000  1.0  -0.0252
  C  C620  1  0.457000  0.706000  0.078000  1.0  0.1779
  C  C621  1  0.479000  0.672000  0.106000  1.0  0.0111
  C  C622  1  0.620000  0.182000  0.420000  1.0  0.1984
  C  C623  1  0.601000  0.120000  0.380000  1.0  0.3353
  C  C624  1  0.561000  0.110000  0.334000  1.0  -0.0038
  C  C625  1  0.554000  0.050000  0.292000  1.0  -0.1018
  C  C626  1  0.561000  0.009000  0.302000  1.0  0.1822
  C  C627  1  0.592000  0.023000  0.356000  1.0  -0.1355
  C  C628  1  0.611000  0.082000  0.394000  1.0  -0.0224
  C  C629  1  0.541000  0.952000  0.260000  1.0  0.0388
  C  C630  1  0.481000  0.926000  0.238000  1.0  -0.1483
  C  C631  1  0.461000  0.870000  0.200000  1.0  -0.1221
  C  C632  1  0.500000  0.841000  0.182000  1.0  0.2758
  C  C633  1  0.560000  0.867000  0.202000  1.0  -0.194
  C  C634  1  0.581000  0.922000  0.242000  1.0  -0.0871
  C  C635  1  0.500000  0.764000  0.120000  1.0  -0.1614
  C  C636  1  0.632000  0.547000  0.418000  1.0  0.2822
  C  C637  1  0.614000  0.572000  0.380000  1.0  0.2082
  C  C638  1  0.625000  0.621000  0.392000  1.0  -0.0621
  C  C639  1  0.610000  0.644000  0.356000  1.0  -0.1856
  C  C640  1  0.578000  0.608000  0.302000  1.0  0.0655
  C  C641  1  0.562000  0.552000  0.286000  1.0  -0.1526
  C  C642  1  0.585000  0.533000  0.326000  1.0  -0.0738
  C  C643  1  0.555000  0.630000  0.264000  1.0  0.058
  C  C644  1  0.599000  0.655000  0.258000  1.0  -0.1651
  C  C645  1  0.583000  0.667000  0.216000  1.0  -0.1506
  C  C646  1  0.522000  0.654000  0.180000  1.0  -0.0142
  C  C647  1  0.478000  0.629000  0.186000  1.0  -0.0673
  C  C648  1  0.494000  0.617000  0.228000  1.0  -0.1679
  N  N649  1  0.975000  0.007000  0.584000  1.0  -0.2752
  N  N650  1  0.916000  0.991000  0.552000  1.0  -0.0073
  N  N651  1  0.899000  0.015000  0.520000  1.0  -0.378
  N  N652  1  0.776000  0.015000  0.522000  1.0  -0.2457
  N  N653  1  0.789000  0.986000  0.550000  1.0  -0.1111
  N  N654  1  0.801000  0.832000  0.436000  1.0  -0.4098
  N  N655  1  0.812000  0.887000  0.464000  1.0  -0.147
  N  N656  1  0.797000  0.917000  0.436000  1.0  -0.4269
  N  N657  1  0.787000  0.814000  0.524000  1.0  -0.2194
  N  N658  1  0.793000  0.867000  0.550000  1.0  -0.089
  N  N659  1  0.950000  0.991000  0.666000  1.0  -0.2547
  N  N660  1  0.893000  0.976000  0.640000  1.0  -0.1604
  N  N661  1  0.858000  0.986000  0.662000  1.0  -0.3043
  N  N662  1  0.920000  0.877000  0.554000  1.0  -0.1015
  N  N663  1  0.981000  0.897000  0.586000  1.0  -0.2615
  N  N664  1  0.762000  0.883000  0.580000  1.0  -0.3377
  N  N665  1  0.910000  0.823000  0.522000  1.0  -0.1471
  N  N666  1  0.760000  0.001000  0.580000  1.0  -0.1956
  N  N667  1  0.391000  0.493000  0.416000  1.0  -0.2758
  N  N668  1  0.364000  0.509000  0.448000  1.0  -0.008
  N  N669  1  0.379000  0.485000  0.480000  1.0  -0.3732
  N  N670  1  0.254000  0.485000  0.478000  1.0  -0.2424
  N  N671  1  0.239000  0.514000  0.450000  1.0  -0.112
  N  N672  1  0.365000  0.668000  0.564000  1.0  -0.4082
  N  N673  1  0.348000  0.613000  0.536000  1.0  -0.1471
  N  N674  1  0.361000  0.583000  0.564000  1.0  -0.4251
  N  N675  1  0.263000  0.686000  0.476000  1.0  -0.2187
  N  N676  1  0.243000  0.633000  0.450000  1.0  -0.0873
  N  N677  1  0.284000  0.509000  0.334000  1.0  -0.253
  N  N678  1  0.253000  0.524000  0.360000  1.0  -0.1595
  N  N679  1  0.196000  0.514000  0.338000  1.0  -0.3042
  N  N680  1  0.366000  0.623000  0.446000  1.0  -0.1029
  N  N681  1  0.395000  0.603000  0.414000  1.0  -0.2579
  N  N682  1  0.182000  0.617000  0.420000  1.0  -0.3392
  N  N683  1  0.388000  0.677000  0.478000  1.0  -0.1488
  N  N684  1  0.180000  0.499000  0.420000  1.0  -0.1955
  N  N685  1  0.025000  0.993000  0.416000  1.0  -0.2769
  N  N686  1  0.084000  0.009000  0.448000  1.0  -0.0067
  N  N687  1  0.101000  0.985000  0.480000  1.0  -0.3756
  N  N688  1  0.224000  0.985000  0.478000  1.0  -0.2449
  N  N689  1  0.211000  0.014000  0.450000  1.0  -0.1117
  N  N690  1  0.199000  0.168000  0.564000  1.0  -0.4083
  N  N691  1  0.188000  0.113000  0.536000  1.0  -0.1479
  N  N692  1  0.203000  0.083000  0.564000  1.0  -0.4248
  N  N693  1  0.213000  0.186000  0.476000  1.0  -0.2207
  N  N694  1  0.207000  0.133000  0.450000  1.0  -0.0897
  N  N695  1  0.050000  0.009000  0.334000  1.0  -0.2538
  N  N696  1  0.107000  0.024000  0.360000  1.0  -0.1595
  N  N697  1  0.142000  0.014000  0.338000  1.0  -0.3047
  N  N698  1  0.080000  0.123000  0.446000  1.0  -0.1022
  N  N699  1  0.019000  0.103000  0.414000  1.0  -0.2607
  N  N700  1  0.238000  0.117000  0.420000  1.0  -0.3389
  N  N701  1  0.090000  0.177000  0.478000  1.0  -0.1484
  N  N702  1  0.240000  0.999000  0.420000  1.0  -0.1942
  N  N703  1  0.609000  0.507000  0.584000  1.0  -0.2766
  N  N704  1  0.636000  0.491000  0.552000  1.0  -0.007
  N  N705  1  0.621000  0.515000  0.520000  1.0  -0.3747
  N  N706  1  0.746000  0.515000  0.522000  1.0  -0.2436
  N  N707  1  0.761000  0.486000  0.550000  1.0  -0.1122
  N  N708  1  0.635000  0.332000  0.436000  1.0  -0.4073
  N  N709  1  0.652000  0.387000  0.464000  1.0  -0.1466
  N  N710  1  0.639000  0.417000  0.436000  1.0  -0.4246
  N  N711  1  0.737000  0.314000  0.524000  1.0  -0.221
  N  N712  1  0.757000  0.367000  0.550000  1.0  -0.0876
  N  N713  1  0.716000  0.491000  0.666000  1.0  -0.2541
  N  N714  1  0.747000  0.476000  0.640000  1.0  -0.1624
  N  N715  1  0.804000  0.486000  0.662000  1.0  -0.3039
  N  N716  1  0.634000  0.377000  0.554000  1.0  -0.1023
  N  N717  1  0.605000  0.397000  0.586000  1.0  -0.2596
  N  N718  1  0.818000  0.383000  0.580000  1.0  -0.3367
  N  N719  1  0.612000  0.323000  0.522000  1.0  -0.1482
  N  N720  1  0.820000  0.501000  0.580000  1.0  -0.1944
  O  O721  1  0.095000  0.029000  0.684000  1.0  -0.5512
  O  O722  1  0.088000  0.964000  0.702000  1.0  -0.5769
  O  O723  1  0.792000  0.713000  0.412000  1.0  -0.658
  O  O724  1  0.827000  0.693000  0.466000  1.0  -0.5819
  O  O725  1  0.806000  0.080000  0.462000  1.0  -0.5833
  O  O726  1  0.782000  0.005000  0.406000  1.0  -0.5645
  O  O727  1  0.747000  0.035000  0.686000  1.0  -0.6352
  O  O728  1  0.753000  0.949000  0.690000  1.0  -0.5774
  O  O729  1  0.533000  0.134000  0.004000  1.0  -0.3941
  O  O730  1  0.620000  0.189000  0.150000  1.0  -0.4756
  O  O731  1  0.628000  0.135000  0.008000  1.0  -0.3542
  O  O732  1  0.666000  0.285000  0.144000  1.0  -0.4397
  O  O733  1  0.411000  0.471000  0.316000  1.0  -0.5529
  O  O734  1  0.386000  0.536000  0.298000  1.0  -0.5794
  O  O735  1  0.380000  0.787000  0.588000  1.0  -0.6568
  O  O736  1  0.361000  0.807000  0.534000  1.0  -0.5823
  O  O737  1  0.344000  0.420000  0.538000  1.0  -0.5833
  O  O738  1  0.376000  0.495000  0.594000  1.0  -0.5666
  O  O739  1  0.061000  0.465000  0.314000  1.0  -0.6355
  O  O740  1  0.063000  0.551000  0.310000  1.0  -0.5847
  O  O741  1  0.529000  0.366000  0.996000  1.0  -0.3904
  O  O742  1  0.470000  0.311000  0.850000  1.0  -0.4748
  O  O743  1  0.620000  0.365000  0.992000  1.0  -0.3515
  O  O744  1  0.522000  0.215000  0.856000  1.0  -0.447
  O  O745  1  0.905000  0.971000  0.316000  1.0  -0.5512
  O  O746  1  0.912000  0.036000  0.298000  1.0  -0.5774
  O  O747  1  0.208000  0.287000  0.588000  1.0  -0.6575
  O  O748  1  0.173000  0.307000  0.534000  1.0  -0.5814
  O  O749  1  0.194000  0.920000  0.538000  1.0  -0.5832
  O  O750  1  0.218000  0.995000  0.594000  1.0  -0.5665
  O  O751  1  0.253000  0.965000  0.314000  1.0  -0.6359
  O  O752  1  0.247000  0.051000  0.310000  1.0  -0.5793
  O  O753  1  0.467000  0.866000  0.996000  1.0  -0.392
  O  O754  1  0.380000  0.811000  0.850000  1.0  -0.4746
  O  O755  1  0.372000  0.865000  0.992000  1.0  -0.3552
  O  O756  1  0.334000  0.715000  0.856000  1.0  -0.4442
  O  O757  1  0.589000  0.529000  0.684000  1.0  -0.5525
  O  O758  1  0.614000  0.464000  0.702000  1.0  -0.576
  O  O759  1  0.620000  0.213000  0.412000  1.0  -0.6588
  O  O760  1  0.639000  0.193000  0.466000  1.0  -0.5823
  O  O761  1  0.656000  0.580000  0.462000  1.0  -0.5833
  O  O762  1  0.624000  0.505000  0.406000  1.0  -0.5649
  O  O763  1  0.939000  0.535000  0.686000  1.0  -0.6363
  O  O764  1  0.937000  0.449000  0.690000  1.0  -0.5817
  O  O765  1  0.471000  0.634000  0.004000  1.0  -0.3951
  O  O766  1  0.530000  0.689000  0.150000  1.0  -0.4713
  O  O767  1  0.380000  0.635000  0.008000  1.0  -0.3522
  O  O768  1  0.478000  0.785000  0.144000  1.0  -0.4448
