# generated using pymatgen
data_Zn5H68C78(N9O7)2
_symmetry_space_group_name_H-M   'P 1'
_cell_length_a   19.89760000
_cell_length_b   23.49140000
_cell_length_c   36.96240000
_cell_angle_alpha   82.50950000
_cell_angle_beta   74.38570000
_cell_angle_gamma   64.94370000
_symmetry_Int_Tables_number   1
_chemical_formula_structural   Zn5H68C78(N9O7)2
_chemical_formula_sum   'Zn20 H272 C312 N72 O56'
_cell_volume   15070.89607118
_cell_formula_units_Z   4
loop_
 _symmetry_equiv_pos_site_id
 _symmetry_equiv_pos_as_xyz
  1  'x, y, z'
loop_
 _atom_site_type_symbol
 _atom_site_label
 _atom_site_symmetry_multiplicity
 _atom_site_fract_x
 _atom_site_fract_y
 _atom_site_fract_z
 _atom_site_occupancy
 _atom_site_charge
  Zn  Zn1  1  0.247060  0.760550  0.670230  1.0  0.6986
  Zn  Zn2  1  0.179580  0.913730  0.627610  1.0  0.9032
  Zn  Zn3  1  0.164520  0.671510  0.643210  1.0  0.8949
  Zn  Zn4  1  0.447110  0.686520  0.641120  1.0  0.5394
  Zn  Zn5  1  0.192240  0.776620  0.769000  1.0  0.9574
  Zn  Zn6  1  0.322160  0.260550  0.170230  1.0  0.6979
  Zn  Zn7  1  0.279080  0.413730  0.127610  1.0  0.9052
  Zn  Zn8  1  0.520760  0.171510  0.143210  1.0  0.8952
  Zn  Zn9  1  0.225250  0.186520  0.141120  1.0  0.5444
  Zn  Zn10  1  0.262140  0.276620  0.269000  1.0  0.9585
  Zn  Zn11  1  0.677840  0.739450  0.829770  1.0  0.6986
  Zn  Zn12  1  0.720920  0.586270  0.872390  1.0  0.9064
  Zn  Zn13  1  0.479240  0.828490  0.856790  1.0  0.8954
  Zn  Zn14  1  0.774750  0.813480  0.858880  1.0  0.5416
  Zn  Zn15  1  0.737860  0.723380  0.731000  1.0  0.9598
  Zn  Zn16  1  0.752940  0.239450  0.329770  1.0  0.6986
  Zn  Zn17  1  0.820420  0.086270  0.372390  1.0  0.9019
  Zn  Zn18  1  0.835480  0.328490  0.356790  1.0  0.8944
  Zn  Zn19  1  0.552890  0.313480  0.358880  1.0  0.5408
  Zn  Zn20  1  0.807760  0.223380  0.231000  1.0  0.9584
  H  H21  1  0.068700  0.721500  0.813100  1.0  0.0969
  H  H22  1  0.982000  0.678400  0.824400  1.0  0.0794
  H  H23  1  0.031300  0.638700  0.712700  1.0  0.095
  H  H24  1  0.912900  0.623600  0.803200  1.0  0.1142
  H  H25  1  0.900800  0.645400  0.762600  1.0  0.1087
  H  H26  1  0.964900  0.580000  0.769000  1.0  0.1154
  H  H27  1  0.051800  0.940400  0.574800  1.0  0.1043
  H  H28  1  0.984200  0.918200  0.542600  1.0  0.107
  H  H29  1  0.049000  0.740200  0.585400  1.0  0.0837
  H  H30  1  0.924400  0.856200  0.532600  1.0  0.103
  H  H31  1  0.981800  0.785600  0.527200  1.0  0.1091
  H  H32  1  0.916000  0.806000  0.563800  1.0  0.1097
  H  H33  1  0.066300  0.918400  0.803600  1.0  0.0853
  H  H34  1  0.984600  0.079500  0.746300  1.0  0.0978
  H  H35  1  0.057800  0.032100  0.686700  1.0  0.0978
  H  H36  1  0.944100  0.082000  0.810400  1.0  0.0967
  H  H37  1  0.931200  0.020500  0.824300  1.0  0.1019
  H  H38  1  0.996000  0.031700  0.834700  1.0  0.1139
  H  H39  1  0.517000  0.544000  0.593200  1.0  0.0891
  H  H40  1  0.392300  0.464200  0.568200  1.0  0.0977
  H  H41  1  0.281100  0.544800  0.598200  1.0  0.0824
  H  H42  1  0.506000  0.430300  0.537300  1.0  0.0912
  H  H43  1  0.528300  0.487300  0.523300  1.0  0.1044
  H  H44  1  0.571700  0.435900  0.550300  1.0  0.11
  H  H45  1  0.328600  0.720400  0.813800  1.0  0.1093
  H  H46  1  0.447300  0.672400  0.822200  1.0  0.08
  H  H47  1  0.546400  0.648700  0.712100  1.0  0.1275
  H  H48  1  0.621500  0.617600  0.760400  1.0  0.0907
  H  H49  1  0.582800  0.663100  0.794500  1.0  0.0848
  H  H50  1  0.582200  0.596100  0.799100  1.0  0.0926
  H  H51  1  0.060700  0.538200  0.657400  1.0  0.0838
  H  H52  1  0.106400  0.485000  0.536000  1.0  0.0753
  H  H53  1  0.149800  0.557700  0.548900  1.0  0.0941
  H  H54  1  0.966500  0.446500  0.702700  1.0  0.1044
  H  H55  1  0.039100  0.460900  0.695700  1.0  0.0978
  H  H56  1  0.961200  0.514500  0.690900  1.0  0.1049
  H  H57  1  0.015500  0.455100  0.530700  1.0  0.0422
  H  H58  1  0.091400  0.394500  0.530500  1.0  0.054
  H  H59  1  0.910800  0.417200  0.590000  1.0  0.0577
  H  H60  1  0.887200  0.385800  0.563200  1.0  0.0526
  H  H61  1  0.984000  0.403000  0.491800  1.0  0.0533
  H  H62  1  0.973700  0.340000  0.505200  1.0  0.0549
  H  H63  1  0.027000  0.324300  0.592100  1.0  0.0449
  H  H64  1  0.088500  0.295600  0.555000  1.0  0.0615
  H  H65  1  0.846200  0.551300  0.594300  1.0  0.1096
  H  H66  1  0.714100  0.608000  0.628000  1.0  0.0581
  H  H67  1  0.645500  0.555700  0.559300  1.0  0.1607
  H  H68  1  0.720700  0.457200  0.489800  1.0  0.1133
  H  H69  1  0.659600  0.495900  0.524300  1.0  0.1074
  H  H70  1  0.700800  0.529000  0.492200  1.0  0.1066
  H  H71  1  0.006100  0.356100  0.436700  1.0  0.084
  H  H72  1  0.056400  0.346700  0.372300  1.0  0.0941
  H  H73  1  0.265400  0.267100  0.389900  1.0  0.1031
  H  H74  1  0.321300  0.245500  0.471900  1.0  0.1122
  H  H75  1  0.318200  0.219900  0.435500  1.0  0.0834
  H  H76  1  0.312400  0.288500  0.435700  1.0  0.0831
  H  H77  1  0.111500  0.222600  0.593000  1.0  0.0899
  H  H78  1  0.164100  0.114700  0.612900  1.0  0.0992
  H  H79  1  0.007000  0.090200  0.580800  1.0  0.0896
  H  H80  1  0.870100  0.202500  0.542300  1.0  0.1264
  H  H81  1  0.941200  0.139100  0.543500  1.0  0.0877
  H  H82  1  0.883700  0.170000  0.581000  1.0  0.0988
  H  H83  1  0.313300  0.957500  0.580500  1.0  0.1014
  H  H84  1  0.544500  0.863400  0.556400  1.0  0.0869
  H  H85  1  0.531900  0.773700  0.588100  1.0  0.1081
  H  H86  1  0.397100  0.008800  0.541200  1.0  0.1251
  H  H87  1  0.472500  0.986600  0.555000  1.0  0.1118
  H  H88  1  0.474500  0.961800  0.517200  1.0  0.093
  H  H89  1  0.396700  0.221500  0.313100  1.0  0.0959
  H  H90  1  0.515200  0.178400  0.324400  1.0  0.0803
  H  H91  1  0.617300  0.138700  0.212700  1.0  0.0935
  H  H92  1  0.660300  0.123600  0.303200  1.0  0.1135
  H  H93  1  0.691200  0.145400  0.262600  1.0  0.1119
  H  H94  1  0.686100  0.080000  0.269000  1.0  0.1144
  H  H95  1  0.433000  0.440400  0.074800  1.0  0.1035
  H  H96  1  0.555000  0.418200  0.042600  1.0  0.1068
  H  H97  1  0.625400  0.240200  0.085400  1.0  0.0831
  H  H98  1  0.686800  0.356200  0.032600  1.0  0.1026
  H  H99  1  0.705400  0.285600  0.027200  1.0  0.1085
  H  H100  1  0.714200  0.306000  0.063800  1.0  0.1102
  H  H101  1  0.211700  0.418400  0.303600  1.0  0.0847
  H  H102  1  0.189600  0.579500  0.246300  1.0  0.0966
  H  H103  1  0.223400  0.532100  0.186700  1.0  0.0986
  H  H104  1  0.163500  0.582000  0.310400  1.0  0.0966
  H  H105  1  0.224000  0.520500  0.324300  1.0  0.0997
  H  H106  1  0.137600  0.531700  0.334700  1.0  0.1125
  H  H107  1  0.345800  0.044000  0.093200  1.0  0.0906
  H  H108  1  0.575300  0.964200  0.068200  1.0  0.099
  H  H109  1  0.575900  0.044800  0.098200  1.0  0.0831
  H  H110  1  0.526400  0.930300  0.037300  1.0  0.0902
  H  H111  1  0.461100  0.987300  0.023300  1.0  0.1065
  H  H112  1  0.442100  0.935900  0.050300  1.0  0.1074
  H  H113  1  0.137200  0.220400  0.313800  1.0  0.1102
  H  H114  1  0.058100  0.172400  0.322200  1.0  0.0793
  H  H115  1  0.092800  0.148700  0.212100  1.0  0.1289
  H  H116  1  0.000500  0.117600  0.260400  1.0  0.0936
  H  H117  1  0.959600  0.163100  0.294500  1.0  0.0856
  H  H118  1  0.022600  0.096100  0.299100  1.0  0.0944
  H  H119  1  0.743700  0.038200  0.157400  1.0  0.0848
  H  H120  1  0.872600  0.985000  0.036000  1.0  0.0749
  H  H121  1  0.743600  0.057700  0.048900  1.0  0.0956
  H  H122  1  0.884300  0.946500  0.202700  1.0  0.1046
  H  H123  1  0.804300  0.960900  0.195700  1.0  0.0997
  H  H124  1  0.833400  0.014500  0.190900  1.0  0.1062
  H  H125  1  0.998700  0.955100  0.030700  1.0  0.0414
  H  H126  1  0.983600  0.894500  0.030500  1.0  0.0502
  H  H127  1  0.082000  0.917200  0.090000  1.0  0.0563
  H  H128  1  0.163800  0.885800  0.063200  1.0  0.0494
  H  H129  1  0.121200  0.903000  0.991800  1.0  0.0527
  H  H130  1  0.181100  0.840000  0.005200  1.0  0.0556
  H  H131  1  0.056600  0.824300  0.092100  1.0  0.0463
  H  H132  1  0.060900  0.795600  0.055000  1.0  0.0578
  H  H133  1  0.008200  0.051300  0.094300  1.0  0.1156
  H  H134  1  0.049900  0.108000  0.128000  1.0  0.0583
  H  H135  1  0.239500  0.055700  0.059300  1.0  0.1594
  H  H136  1  0.332300  0.957200  0.989800  1.0  0.1133
  H  H137  1  0.320200  0.995900  0.024300  1.0  0.107
  H  H138  1  0.278000  0.029000  0.992200  1.0  0.1061
  H  H139  1  0.201100  0.856100  0.936700  1.0  0.0833
  H  H140  1  0.224600  0.846700  0.872300  1.0  0.0933
  H  H141  1  0.077600  0.767100  0.889900  1.0  0.1037
  H  H142  1  0.961300  0.745500  0.971900  1.0  0.1125
  H  H143  1  0.026400  0.719900  0.935500  1.0  0.0825
  H  H144  1  0.963400  0.788500  0.935700  1.0  0.0831
  H  H145  1  0.072900  0.722600  0.093000  1.0  0.0911
  H  H146  1  0.108300  0.614700  0.112900  1.0  0.0998
  H  H147  1  0.322000  0.590200  0.080800  1.0  0.0898
  H  H148  1  0.385100  0.702500  0.042300  1.0  0.1224
  H  H149  1  0.376200  0.639100  0.043500  1.0  0.0862
  H  H150  1  0.365300  0.670000  0.081000  1.0  0.0982
  H  H151  1  0.148700  0.457500  0.080500  1.0  0.1007
  H  H152  1  0.035700  0.363400  0.056400  1.0  0.0852
  H  H153  1  0.106300  0.273700  0.088100  1.0  0.1081
  H  H154  1  0.052900  0.508800  0.041200  1.0  0.1266
  H  H155  1  0.985900  0.486600  0.055000  1.0  0.11
  H  H156  1  0.046500  0.461800  0.017200  1.0  0.0935
  H  H157  1  0.603300  0.778500  0.686900  1.0  0.0956
  H  H158  1  0.484800  0.821600  0.675600  1.0  0.0799
  H  H159  1  0.382700  0.861300  0.787300  1.0  0.093
  H  H160  1  0.339700  0.876400  0.696800  1.0  0.1142
  H  H161  1  0.308800  0.854600  0.737400  1.0  0.1112
  H  H162  1  0.313900  0.920000  0.731000  1.0  0.1156
  H  H163  1  0.567000  0.559600  0.925200  1.0  0.1033
  H  H164  1  0.445000  0.581800  0.957400  1.0  0.1061
  H  H165  1  0.374600  0.759800  0.914600  1.0  0.0834
  H  H166  1  0.313200  0.643800  0.967400  1.0  0.1016
  H  H167  1  0.294600  0.714400  0.972800  1.0  0.1088
  H  H168  1  0.285800  0.694000  0.936200  1.0  0.11
  H  H169  1  0.788300  0.581600  0.696400  1.0  0.0845
  H  H170  1  0.810400  0.420500  0.753700  1.0  0.0968
  H  H171  1  0.776600  0.467900  0.813300  1.0  0.0995
  H  H172  1  0.836500  0.418000  0.689600  1.0  0.0945
  H  H173  1  0.776000  0.479500  0.675700  1.0  0.1
  H  H174  1  0.862400  0.468300  0.665300  1.0  0.1151
  H  H175  1  0.654200  0.956000  0.906800  1.0  0.0913
  H  H176  1  0.424700  0.035800  0.931800  1.0  0.0991
  H  H177  1  0.424100  0.955200  0.901800  1.0  0.083
  H  H178  1  0.473600  0.069700  0.962700  1.0  0.0898
  H  H179  1  0.538900  0.012700  0.976700  1.0  0.1062
  H  H180  1  0.557900  0.064100  0.949700  1.0  0.1053
  H  H181  1  0.862800  0.779600  0.686200  1.0  0.1088
  H  H182  1  0.941900  0.827600  0.677800  1.0  0.0796
  H  H183  1  0.907200  0.851300  0.787900  1.0  0.1272
  H  H184  1  0.999500  0.882400  0.739600  1.0  0.0917
  H  H185  1  0.040400  0.836900  0.705500  1.0  0.085
  H  H186  1  0.977400  0.903900  0.700900  1.0  0.095
  H  H187  1  0.256300  0.961800  0.842600  1.0  0.0844
  H  H188  1  0.127400  0.015000  0.964000  1.0  0.0742
  H  H189  1  0.256400  0.942300  0.951100  1.0  0.0954
  H  H190  1  0.115700  0.053500  0.797300  1.0  0.1059
  H  H191  1  0.195700  0.039100  0.804300  1.0  0.0992
  H  H192  1  0.166600  0.985500  0.809100  1.0  0.1048
  H  H193  1  0.001300  0.044900  0.969300  1.0  0.0402
  H  H194  1  0.016400  0.105500  0.969500  1.0  0.0509
  H  H195  1  0.918000  0.082800  0.910000  1.0  0.0567
  H  H196  1  0.836200  0.114200  0.936800  1.0  0.0504
  H  H197  1  0.878800  0.097000  0.008200  1.0  0.0527
  H  H198  1  0.818900  0.160000  0.994800  1.0  0.0575
  H  H199  1  0.943400  0.175700  0.907900  1.0  0.0463
  H  H200  1  0.939100  0.204400  0.945000  1.0  0.0577
  H  H201  1  0.991800  0.948700  0.905700  1.0  0.1135
  H  H202  1  0.950100  0.892000  0.872000  1.0  0.0613
  H  H203  1  0.760500  0.944300  0.940700  1.0  0.1595
  H  H204  1  0.667700  0.042800  0.010200  1.0  0.1129
  H  H205  1  0.679800  0.004100  0.975700  1.0  0.1054
  H  H206  1  0.722000  0.971000  0.007800  1.0  0.1066
  H  H207  1  0.798900  0.143900  0.063300  1.0  0.0839
  H  H208  1  0.775400  0.153300  0.127700  1.0  0.0933
  H  H209  1  0.922400  0.232900  0.110100  1.0  0.1042
  H  H210  1  0.038700  0.254500  0.028100  1.0  0.1114
  H  H211  1  0.973600  0.280100  0.064500  1.0  0.0824
  H  H212  1  0.036600  0.211500  0.064300  1.0  0.083
  H  H213  1  0.927100  0.277400  0.907000  1.0  0.0907
  H  H214  1  0.891700  0.385300  0.887100  1.0  0.1001
  H  H215  1  0.678000  0.409800  0.919200  1.0  0.0903
  H  H216  1  0.614900  0.297500  0.957700  1.0  0.1211
  H  H217  1  0.623800  0.360900  0.956500  1.0  0.0873
  H  H218  1  0.634700  0.330000  0.919000  1.0  0.0975
  H  H219  1  0.851300  0.542500  0.919500  1.0  0.1014
  H  H220  1  0.964300  0.636600  0.943600  1.0  0.0857
  H  H221  1  0.893700  0.726300  0.911900  1.0  0.1089
  H  H222  1  0.947100  0.491200  0.958800  1.0  0.1261
  H  H223  1  0.014100  0.513400  0.945000  1.0  0.1101
  H  H224  1  0.953500  0.538200  0.982800  1.0  0.0929
  H  H225  1  0.931300  0.278500  0.186900  1.0  0.097
  H  H226  1  0.018000  0.321600  0.175600  1.0  0.0795
  H  H227  1  0.968700  0.361300  0.287300  1.0  0.0948
  H  H228  1  0.087100  0.376400  0.196800  1.0  0.1139
  H  H229  1  0.099200  0.354600  0.237400  1.0  0.1106
  H  H230  1  0.035100  0.420000  0.231000  1.0  0.1158
  H  H231  1  0.948200  0.059600  0.425200  1.0  0.104
  H  H232  1  0.015800  0.081800  0.457400  1.0  0.1064
  H  H233  1  0.951000  0.259800  0.414600  1.0  0.0835
  H  H234  1  0.075600  0.143800  0.467400  1.0  0.1021
  H  H235  1  0.018200  0.214400  0.472800  1.0  0.1092
  H  H236  1  0.084000  0.194000  0.436200  1.0  0.1085
  H  H237  1  0.933700  0.081600  0.196400  1.0  0.0851
  H  H238  1  0.015400  0.920500  0.253700  1.0  0.098
  H  H239  1  0.942200  0.967900  0.313300  1.0  0.0982
  H  H240  1  0.055900  0.918000  0.189600  1.0  0.0948
  H  H241  1  0.068800  0.979500  0.175700  1.0  0.1001
  H  H242  1  0.004000  0.968300  0.165300  1.0  0.1144
  H  H243  1  0.483000  0.456000  0.406800  1.0  0.0908
  H  H244  1  0.607700  0.535800  0.431800  1.0  0.0967
  H  H245  1  0.718900  0.455200  0.401800  1.0  0.0822
  H  H246  1  0.494000  0.569700  0.462700  1.0  0.0895
  H  H247  1  0.471700  0.512700  0.476700  1.0  0.1051
  H  H248  1  0.428300  0.564100  0.449700  1.0  0.1084
  H  H249  1  0.671400  0.279600  0.186200  1.0  0.1076
  H  H250  1  0.552700  0.327600  0.177800  1.0  0.079
  H  H251  1  0.453600  0.351300  0.287900  1.0  0.1277
  H  H252  1  0.378500  0.382400  0.239600  1.0  0.0918
  H  H253  1  0.417200  0.336900  0.205500  1.0  0.0862
  H  H254  1  0.417800  0.403900  0.200900  1.0  0.0948
  H  H255  1  0.939300  0.461800  0.342600  1.0  0.0846
  H  H256  1  0.893600  0.515000  0.464000  1.0  0.0756
  H  H257  1  0.850200  0.442300  0.451100  1.0  0.094
  H  H258  1  0.033500  0.553500  0.297300  1.0  0.1035
  H  H259  1  0.960900  0.539100  0.304300  1.0  0.0971
  H  H260  1  0.038800  0.485500  0.309100  1.0  0.1016
  H  H261  1  0.984500  0.544900  0.469300  1.0  0.0416
  H  H262  1  0.908600  0.605500  0.469500  1.0  0.0537
  H  H263  1  0.089200  0.582800  0.410000  1.0  0.0585
  H  H264  1  0.112800  0.614200  0.436800  1.0  0.0521
  H  H265  1  0.016000  0.597000  0.508200  1.0  0.0541
  H  H266  1  0.026300  0.660000  0.494800  1.0  0.0551
  H  H267  1  0.973000  0.675700  0.407900  1.0  0.0451
  H  H268  1  0.911500  0.704400  0.445000  1.0  0.0602
  H  H269  1  0.153800  0.448700  0.405700  1.0  0.1097
  H  H270  1  0.285900  0.392000  0.372000  1.0  0.0587
  H  H271  1  0.354500  0.444300  0.440700  1.0  0.161
  H  H272  1  0.279300  0.542800  0.510200  1.0  0.1126
  H  H273  1  0.340400  0.504100  0.475700  1.0  0.1075
  H  H274  1  0.299200  0.471000  0.507800  1.0  0.1062
  H  H275  1  0.993900  0.643900  0.563300  1.0  0.0842
  H  H276  1  0.943600  0.653300  0.627700  1.0  0.0942
  H  H277  1  0.734600  0.732900  0.610100  1.0  0.1026
  H  H278  1  0.678700  0.754500  0.528100  1.0  0.1115
  H  H279  1  0.681800  0.780100  0.564500  1.0  0.0829
  H  H280  1  0.687600  0.711500  0.564300  1.0  0.0834
  H  H281  1  0.888500  0.777400  0.407000  1.0  0.089
  H  H282  1  0.835900  0.885300  0.387100  1.0  0.0987
  H  H283  1  0.993000  0.909800  0.419200  1.0  0.0902
  H  H284  1  0.129900  0.797500  0.457700  1.0  0.1241
  H  H285  1  0.058800  0.860900  0.456500  1.0  0.0886
  H  H286  1  0.116300  0.830000  0.419000  1.0  0.0987
  H  H287  1  0.686700  0.042500  0.419500  1.0  0.1019
  H  H288  1  0.455500  0.136600  0.443600  1.0  0.088
  H  H289  1  0.468100  0.226300  0.411900  1.0  0.1085
  H  H290  1  0.602900  0.991200  0.458800  1.0  0.1255
  H  H291  1  0.527500  0.013400  0.445000  1.0  0.1102
  H  H292  1  0.525500  0.038200  0.482800  1.0  0.0932
  C  C293  1  0.087600  0.684100  0.728900  1.0  0.149
  C  C294  1  0.100800  0.704600  0.756400  1.0  0.3217
  C  C295  1  0.060600  0.704900  0.793900  1.0  -0.1971
  C  C296  1  0.010200  0.679800  0.800000  1.0  -0.0555
  C  C297  1  0.997500  0.654900  0.770700  1.0  -0.0788
  C  C298  1  0.037600  0.655300  0.732500  1.0  -0.083
  C  C299  1  0.938000  0.622800  0.777000  1.0  -0.3727
  C  C300  1  0.092100  0.794900  0.601300  1.0  0.274
  C  C301  1  0.094300  0.852700  0.597700  1.0  0.2033
  C  C302  1  0.051300  0.900700  0.576500  1.0  -0.0736
  C  C303  1  0.010100  0.888400  0.558800  1.0  -0.1493
  C  C304  1  0.005700  0.830000  0.564800  1.0  -0.0011
  C  C305  1  0.049000  0.780100  0.584100  1.0  -0.12
  C  C306  1  0.951800  0.818200  0.545200  1.0  -0.3892
  C  C307  1  0.108700  0.946000  0.713000  1.0  0.2403
  C  C308  1  0.111200  0.916500  0.745300  1.0  0.1507
  C  C309  1  0.066700  0.942000  0.781400  1.0  -0.1071
  C  C310  1  0.025500  0.004400  0.779600  1.0  0.0255
  C  C311  1  0.018600  0.037500  0.745500  1.0  -0.1243
  C  C312  1  0.061100  0.010300  0.709500  1.0  -0.0853
  C  C313  1  0.968900  0.037700  0.815700  1.0  -0.4423
  C  C314  1  0.332500  0.592500  0.613700  1.0  0.2258
  C  C315  1  0.403110  0.592380  0.612200  1.0  0.0839
  C  C316  1  0.469700  0.544200  0.594200  1.0  -0.0295
  C  C317  1  0.465660  0.496180  0.577700  1.0  0.0623
  C  C318  1  0.395000  0.496400  0.579200  1.0  -0.1504
  C  C319  1  0.328400  0.544600  0.597200  1.0  -0.1721
  C  C320  1  0.523500  0.458900  0.544100  1.0  -0.3737
  C  C321  1  0.424100  0.690100  0.729300  1.0  0.0541
  C  C322  1  0.361800  0.711400  0.755800  1.0  0.2502
  C  C323  1  0.370400  0.705600  0.793400  1.0  -0.2163
  C  C324  1  0.442300  0.677600  0.797600  1.0  -0.1104
  C  C325  1  0.509000  0.655800  0.770800  1.0  0.1583
  C  C326  1  0.504400  0.661400  0.732400  1.0  -0.1374
  C  C327  1  0.579700  0.631100  0.782100  1.0  -0.3602
  C  C328  1  0.130300  0.605000  0.612000  1.0  0.5868
  C  C329  1  0.106800  0.551900  0.605100  1.0  -0.0804
  C  C330  1  0.071400  0.527300  0.632500  1.0  -0.1628
  C  C331  1  0.050300  0.483500  0.622100  1.0  0.2937
  C  C332  1  0.060300  0.468200  0.586800  1.0  0.3917
  C  C333  1  0.097010  0.495280  0.560900  1.0  -0.1635
  C  C334  1  0.123600  0.539400  0.567800  1.0  -0.1919
  C  C335  1  0.993300  0.470400  0.687800  1.0  -0.0404
  C  C336  1  0.038450  0.415670  0.543830  1.0  0.0385
  C  C337  1  0.997750  0.376040  0.544860  1.0  -0.0119
  C  C338  1  0.915670  0.410360  0.563900  1.0  0.0513
  C  C339  1  0.003250  0.363700  0.505600  1.0  0.072
  C  C340  1  0.034090  0.315500  0.566120  1.0  0.0435
  C  C341  1  0.816700  0.505900  0.562700  1.0  0.0179
  C  C342  1  0.805800  0.547300  0.588500  1.0  -0.1867
  C  C343  1  0.723800  0.585800  0.606800  1.0  -0.0407
  C  C344  1  0.669900  0.589900  0.596300  1.0  0.3861
  C  C345  1  0.684300  0.555800  0.568800  1.0  -0.1893
  C  C346  1  0.761100  0.519200  0.553400  1.0  0.1142
  C  C347  1  0.706800  0.490800  0.506400  1.0  -0.1642
  C  C348  1  0.126800  0.024500  0.609500  1.0  0.4735
  C  C349  1  0.104200  0.320900  0.452500  1.0  0.3383
  C  C350  1  0.058880  0.338740  0.427500  1.0  -0.1771
  C  C351  1  0.088400  0.332200  0.388800  1.0  -0.1375
  C  C352  1  0.163200  0.304600  0.376400  1.0  -0.1176
  C  C353  1  0.212700  0.285500  0.399300  1.0  -0.1981
  C  C354  1  0.179700  0.295700  0.437100  1.0  0.3592
  C  C355  1  0.299100  0.256300  0.450500  1.0  -0.0192
  C  C356  1  0.194000  0.298700  0.334300  1.0  0.6382
  C  C357  1  0.029300  0.217100  0.576700  1.0  0.2301
  C  C358  1  0.089500  0.195800  0.590600  1.0  -0.2292
  C  C359  1  0.121900  0.130300  0.602500  1.0  -0.1037
  C  C360  1  0.088400  0.092400  0.597800  1.0  -0.0872
  C  C361  1  0.029900  0.115800  0.584200  1.0  -0.1739
  C  C362  1  0.000200  0.178500  0.574500  1.0  0.2319
  C  C363  1  0.908200  0.178200  0.556000  1.0  -0.0319
  C  C364  1  0.416200  0.816500  0.601900  1.0  0.1395
  C  C365  1  0.354200  0.868200  0.601000  1.0  0.3659
  C  C366  1  0.357100  0.921400  0.581600  1.0  -0.1621
  C  C367  1  0.429600  0.918100  0.563700  1.0  0.0746
  C  C368  1  0.496400  0.863500  0.567100  1.0  -0.1103
  C  C369  1  0.489600  0.810700  0.586100  1.0  -0.1423
  C  C370  1  0.444900  0.974200  0.542200  1.0  -0.3669
  C  C371  1  0.499400  0.184100  0.228900  1.0  0.1475
  C  C372  1  0.438200  0.204600  0.256400  1.0  0.3231
  C  C373  1  0.440600  0.204900  0.293900  1.0  -0.1948
  C  C374  1  0.510000  0.179800  0.300000  1.0  -0.0508
  C  C375  1  0.576900  0.154900  0.270700  1.0  -0.0802
  C  C376  1  0.574600  0.155300  0.232500  1.0  -0.0822
  C  C377  1  0.662200  0.122800  0.277000  1.0  -0.3723
  C  C378  1  0.511700  0.294900  0.101300  1.0  0.275
  C  C379  1  0.455300  0.352700  0.097700  1.0  0.2024
  C  C380  1  0.471500  0.400700  0.076500  1.0  -0.0736
  C  C381  1  0.542700  0.388400  0.058800  1.0  -0.1495
  C  C382  1  0.599500  0.330000  0.064800  1.0  -0.0003
  C  C383  1  0.586800  0.280100  0.084100  1.0  -0.1196
  C  C384  1  0.684800  0.318200  0.045200  1.0  -0.3919
  C  C385  1  0.232300  0.446000  0.213000  1.0  0.2395
  C  C386  1  0.227000  0.416500  0.245300  1.0  0.1505
  C  C387  1  0.209900  0.442000  0.281400  1.0  -0.1079
  C  C388  1  0.190500  0.504400  0.279600  1.0  0.0275
  C  C389  1  0.198400  0.537500  0.245500  1.0  -0.126
  C  C390  1  0.219100  0.510300  0.209500  1.0  -0.0856
  C  C391  1  0.177700  0.537700  0.315700  1.0  -0.4444
  C  C392  1  0.461300  0.092500  0.113700  1.0  0.2263
  C  C393  1  0.392310  0.092380  0.112200  1.0  0.0825
  C  C394  1  0.391900  0.044200  0.094200  1.0  -0.031
  C  C395  1  0.460460  0.996180  0.077700  1.0  0.0589
  C  C396  1  0.529400  0.996400  0.079200  1.0  -0.1465
  C  C397  1  0.529800  0.044600  0.097200  1.0  -0.1703
  C  C398  1  0.473500  0.958900  0.044100  1.0  -0.3722
  C  C399  1  0.156500  0.190100  0.229300  1.0  0.0534
  C  C400  1  0.171000  0.211400  0.255800  1.0  0.2483
  C  C401  1  0.130600  0.205600  0.293400  1.0  -0.2178
  C  C402  1  0.082500  0.177600  0.297600  1.0  -0.1121
  C  C403  1  0.064400  0.155800  0.270800  1.0  0.1592
  C  C404  1  0.101800  0.161400  0.232400  1.0  -0.1406
  C  C405  1  0.007100  0.131100  0.282100  1.0  -0.3604
  C  C406  1  0.652700  0.105000  0.112000  1.0  0.5851
  C  C407  1  0.736200  0.051900  0.105100  1.0  -0.0813
  C  C408  1  0.768800  0.027300  0.132500  1.0  -0.1624
  C  C409  1  0.844100  0.983500  0.122100  1.0  0.2938
  C  C410  1  0.884700  0.968200  0.086800  1.0  0.3913
  C  C411  1  0.846810  0.995280  0.060900  1.0  -0.1625
  C  C412  1  0.769200  0.039400  0.067800  1.0  -0.1931
  C  C413  1  0.848500  0.970400  0.187800  1.0  -0.0422
  C  C414  1  0.002050  0.915670  0.043830  1.0  0.0336
  C  C415  1  0.081350  0.876040  0.044860  1.0  -0.0116
  C  C416  1  0.110070  0.910360  0.063900  1.0  0.0452
  C  C417  1  0.127450  0.863700  0.005600  1.0  0.0684
  C  C418  1  0.084290  0.815500  0.066120  1.0  0.0465
  C  C419  1  0.114700  0.005900  0.062700  1.0  0.0191
  C  C420  1  0.058400  0.047300  0.088500  1.0  -0.1882
  C  C421  1  0.083600  0.085800  0.106800  1.0  -0.0389
  C  C422  1  0.143900  0.089900  0.096300  1.0  0.3913
  C  C423  1  0.191100  0.055800  0.068800  1.0  -0.1905
  C  C424  1  0.166300  0.019200  0.053400  1.0  0.1141
  C  C425  1  0.296000  0.990800  0.006400  1.0  -0.1671
  C  C426  1  0.239200  0.524500  0.109500  1.0  0.4727
  C  C427  1  0.122400  0.820900  0.952500  1.0  0.3351
  C  C428  1  0.174880  0.838740  0.927500  1.0  -0.1755
  C  C429  1  0.190600  0.832200  0.888800  1.0  -0.1387
  C  C430  1  0.155800  0.804600  0.876400  1.0  -0.1172
  C  C431  1  0.102500  0.785500  0.899300  1.0  -0.1992
  C  C432  1  0.087500  0.795700  0.937100  1.0  0.36
  C  C433  1  0.994100  0.756300  0.950500  1.0  -0.0187
  C  C434  1  0.173000  0.798700  0.834300  1.0  0.639
  C  C435  1  0.176900  0.717100  0.076700  1.0  0.2305
  C  C436  1  0.124100  0.695800  0.090600  1.0  -0.2246
  C  C437  1  0.145300  0.630300  0.102500  1.0  -0.0983
  C  C438  1  0.221400  0.592400  0.097800  1.0  -0.0856
  C  C439  1  0.270100  0.615800  0.084200  1.0  -0.1736
  C  C440  1  0.246800  0.678500  0.074500  1.0  0.231
  C  C441  1  0.357600  0.678200  0.056000  1.0  -0.0354
  C  C442  1  0.165400  0.316500  0.101900  1.0  0.1375
  C  C443  1  0.176600  0.368200  0.101000  1.0  0.3632
  C  C444  1  0.139900  0.421400  0.081600  1.0  -0.1636
  C  C445  1  0.088600  0.418100  0.063700  1.0  0.075
  C  C446  1  0.073000  0.363500  0.067100  1.0  -0.1107
  C  C447  1  0.113600  0.310700  0.086100  1.0  -0.1418
  C  C448  1  0.038700  0.474200  0.042200  1.0  -0.3664
  C  C449  1  0.500600  0.815900  0.771100  1.0  0.1507
  C  C450  1  0.561800  0.795400  0.743600  1.0  0.3209
  C  C451  1  0.559400  0.795100  0.706100  1.0  -0.1959
  C  C452  1  0.490000  0.820200  0.700000  1.0  -0.0513
  C  C453  1  0.423100  0.845100  0.729300  1.0  -0.0778
  C  C454  1  0.425400  0.844700  0.767500  1.0  -0.0829
  C  C455  1  0.337800  0.877200  0.723000  1.0  -0.3722
  C  C456  1  0.488300  0.705100  0.898700  1.0  0.2736
  C  C457  1  0.544700  0.647300  0.902300  1.0  0.2016
  C  C458  1  0.528500  0.599300  0.923500  1.0  -0.0741
  C  C459  1  0.457300  0.611600  0.941200  1.0  -0.1536
  C  C460  1  0.400500  0.670000  0.935200  1.0  0.0002
  C  C461  1  0.413200  0.719900  0.915900  1.0  -0.1203
  C  C462  1  0.315200  0.681800  0.954800  1.0  -0.3903
  C  C463  1  0.767700  0.554000  0.787000  1.0  0.2429
  C  C464  1  0.773000  0.583500  0.754700  1.0  0.1528
  C  C465  1  0.790100  0.558000  0.718600  1.0  -0.1076
  C  C466  1  0.809500  0.495600  0.720400  1.0  0.0265
  C  C467  1  0.801600  0.462500  0.754500  1.0  -0.1267
  C  C468  1  0.780900  0.489700  0.790500  1.0  -0.0862
  C  C469  1  0.822300  0.462300  0.684300  1.0  -0.4429
  C  C470  1  0.538700  0.907500  0.886300  1.0  0.2268
  C  C471  1  0.607690  0.907620  0.887800  1.0  0.0837
  C  C472  1  0.608100  0.955800  0.905800  1.0  -0.0277
  C  C473  1  0.539540  0.003820  0.922300  1.0  0.0603
  C  C474  1  0.470600  0.003600  0.920800  1.0  -0.1473
  C  C475  1  0.470200  0.955400  0.902800  1.0  -0.1731
  C  C476  1  0.526500  0.041100  0.955900  1.0  -0.3732
  C  C477  1  0.843500  0.809900  0.770700  1.0  0.0527
  C  C478  1  0.829000  0.788600  0.744200  1.0  0.2486
  C  C479  1  0.869400  0.794400  0.706600  1.0  -0.2163
  C  C480  1  0.917500  0.822400  0.702400  1.0  -0.1168
  C  C481  1  0.935600  0.844200  0.729200  1.0  0.1573
  C  C482  1  0.898200  0.838600  0.767600  1.0  -0.1409
  C  C483  1  0.992900  0.868900  0.717900  1.0  -0.3607
  C  C484  1  0.347300  0.895000  0.888000  1.0  0.586
  C  C485  1  0.263800  0.948100  0.894900  1.0  -0.0808
  C  C486  1  0.231200  0.972700  0.867500  1.0  -0.1605
  C  C487  1  0.155900  0.016500  0.877900  1.0  0.2952
  C  C488  1  0.115300  0.031800  0.913200  1.0  0.391
  C  C489  1  0.153190  0.004720  0.939100  1.0  -0.1597
  C  C490  1  0.230800  0.960600  0.932200  1.0  -0.1911
  C  C491  1  0.151500  0.029600  0.812200  1.0  -0.0466
  C  C492  1  0.997950  0.084330  0.956170  1.0  0.0305
  C  C493  1  0.918650  0.123960  0.955140  1.0  -0.0137
  C  C494  1  0.889930  0.089640  0.936100  1.0  0.0482
  C  C495  1  0.872550  0.136300  0.994400  1.0  0.0681
  C  C496  1  0.915710  0.184500  0.933880  1.0  0.0464
  C  C497  1  0.885300  0.994100  0.937300  1.0  0.0222
  C  C498  1  0.941600  0.952700  0.911500  1.0  -0.1865
  C  C499  1  0.916400  0.914200  0.893200  1.0  -0.0407
  C  C500  1  0.856100  0.910100  0.903700  1.0  0.3876
  C  C501  1  0.808900  0.944200  0.931200  1.0  -0.1893
  C  C502  1  0.833700  0.980800  0.946600  1.0  0.1145
  C  C503  1  0.704000  0.009200  0.993600  1.0  -0.1665
  C  C504  1  0.760800  0.475500  0.890500  1.0  0.4711
  C  C505  1  0.877600  0.179100  0.047500  1.0  0.337
  C  C506  1  0.825120  0.161260  0.072500  1.0  -0.176
  C  C507  1  0.809400  0.167800  0.111200  1.0  -0.1386
  C  C508  1  0.844200  0.195400  0.123600  1.0  -0.1144
  C  C509  1  0.897500  0.214500  0.100700  1.0  -0.1999
  C  C510  1  0.912500  0.204300  0.062900  1.0  0.3605
  C  C511  1  0.005900  0.243700  0.049500  1.0  -0.0191
  C  C512  1  0.827000  0.201300  0.165700  1.0  0.6405
  C  C513  1  0.823100  0.282900  0.923300  1.0  0.2243
  C  C514  1  0.875900  0.304200  0.909400  1.0  -0.2228
  C  C515  1  0.854700  0.369700  0.897500  1.0  -0.098
  C  C516  1  0.778600  0.407600  0.902200  1.0  -0.0874
  C  C517  1  0.729900  0.384200  0.915800  1.0  -0.1758
  C  C518  1  0.753200  0.321500  0.925500  1.0  0.23
  C  C519  1  0.642400  0.321800  0.944000  1.0  -0.031
  C  C520  1  0.834600  0.683500  0.898100  1.0  0.1384
  C  C521  1  0.823400  0.631800  0.899000  1.0  0.3619
  C  C522  1  0.860100  0.578600  0.918400  1.0  -0.1614
  C  C523  1  0.911400  0.581900  0.936300  1.0  0.0739
  C  C524  1  0.927000  0.636500  0.932900  1.0  -0.112
  C  C525  1  0.886400  0.689300  0.913900  1.0  -0.141
  C  C526  1  0.961300  0.525800  0.957800  1.0  -0.3662
  C  C527  1  0.912400  0.315900  0.271100  1.0  0.1481
  C  C528  1  0.899200  0.295400  0.243600  1.0  0.3213
  C  C529  1  0.939400  0.295100  0.206100  1.0  -0.1958
  C  C530  1  0.989800  0.320200  0.200000  1.0  -0.056
  C  C531  1  0.002500  0.345100  0.229300  1.0  -0.0803
  C  C532  1  0.962400  0.344700  0.267500  1.0  -0.0827
  C  C533  1  0.062000  0.377200  0.223000  1.0  -0.3717
  C  C534  1  0.907900  0.205100  0.398700  1.0  0.2735
  C  C535  1  0.905700  0.147300  0.402300  1.0  0.2018
  C  C536  1  0.948700  0.099300  0.423500  1.0  -0.0748
  C  C537  1  0.989900  0.111600  0.441200  1.0  -0.1512
  C  C538  1  0.994300  0.170000  0.435200  1.0  0.0005
  C  C539  1  0.951000  0.219900  0.415900  1.0  -0.1205
  C  C540  1  0.048200  0.181800  0.454800  1.0  -0.391
  C  C541  1  0.891300  0.054000  0.287000  1.0  0.2422
  C  C542  1  0.888800  0.083500  0.254700  1.0  0.1503
  C  C543  1  0.933300  0.058000  0.218600  1.0  -0.1066
  C  C544  1  0.974500  0.995600  0.220400  1.0  0.0261
  C  C545  1  0.981400  0.962500  0.254500  1.0  -0.1247
  C  C546  1  0.938900  0.989700  0.290500  1.0  -0.0841
  C  C547  1  0.031100  0.962300  0.184300  1.0  -0.4449
  C  C548  1  0.667500  0.407500  0.386300  1.0  0.2283
  C  C549  1  0.596890  0.407620  0.387800  1.0  0.0827
  C  C550  1  0.530300  0.455800  0.405800  1.0  -0.0316
  C  C551  1  0.534340  0.503820  0.422300  1.0  0.0607
  C  C552  1  0.605000  0.503600  0.420800  1.0  -0.1495
  C  C553  1  0.671600  0.455400  0.402800  1.0  -0.1712
  C  C554  1  0.476500  0.541100  0.455900  1.0  -0.3721
  C  C555  1  0.575900  0.309900  0.270700  1.0  0.0559
  C  C556  1  0.638200  0.288600  0.244200  1.0  0.2478
  C  C557  1  0.629600  0.294400  0.206600  1.0  -0.2152
  C  C558  1  0.557700  0.322400  0.202400  1.0  -0.1157
  C  C559  1  0.491000  0.344200  0.229200  1.0  0.1562
  C  C560  1  0.495600  0.338600  0.267600  1.0  -0.14
  C  C561  1  0.420300  0.368900  0.217900  1.0  -0.3601
  C  C562  1  0.869700  0.395000  0.388000  1.0  0.5849
  C  C563  1  0.893200  0.448100  0.394900  1.0  -0.0836
  C  C564  1  0.928600  0.472700  0.367500  1.0  -0.1627
  C  C565  1  0.949700  0.516500  0.377900  1.0  0.2932
  C  C566  1  0.939700  0.531800  0.413200  1.0  0.3907
  C  C567  1  0.902990  0.504720  0.439100  1.0  -0.164
  C  C568  1  0.876400  0.460600  0.432200  1.0  -0.1931
  C  C569  1  0.006700  0.529600  0.312200  1.0  -0.0413
  C  C570  1  0.961550  0.584330  0.456170  1.0  0.0381
  C  C571  1  0.002250  0.623960  0.455140  1.0  -0.014
  C  C572  1  0.084330  0.589640  0.436100  1.0  0.049
  C  C573  1  0.996750  0.636300  0.494400  1.0  0.0706
  C  C574  1  0.965910  0.684500  0.433880  1.0  0.0467
  C  C575  1  0.183300  0.494100  0.437300  1.0  0.0199
  C  C576  1  0.194200  0.452700  0.411500  1.0  -0.1843
  C  C577  1  0.276200  0.414200  0.393200  1.0  -0.0404
  C  C578  1  0.330100  0.410100  0.403700  1.0  0.3934
  C  C579  1  0.315700  0.444200  0.431200  1.0  -0.1891
  C  C580  1  0.238900  0.480800  0.446600  1.0  0.1154
  C  C581  1  0.293200  0.509200  0.493600  1.0  -0.1659
  C  C582  1  0.873200  0.975500  0.390500  1.0  0.4721
  C  C583  1  0.895800  0.679100  0.547500  1.0  0.3377
  C  C584  1  0.941120  0.661260  0.572500  1.0  -0.177
  C  C585  1  0.911600  0.667800  0.611200  1.0  -0.1351
  C  C586  1  0.836800  0.695400  0.623600  1.0  -0.1163
  C  C587  1  0.787300  0.714500  0.600700  1.0  -0.2011
  C  C588  1  0.820300  0.704300  0.562900  1.0  0.3582
  C  C589  1  0.700900  0.743700  0.549500  1.0  -0.018
  C  C590  1  0.806000  0.701300  0.665700  1.0  0.6398
  C  C591  1  0.970700  0.782900  0.423300  1.0  0.2262
  C  C592  1  0.910500  0.804200  0.409400  1.0  -0.2287
  C  C593  1  0.878100  0.869700  0.397500  1.0  -0.1051
  C  C594  1  0.911600  0.907600  0.402200  1.0  -0.085
  C  C595  1  0.970100  0.884200  0.415800  1.0  -0.1767
  C  C596  1  0.999800  0.821500  0.425500  1.0  0.2311
  C  C597  1  0.091800  0.821800  0.444000  1.0  -0.0336
  C  C598  1  0.583800  0.183500  0.398100  1.0  0.1394
  C  C599  1  0.645800  0.131800  0.399000  1.0  0.3649
  C  C600  1  0.642900  0.078600  0.418400  1.0  -0.1604
  C  C601  1  0.570400  0.081900  0.436300  1.0  0.0736
  C  C602  1  0.503600  0.136500  0.432900  1.0  -0.1155
  C  C603  1  0.510400  0.189300  0.413900  1.0  -0.1426
  C  C604  1  0.555100  0.025800  0.457800  1.0  -0.3668
  N  N605  1  0.151700  0.730300  0.745300  1.0  -0.3433
  N  N606  1  0.173310  0.722180  0.709400  1.0  -0.1114
  N  N607  1  0.137110  0.692720  0.698460  1.0  -0.2956
  N  N608  1  0.138770  0.756970  0.622890  1.0  -0.3322
  N  N609  1  0.169570  0.791660  0.632600  1.0  -0.104
  N  N610  1  0.143500  0.849650  0.617150  1.0  -0.2757
  N  N611  1  0.155400  0.904580  0.684620  1.0  -0.3464
  N  N612  1  0.183880  0.848340  0.700100  1.0  -0.1245
  N  N613  1  0.161800  0.852800  0.736800  1.0  -0.3378
  N  N614  1  0.382300  0.645750  0.630850  1.0  -0.1471
  N  N615  1  0.307010  0.672800  0.640980  1.0  -0.0598
  N  N616  1  0.277100  0.639950  0.631450  1.0  -0.1938
  N  N617  1  0.398250  0.701640  0.697660  1.0  -0.2839
  N  N618  1  0.322500  0.727900  0.708700  1.0  -0.1326
  N  N619  1  0.297900  0.734900  0.744900  1.0  -0.3488
  N  N620  1  0.393800  0.775250  0.622750  1.0  -0.2815
  N  N621  1  0.317980  0.802320  0.632120  1.0  -0.0347
  N  N622  1  0.291190  0.861070  0.618750  1.0  -0.3781
  N  N623  1  0.372700  0.230300  0.245300  1.0  -0.3411
  N  N624  1  0.395110  0.222180  0.209400  1.0  -0.11
  N  N625  1  0.471710  0.192720  0.198460  1.0  -0.2965
  N  N626  1  0.481370  0.256970  0.122890  1.0  -0.3315
  N  N627  1  0.406170  0.291660  0.132600  1.0  -0.1027
  N  N628  1  0.389700  0.349650  0.117150  1.0  -0.2729
  N  N629  1  0.255400  0.404580  0.184620  1.0  -0.3472
  N  N630  1  0.267680  0.348340  0.200100  1.0  -0.1251
  N  N631  1  0.248600  0.352800  0.236800  1.0  -0.3381
  N  N632  1  0.341100  0.145750  0.130850  1.0  -0.1493
  N  N633  1  0.379210  0.172800  0.140980  1.0  -0.0607
  N  N634  1  0.451500  0.139950  0.131450  1.0  -0.1897
  N  N635  1  0.202450  0.201640  0.197660  1.0  -0.2832
  N  N636  1  0.240900  0.227900  0.208700  1.0  -0.1325
  N  N637  1  0.222300  0.234900  0.244900  1.0  -0.3456
  N  N638  1  0.208200  0.275250  0.122750  1.0  -0.2824
  N  N639  1  0.247580  0.302320  0.132120  1.0  -0.0373
  N  N640  1  0.228990  0.361070  0.118750  1.0  -0.3783
  N  N641  1  0.627300  0.769700  0.754700  1.0  -0.3423
  N  N642  1  0.604890  0.777820  0.790600  1.0  -0.1104
  N  N643  1  0.528290  0.807280  0.801540  1.0  -0.2964
  N  N644  1  0.518630  0.743030  0.877110  1.0  -0.3313
  N  N645  1  0.593830  0.708340  0.867400  1.0  -0.1023
  N  N646  1  0.610300  0.650350  0.882850  1.0  -0.2745
  N  N647  1  0.744600  0.595420  0.815380  1.0  -0.3464
  N  N648  1  0.732320  0.651660  0.799900  1.0  -0.1245
  N  N649  1  0.751400  0.647200  0.763200  1.0  -0.339
  N  N650  1  0.658900  0.854250  0.869150  1.0  -0.1492
  N  N651  1  0.620790  0.827200  0.859020  1.0  -0.0589
  N  N652  1  0.548500  0.860050  0.868550  1.0  -0.1919
  N  N653  1  0.797550  0.798360  0.802340  1.0  -0.2828
  N  N654  1  0.759100  0.772100  0.791300  1.0  -0.134
  N  N655  1  0.777700  0.765100  0.755100  1.0  -0.3479
  N  N656  1  0.791800  0.724750  0.877250  1.0  -0.2806
  N  N657  1  0.752420  0.697680  0.867880  1.0  -0.0373
  N  N658  1  0.771010  0.638930  0.881250  1.0  -0.3774
  N  N659  1  0.848300  0.269700  0.254700  1.0  -0.3458
  N  N660  1  0.826690  0.277820  0.290600  1.0  -0.1109
  N  N661  1  0.862890  0.307280  0.301540  1.0  -0.2972
  N  N662  1  0.861230  0.243030  0.377110  1.0  -0.3337
  N  N663  1  0.830430  0.208340  0.367400  1.0  -0.1036
  N  N664  1  0.856500  0.150350  0.382850  1.0  -0.2741
  N  N665  1  0.844600  0.095420  0.315380  1.0  -0.3472
  N  N666  1  0.816120  0.151660  0.299900  1.0  -0.1238
  N  N667  1  0.838200  0.147200  0.263200  1.0  -0.3391
  N  N668  1  0.617700  0.354250  0.369150  1.0  -0.1493
  N  N669  1  0.692990  0.327200  0.359020  1.0  -0.0597
  N  N670  1  0.722900  0.360050  0.368550  1.0  -0.1913
  N  N671  1  0.601750  0.298360  0.302340  1.0  -0.2851
  N  N672  1  0.677500  0.272100  0.291300  1.0  -0.135
  N  N673  1  0.702100  0.265100  0.255100  1.0  -0.349
  N  N674  1  0.606200  0.224750  0.377250  1.0  -0.2798
  N  N675  1  0.682020  0.197680  0.367880  1.0  -0.0337
  N  N676  1  0.708810  0.138930  0.381250  1.0  -0.377
  O  O677  1  0.161800  0.629600  0.587400  1.0  -0.6091
  O  O678  1  0.119200  0.611600  0.646600  1.0  -0.6025
  O  O679  1  0.087900  0.994200  0.611400  1.0  -0.6207
  O  O680  1  0.182800  0.002500  0.619100  1.0  -0.5931
  O  O681  1  0.150400  0.322100  0.313100  1.0  -0.581
  O  O682  1  0.264300  0.267670  0.322930  1.0  -0.5919
  O  O683  1  0.034470  0.427470  0.580790  1.0  -0.2939
  O  O684  1  0.772000  0.473700  0.528100  1.0  -0.3685
  O  O685  1  0.943200  0.205300  0.557300  1.0  -0.4349
  O  O686  1  0.221140  0.278220  0.462500  1.0  -0.2922
  O  O687  1  0.082880  0.328040  0.489200  1.0  -0.2842
  O  O688  1  0.998810  0.275460  0.564120  1.0  -0.283
  O  O689  1  0.886760  0.468110  0.545170  1.0  -0.3004
  O  O690  1  0.013020  0.454760  0.648200  1.0  -0.3121
  O  O691  1  0.621200  0.129600  0.087400  1.0  -0.6091
  O  O692  1  0.622600  0.111600  0.146600  1.0  -0.6019
  O  O693  1  0.306500  0.494200  0.111400  1.0  -0.6208
  O  O694  1  0.195600  0.502500  0.119100  1.0  -0.5936
  O  O695  1  0.214400  0.822100  0.813100  1.0  -0.578
  O  O696  1  0.145100  0.767670  0.822930  1.0  -0.5924
  O  O697  1  0.957270  0.927470  0.080790  1.0  -0.2918
  O  O698  1  0.226200  0.973700  0.028100  1.0  -0.3708
  O  O699  1  0.294200  0.705300  0.057300  1.0  -0.4358
  O  O700  1  0.038140  0.778220  0.962500  1.0  -0.2927
  O  O701  1  0.099880  0.828040  0.989200  1.0  -0.2872
  O  O702  1  0.161610  0.775460  0.064120  1.0  -0.2849
  O  O703  1  0.099960  0.968110  0.045170  1.0  -0.2966
  O  O704  1  0.884020  0.954760  0.148200  1.0  -0.3113
  O  O705  1  0.378800  0.870400  0.912600  1.0  -0.6066
  O  O706  1  0.377400  0.888400  0.853400  1.0  -0.6025
  O  O707  1  0.693500  0.505800  0.888600  1.0  -0.6199
  O  O708  1  0.804400  0.497500  0.880900  1.0  -0.591
  O  O709  1  0.785600  0.177900  0.186900  1.0  -0.579
  O  O710  1  0.854900  0.232330  0.177070  1.0  -0.593
  O  O711  1  0.042730  0.072530  0.919210  1.0  -0.2923
  O  O712  1  0.773800  0.026300  0.971900  1.0  -0.3713
  O  O713  1  0.705800  0.294700  0.942700  1.0  -0.437
  O  O714  1  0.961860  0.221780  0.037500  1.0  -0.2945
  O  O715  1  0.900120  0.171960  0.010800  1.0  -0.286
  O  O716  1  0.838390  0.224540  0.935880  1.0  -0.2837
  O  O717  1  0.900040  0.031890  0.954830  1.0  -0.2982
  O  O718  1  0.115980  0.045240  0.851800  1.0  -0.3113
  O  O719  1  0.838200  0.370400  0.412600  1.0  -0.6076
  O  O720  1  0.880800  0.388400  0.353400  1.0  -0.603
  O  O721  1  0.912100  0.005800  0.388600  1.0  -0.621
  O  O722  1  0.817200  0.997500  0.380900  1.0  -0.5927
  O  O723  1  0.849600  0.677900  0.686900  1.0  -0.5776
  O  O724  1  0.735700  0.732330  0.677070  1.0  -0.59
  O  O725  1  0.965530  0.572530  0.419210  1.0  -0.2932
  O  O726  1  0.228000  0.526300  0.471900  1.0  -0.3688
  O  O727  1  0.056800  0.794700  0.442700  1.0  -0.4369
  O  O728  1  0.778860  0.721780  0.537500  1.0  -0.2938
  O  O729  1  0.917120  0.671960  0.510800  1.0  -0.2841
  O  O730  1  0.001190  0.724540  0.435880  1.0  -0.2839
  O  O731  1  0.113240  0.531890  0.454830  1.0  -0.3
  O  O732  1  0.986980  0.545240  0.351800  1.0  -0.3117
