# generated using pymatgen
data_V16Co3Ge4H40C10(NO3)10
_symmetry_space_group_name_H-M   'P 1'
_cell_length_a   27.96080000
_cell_length_b   27.96080000
_cell_length_c   27.96080000
_cell_angle_alpha   66.34530000
_cell_angle_beta   78.60610000
_cell_angle_gamma   113.65500000
_symmetry_Int_Tables_number   1
_chemical_formula_structural   V16Co3Ge4H40C10(NO3)10
_chemical_formula_sum   'V128 Co24 Ge32 H320 C80 N80 O240'
_cell_volume   16581.92047386
_cell_formula_units_Z   8
loop_
 _symmetry_equiv_pos_site_id
 _symmetry_equiv_pos_as_xyz
  1  'x, y, z'
loop_
 _atom_site_type_symbol
 _atom_site_label
 _atom_site_symmetry_multiplicity
 _atom_site_fract_x
 _atom_site_fract_y
 _atom_site_fract_z
 _atom_site_occupancy
 _atom_site_charge
  V  V1  1  0.352300  0.605190  0.345070  1.0  1.191
  V  V2  1  0.349350  0.698540  0.243050  1.0  1.3592
  V  V3  1  0.426710  0.829130  0.158520  1.0  1.2298
  V  V4  1  0.525480  0.929950  0.152930  1.0  1.3063
  V  V5  1  0.600390  0.938300  0.206790  1.0  1.3788
  V  V6  1  0.599880  0.847280  0.312680  1.0  1.2988
  V  V7  1  0.529490  0.706470  0.394460  1.0  1.2598
  V  V8  1  0.425570  0.608780  0.413830  1.0  1.2069
  V  V9  1  0.454990  0.702720  0.189670  1.0  1.9575
  V  V10  1  0.574800  0.749230  0.177990  1.0  1.3186
  V  V11  1  0.575850  0.866920  0.116850  1.0  1.3036
  V  V12  1  0.502660  0.640940  0.302600  1.0  0.9397
  V  V13  1  0.374550  0.830770  0.262000  1.0  1.2372
  V  V14  1  0.376960  0.788520  0.380680  1.0  1.3121
  V  V15  1  0.450990  0.744570  0.426680  1.0  2.0013
  V  V16  1  0.493340  0.895390  0.302650  1.0  1.248
  V  V17  1  0.049740  0.394810  0.252890  1.0  1.1994
  V  V18  1  0.058410  0.301460  0.349190  1.0  1.3552
  V  V19  1  0.012350  0.170870  0.402420  1.0  1.232
  V  V20  1  0.917120  0.070050  0.404470  1.0  1.2923
  V  V21  1  0.854910  0.061700  0.337910  1.0  1.3672
  V  V22  1  0.840040  0.152720  0.247400  1.0  1.3029
  V  V23  1  0.899070  0.293530  0.176980  1.0  1.2646
  V  V24  1  0.977390  0.391220  0.183210  1.0  1.2184
  V  V25  1  0.107610  0.297280  0.247730  1.0  1.9625
  V  V26  1  0.072780  0.250770  0.174430  1.0  1.3201
  V  V27  1  0.016230  0.133080  0.291070  1.0  1.306
  V  V28  1  0.056460  0.359060  0.138280  1.0  0.9388
  V  V29  1  0.907230  0.169230  0.456220  1.0  1.2318
  V  V30  1  0.830800  0.211480  0.411560  1.0  1.3112
  V  V31  1  0.828750  0.255430  0.293580  1.0  1.9974
  V  V32  1  0.801960  0.104610  0.402050  1.0  1.2516
  V  V33  1  0.997110  0.197370  0.897700  1.0  1.2075
  V  V34  1  0.900810  0.092400  0.900650  1.0  1.3371
  V  V35  1  0.847580  0.085230  0.823290  1.0  1.2064
  V  V36  1  0.845530  0.178410  0.724520  1.0  1.3147
  V  V37  1  0.912090  0.307180  0.649610  1.0  1.3907
  V  V38  1  0.002600  0.412560  0.650120  1.0  1.2954
  V  V39  1  0.073020  0.423950  0.720510  1.0  1.2533
  V  V40  1  0.066790  0.339400  0.824430  1.0  1.2229
  V  V41  1  0.002270  0.144660  0.795010  1.0  1.9601
  V  V42  1  0.075570  0.252790  0.675200  1.0  1.3171
  V  V43  1  0.958930  0.192700  0.674150  1.0  1.3044
  V  V44  1  0.111720  0.305260  0.747340  1.0  0.9388
  V  V45  1  0.793780  0.136550  0.875450  1.0  1.2353
  V  V46  1  0.838440  0.257640  0.873040  1.0  1.3108
  V  V47  1  0.956420  0.377670  0.799010  1.0  1.9997
  V  V48  1  0.847950  0.295990  0.756660  1.0  1.2481
  V  V49  1  0.904930  0.802630  0.200260  1.0  1.2103
  V  V50  1  0.006950  0.907600  0.191590  1.0  1.35
  V  V51  1  0.091480  0.914770  0.237650  1.0  1.2189
  V  V52  1  0.097070  0.821590  0.332880  1.0  1.3166
  V  V53  1  0.043210  0.692820  0.395090  1.0  1.3878
  V  V54  1  0.937320  0.587440  0.409960  1.0  1.2805
  V  V55  1  0.855540  0.576050  0.350930  1.0  1.2442
  V  V56  1  0.836170  0.660600  0.272610  1.0  1.225
  V  V57  1  0.060330  0.855340  0.142390  1.0  1.9612
  V  V58  1  0.072010  0.747210  0.177220  1.0  1.3193
  V  V59  1  0.133150  0.807300  0.233770  1.0  1.3049
  V  V60  1  0.947400  0.694740  0.193540  1.0  0.9423
  V  V61  1  0.988000  0.863450  0.342770  1.0  1.2356
  V  V62  1  0.869320  0.742360  0.419200  1.0  1.3139
  V  V63  1  0.823320  0.622330  0.421250  1.0  1.9989
  V  V64  1  0.947350  0.704010  0.448040  1.0  1.2431
  V  V65  1  0.549740  0.302630  0.845070  1.0  1.2084
  V  V66  1  0.558410  0.407600  0.743050  1.0  1.3491
  V  V67  1  0.512350  0.414770  0.658520  1.0  1.2179
  V  V68  1  0.417120  0.321590  0.652930  1.0  1.3154
  V  V69  1  0.354910  0.192820  0.706790  1.0  1.3901
  V  V70  1  0.340040  0.087440  0.812680  1.0  1.2825
  V  V71  1  0.399070  0.076050  0.894460  1.0  1.2405
  V  V72  1  0.477390  0.160600  0.913830  1.0  1.2224
  V  V73  1  0.607610  0.355340  0.689670  1.0  1.9607
  V  V74  1  0.572780  0.247210  0.677990  1.0  1.3162
  V  V75  1  0.516230  0.307300  0.616850  1.0  1.3036
  V  V76  1  0.556460  0.194740  0.802600  1.0  0.9386
  V  V77  1  0.407230  0.363450  0.762000  1.0  1.2347
  V  V78  1  0.330800  0.242360  0.880680  1.0  1.3109
  V  V79  1  0.328750  0.122330  0.926680  1.0  1.9967
  V  V80  1  0.301960  0.204010  0.802650  1.0  1.2476
  V  V81  1  0.852300  0.697370  0.752890  1.0  1.2091
  V  V82  1  0.849350  0.592400  0.849190  1.0  1.3391
  V  V83  1  0.926710  0.585230  0.902420  1.0  1.2086
  V  V84  1  0.025480  0.678410  0.904470  1.0  1.3152
  V  V85  1  0.100390  0.807180  0.837910  1.0  1.3883
  V  V86  1  0.099880  0.912560  0.747400  1.0  1.2934
  V  V87  1  0.029490  0.923950  0.676980  1.0  1.2562
  V  V88  1  0.925570  0.839400  0.683210  1.0  1.2255
  V  V89  1  0.954990  0.644660  0.747730  1.0  1.9614
  V  V90  1  0.074800  0.752790  0.674430  1.0  1.3198
  V  V91  1  0.075850  0.692700  0.791070  1.0  1.305
  V  V92  1  0.002660  0.805260  0.638280  1.0  0.9414
  V  V93  1  0.874550  0.636550  0.956220  1.0  1.2364
  V  V94  1  0.876960  0.757640  0.911560  1.0  1.3139
  V  V95  1  0.950990  0.877670  0.793580  1.0  2.0012
  V  V96  1  0.993340  0.795990  0.902050  1.0  1.243
  V  V97  1  0.404930  0.105190  0.397700  1.0  1.1911
  V  V98  1  0.506950  0.198540  0.400650  1.0  1.3545
  V  V99  1  0.591480  0.329130  0.323290  1.0  1.2312
  V  V100  1  0.597070  0.429950  0.224520  1.0  1.3085
  V  V101  1  0.543210  0.438300  0.149610  1.0  1.3808
  V  V102  1  0.437320  0.347280  0.150120  1.0  1.3027
  V  V103  1  0.355540  0.206470  0.220510  1.0  1.2663
  V  V104  1  0.336170  0.108780  0.324430  1.0  1.2064
  V  V105  1  0.560330  0.202720  0.295010  1.0  1.9618
  V  V106  1  0.572010  0.249230  0.175200  1.0  1.3207
  V  V107  1  0.633150  0.366920  0.174150  1.0  1.3054
  V  V108  1  0.447400  0.140940  0.247340  1.0  0.9412
  V  V109  1  0.488000  0.330770  0.375450  1.0  1.2317
  V  V110  1  0.369320  0.288520  0.373040  1.0  1.3107
  V  V111  1  0.323320  0.244570  0.299010  1.0  1.998
  V  V112  1  0.447350  0.395390  0.256660  1.0  1.2499
  V  V113  1  0.497110  0.894810  0.700260  1.0  1.2
  V  V114  1  0.400810  0.801460  0.691590  1.0  1.3596
  V  V115  1  0.347580  0.670870  0.737650  1.0  1.2309
  V  V116  1  0.345530  0.570050  0.832880  1.0  1.2903
  V  V117  1  0.412090  0.561700  0.895090  1.0  1.3656
  V  V118  1  0.502600  0.652720  0.909960  1.0  1.2991
  V  V119  1  0.573020  0.793530  0.850930  1.0  1.2612
  V  V120  1  0.566790  0.891220  0.772610  1.0  1.2183
  V  V121  1  0.502270  0.797280  0.642390  1.0  1.9576
  V  V122  1  0.575570  0.750770  0.677220  1.0  1.3197
  V  V123  1  0.458930  0.633080  0.733770  1.0  1.3046
  V  V124  1  0.611720  0.859060  0.693540  1.0  0.9392
  V  V125  1  0.293780  0.669230  0.842770  1.0  1.2371
  V  V126  1  0.338440  0.711480  0.919200  1.0  1.3126
  V  V127  1  0.456420  0.755430  0.921250  1.0  2.0014
  V  V128  1  0.347950  0.604610  0.948040  1.0  1.2499
  Co  Co129  1  0.205810  0.662390  0.279640  1.0  0.8034
  Co  Co130  1  0.733790  0.043860  0.096610  1.0  0.8094
  Co  Co131  1  0.447680  0.708990  0.064310  1.0  0.6919
  Co  Co132  1  0.057970  0.337610  0.456580  1.0  0.8056
  Co  Co133  1  0.859530  0.956140  0.310070  1.0  0.81
  Co  Co134  1  0.226700  0.291010  0.261310  1.0  0.6904
  Co  Co135  1  0.793420  0.985450  0.044190  1.0  0.8045
  Co  Co136  1  0.939930  0.330400  0.516210  1.0  0.8092
  Co  Co137  1  0.988690  0.011990  0.802320  1.0  0.6904
  Co  Co138  1  0.970360  0.014550  0.192030  1.0  0.8042
  Co  Co139  1  0.153390  0.669600  0.390470  1.0  0.8117
  Co  Co140  1  0.185690  0.988010  0.023300  1.0  0.691
  Co  Co141  1  0.557970  0.514550  0.779640  1.0  0.8048
  Co  Co142  1  0.359530  0.169600  0.596610  1.0  0.809
  Co  Co143  1  0.726700  0.488010  0.564310  1.0  0.6904
  Co  Co144  1  0.705810  0.485450  0.956580  1.0  0.8038
  Co  Co145  1  0.233790  0.830400  0.810070  1.0  0.812
  Co  Co146  1  0.947680  0.511990  0.761310  1.0  0.6909
  Co  Co147  1  0.470360  0.162390  0.544190  1.0  0.8056
  Co  Co148  1  0.653390  0.543860  0.016210  1.0  0.8089
  Co  Co149  1  0.685690  0.208990  0.302320  1.0  0.6904
  Co  Co150  1  0.293420  0.837610  0.692030  1.0  0.8032
  Co  Co151  1  0.439930  0.456140  0.890470  1.0  0.8108
  Co  Co152  1  0.488690  0.791010  0.523300  1.0  0.6918
  Ge  Ge153  1  0.281380  0.679550  0.362710  1.0  1.6016
  Ge  Ge154  1  0.321840  0.633220  0.453280  1.0  0.983
  Ge  Ge155  1  0.669770  0.881260  0.172670  1.0  1.5714
  Ge  Ge156  1  0.633200  0.757650  0.271990  1.0  0.9149
  Ge  Ge157  1  0.957740  0.320450  0.398170  1.0  1.5998
  Ge  Ge158  1  0.913500  0.366780  0.311380  1.0  0.9761
  Ge  Ge159  1  0.946070  0.118740  0.211490  1.0  1.5684
  Ge  Ge160  1  0.970360  0.242350  0.124450  1.0  0.9146
  Ge  Ge161  1  0.851830  0.144090  0.968620  1.0  1.601
  Ge  Ge162  1  0.938620  0.275120  0.928160  1.0  0.9797
  Ge  Ge163  1  0.038510  0.342440  0.580230  1.0  1.5671
  Ge  Ge164  1  0.125550  0.405190  0.616800  1.0  0.9114
  Ge  Ge165  1  0.887290  0.855910  0.292260  1.0  1.6018
  Ge  Ge166  1  0.796720  0.724880  0.336500  1.0  0.983
  Ge  Ge167  1  0.077330  0.657560  0.303930  1.0  1.569
  Ge  Ge168  1  0.978010  0.594810  0.279640  1.0  0.9174
  Ge  Ge169  1  0.457740  0.355910  0.862710  1.0  1.6
  Ge  Ge170  1  0.413500  0.224880  0.953280  1.0  0.9829
  Ge  Ge171  1  0.446070  0.157560  0.672670  1.0  1.5677
  Ge  Ge172  1  0.470360  0.094810  0.771990  1.0  0.9168
  Ge  Ge173  1  0.781380  0.644090  0.898170  1.0  1.6024
  Ge  Ge174  1  0.821840  0.775120  0.811380  1.0  0.9786
  Ge  Ge175  1  0.169770  0.842440  0.711490  1.0  1.5684
  Ge  Ge176  1  0.133200  0.905190  0.624450  1.0  0.9104
  Ge  Ge177  1  0.387290  0.179550  0.468620  1.0  1.5997
  Ge  Ge178  1  0.296720  0.133220  0.428160  1.0  0.9816
  Ge  Ge179  1  0.577330  0.381260  0.080230  1.0  1.569
  Ge  Ge180  1  0.478010  0.257650  0.116800  1.0  0.9213
  Ge  Ge181  1  0.351830  0.820450  0.792260  1.0  1.6019
  Ge  Ge182  1  0.438620  0.866780  0.836500  1.0  0.9787
  Ge  Ge183  1  0.538510  0.618740  0.803930  1.0  1.5708
  Ge  Ge184  1  0.625550  0.742350  0.779640  1.0  0.9095
  H  H185  1  0.233300  0.774600  0.225500  1.0  0.2559
  H  H186  1  0.287200  0.776200  0.216200  1.0  0.2551
  H  H187  1  0.210300  0.646700  0.193800  1.0  0.2209
  H  H188  1  0.151500  0.630000  0.222100  1.0  0.2912
  H  H189  1  0.195200  0.565400  0.350400  1.0  0.198
  H  H190  1  0.140700  0.548600  0.347100  1.0  0.1662
  H  H191  1  0.697900  0.041300  0.019400  1.0  0.2656
  H  H192  1  0.647400  0.014700  0.070900  1.0  0.2459
  H  H193  1  0.741500  0.138900  0.102000  1.0  0.2687
  H  H194  1  0.777400  0.164300  0.041900  1.0  0.2436
  H  H195  1  0.816200  0.075100  0.128100  1.0  0.2883
  H  H196  1  0.769700  0.072500  0.165000  1.0  0.2928
  H  H197  1  0.386700  0.734300  0.117200  1.0  0.2453
  H  H198  1  0.404100  0.774100  0.055800  1.0  0.297
  H  H199  1  0.369800  0.631500  0.052900  1.0  0.2561
  H  H200  1  0.371700  0.595500  0.106600  1.0  0.2879
  H  H201  1  0.530000  0.824700  0.009300  1.0  0.279
  H  H202  1  0.528900  0.795300  0.066400  1.0  0.2534
  H  H203  1  0.489300  0.642800  0.063100  1.0  0.2859
  H  H204  1  0.509900  0.690000  0.002900  1.0  0.2582
  H  H205  1  0.293100  0.768700  0.144600  1.0  0.0384
  H  H206  1  0.266500  0.809700  0.137600  1.0  0.0566
  H  H207  1  0.171100  0.722800  0.175300  1.0  0.0495
  H  H208  1  0.210500  0.720500  0.128600  1.0  0.0399
  H  H209  1  0.226300  0.555000  0.282100  1.0  0.0492
  H  H210  1  0.167200  0.537000  0.278200  1.0  0.0283
  H  H211  1  0.649000  0.096000  0.019400  1.0  0.0185
  H  H212  1  0.716100  0.133100  0.983000  1.0  0.0473
  H  H213  1  0.659400  0.106500  0.092500  1.0  0.0386
  H  H214  1  0.702100  0.172400  0.036500  1.0  0.0304
  H  H215  1  0.769100  0.969600  0.184700  1.0  0.0364
  H  H216  1  0.726400  0.972900  0.226900  1.0  0.0388
  H  H217  1  0.332800  0.706500  0.052900  1.0  0.041
  H  H218  1  0.303800  0.693700  0.114500  1.0  0.0285
  H  H219  1  0.317300  0.612500  0.157800  1.0  0.0372
  H  H220  1  0.287400  0.600700  0.118300  1.0  0.0373
  H  H221  1  0.607100  0.807900  0.019400  1.0  0.0402
  H  H222  1  0.587700  0.805700  0.971000  1.0  0.0401
  H  H223  1  0.589500  0.718700  0.015000  1.0  0.0288
  H  H224  1  0.556600  0.702900  0.076900  1.0  0.0287
  H  H225  1  0.999900  0.225400  0.541300  1.0  0.2506
  H  H226  1  0.007600  0.223800  0.489000  1.0  0.2546
  H  H227  1  0.159500  0.353300  0.436400  1.0  0.2178
  H  H228  1  0.147900  0.370000  0.478500  1.0  0.2908
  H  H229  1  0.084200  0.434600  0.370200  1.0  0.2015
  H  H230  1  0.104300  0.451400  0.407900  1.0  0.1613
  H  H231  1  0.939300  0.958700  0.343400  1.0  0.266
  H  H232  1  0.914400  0.985300  0.367300  1.0  0.2452
  H  H233  1  0.759100  0.861100  0.397400  1.0  0.269
  H  H234  1  0.793800  0.835700  0.386900  1.0  0.242
  H  H235  1  0.796800  0.924900  0.258900  1.0  0.2861
  H  H236  1  0.762500  0.927500  0.302800  1.0  0.2933
  H  H237  1  0.148500  0.265700  0.347600  1.0  0.245
  H  H238  1  0.170100  0.225900  0.370000  1.0  0.2886
  H  H239  1  0.315600  0.368500  0.261700  1.0  0.2612
  H  H240  1  0.297900  0.404500  0.223800  1.0  0.2882
  H  H241  1  0.166000  0.175300  0.294700  1.0  0.2773
  H  H242  1  0.138300  0.204700  0.266400  1.0  0.2553
  H  H243  1  0.294100  0.357200  0.153500  1.0  0.2852
  H  H244  1  0.307100  0.310000  0.180100  1.0  0.2534
  H  H245  1  0.086700  0.231300  0.475600  1.0  0.0485
  H  H246  1  0.052700  0.190300  0.543200  1.0  0.0582
  H  H247  1  0.101900  0.277200  0.551700  1.0  0.0526
  H  H248  1  0.150900  0.279500  0.510000  1.0  0.0386
  H  H249  1  0.162900  0.445000  0.328700  1.0  0.0461
  H  H250  1  0.184800  0.463000  0.369800  1.0  0.0337
  H  H251  1  0.884600  0.904000  0.447000  1.0  0.0239
  H  H252  1  0.883900  0.866900  0.417000  1.0  0.0468
  H  H253  1  0.801000  0.893500  0.447100  1.0  0.0371
  H  H254  1  0.791100  0.827600  0.470300  1.0  0.0273
  H  H255  1  0.845700  0.030400  0.200500  1.0  0.0379
  H  H256  1  0.800200  0.027100  0.246500  1.0  0.038
  H  H257  1  0.240600  0.293500  0.373700  1.0  0.0308
  H  H258  1  0.191800  0.306300  0.389900  1.0  0.0304
  H  H259  1  0.229700  0.387500  0.295200  1.0  0.0293
  H  H260  1  0.281000  0.399300  0.313300  1.0  0.0373
  H  H261  1  0.172700  0.192100  0.200800  1.0  0.0422
  H  H262  1  0.223300  0.194300  0.218000  1.0  0.0364
  H  H263  1  0.266300  0.281300  0.129200  1.0  0.0268
  H  H264  1  0.220200  0.297100  0.146300  1.0  0.0231
  H  H265  1  0.708700  0.958800  0.016700  1.0  0.2549
  H  H266  1  0.761000  0.003400  0.962800  1.0  0.2575
  H  H267  1  0.813600  0.904100  0.039700  1.0  0.2152
  H  H268  1  0.771500  0.873600  0.098500  1.0  0.2921
  H  H269  1  0.879800  0.045600  0.054800  1.0  0.1985
  H  H270  1  0.842100  0.987800  0.109300  1.0  0.1612
  H  H271  1  0.906600  0.217300  0.552100  1.0  0.2658
  H  H272  1  0.882700  0.218300  0.602600  1.0  0.2463
  H  H273  1  0.852600  0.343500  0.508500  1.0  0.2657
  H  H274  1  0.863100  0.319300  0.472600  1.0  0.2374
  H  H275  1  0.991100  0.444300  0.433800  1.0  0.2888
  H  H276  1  0.947200  0.434700  0.480300  1.0  0.2982
  H  H277  1  0.902400  0.003900  0.863300  1.0  0.2468
  H  H278  1  0.880000  0.959900  0.845900  1.0  0.297
  H  H279  1  0.988300  0.922700  0.880200  1.0  0.2575
  H  H280  1  0.026200  0.978300  0.878300  1.0  0.2884
  H  H281  1  0.955300  0.039300  0.720000  1.0  0.2768
  H  H282  1  0.983600  0.095300  0.721100  1.0  0.2564
  H  H283  1  0.096500  0.052400  0.760700  1.0  0.2865
  H  H284  1  0.069900  0.012800  0.740100  1.0  0.2581
  H  H285  1  0.774400  0.937700  0.956900  1.0  0.0496
  H  H286  1  0.706800  0.904100  0.983500  1.0  0.0605
  H  H287  1  0.698300  0.846400  0.078900  1.0  0.0514
  H  H288  1  0.740000  0.839100  0.039500  1.0  0.0405
  H  H289  1  0.921300  0.008400  0.023700  1.0  0.0441
  H  H290  1  0.880200  0.945400  0.082800  1.0  0.031
  H  H291  1  0.803000  0.168400  0.601000  1.0  0.0197
  H  H292  1  0.833000  0.199100  0.533900  1.0  0.0491
  H  H293  1  0.802900  0.251900  0.590600  1.0  0.0393
  H  H294  1  0.779700  0.238600  0.547900  1.0  0.027
  H  H295  1  0.049500  0.453800  0.480900  1.0  0.0383
  H  H296  1  0.003500  0.453300  0.523600  1.0  0.0443
  H  H297  1  0.876300  0.885700  0.917200  1.0  0.0336
  H  H298  1  0.860100  0.918300  0.946200  1.0  0.0299
  H  H299  1  0.954800  0.975100  0.932700  1.0  0.0379
  H  H300  1  0.936700  0.905700  0.962600  1.0  0.0386
  H  H301  1  0.049200  0.126500  0.642900  1.0  0.0424
  H  H302  1  0.032000  0.058700  0.662300  1.0  0.0391
  H  H303  1  0.120800  0.104500  0.660500  1.0  0.0282
  H  H304  1  0.103700  0.133500  0.693400  1.0  0.0265
  H  H305  1  0.024500  0.041200  0.250100  1.0  0.2531
  H  H306  1  0.033800  0.996600  0.242400  1.0  0.2552
  H  H307  1  0.056200  0.095900  0.090500  1.0  0.2185
  H  H308  1  0.027900  0.126400  0.102100  1.0  0.2937
  H  H309  1  0.899600  0.954400  0.165800  1.0  0.1929
  H  H310  1  0.902900  0.012200  0.145700  1.0  0.1664
  H  H311  1  0.230600  0.782700  0.310700  1.0  0.2616
  H  H312  1  0.179100  0.781700  0.335600  1.0  0.2497
  H  H313  1  0.148000  0.656500  0.490900  1.0  0.2668
  H  H314  1  0.208100  0.680700  0.456200  1.0  0.2204
  H  H315  1  0.121900  0.555700  0.453200  1.0  0.2707
  H  H316  1  0.085000  0.565300  0.487500  1.0  0.2993
  H  H317  1  0.132800  0.996100  0.101500  1.0  0.2462
  H  H318  1  0.194200  0.040100  0.079900  1.0  0.2944
  H  H319  1  0.197100  0.077300  0.934400  1.0  0.2606
  H  H320  1  0.143400  0.021700  0.952100  1.0  0.2902
  H  H321  1  0.240700  0.960700  0.084000  1.0  0.2781
  H  H322  1  0.183600  0.904700  0.111700  1.0  0.2578
  H  H323  1  0.186900  0.947600  0.955900  1.0  0.2893
  H  H324  1  0.247100  0.987200  0.942900  1.0  0.2573
  H  H325  1  0.105400  0.062300  0.163300  1.0  0.0477
  H  H326  1  0.112400  0.095900  0.197300  1.0  0.0601
  H  H327  1  0.074700  0.153600  0.148100  1.0  0.0513
  H  H328  1  0.121400  0.160900  0.099100  1.0  0.0397
  H  H329  1  0.967900  0.991600  0.087100  1.0  0.0475
  H  H330  1  0.971800  0.054600  0.065200  1.0  0.0295
  H  H331  1  0.230600  0.831600  0.365400  1.0  0.0229
  H  H332  1  0.267000  0.800900  0.366100  1.0  0.0368
  H  H333  1  0.157500  0.748100  0.449000  1.0  0.0402
  H  H334  1  0.213500  0.761400  0.458900  1.0  0.0288
  H  H335  1  0.065300  0.546200  0.404300  1.0  0.0395
  H  H336  1  0.023100  0.546700  0.449800  1.0  0.0402
  H  H337  1  0.197100  0.114300  0.009400  1.0  0.034
  H  H338  1  0.135500  0.081700  0.058200  1.0  0.0299
  H  H339  1  0.092200  0.024900  0.020300  1.0  0.0357
  H  H340  1  0.131700  0.094300  0.969000  1.0  0.0394
  H  H341  1  0.230600  0.873500  0.077300  1.0  0.0416
  H  H342  1  0.279000  0.941300  0.026700  1.0  0.0373
  H  H343  1  0.235000  0.895500  0.983700  1.0  0.0264
  H  H344  1  0.173100  0.866500  0.029800  1.0  0.0269
  H  H345  1  0.499900  0.541200  0.725500  1.0  0.2548
  H  H346  1  0.507600  0.496600  0.716200  1.0  0.2549
  H  H347  1  0.659500  0.595900  0.693800  1.0  0.2157
  H  H348  1  0.647900  0.626400  0.722100  1.0  0.2924
  H  H349  1  0.584200  0.454400  0.850400  1.0  0.1944
  H  H350  1  0.604300  0.512200  0.847100  1.0  0.1614
  H  H351  1  0.439300  0.282700  0.519400  1.0  0.2642
  H  H352  1  0.414400  0.281700  0.570900  1.0  0.2458
  H  H353  1  0.259100  0.156500  0.602000  1.0  0.2654
  H  H354  1  0.293800  0.180700  0.541900  1.0  0.2376
  H  H355  1  0.296800  0.055700  0.628100  1.0  0.2895
  H  H356  1  0.262500  0.065300  0.665000  1.0  0.2984
  H  H357  1  0.648500  0.496100  0.617200  1.0  0.2468
  H  H358  1  0.670100  0.540100  0.555800  1.0  0.2966
  H  H359  1  0.815600  0.577300  0.552900  1.0  0.2608
  H  H360  1  0.797900  0.521700  0.606600  1.0  0.2888
  H  H361  1  0.666000  0.460700  0.509300  1.0  0.2774
  H  H362  1  0.638300  0.404700  0.566400  1.0  0.2556
  H  H363  1  0.794100  0.447600  0.563100  1.0  0.2866
  H  H364  1  0.807100  0.487200  0.502900  1.0  0.2582
  H  H365  1  0.586700  0.562300  0.644600  1.0  0.0493
  H  H366  1  0.552700  0.595900  0.637600  1.0  0.0604
  H  H367  1  0.601900  0.653600  0.675300  1.0  0.0493
  H  H368  1  0.650900  0.660900  0.628600  1.0  0.0404
  H  H369  1  0.662900  0.491600  0.782100  1.0  0.0436
  H  H370  1  0.684800  0.554600  0.778200  1.0  0.0291
  H  H371  1  0.384600  0.331600  0.519400  1.0  0.022
  H  H372  1  0.383900  0.300900  0.483000  1.0  0.0491
  H  H373  1  0.301000  0.248100  0.592500  1.0  0.0389
  H  H374  1  0.291100  0.261400  0.536500  1.0  0.0281
  H  H375  1  0.345700  0.046200  0.684700  1.0  0.038
  H  H376  1  0.300200  0.046700  0.726900  1.0  0.0435
  H  H377  1  0.740600  0.614300  0.552900  1.0  0.036
  H  H378  1  0.691800  0.581700  0.614500  1.0  0.03
  H  H379  1  0.729700  0.524900  0.657800  1.0  0.0395
  H  H380  1  0.781000  0.594300  0.618300  1.0  0.0371
  H  H381  1  0.672700  0.373500  0.519400  1.0  0.0418
  H  H382  1  0.723300  0.441300  0.471000  1.0  0.0386
  H  H383  1  0.766300  0.395500  0.515000  1.0  0.0277
  H  H384  1  0.720200  0.366500  0.576900  1.0  0.0273
  H  H385  1  0.733300  0.458800  0.041300  1.0  0.2534
  H  H386  1  0.787200  0.503400  0.989000  1.0  0.2551
  H  H387  1  0.710300  0.404100  0.936400  1.0  0.2185
  H  H388  1  0.651500  0.373600  0.978500  1.0  0.2922
  H  H389  1  0.695200  0.545600  0.870200  1.0  0.1978
  H  H390  1  0.640700  0.487800  0.907900  1.0  0.1658
  H  H391  1  0.197900  0.717300  0.843400  1.0  0.2629
  H  H392  1  0.147400  0.718300  0.867300  1.0  0.2491
  H  H393  1  0.241500  0.843500  0.897400  1.0  0.2669
  H  H394  1  0.277400  0.819300  0.886900  1.0  0.2179
  H  H395  1  0.316200  0.944300  0.758900  1.0  0.2696
  H  H396  1  0.269700  0.934700  0.802800  1.0  0.2991
  H  H397  1  0.886700  0.503900  0.847600  1.0  0.2454
  H  H398  1  0.904100  0.459900  0.870000  1.0  0.2951
  H  H399  1  0.869800  0.422700  0.761700  1.0  0.2562
  H  H400  1  0.871700  0.478300  0.723800  1.0  0.2906
  H  H401  1  0.030000  0.539300  0.794700  1.0  0.2787
  H  H402  1  0.028900  0.595300  0.766400  1.0  0.2561
  H  H403  1  0.989300  0.552400  0.653500  1.0  0.2892
  H  H404  1  0.009900  0.512800  0.680100  1.0  0.2571
  H  H405  1  0.793100  0.437700  0.975600  1.0  0.0481
  H  H406  1  0.766500  0.404100  0.043200  1.0  0.0603
  H  H407  1  0.671100  0.346400  0.051700  1.0  0.0525
  H  H408  1  0.710500  0.339100  0.010000  1.0  0.0402
  H  H409  1  0.726300  0.508400  0.828700  1.0  0.0484
  H  H410  1  0.667200  0.445400  0.869800  1.0  0.0302
  H  H411  1  0.149000  0.668400  0.947000  1.0  0.0201
  H  H412  1  0.216100  0.699100  0.917000  1.0  0.0361
  H  H413  1  0.159400  0.751900  0.947100  1.0  0.0409
  H  H414  1  0.202100  0.738600  0.970300  1.0  0.029
  H  H415  1  0.269100  0.953800  0.700500  1.0  0.0398
  H  H416  1  0.226400  0.953300  0.746500  1.0  0.0409
  H  H417  1  0.832800  0.385700  0.873700  1.0  0.0335
  H  H418  1  0.803800  0.418300  0.889900  1.0  0.0301
  H  H419  1  0.817300  0.475100  0.795200  1.0  0.0352
  H  H420  1  0.787400  0.405700  0.813300  1.0  0.0384
  H  H421  1  0.107100  0.626500  0.700800  1.0  0.0405
  H  H422  1  0.087700  0.558700  0.718000  1.0  0.0363
  H  H423  1  0.089500  0.604500  0.629200  1.0  0.0271
  H  H424  1  0.056600  0.633500  0.646300  1.0  0.0291
  H  H425  1  0.524500  0.274600  0.516700  1.0  0.2511
  H  H426  1  0.533800  0.276200  0.462800  1.0  0.2553
  H  H427  1  0.556200  0.146700  0.539700  1.0  0.2175
  H  H428  1  0.527900  0.130000  0.598500  1.0  0.2916
  H  H429  1  0.399600  0.065400  0.554800  1.0  0.2018
  H  H430  1  0.402900  0.048600  0.609300  1.0  0.1617
  H  H431  1  0.730600  0.541300  0.052100  1.0  0.2667
  H  H432  1  0.679100  0.514700  0.102600  1.0  0.2458
  H  H433  1  0.648000  0.638900  0.008500  1.0  0.2693
  H  H434  1  0.708100  0.664300  0.972600  1.0  0.244
  H  H435  1  0.621900  0.575100  0.933800  1.0  0.2853
  H  H436  1  0.585000  0.572500  0.980300  1.0  0.293
  H  H437  1  0.632800  0.234300  0.363300  1.0  0.2455
  H  H438  1  0.694200  0.274100  0.345900  1.0  0.2941
  H  H439  1  0.697100  0.131500  0.380200  1.0  0.2612
  H  H440  1  0.643400  0.095500  0.378300  1.0  0.2871
  H  H441  1  0.740700  0.324700  0.220000  1.0  0.2782
  H  H442  1  0.683600  0.295300  0.221100  1.0  0.2563
  H  H443  1  0.686900  0.142800  0.260700  1.0  0.2838
  H  H444  1  0.747100  0.190000  0.240100  1.0  0.2533
  H  H445  1  0.605400  0.268700  0.456900  1.0  0.0486
  H  H446  1  0.612400  0.309700  0.483500  1.0  0.056
  H  H447  1  0.574700  0.222800  0.578900  1.0  0.0528
  H  H448  1  0.621400  0.220500  0.539500  1.0  0.0391
  H  H449  1  0.467900  0.055000  0.523700  1.0  0.0456
  H  H450  1  0.471800  0.037000  0.582800  1.0  0.0332
  H  H451  1  0.730600  0.596000  0.101000  1.0  0.0237
  H  H452  1  0.767000  0.633100  0.033900  1.0  0.0458
  H  H453  1  0.657500  0.606500  0.090600  1.0  0.0375
  H  H454  1  0.713500  0.672400  0.047900  1.0  0.0287
  H  H455  1  0.565300  0.469600  0.980900  1.0  0.0388
  H  H456  1  0.523100  0.472900  0.023600  1.0  0.0394
  H  H457  1  0.697100  0.206500  0.417200  1.0  0.0305
  H  H458  1  0.635500  0.193700  0.446200  1.0  0.0302
  H  H459  1  0.592200  0.112500  0.432700  1.0  0.0296
  H  H460  1  0.631700  0.100700  0.462600  1.0  0.0386
  H  H461  1  0.730600  0.307900  0.142900  1.0  0.0426
  H  H462  1  0.779000  0.305700  0.162300  1.0  0.0381
  H  H463  1  0.735000  0.218700  0.160500  1.0  0.027
  H  H464  1  0.673100  0.202900  0.193400  1.0  0.024
  H  H465  1  0.208700  0.725400  0.750100  1.0  0.2545
  H  H466  1  0.261000  0.723800  0.742400  1.0  0.2557
  H  H467  1  0.313600  0.853300  0.590500  1.0  0.2217
  H  H468  1  0.271500  0.870000  0.602100  1.0  0.2923
  H  H469  1  0.379800  0.934600  0.665800  1.0  0.1978
  H  H470  1  0.342100  0.951400  0.645700  1.0  0.1669
  H  H471  1  0.406600  0.458700  0.810700  1.0  0.2653
  H  H472  1  0.382700  0.485300  0.835600  1.0  0.2469
  H  H473  1  0.352600  0.361100  0.990900  1.0  0.2697
  H  H474  1  0.363100  0.335700  0.956200  1.0  0.2431
  H  H475  1  0.491100  0.424900  0.953200  1.0  0.2891
  H  H476  1  0.447200  0.427500  0.987500  1.0  0.2929
  H  H477  1  0.402400  0.765700  0.601500  1.0  0.2459
  H  H478  1  0.380000  0.725900  0.579900  1.0  0.2889
  H  H479  1  0.488300  0.868500  0.434400  1.0  0.2559
  H  H480  1  0.526200  0.904500  0.452100  1.0  0.2877
  H  H481  1  0.455300  0.675300  0.584000  1.0  0.2761
  H  H482  1  0.483600  0.704700  0.611700  1.0  0.2537
  H  H483  1  0.596500  0.857200  0.455900  1.0  0.2852
  H  H484  1  0.569900  0.810000  0.442900  1.0  0.2579
  H  H485  1  0.274400  0.731300  0.663300  1.0  0.0371
  H  H486  1  0.206800  0.690300  0.697300  1.0  0.0575
  H  H487  1  0.198300  0.777200  0.648100  1.0  0.0506
  H  H488  1  0.240000  0.779500  0.599100  1.0  0.0396
  H  H489  1  0.421300  0.945000  0.587100  1.0  0.0497
  H  H490  1  0.380200  0.963000  0.565200  1.0  0.029
  H  H491  1  0.303000  0.404000  0.865400  1.0  0.0184
  H  H492  1  0.333000  0.366900  0.866100  1.0  0.0473
  H  H493  1  0.302900  0.393500  0.949000  1.0  0.0381
  H  H494  1  0.279700  0.327600  0.958900  1.0  0.028
  H  H495  1  0.549500  0.530400  0.904300  1.0  0.0365
  H  H496  1  0.503500  0.527100  0.949800  1.0  0.0375
  H  H497  1  0.376300  0.793500  0.509400  1.0  0.0418
  H  H498  1  0.360100  0.806300  0.558200  1.0  0.0283
  H  H499  1  0.454800  0.887500  0.520300  1.0  0.0369
  H  H500  1  0.436700  0.899300  0.469000  1.0  0.0386
  H  H501  1  0.549200  0.692100  0.577300  1.0  0.0398
  H  H502  1  0.532000  0.694300  0.526700  1.0  0.0395
  H  H503  1  0.620800  0.781300  0.483700  1.0  0.0287
  H  H504  1  0.603700  0.797100  0.529800  1.0  0.0288
  C  C505  1  0.259600  0.769100  0.161900  1.0  0.0135
  C  C506  1  0.202900  0.717200  0.165500  1.0  0.0056
  C  C507  1  0.185300  0.535300  0.304600  1.0  0.03
  C  C508  1  0.685200  0.104100  0.021900  1.0  -0.0003
  C  C509  1  0.694400  0.130900  0.057300  1.0  0.0085
  C  C510  1  0.766000  0.995300  0.198700  1.0  -0.0162
  C  C511  1  0.333500  0.693200  0.090500  1.0  -0.0117
  C  C512  1  0.322400  0.628100  0.118100  1.0  -0.0144
  C  C513  1  0.575000  0.785900  0.012500  1.0  -0.0059
  C  C514  1  0.559600  0.719900  0.037900  1.0  0.001
  C  C515  1  0.069000  0.230900  0.509500  1.0  0.0139
  C  C516  1  0.117300  0.282800  0.514300  1.0  0.0024
  C  C517  1  0.160100  0.464700  0.350000  1.0  0.0275
  C  C518  1  0.874000  0.895900  0.418900  1.0  0.0011
  C  C519  1  0.811800  0.869100  0.436500  1.0  0.0078
  C  C520  1  0.806000  0.004700  0.229300  1.0  -0.0198
  C  C521  1  0.216300  0.306800  0.359700  1.0  -0.0169
  C  C522  1  0.253800  0.371900  0.305700  1.0  -0.0162
  C  C523  1  0.201600  0.214100  0.210900  1.0  -0.0101
  C  C524  1  0.242200  0.280100  0.160300  1.0  -0.0046
  C  C525  1  0.740500  0.921500  0.990400  1.0  0.0152
  C  C526  1  0.735700  0.868400  0.047100  1.0  0.0035
  C  C527  1  0.900000  0.989900  0.064700  1.0  0.0284
  C  C528  1  0.831100  0.207100  0.564800  1.0  0.004
  C  C529  1  0.813500  0.251700  0.555600  1.0  0.0162
  C  C530  1  0.020700  0.464700  0.484000  1.0  -0.0191
  C  C531  1  0.890300  0.924000  0.916500  1.0  -0.0124
  C  C532  1  0.944300  0.940500  0.927600  1.0  -0.0132
  C  C533  1  0.039100  0.087500  0.675000  1.0  -0.0078
  C  C534  1  0.089700  0.097500  0.690400  1.0  0.0005
  C  C535  1  0.088100  0.078500  0.181000  1.0  0.0186
  C  C536  1  0.084500  0.131600  0.132700  1.0  0.0034
  C  C537  1  0.945400  0.010100  0.089900  1.0  0.0293
  C  C538  1  0.228100  0.792900  0.376000  1.0  -1e-04
  C  C539  1  0.192700  0.748300  0.438200  1.0  0.0115
  C  C540  1  0.051300  0.535300  0.444000  1.0  -0.0177
  C  C541  1  0.159500  0.076000  0.033700  1.0  -0.0158
  C  C542  1  0.131900  0.059500  0.996200  1.0  -0.0108
  C  C543  1  0.237500  0.912500  0.048400  1.0  -0.0
  C  C544  1  0.212100  0.902500  0.007800  1.0  -0.0054
  C  C545  1  0.569000  0.578500  0.661900  1.0  0.017
  C  C546  1  0.617300  0.631600  0.665500  1.0  0.0039
  C  C547  1  0.660100  0.510100  0.804600  1.0  0.0295
  C  C548  1  0.374000  0.292900  0.521900  1.0  0.0021
  C  C549  1  0.311800  0.248300  0.557300  1.0  0.0163
  C  C550  1  0.306000  0.035300  0.698700  1.0  -0.0183
  C  C551  1  0.716300  0.576000  0.590500  1.0  -0.0126
  C  C552  1  0.753800  0.559500  0.618100  1.0  -0.0134
  C  C553  1  0.701600  0.412500  0.512500  1.0  -0.0067
  C  C554  1  0.742200  0.402500  0.537900  1.0  -0.0005
  C  C555  1  0.759600  0.421500  0.009500  1.0  0.0195
  C  C556  1  0.702900  0.368400  0.014300  1.0  0.0031
  C  C557  1  0.685300  0.489900  0.850000  1.0  0.0289
  C  C558  1  0.185200  0.707100  0.918900  1.0  0.0037
  C  C559  1  0.194400  0.751700  0.936500  1.0  0.0116
  C  C560  1  0.266000  0.964700  0.729300  1.0  -0.0186
  C  C561  1  0.833500  0.424000  0.859700  1.0  -0.0153
  C  C562  1  0.822400  0.440500  0.805700  1.0  -0.0101
  C  C563  1  0.075000  0.587500  0.710900  1.0  -0.0002
  C  C564  1  0.059600  0.597500  0.660300  1.0  -0.0046
  C  C565  1  0.588100  0.269100  0.490400  1.0  0.0142
  C  C566  1  0.584500  0.217200  0.547100  1.0  0.0024
  C  C567  1  0.445400  0.035300  0.564700  1.0  0.0298
  C  C568  1  0.728100  0.604100  0.064800  1.0  -0.0006
  C  C569  1  0.692700  0.630900  0.055600  1.0  0.0062
  C  C570  1  0.551300  0.495300  0.984000  1.0  -0.0181
  C  C571  1  0.659500  0.193200  0.416500  1.0  -0.0172
  C  C572  1  0.631900  0.128100  0.427600  1.0  -0.0152
  C  C573  1  0.737500  0.285900  0.175000  1.0  -0.0103
  C  C574  1  0.712100  0.219900  0.190400  1.0  -0.0037
  C  C575  1  0.240500  0.730900  0.681000  1.0  0.0116
  C  C576  1  0.235700  0.782800  0.632700  1.0  0.0053
  C  C577  1  0.400000  0.964700  0.589900  1.0  0.027
  C  C578  1  0.331100  0.395900  0.876000  1.0  0.0004
  C  C579  1  0.313500  0.369100  0.938200  1.0  0.01
  C  C580  1  0.520700  0.504700  0.944000  1.0  -0.0174
  C  C581  1  0.390300  0.806800  0.533700  1.0  -0.0115
  C  C582  1  0.444300  0.871900  0.496200  1.0  -0.0146
  C  C583  1  0.539100  0.714100  0.548400  1.0  -0.0054
  C  C584  1  0.589700  0.780100  0.507800  1.0  0.0008
  N  N585  1  0.252300  0.757800  0.216300  1.0  -0.6672
  N  N586  1  0.189000  0.658400  0.209000  1.0  -0.6808
  N  N587  1  0.178900  0.569100  0.325400  1.0  -0.5107
  N  N588  1  0.684200  0.046500  0.047700  1.0  -0.6525
  N  N589  1  0.743400  0.133300  0.072300  1.0  -0.6557
  N  N590  1  0.778000  0.051700  0.150700  1.0  -0.6849
  N  N591  1  0.390300  0.735200  0.084100  1.0  -0.674
  N  N592  1  0.371800  0.629700  0.085300  1.0  -0.6458
  N  N593  1  0.527400  0.791200  0.036400  1.0  -0.6502
  N  N594  1  0.504500  0.683300  0.038400  1.0  -0.6513
  N  N595  1  0.025900  0.242200  0.505500  1.0  -0.6629
  N  N596  1  0.132600  0.341600  0.469400  1.0  -0.6736
  N  N597  1  0.105500  0.430900  0.390200  1.0  -0.51
  N  N598  1  0.905800  0.953500  0.362300  1.0  -0.6494
  N  N599  1  0.794400  0.866700  0.389900  1.0  -0.6557
  N  N600  1  0.797600  0.948300  0.273700  1.0  -0.683
  N  N601  1  0.180700  0.264800  0.344900  1.0  -0.6734
  N  N602  1  0.285000  0.370300  0.257900  1.0  -0.643
  N  N603  1  0.172400  0.208800  0.263800  1.0  -0.6511
  N  N604  1  0.278300  0.316700  0.178800  1.0  -0.649
  N  N605  1  0.744500  0.968600  0.997700  1.0  -0.6635
  N  N606  1  0.780600  0.898000  0.061000  1.0  -0.6791
  N  N607  1  0.859800  0.004300  0.071100  1.0  -0.5154
  N  N608  1  0.887700  0.231900  0.565800  1.0  -0.65
  N  N609  1  0.860100  0.315700  0.506600  1.0  -0.658
  N  N610  1  0.976300  0.428700  0.472000  1.0  -0.6823
  N  N611  1  0.905100  0.974400  0.859700  1.0  -0.6698
  N  N612  1  0.992100  0.957100  0.878200  1.0  -0.6366
  N  N613  1  0.986200  0.063800  0.722600  1.0  -0.6497
  N  N614  1  0.071200  0.042900  0.745500  1.0  -0.6473
  N  N615  1  0.033700  0.031400  0.224100  1.0  -0.6686
  N  N616  1  0.041000  0.102000  0.117400  1.0  -0.6834
  N  N617  1  0.924600  0.995700  0.144500  1.0  -0.5157
  N  N618  1  0.202300  0.768100  0.344200  1.0  -0.6532
  N  N619  1  0.177700  0.684300  0.455600  1.0  -0.6613
  N  N620  1  0.099300  0.571300  0.452400  1.0  -0.6867
  N  N621  1  0.165900  0.025600  0.069300  1.0  -0.6763
  N  N622  1  0.164700  0.042900  0.965000  1.0  -0.6409
  N  N623  1  0.213600  0.936200  0.077600  1.0  -0.6533
  N  N624  1  0.211600  0.957100  0.971700  1.0  -0.652
  N  N625  1  0.525900  0.531400  0.716300  1.0  -0.665
  N  N626  1  0.632600  0.602000  0.709000  1.0  -0.6814
  N  N627  1  0.605500  0.495700  0.825400  1.0  -0.515
  N  N628  1  0.405800  0.268100  0.547700  1.0  -0.6508
  N  N629  1  0.294400  0.184300  0.572300  1.0  -0.6587
  N  N630  1  0.297600  0.071300  0.650700  1.0  -0.6837
  N  N631  1  0.680700  0.525600  0.584100  1.0  -0.6702
  N  N632  1  0.785000  0.542900  0.585300  1.0  -0.6379
  N  N633  1  0.672400  0.436200  0.536400  1.0  -0.6494
  N  N634  1  0.778300  0.457100  0.538400  1.0  -0.6472
  N  N635  1  0.752300  0.468600  0.005500  1.0  -0.6687
  N  N636  1  0.689000  0.398000  0.969400  1.0  -0.6821
  N  N637  1  0.678900  0.504300  0.890200  1.0  -0.5168
  N  N638  1  0.184200  0.731900  0.862300  1.0  -0.6527
  N  N639  1  0.243400  0.815700  0.889900  1.0  -0.6599
  N  N640  1  0.278000  0.928700  0.773700  1.0  -0.6861
  N  N641  1  0.890300  0.474400  0.844900  1.0  -0.6761
  N  N642  1  0.871800  0.457100  0.757900  1.0  -0.6399
  N  N643  1  0.027400  0.563800  0.763800  1.0  -0.6534
  N  N644  1  0.004500  0.542900  0.678800  1.0  -0.6515
  N  N645  1  0.533700  0.257800  0.497700  1.0  -0.6642
  N  N646  1  0.541000  0.158400  0.561000  1.0  -0.6733
  N  N647  1  0.424600  0.069100  0.571100  1.0  -0.5082
  N  N648  1  0.702300  0.546500  0.065800  1.0  -0.6482
  N  N649  1  0.677700  0.633300  0.006600  1.0  -0.6547
  N  N650  1  0.599300  0.551700  0.972000  1.0  -0.685
  N  N651  1  0.665900  0.235200  0.359700  1.0  -0.6758
  N  N652  1  0.664700  0.129700  0.378200  1.0  -0.6427
  N  N653  1  0.713600  0.291200  0.222600  1.0  -0.6508
  N  N654  1  0.711600  0.183300  0.245500  1.0  -0.6486
  N  N655  1  0.244500  0.742200  0.724100  1.0  -0.6651
  N  N656  1  0.280600  0.841600  0.617400  1.0  -0.6814
  N  N657  1  0.359800  0.930900  0.644500  1.0  -0.5133
  N  N658  1  0.387700  0.453500  0.844200  1.0  -0.6533
  N  N659  1  0.360100  0.366700  0.955600  1.0  -0.6559
  N  N660  1  0.476300  0.448300  0.952400  1.0  -0.6848
  N  N661  1  0.405100  0.764800  0.569300  1.0  -0.6726
  N  N662  1  0.492100  0.870300  0.465000  1.0  -0.6463
  N  N663  1  0.486200  0.708800  0.577600  1.0  -0.6506
  N  N664  1  0.571200  0.816700  0.471700  1.0  -0.6518
  O  O665  1  0.320800  0.659000  0.327800  1.0  -1.0116
  O  O666  1  0.385600  0.651300  0.262100  1.0  -0.9612
  O  O667  1  0.353600  0.608500  0.416100  1.0  -0.9374
  O  O668  1  0.422100  0.607700  0.345000  1.0  -0.9485
  O  O669  1  0.360100  0.774600  0.234500  1.0  -0.9901
  O  O670  1  0.420900  0.752900  0.174800  1.0  -0.9866
  O  O671  1  0.442300  0.883100  0.188600  1.0  -0.9265
  O  O672  1  0.508400  0.872400  0.126200  1.0  -1.0078
  O  O673  1  0.529000  0.935600  0.219200  1.0  -0.9562
  O  O674  1  0.589700  0.917600  0.151100  1.0  -0.9611
  O  O675  1  0.565200  0.895800  0.290200  1.0  -0.9036
  O  O676  1  0.630400  0.883700  0.228700  1.0  -0.9978
  O  O677  1  0.530600  0.779700  0.382500  1.0  -1.0154
  O  O678  1  0.601100  0.772300  0.320000  1.0  -0.9849
  O  O679  1  0.447100  0.670700  0.433000  1.0  -0.9512
  O  O680  1  0.507000  0.651300  0.366300  1.0  -0.8817
  O  O681  1  0.498400  0.676900  0.230900  1.0  -1.0095
  O  O682  1  0.531000  0.779100  0.145300  1.0  -1.0051
  O  O683  1  0.445000  0.671900  0.151300  1.0  -0.7893
  O  O684  1  0.582300  0.718700  0.251800  1.0  -0.9747
  O  O685  1  0.621100  0.837500  0.154200  1.0  -0.9753
  O  O686  1  0.329200  0.754700  0.344500  1.0  -0.9898
  O  O687  1  0.418400  0.856600  0.301600  1.0  -0.9776
  O  O688  1  0.370000  0.708800  0.431200  1.0  -1.0257
  O  O689  1  0.453900  0.817500  0.377000  1.0  -1.0464
  O  O690  1  0.447500  0.742300  0.485800  1.0  -0.8478
  O  O691  1  0.262800  0.631300  0.437900  1.0  -0.7734
  O  O692  1  0.222000  0.668000  0.350200  1.0  -0.9191
  O  O693  1  0.690000  0.829100  0.209500  1.0  -0.7722
  O  O694  1  0.724600  0.953700  0.118300  1.0  -0.8361
  O  O695  1  0.013200  0.341000  0.338200  1.0  -1.0138
  O  O696  1  0.086600  0.348700  0.265700  1.0  -0.9628
  O  O697  1  0.975400  0.391500  0.254900  1.0  -0.9386
  O  O698  1  0.047300  0.392300  0.185600  1.0  -0.9473
  O  O699  1  0.990900  0.225400  0.414500  1.0  -0.9894
  O  O700  1  0.072300  0.247100  0.332000  1.0  -0.9859
  O  O701  1  0.928300  0.116900  0.440800  1.0  -0.9229
  O  O702  1  0.001400  0.127600  0.364000  1.0  -1.0049
  O  O703  1  0.845200  0.064400  0.406600  1.0  -0.9557
  O  O704  1  0.931300  0.082400  0.327900  1.0  -0.9608
  O  O705  1  0.814000  0.104200  0.330600  1.0  -0.9029
  O  O706  1  0.887600  0.116300  0.253300  1.0  -0.9997
  O  O707  1  0.837800  0.220300  0.249100  1.0  -1.0154
  O  O708  1  0.907700  0.227700  0.171200  1.0  -0.9854
  O  O709  1  0.896300  0.329300  0.223600  1.0  -0.9518
  O  O710  1  0.982400  0.348700  0.144300  1.0  -0.874
  O  O711  1  0.092200  0.323100  0.178500  1.0  -1.0092
  O  O712  1  0.075600  0.220900  0.248100  1.0  -1.0078
  O  O713  1  0.176800  0.328100  0.226900  1.0  -0.7886
  O  O714  1  0.029500  0.281300  0.136400  1.0  -0.9761
  O  O715  1  0.008300  0.162500  0.216400  1.0  -0.9782
  O  O716  1  0.900800  0.245300  0.425500  1.0  -0.9894
  O  O717  1  0.841800  0.143400  0.438200  1.0  -0.9774
  O  O718  1  0.860000  0.291200  0.338800  1.0  -1.0241
  O  O719  1  0.805500  0.182500  0.363600  1.0  -1.0465
  O  O720  1  0.771900  0.257700  0.294800  1.0  -0.8488
  O  O721  1  0.930800  0.368700  0.368500  1.0  -0.7697
  O  O722  1  0.981800  0.332000  0.446000  1.0  -0.9198
  O  O723  1  0.961400  0.170900  0.139100  1.0  -0.7737
  O  O724  1  0.928000  0.046300  0.229100  1.0  -0.8363
  O  O725  1  0.911800  0.148600  0.929200  1.0  -1.0118
  O  O726  1  0.984300  0.147700  0.864400  1.0  -0.9614
  O  O727  1  0.995100  0.269700  0.896400  1.0  -0.9375
  O  O728  1  0.064400  0.267100  0.827900  1.0  -0.9477
  O  O729  1  0.835500  0.094600  0.889900  1.0  -0.9903
  O  O730  1  0.918000  0.095700  0.829100  1.0  -0.9871
  O  O731  1  0.809200  0.130900  0.807700  1.0  -0.9258
  O  O732  1  0.886000  0.134600  0.741600  1.0  -1.0068
  O  O733  1  0.843400  0.248200  0.721000  1.0  -0.9565
  O  O734  1  0.922100  0.240800  0.660300  1.0  -0.9593
  O  O735  1  0.919400  0.355400  0.684800  1.0  -0.9055
  O  O736  1  0.996700  0.359100  0.619600  1.0  -0.9996
  O  O737  1  0.000900  0.413100  0.719400  1.0  -1.0164
  O  O738  1  0.078800  0.421100  0.648900  1.0  -0.9853
  O  O739  1  0.026400  0.380100  0.802900  1.0  -0.9547
  O  O740  1  0.105700  0.373300  0.743000  1.0  -0.8789
  O  O741  1  0.071500  0.229300  0.751600  1.0  -1.0087
  O  O742  1  0.001900  0.176300  0.719000  1.0  -1.0079
  O  O743  1  0.023100  0.096300  0.805000  1.0  -0.789
  O  O744  1  0.113600  0.334100  0.667700  1.0  -0.9741
  O  O745  1  0.033600  0.275300  0.628900  1.0  -0.9766
  O  O746  1  0.824500  0.173700  0.920800  1.0  -0.9879
  O  O747  1  0.811800  0.220000  0.831600  1.0  -0.9764
  O  O748  1  0.911200  0.301200  0.880000  1.0  -1.0257
  O  O749  1  0.886400  0.330900  0.796100  1.0  -1.0454
  O  O750  1  0.955200  0.433300  0.802500  1.0  -0.8431
  O  O751  1  0.881500  0.200700  0.987200  1.0  -0.7722
  O  O752  1  0.804000  0.072200  0.028000  1.0  -0.9191
  O  O753  1  0.110900  0.399500  0.560000  1.0  -0.7705
  O  O754  1  0.020900  0.342900  0.525400  1.0  -0.8356
  O  O755  1  0.922200  0.851400  0.236800  1.0  -1.0108
  O  O756  1  0.987900  0.852300  0.163400  1.0  -0.9634
  O  O757  1  0.833900  0.730300  0.274600  1.0  -0.9379
  O  O758  1  0.905000  0.732900  0.202700  1.0  -0.9493
  O  O759  1  0.015500  0.905400  0.259100  1.0  -0.9893
  O  O760  1  0.075200  0.904300  0.177700  1.0  -0.9858
  O  O761  1  0.061400  0.869100  0.321700  1.0  -0.9224
  O  O762  1  0.123800  0.865400  0.248600  1.0  -1.0052
  O  O763  1  0.030800  0.751800  0.404800  1.0  -0.9522
  O  O764  1  0.098900  0.759200  0.318700  1.0  -0.9612
  O  O765  1  0.959800  0.644600  0.436000  1.0  -0.9007
  O  O766  1  0.021300  0.640900  0.362400  1.0  -0.9991
  O  O767  1  0.867500  0.586900  0.412200  1.0  -1.0164
  O  O768  1  0.930000  0.578900  0.342300  1.0  -0.9835
  O  O769  1  0.817000  0.619900  0.353700  1.0  -0.9536
  O  O770  1  0.883700  0.626700  0.267600  1.0  -0.877
  O  O771  1  0.019100  0.770700  0.157800  1.0  -1.0058
  O  O772  1  0.104700  0.823700  0.174400  1.0  -1.0064
  O  O773  1  0.098700  0.903700  0.073200  1.0  -0.7874
  O  O774  1  0.998200  0.665900  0.220500  1.0  -0.9733
  O  O775  1  0.095800  0.724700  0.241700  1.0  -0.9777
  O  O776  1  0.905500  0.826300  0.349200  1.0  -0.9895
  O  O777  1  0.948400  0.780000  0.408200  1.0  -0.9731
  O  O778  1  0.818800  0.698800  0.390000  1.0  -1.0263
  O  O779  1  0.873000  0.669100  0.444500  1.0  -1.0466
  O  O780  1  0.764200  0.566700  0.478100  1.0  -0.8474
  O  O781  1  0.812100  0.799300  0.319200  1.0  -0.7724
  O  O782  1  0.899800  0.927800  0.268200  1.0  -0.9181
  O  O783  1  0.040500  0.600500  0.288600  1.0  -0.7675
  O  O784  1  0.131700  0.657100  0.322000  1.0  -0.8374
  O  O785  1  0.513200  0.351400  0.827800  1.0  -1.0113
  O  O786  1  0.586600  0.352300  0.762100  1.0  -0.9618
  O  O787  1  0.475400  0.230300  0.916100  1.0  -0.9378
  O  O788  1  0.547300  0.232900  0.845000  1.0  -0.9479
  O  O789  1  0.490900  0.405400  0.734500  1.0  -0.9896
  O  O790  1  0.572300  0.404300  0.674800  1.0  -0.9861
  O  O791  1  0.428300  0.369100  0.688600  1.0  -0.9258
  O  O792  1  0.501400  0.365400  0.626200  1.0  -1.0086
  O  O793  1  0.345200  0.251800  0.719200  1.0  -0.9564
  O  O794  1  0.431300  0.259200  0.651100  1.0  -0.9596
  O  O795  1  0.314000  0.144600  0.790200  1.0  -0.905
  O  O796  1  0.387600  0.140900  0.728700  1.0  -0.9993
  O  O797  1  0.337800  0.086900  0.882500  1.0  -1.0164
  O  O798  1  0.407700  0.078900  0.820000  1.0  -0.9849
  O  O799  1  0.396300  0.119900  0.933000  1.0  -0.9544
  O  O800  1  0.482400  0.126700  0.866300  1.0  -0.8805
  O  O801  1  0.592200  0.270700  0.730900  1.0  -1.0084
  O  O802  1  0.575600  0.323700  0.645300  1.0  -1.0067
  O  O803  1  0.676800  0.403700  0.651300  1.0  -0.789
  O  O804  1  0.529500  0.165900  0.751800  1.0  -0.9749
  O  O805  1  0.508300  0.224700  0.654200  1.0  -0.9765
  O  O806  1  0.400800  0.326300  0.844500  1.0  -0.9891
  O  O807  1  0.341800  0.280000  0.801600  1.0  -0.9766
  O  O808  1  0.360000  0.198800  0.931200  1.0  -1.0261
  O  O809  1  0.305500  0.169100  0.877000  1.0  -1.0465
  O  O810  1  0.271900  0.066700  0.985800  1.0  -0.8499
  O  O811  1  0.430800  0.299300  0.937900  1.0  -0.775
  O  O812  1  0.481800  0.427800  0.850200  1.0  -0.9185
  O  O813  1  0.461400  0.100500  0.709500  1.0  -0.7717
  O  O814  1  0.428000  0.157100  0.618300  1.0  -0.8352
  O  O815  1  0.820800  0.648600  0.838200  1.0  -1.011
  O  O816  1  0.885600  0.647700  0.765700  1.0  -0.9632
  O  O817  1  0.853600  0.769700  0.754900  1.0  -0.9383
  O  O818  1  0.922100  0.767100  0.685600  1.0  -0.9493
  O  O819  1  0.860100  0.594600  0.914500  1.0  -0.9895
  O  O820  1  0.920900  0.595700  0.832000  1.0  -0.9864
  O  O821  1  0.942300  0.630900  0.940800  1.0  -0.9226
  O  O822  1  0.008400  0.634600  0.864000  1.0  -1.0044
  O  O823  1  0.029000  0.748200  0.906600  1.0  -0.9525
  O  O824  1  0.089700  0.740800  0.827900  1.0  -0.9608
  O  O825  1  0.065200  0.855400  0.830600  1.0  -0.901
  O  O826  1  0.130400  0.859100  0.753300  1.0  -0.9994
  O  O827  1  0.030600  0.913100  0.749100  1.0  -1.016
  O  O828  1  0.101100  0.921100  0.671200  1.0  -0.9843
  O  O829  1  0.947100  0.880100  0.723600  1.0  -0.9532
  O  O830  1  0.007000  0.873300  0.644300  1.0  -0.8773
  O  O831  1  0.998400  0.729300  0.678500  1.0  -1.0065
  O  O832  1  0.031000  0.676300  0.748100  1.0  -1.0072
  O  O833  1  0.945000  0.596300  0.726900  1.0  -0.7887
  O  O834  1  0.082300  0.834100  0.636400  1.0  -0.9733
  O  O835  1  0.121100  0.775300  0.716400  1.0  -0.978
  O  O836  1  0.829200  0.673700  0.925500  1.0  -0.9879
  O  O837  1  0.918400  0.720000  0.938200  1.0  -0.9734
  O  O838  1  0.870000  0.801200  0.838800  1.0  -1.0257
  O  O839  1  0.953900  0.830900  0.863600  1.0  -1.0452
  O  O840  1  0.947500  0.933300  0.794800  1.0  -0.8414
  O  O841  1  0.762800  0.700700  0.868500  1.0  -0.773
  O  O842  1  0.722000  0.572200  0.946000  1.0  -0.9188
  O  O843  1  0.190000  0.899500  0.639100  1.0  -0.7695
  O  O844  1  0.224600  0.842900  0.729100  1.0  -0.8376
  O  O845  1  0.422200  0.159000  0.429200  1.0  -1.0133
  O  O846  1  0.487900  0.151300  0.364400  1.0  -0.9617
  O  O847  1  0.333900  0.108500  0.396400  1.0  -0.9372
  O  O848  1  0.405000  0.107700  0.327900  1.0  -0.9467
  O  O849  1  0.515500  0.274600  0.389900  1.0  -0.9894
  O  O850  1  0.575200  0.252900  0.329100  1.0  -0.9866
  O  O851  1  0.561400  0.383100  0.307700  1.0  -0.9241
  O  O852  1  0.623800  0.372400  0.241600  1.0  -1.0057
  O  O853  1  0.530800  0.435600  0.221000  1.0  -0.9564
  O  O854  1  0.598900  0.417600  0.160300  1.0  -0.9609
  O  O855  1  0.459800  0.395800  0.184800  1.0  -0.9027
  O  O856  1  0.521300  0.383700  0.119600  1.0  -0.9995
  O  O857  1  0.367500  0.279700  0.219400  1.0  -1.0157
  O  O858  1  0.430000  0.272300  0.148900  1.0  -0.985
  O  O859  1  0.317000  0.170700  0.302900  1.0  -0.9515
  O  O860  1  0.383700  0.151300  0.243000  1.0  -0.8741
  O  O861  1  0.519100  0.176900  0.251600  1.0  -1.0062
  O  O862  1  0.604700  0.279100  0.219000  1.0  -1.0081
  O  O863  1  0.598700  0.171900  0.305000  1.0  -0.7885
  O  O864  1  0.498200  0.218700  0.167700  1.0  -0.9755
  O  O865  1  0.595800  0.337500  0.128900  1.0  -0.978
  O  O866  1  0.405500  0.254700  0.420800  1.0  -0.9891
  O  O867  1  0.448400  0.356600  0.331600  1.0  -0.9782
  O  O868  1  0.318800  0.208800  0.380000  1.0  -1.0244
  O  O869  1  0.373000  0.317500  0.296100  1.0  -1.0458
  O  O870  1  0.264200  0.242300  0.302500  1.0  -0.8492
  O  O871  1  0.312100  0.131300  0.487200  1.0  -0.7703
  O  O872  1  0.399800  0.168000  0.528000  1.0  -0.9197
  O  O873  1  0.540500  0.329100  0.060000  1.0  -0.7731
  O  O874  1  0.631700  0.453700  0.025400  1.0  -0.8358
  O  O875  1  0.411800  0.841000  0.736800  1.0  -1.0117
  O  O876  1  0.484300  0.848700  0.663400  1.0  -0.9623
  O  O877  1  0.495100  0.891500  0.774600  1.0  -0.9374
  O  O878  1  0.564400  0.892300  0.702700  1.0  -0.9498
  O  O879  1  0.335500  0.725400  0.759100  1.0  -0.9903
  O  O880  1  0.418000  0.747100  0.677700  1.0  -0.986
  O  O881  1  0.309200  0.616900  0.821700  1.0  -0.9258
  O  O882  1  0.386000  0.627600  0.748600  1.0  -1.0075
  O  O883  1  0.343400  0.564400  0.904800  1.0  -0.9554
  O  O884  1  0.422100  0.582400  0.818700  1.0  -0.9612
  O  O885  1  0.419400  0.604200  0.936000  1.0  -0.9037
  O  O886  1  0.496700  0.616300  0.862400  1.0  -0.9982
  O  O887  1  0.500900  0.720300  0.912200  1.0  -1.0157
  O  O888  1  0.578800  0.727700  0.842300  1.0  -0.9852
  O  O889  1  0.526400  0.829300  0.853700  1.0  -0.9516
  O  O890  1  0.605700  0.848700  0.767600  1.0  -0.8798
  O  O891  1  0.571500  0.823100  0.657800  1.0  -1.0127
  O  O892  1  0.501900  0.720900  0.674400  1.0  -1.0052
  O  O893  1  0.523100  0.828100  0.573200  1.0  -0.7892
  O  O894  1  0.613600  0.781300  0.720500  1.0  -0.9742
  O  O895  1  0.533600  0.662500  0.741700  1.0  -0.9757
  O  O896  1  0.324500  0.745300  0.849200  1.0  -0.99
  O  O897  1  0.311800  0.643400  0.908200  1.0  -0.9763
  O  O898  1  0.411200  0.791200  0.890000  1.0  -1.0256
  O  O899  1  0.386400  0.682500  0.944500  1.0  -1.0468
  O  O900  1  0.455200  0.757700  0.978100  1.0  -0.8489
  O  O901  1  0.381500  0.868700  0.819200  1.0  -0.7703
  O  O902  1  0.304000  0.832000  0.768200  1.0  -0.9192
  O  O903  1  0.610900  0.670900  0.788600  1.0  -0.771
  O  O904  1  0.520900  0.546300  0.822000  1.0  -0.8367
