# generated using pymatgen
data_Cd7H184C176N8(ClO15)4
_symmetry_space_group_name_H-M   'P 1'
_cell_length_a   22.31390000
_cell_length_b   22.31390000
_cell_length_c   26.74980000
_cell_angle_alpha   65.34920000
_cell_angle_beta   65.34920000
_cell_angle_gamma   89.99990000
_symmetry_Int_Tables_number   1
_chemical_formula_structural   Cd7H184C176N8(ClO15)4
_chemical_formula_sum   'Cd14 H368 C352 N16 Cl8 O120'
_cell_volume   10755.26770876
_cell_formula_units_Z   2
loop_
 _symmetry_equiv_pos_site_id
 _symmetry_equiv_pos_as_xyz
  1  'x, y, z'
loop_
 _atom_site_type_symbol
 _atom_site_label
 _atom_site_symmetry_multiplicity
 _atom_site_fract_x
 _atom_site_fract_y
 _atom_site_fract_z
 _atom_site_occupancy
 _atom_site_charge
  Cd  Cd1  1  0.808010  0.810380  0.647800  1.0  1.0308
  Cd  Cd2  1  0.544190  0.541810  0.647810  1.0  1.0321
  Cd  Cd3  1  0.189620  0.455810  0.352200  1.0  1.0304
  Cd  Cd4  1  0.458180  0.191990  0.352200  1.0  1.0322
  Cd  Cd5  1  0.205810  0.439620  0.852200  1.0  1.0324
  Cd  Cd6  1  0.941990  0.708180  0.852200  1.0  1.0299
  Cd  Cd7  1  0.291810  0.794190  0.147810  1.0  1.0312
  Cd  Cd8  1  0.560380  0.058010  0.147800  1.0  1.0308
  Cd  Cd9  1  0.875000  0.761640  0.750000  1.0  1.0435
  Cd  Cd10  1  0.375000  0.488360  0.750000  1.0  1.0433
  Cd  Cd11  1  0.238360  0.625000  0.250000  1.0  1.043
  Cd  Cd12  1  0.511640  0.125000  0.250000  1.0  1.0429
  Cd  Cd13  1  0.750000  0.250000  0.500000  1.0  0.8378
  Cd  Cd14  1  0.000000  0.000000  0.000000  1.0  0.8384
  H  H15  1  0.701500  0.790500  0.534600  1.0  0.1062
  H  H16  1  0.762900  0.012800  0.385800  1.0  0.0838
  H  H17  1  0.800300  0.978500  0.461000  1.0  0.0954
  H  H18  1  0.612300  0.064300  0.304200  1.0  0.1019
  H  H19  1  0.680900  0.917900  0.258400  1.0  0.105
  H  H20  1  0.719700  0.883500  0.331600  1.0  0.1105
  H  H21  1  0.596900  0.719600  0.491400  1.0  0.1112
  H  H22  1  0.604500  0.734600  0.542200  1.0  0.0906
  H  H23  1  0.668100  0.723300  0.492200  1.0  0.0899
  H  H24  1  0.603200  0.098200  0.422800  1.0  0.1119
  H  H25  1  0.564100  0.071500  0.395200  1.0  0.0849
  H  H26  1  0.635500  0.123000  0.349800  1.0  0.0842
  H  H27  1  0.073000  0.879600  0.602600  1.0  0.1084
  H  H28  1  0.137600  0.860100  0.423600  1.0  0.1014
  H  H29  1  0.022900  0.831000  0.494400  1.0  0.1072
  H  H30  1  0.351100  0.067900  0.306000  1.0  0.1082
  H  H31  1  0.368500  0.877600  0.336000  1.0  0.1062
  H  H32  1  0.261100  0.837200  0.419400  1.0  0.1077
  H  H33  1  0.214200  0.960800  0.583200  1.0  0.0908
  H  H34  1  0.153500  0.897000  0.618600  1.0  0.0791
  H  H35  1  0.143700  0.971000  0.582000  1.0  0.0852
  H  H36  1  0.228000  0.130400  0.393200  1.0  0.1058
  H  H37  1  0.272000  0.131600  0.327600  1.0  0.0875
  H  H38  1  0.301700  0.113800  0.376000  1.0  0.0916
  H  H39  1  0.763900  0.674900  0.534600  1.0  0.1054
  H  H40  1  0.851300  0.601400  0.385800  1.0  0.085
  H  H41  1  0.738700  0.560500  0.461000  1.0  0.096
  H  H42  1  0.083500  0.631500  0.304200  1.0  0.1029
  H  H43  1  0.060700  0.823700  0.258400  1.0  0.1028
  H  H44  1  0.948700  0.784900  0.331600  1.0  0.1114
  H  H45  1  0.911700  0.789000  0.491400  1.0  0.1109
  H  H46  1  0.853300  0.723200  0.542200  1.0  0.0877
  H  H47  1  0.839700  0.784500  0.492200  1.0  0.0899
  H  H48  1  0.974000  0.479000  0.422800  1.0  0.114
  H  H49  1  0.040700  0.533300  0.395200  1.0  0.0857
  H  H50  1  0.014700  0.527200  0.349800  1.0  0.0842
  H  H51  1  0.324400  0.517800  0.602600  1.0  0.1081
  H  H52  1  0.438800  0.716300  0.423600  1.0  0.1003
  H  H53  1  0.482700  0.674600  0.494400  1.0  0.1083
  H  H54  1  0.342900  0.626100  0.306000  1.0  0.1088
  H  H55  1  0.295500  0.786400  0.336000  1.0  0.1057
  H  H56  1  0.319500  0.743400  0.419400  1.0  0.1082
  H  H57  1  0.202600  0.456000  0.583200  1.0  0.0933
  H  H58  1  0.227900  0.484400  0.618600  1.0  0.079
  H  H59  1  0.274300  0.447000  0.582000  1.0  0.0827
  H  H60  1  0.378800  0.476400  0.393200  1.0  0.106
  H  H61  1  0.400400  0.540800  0.327600  1.0  0.0885
  H  H62  1  0.322300  0.510200  0.376000  1.0  0.0912
  H  H63  1  0.209500  0.236100  0.465400  1.0  0.1053
  H  H64  1  0.987200  0.148700  0.614200  1.0  0.0833
  H  H65  1  0.021500  0.261300  0.539000  1.0  0.0966
  H  H66  1  0.935700  0.916500  0.695800  1.0  0.1027
  H  H67  1  0.082100  0.939300  0.741600  1.0  0.1032
  H  H68  1  0.116500  0.051300  0.668400  1.0  0.1115
  H  H69  1  0.280400  0.088300  0.508600  1.0  0.1118
  H  H70  1  0.265400  0.146700  0.457800  1.0  0.0916
  H  H71  1  0.276700  0.160300  0.507800  1.0  0.0895
  H  H72  1  0.901800  0.026000  0.577200  1.0  0.11
  H  H73  1  0.928500  0.959300  0.604800  1.0  0.0864
  H  H74  1  0.877000  0.985300  0.650200  1.0  0.0832
  H  H75  1  0.120400  0.675600  0.397400  1.0  0.1093
  H  H76  1  0.139900  0.561200  0.576400  1.0  0.1017
  H  H77  1  0.169000  0.517300  0.505600  1.0  0.1092
  H  H78  1  0.932100  0.657100  0.694000  1.0  0.1078
  H  H79  1  0.122400  0.704500  0.664000  1.0  0.1053
  H  H80  1  0.162800  0.680500  0.580600  1.0  0.109
  H  H81  1  0.039200  0.797400  0.416800  1.0  0.0937
  H  H82  1  0.103000  0.772100  0.381400  1.0  0.0752
  H  H83  1  0.029000  0.725700  0.418000  1.0  0.0838
  H  H84  1  0.869600  0.621200  0.606800  1.0  0.1037
  H  H85  1  0.868400  0.599600  0.672400  1.0  0.0894
  H  H86  1  0.886200  0.677700  0.624000  1.0  0.0939
  H  H87  1  0.325100  0.298500  0.465400  1.0  0.1058
  H  H88  1  0.398600  0.237100  0.614200  1.0  0.0851
  H  H89  1  0.439500  0.199700  0.539000  1.0  0.0946
  H  H90  1  0.368500  0.387700  0.695800  1.0  0.1019
  H  H91  1  0.176300  0.319100  0.741600  1.0  0.103
  H  H92  1  0.215100  0.280300  0.668400  1.0  0.1109
  H  H93  1  0.211000  0.403100  0.508600  1.0  0.1124
  H  H94  1  0.276800  0.395500  0.457800  1.0  0.0895
  H  H95  1  0.215500  0.331900  0.507800  1.0  0.0911
  H  H96  1  0.521000  0.396800  0.577200  1.0  0.1146
  H  H97  1  0.466700  0.435900  0.604800  1.0  0.0883
  H  H98  1  0.472800  0.364500  0.650200  1.0  0.0848
  H  H99  1  0.482200  0.927000  0.397400  1.0  0.108
  H  H100  1  0.283700  0.862400  0.576400  1.0  0.101
  H  H101  1  0.325400  0.977100  0.505600  1.0  0.1092
  H  H102  1  0.373900  0.648900  0.694000  1.0  0.1084
  H  H103  1  0.213600  0.631500  0.664000  1.0  0.1054
  H  H104  1  0.256600  0.738900  0.580600  1.0  0.108
  H  H105  1  0.544000  0.785800  0.416800  1.0  0.093
  H  H106  1  0.515600  0.846500  0.381400  1.0  0.0782
  H  H107  1  0.553000  0.856300  0.418000  1.0  0.0829
  H  H108  1  0.523600  0.772000  0.606800  1.0  0.1058
  H  H109  1  0.459200  0.728000  0.672400  1.0  0.0863
  H  H110  1  0.489800  0.698300  0.624000  1.0  0.0931
  H  H111  1  0.986100  0.459500  0.965400  1.0  0.1047
  H  H112  1  0.898700  0.237200  0.114200  1.0  0.0836
  H  H113  1  0.011300  0.271500  0.039000  1.0  0.0968
  H  H114  1  0.666500  0.185700  0.195800  1.0  0.1024
  H  H115  1  0.689300  0.332100  0.241600  1.0  0.1039
  H  H116  1  0.801300  0.366500  0.168400  1.0  0.1119
  H  H117  1  0.838300  0.530400  0.008600  1.0  0.1098
  H  H118  1  0.896700  0.515400  0.957800  1.0  0.0914
  H  H119  1  0.910300  0.526700  0.007800  1.0  0.0893
  H  H120  1  0.776000  0.151800  0.077200  1.0  0.1093
  H  H121  1  0.709300  0.178500  0.104800  1.0  0.0858
  H  H122  1  0.735300  0.127000  0.150200  1.0  0.085
  H  H123  1  0.425600  0.370400  0.897400  1.0  0.1091
  H  H124  1  0.311200  0.389900  0.076400  1.0  0.1011
  H  H125  1  0.267300  0.419000  0.005600  1.0  0.108
  H  H126  1  0.407100  0.182100  0.194000  1.0  0.1075
  H  H127  1  0.454500  0.372400  0.164000  1.0  0.1053
  H  H128  1  0.430500  0.412800  0.080600  1.0  0.1086
  H  H129  1  0.547400  0.289200  0.916800  1.0  0.0937
  H  H130  1  0.522100  0.353000  0.881400  1.0  0.0805
  H  H131  1  0.475700  0.279000  0.918000  1.0  0.084
  H  H132  1  0.371200  0.119600  0.106800  1.0  0.1064
  H  H133  1  0.349600  0.118400  0.172400  1.0  0.089
  H  H134  1  0.427700  0.136200  0.124000  1.0  0.0956
  H  H135  1  0.048500  0.575100  0.965400  1.0  0.1057
  H  H136  1  0.987100  0.648600  0.114200  1.0  0.0852
  H  H137  1  0.949700  0.689500  0.039000  1.0  0.0958
  H  H138  1  0.137700  0.618500  0.195800  1.0  0.1019
  H  H139  1  0.069100  0.426300  0.241600  1.0  0.1049
  H  H140  1  0.030300  0.465100  0.168400  1.0  0.1104
  H  H141  1  0.153100  0.461000  0.008600  1.0  0.1114
  H  H142  1  0.145500  0.526800  0.957800  1.0  0.0898
  H  H143  1  0.081900  0.465500  0.007800  1.0  0.0896
  H  H144  1  0.146800  0.771000  0.077200  1.0  0.1156
  H  H145  1  0.185900  0.716700  0.104800  1.0  0.0885
  H  H146  1  0.114500  0.722800  0.150200  1.0  0.0837
  H  H147  1  0.677000  0.732200  0.897400  1.0  0.1083
  H  H148  1  0.612400  0.533700  0.076400  1.0  0.1006
  H  H149  1  0.727100  0.575400  0.005600  1.0  0.1091
  H  H150  1  0.398900  0.623900  0.194000  1.0  0.108
  H  H151  1  0.381500  0.463600  0.164000  1.0  0.1056
  H  H152  1  0.488900  0.506600  0.080600  1.0  0.108
  H  H153  1  0.535800  0.794000  0.916800  1.0  0.0923
  H  H154  1  0.596500  0.765600  0.881400  1.0  0.0771
  H  H155  1  0.606300  0.803000  0.918000  1.0  0.0826
  H  H156  1  0.522000  0.773600  0.106800  1.0  0.1059
  H  H157  1  0.478000  0.709200  0.172400  1.0  0.0878
  H  H158  1  0.448300  0.739800  0.124000  1.0  0.0929
  H  H159  1  0.424900  0.013900  0.034600  1.0  0.1059
  H  H160  1  0.351400  0.101300  0.885800  1.0  0.085
  H  H161  1  0.310500  0.988700  0.961000  1.0  0.0954
  H  H162  1  0.381500  0.333500  0.804200  1.0  0.1022
  H  H163  1  0.573700  0.310700  0.758400  1.0  0.1043
  H  H164  1  0.534900  0.198700  0.831600  1.0  0.1107
  H  H165  1  0.539000  0.161700  0.991400  1.0  0.1118
  H  H166  1  0.473200  0.103300  0.042200  1.0  0.0882
  H  H167  1  0.534500  0.089700  0.992200  1.0  0.0914
  H  H168  1  0.229000  0.224000  0.922800  1.0  0.1117
  H  H169  1  0.283300  0.290700  0.895200  1.0  0.0862
  H  H170  1  0.277200  0.264700  0.849800  1.0  0.0839
  H  H171  1  0.267800  0.574400  0.102600  1.0  0.1082
  H  H172  1  0.466300  0.688800  0.923600  1.0  0.1007
  H  H173  1  0.424600  0.732700  0.994400  1.0  0.1085
  H  H174  1  0.376100  0.592900  0.806000  1.0  0.109
  H  H175  1  0.536400  0.545500  0.836000  1.0  0.1054
  H  H176  1  0.493400  0.569500  0.919400  1.0  0.1089
  H  H177  1  0.206000  0.452600  0.083200  1.0  0.0922
  H  H178  1  0.234400  0.477900  0.118600  1.0  0.0783
  H  H179  1  0.197000  0.524300  0.082000  1.0  0.0844
  H  H180  1  0.226400  0.628800  0.893200  1.0  0.1025
  H  H181  1  0.290800  0.650400  0.827600  1.0  0.0893
  H  H182  1  0.260200  0.572300  0.876000  1.0  0.0934
  H  H183  1  0.540500  0.951500  0.034600  1.0  0.1046
  H  H184  1  0.762800  0.012900  0.885800  1.0  0.083
  H  H185  1  0.728500  0.050300  0.961000  1.0  0.0957
  H  H186  1  0.814300  0.862300  0.804200  1.0  0.1026
  H  H187  1  0.667900  0.930900  0.758400  1.0  0.1047
  H  H188  1  0.633500  0.969700  0.831600  1.0  0.1123
  H  H189  1  0.469600  0.846900  0.991400  1.0  0.1104
  H  H190  1  0.484600  0.854500  0.042200  1.0  0.091
  H  H191  1  0.473300  0.918100  0.992200  1.0  0.0927
  H  H192  1  0.848200  0.853200  0.922800  1.0  0.1116
  H  H193  1  0.821500  0.814100  0.895200  1.0  0.0872
  H  H194  1  0.873000  0.885500  0.849800  1.0  0.0839
  H  H195  1  0.629600  0.323000  0.102600  1.0  0.1089
  H  H196  1  0.610100  0.387600  0.923600  1.0  0.1019
  H  H197  1  0.581000  0.272900  0.994400  1.0  0.109
  H  H198  1  0.817900  0.601100  0.806000  1.0  0.1085
  H  H199  1  0.627600  0.618500  0.836000  1.0  0.106
  H  H200  1  0.587200  0.511100  0.919400  1.0  0.1082
  H  H201  1  0.710800  0.464200  0.083200  1.0  0.091
  H  H202  1  0.647000  0.403500  0.118600  1.0  0.0758
  H  H203  1  0.721000  0.393700  0.082000  1.0  0.0823
  H  H204  1  0.880400  0.478000  0.893200  1.0  0.106
  H  H205  1  0.881600  0.522000  0.827600  1.0  0.0856
  H  H206  1  0.863800  0.551700  0.876000  1.0  0.0931
  H  H207  1  0.875500  0.133400  0.389000  1.0  0.1339
  H  H208  1  0.786400  0.182700  0.249600  1.0  0.0839
  H  H209  1  0.748900  0.221400  0.322400  1.0  0.1057
  H  H210  1  0.995700  0.053700  0.337600  1.0  0.1213
  H  H211  1  0.937700  0.075100  0.383200  1.0  0.1146
  H  H212  1  0.994600  0.131700  0.318200  1.0  0.1071
  H  H213  1  0.735500  0.477600  0.389000  1.0  0.1299
  H  H214  1  0.964000  0.567700  0.249600  1.0  0.0849
  H  H215  1  0.928700  0.456200  0.322400  1.0  0.1052
  H  H216  1  0.666667  0.608700  0.337600  1.0  0.1207
  H  H217  1  0.679100  0.541700  0.383200  1.0  0.1124
  H  H218  1  0.687200  0.550100  0.318200  1.0  0.1024
  H  H219  1  0.866600  0.264500  0.611000  1.0  0.1298
  H  H220  1  0.817300  0.036000  0.750400  1.0  0.0841
  H  H221  1  0.778600  0.071300  0.677600  1.0  0.1054
  H  H222  1  0.946300  0.333333  0.662400  1.0  0.1202
  H  H223  1  0.924900  0.320900  0.616800  1.0  0.1096
  H  H224  1  0.868300  0.312800  0.681800  1.0  0.1006
  H  H225  1  0.522400  0.124500  0.611000  1.0  0.1298
  H  H226  1  0.432300  0.213600  0.750400  1.0  0.0835
  H  H227  1  0.543800  0.251100  0.677600  1.0  0.1046
  H  H228  1  0.391300  0.004300  0.662400  1.0  0.1203
  H  H229  1  0.458300  0.062300  0.616800  1.0  0.1111
  H  H230  1  0.449900  0.005400  0.681800  1.0  0.1044
  H  H231  1  0.014500  0.116600  0.111000  1.0  0.1292
  H  H232  1  0.786000  0.067300  0.250400  1.0  0.0832
  H  H233  1  0.821300  0.028600  0.177600  1.0  0.1049
  H  H234  1  0.083300  0.196300  0.162400  1.0  0.1194
  H  H235  1  0.070900  0.174900  0.116800  1.0  0.1103
  H  H236  1  0.062800  0.118300  0.181800  1.0  0.1053
  H  H237  1  0.874500  0.772400  0.111000  1.0  0.1315
  H  H238  1  0.963600  0.682300  0.250400  1.0  0.0835
  H  H239  1  0.001100  0.793800  0.177600  1.0  0.1038
  H  H240  1  0.754300  0.641300  0.162400  1.0  0.1196
  H  H241  1  0.812300  0.708300  0.116800  1.0  0.1116
  H  H242  1  0.755400  0.699900  0.181800  1.0  0.1048
  H  H243  1  0.227600  0.985500  0.889000  1.0  0.13
  H  H244  1  0.317700  0.214000  0.749600  1.0  0.0838
  H  H245  1  0.206200  0.178700  0.822400  1.0  0.1058
  H  H246  1  0.358700  0.916700  0.837600  1.0  0.1242
  H  H247  1  0.291700  0.929100  0.883200  1.0  0.1134
  H  H248  1  0.300100  0.937200  0.818200  1.0  0.1007
  H  H249  1  0.883400  0.125500  0.889000  1.0  0.1327
  H  H250  1  0.932700  0.036400  0.749600  1.0  0.0837
  H  H251  1  0.971400  0.998900  0.822400  1.0  0.1053
  H  H252  1  0.803700  0.245700  0.837600  1.0  0.1198
  H  H253  1  0.825100  0.187700  0.883200  1.0  0.1131
  H  H254  1  0.881700  0.244600  0.818200  1.0  0.1052
  H  H255  1  0.653700  0.343000  0.388600  1.0  0.1698
  H  H256  1  0.656400  0.288800  0.443400  1.0  0.1748
  H  H257  1  0.622000  0.241400  0.400000  1.0  0.0816
  H  H258  1  0.562800  0.282500  0.405200  1.0  0.0903
  H  H259  1  0.561800  0.224900  0.466600  1.0  0.0798
  H  H260  1  0.611400  0.376300  0.464600  1.0  0.1045
  H  H261  1  0.561000  0.304400  0.511800  1.0  0.1016
  H  H262  1  0.549400  0.356200  0.455200  1.0  0.1075
  H  H263  1  0.571900  0.858300  0.177400  1.0  0.1716
  H  H264  1  0.536700  0.900600  0.206200  1.0  0.2161
  H  H265  1  0.484600  0.877400  0.154800  1.0  0.1022
  H  H266  1  0.434000  0.852500  0.226400  1.0  0.1007
  H  H267  1  0.467500  0.799400  0.203600  1.0  0.1112
  H  H268  1  0.567900  0.821300  0.272200  1.0  0.1089
  H  H269  1  0.526100  0.763800  0.271200  1.0  0.1113
  H  H270  1  0.487300  0.808900  0.302600  1.0  0.0921
  H  H271  1  0.957700  0.268400  0.388600  1.0  0.1704
  H  H272  1  0.900200  0.267800  0.443400  1.0  0.1706
  H  H273  1  0.978000  0.358600  0.400000  1.0  0.0841
  H  H274  1  0.032000  0.312300  0.405200  1.0  0.0895
  H  H275  1  0.971600  0.308500  0.466600  1.0  0.0803
  H  H276  1  0.924000  0.159100  0.464600  1.0  0.1051
  H  H277  1  0.927200  0.183800  0.511800  1.0  0.1018
  H  H278  1  0.995400  0.188600  0.455200  1.0  0.1139
  H  H279  1  0.250700  0.964300  0.177400  1.0  0.1715
  H  H280  1  0.257100  0.893200  0.206200  1.0  0.2133
  H  H281  1  0.360600  0.967800  0.154800  1.0  0.1013
  H  H282  1  0.339600  0.921100  0.226400  1.0  0.1032
  H  H283  1  0.328900  0.997000  0.203600  1.0  0.1104
  H  H284  1  0.159900  0.906500  0.272200  1.0  0.1106
  H  H285  1  0.202700  0.965000  0.271200  1.0  0.1103
  H  H286  1  0.210100  0.888500  0.302600  1.0  0.0932
  H  H287  1  0.657000  0.042300  0.611400  1.0  0.1695
  H  H288  1  0.711200  0.099800  0.556600  1.0  0.1788
  H  H289  1  0.758600  0.022000  0.600000  1.0  0.0829
  H  H290  1  0.717500  0.968000  0.594800  1.0  0.0942
  H  H291  1  0.775100  0.028400  0.533400  1.0  0.0771
  H  H292  1  0.623700  0.076000  0.535400  1.0  0.1061
  H  H293  1  0.695600  0.072800  0.488200  1.0  0.0999
  H  H294  1  0.643800  0.004600  0.544800  1.0  0.1092
  H  H295  1  0.141700  0.749300  0.822600  1.0  0.1705
  H  H296  1  0.099400  0.742900  0.793800  1.0  0.2026
  H  H297  1  0.122600  0.639400  0.845200  1.0  0.1037
  H  H298  1  0.147500  0.660400  0.773600  1.0  0.1062
  H  H299  1  0.200600  0.671100  0.796400  1.0  0.1103
  H  H300  1  0.178700  0.840100  0.727800  1.0  0.1103
  H  H301  1  0.236200  0.797300  0.728800  1.0  0.1155
  H  H302  1  0.191100  0.789900  0.697400  1.0  0.095
  H  H303  1  0.731600  0.346300  0.611400  1.0  0.1671
  H  H304  1  0.732200  0.343600  0.556600  1.0  0.1785
  H  H305  1  0.641400  0.378000  0.600000  1.0  0.0804
  H  H306  1  0.687700  0.437200  0.594800  1.0  0.0905
  H  H307  1  0.691500  0.438200  0.533400  1.0  0.0822
  H  H308  1  0.840900  0.388600  0.535400  1.0  0.0977
  H  H309  1  0.816200  0.439000  0.488200  1.0  0.1026
  H  H310  1  0.811400  0.450600  0.544800  1.0  0.1119
  H  H311  1  0.035700  0.428100  0.822600  1.0  0.1688
  H  H312  1  0.106800  0.463300  0.793800  1.0  0.1954
  H  H313  1  0.032200  0.515400  0.845200  1.0  0.0999
  H  H314  1  0.078900  0.566000  0.773600  1.0  0.1043
  H  H315  1  0.003000  0.532500  0.796400  1.0  0.108
  H  H316  1  0.093500  0.432100  0.727800  1.0  0.1091
  H  H317  1  0.035000  0.473900  0.728800  1.0  0.1129
  H  H318  1  0.111500  0.512700  0.697400  1.0  0.0947
  H  H319  1  0.792300  0.907000  0.111400  1.0  0.1678
  H  H320  1  0.849800  0.961200  0.056600  1.0  0.1609
  H  H321  1  0.772000  0.008600  0.100000  1.0  0.0825
  H  H322  1  0.718000  0.967500  0.094800  1.0  0.0919
  H  H323  1  0.778400  0.025100  0.033400  1.0  0.0797
  H  H324  1  0.826000  0.873700  0.035400  1.0  0.1076
  H  H325  1  0.822800  0.945600  0.988200  1.0  0.1003
  H  H326  1  0.754600  0.893800  0.044800  1.0  0.1068
  H  H327  1  0.499300  0.391700  0.322600  1.0  0.1707
  H  H328  1  0.492900  0.349400  0.293800  1.0  0.2222
  H  H329  1  0.389400  0.372600  0.345200  1.0  0.1037
  H  H330  1  0.410400  0.397500  0.273600  1.0  0.1056
  H  H331  1  0.421100  0.450600  0.296400  1.0  0.1099
  H  H332  1  0.590100  0.428700  0.227800  1.0  0.1086
  H  H333  1  0.547300  0.486200  0.228800  1.0  0.1096
  H  H334  1  0.539900  0.441100  0.197400  1.0  0.0958
  H  H335  1  0.096300  0.981600  0.111400  1.0  0.1694
  H  H336  1  0.093600  0.982200  0.056600  1.0  0.1794
  H  H337  1  0.128000  0.891400  0.100000  1.0  0.0828
  H  H338  1  0.187200  0.937700  0.094800  1.0  0.0905
  H  H339  1  0.188200  0.941500  0.033400  1.0  0.0801
  H  H340  1  0.138600  0.090900  0.035400  1.0  0.1046
  H  H341  1  0.189000  0.066200  0.988200  1.0  0.1011
  H  H342  1  0.200600  0.061400  0.044800  1.0  0.1095
  H  H343  1  0.178100  0.285700  0.322600  1.0  0.1681
  H  H344  1  0.213300  0.356800  0.293800  1.0  0.2125
  H  H345  1  0.265400  0.282200  0.345200  1.0  0.1005
  H  H346  1  0.316000  0.328900  0.273600  1.0  0.1032
  H  H347  1  0.282500  0.253000  0.296400  1.0  0.11
  H  H348  1  0.182100  0.343500  0.227800  1.0  0.1064
  H  H349  1  0.223900  0.285000  0.228800  1.0  0.1081
  H  H350  1  0.262700  0.361500  0.197400  1.0  0.0938
  H  H351  1  0.018400  0.207700  0.888600  1.0  0.1688
  H  H352  1  0.017800  0.150200  0.943400  1.0  0.1792
  H  H353  1  0.108600  0.228000  0.900000  1.0  0.0806
  H  H354  1  0.062300  0.282000  0.905200  1.0  0.0948
  H  H355  1  0.058500  0.221600  0.966600  1.0  0.0818
  H  H356  1  0.909100  0.174000  0.964600  1.0  0.1051
  H  H357  1  0.933800  0.177200  0.011800  1.0  0.1028
  H  H358  1  0.938600  0.245400  0.955200  1.0  0.1105
  H  H359  1  0.714300  0.500700  0.677400  1.0  0.1704
  H  H360  1  0.643200  0.507100  0.706200  1.0  0.2175
  H  H361  1  0.717800  0.610600  0.654800  1.0  0.1026
  H  H362  1  0.671100  0.589600  0.726400  1.0  0.1032
  H  H363  1  0.747000  0.578900  0.703600  1.0  0.1113
  H  H364  1  0.656500  0.409900  0.772200  1.0  0.1105
  H  H365  1  0.715000  0.452700  0.771200  1.0  0.1168
  H  H366  1  0.638500  0.460100  0.802600  1.0  0.093
  H  H367  1  0.093000  0.903700  0.888600  1.0  0.1702
  H  H368  1  0.038800  0.906400  0.943400  1.0  0.1753
  H  H369  1  0.991400  0.872000  0.900000  1.0  0.0837
  H  H370  1  0.032500  0.812800  0.905200  1.0  0.0884
  H  H371  1  0.974900  0.811800  0.966600  1.0  0.0806
  H  H372  1  0.126300  0.861400  0.964600  1.0  0.1056
  H  H373  1  0.054400  0.811000  0.011800  1.0  0.1015
  H  H374  1  0.106200  0.799400  0.955200  1.0  0.1101
  H  H375  1  0.608300  0.821900  0.677400  1.0  0.1749
  H  H376  1  0.650600  0.786700  0.706200  1.0  0.1957
  H  H377  1  0.627400  0.734600  0.654800  1.0  0.1009
  H  H378  1  0.602500  0.684000  0.726400  1.0  0.1048
  H  H379  1  0.549400  0.717500  0.703600  1.0  0.1105
  H  H380  1  0.571300  0.817900  0.772200  1.0  0.1102
  H  H381  1  0.513800  0.776100  0.771200  1.0  0.1158
  H  H382  1  0.558900  0.737300  0.802600  1.0  0.0929
  C  C383  1  0.774400  0.855700  0.555200  1.0  0.692
  C  C384  1  0.754400  0.882400  0.505000  1.0  -0.1085
  C  C385  1  0.713400  0.836600  0.504800  1.0  -0.1508
  C  C386  1  0.688600  0.857600  0.460600  1.0  0.2138
  C  C387  1  0.707470  0.923270  0.415460  1.0  0.0397
  C  C388  1  0.749000  0.967000  0.416400  1.0  -0.139
  C  C389  1  0.771900  0.946300  0.461600  1.0  -0.0787
  C  C390  1  0.684040  0.946940  0.366720  1.0  0.01
  C  C391  1  0.651800  0.002700  0.357400  1.0  0.2058
  C  C392  1  0.632160  0.025860  0.311280  1.0  -0.1934
  C  C393  1  0.641330  0.992630  0.274740  1.0  -0.1428
  C  C394  1  0.673500  0.940100  0.283400  1.0  -0.0988
  C  C395  1  0.695700  0.918900  0.327800  1.0  -0.1277
  C  C396  1  0.616990  0.017090  0.227220  1.0  0.6645
  C  C397  1  0.627300  0.742000  0.499200  1.0  -0.0027
  C  C398  1  0.608500  0.084900  0.390800  1.0  0.0078
  C  C399  1  0.965400  0.827000  0.606000  1.0  0.684
  C  C400  1  0.037040  0.852440  0.555720  1.0  -0.1714
  C  C401  1  0.085110  0.878410  0.564580  1.0  -0.1944
  C  C402  1  0.150300  0.902700  0.519400  1.0  0.2596
  C  C403  1  0.169700  0.899100  0.465600  1.0  0.017
  C  C404  1  0.123400  0.868100  0.458600  1.0  -0.1096
  C  C405  1  0.055600  0.847800  0.502000  1.0  -0.1107
  C  C406  1  0.241200  0.928000  0.411200  1.0  -0.0653
  C  C407  1  0.268800  0.996900  0.377600  1.0  0.2924
  C  C408  1  0.332090  0.020790  0.328020  1.0  -0.1802
  C  C409  1  0.367940  0.977840  0.309920  1.0  -0.1367
  C  C410  1  0.342300  0.908300  0.345800  1.0  -0.0735
  C  C411  1  0.278900  0.884500  0.395600  1.0  -0.1303
  C  C412  1  0.435900  0.007800  0.252000  1.0  0.6684
  C  C413  1  0.175900  0.941100  0.582000  1.0  -0.0139
  C  C414  1  0.260700  0.109300  0.371600  1.0  -0.001
  C  C415  1  0.670400  0.589100  0.555200  1.0  0.6877
  C  C416  1  0.740600  0.612600  0.505000  1.0  -0.1076
  C  C417  1  0.781800  0.658600  0.504800  1.0  -0.1488
  C  C418  1  0.850800  0.681800  0.460600  1.0  0.2134
  C  C419  1  0.877070  0.661270  0.415460  1.0  0.0391
  C  C420  1  0.834600  0.616600  0.416400  1.0  -0.1379
  C  C421  1  0.766500  0.592100  0.461600  1.0  -0.0783
  C  C422  1  0.949240  0.686340  0.366720  1.0  0.0077
  C  C423  1  0.990800  0.639900  0.357400  1.0  0.2046
  C  C424  1  0.056560  0.662860  0.311280  1.0  -0.1917
  C  C425  1  0.083930  0.732630  0.274740  1.0  -0.1431
  C  C426  1  0.043100  0.776500  0.283400  1.0  -0.097
  C  C427  1  0.976500  0.753300  0.327800  1.0  -0.129
  C  C428  1  0.155790  0.755690  0.227220  1.0  0.661
  C  C429  1  0.873500  0.758800  0.499200  1.0  -0.0002
  C  C430  1  0.000700  0.524300  0.390800  1.0  0.007
  C  C431  1  0.428600  0.567000  0.606000  1.0  0.6839
  C  C432  1  0.407240  0.591840  0.555720  1.0  -0.1717
  C  C433  1  0.350310  0.557010  0.564580  1.0  -0.1922
  C  C434  1  0.330300  0.577900  0.519400  1.0  0.2595
  C  C435  1  0.364700  0.635300  0.465600  1.0  0.019
  C  C436  1  0.418000  0.673300  0.458600  1.0  -0.1097
  C  C437  1  0.442400  0.650200  0.502000  1.0  -0.1089
  C  C438  1  0.347600  0.660800  0.411200  1.0  -0.0634
  C  C439  1  0.353600  0.625500  0.377600  1.0  0.2955
  C  C440  1  0.339890  0.651190  0.328020  1.0  -0.1795
  C  C441  1  0.322140  0.712240  0.309920  1.0  -0.1357
  C  C442  1  0.311900  0.745900  0.345800  1.0  -0.0748
  C  C443  1  0.325500  0.719900  0.395600  1.0  -0.131
  C  C444  1  0.312100  0.740200  0.252000  1.0  0.671
  C  C445  1  0.242100  0.476900  0.582000  1.0  -0.0158
  C  C446  1  0.367700  0.519100  0.371600  1.0  -0.0044
  C  C447  1  0.144300  0.329600  0.444800  1.0  0.6898
  C  C448  1  0.117600  0.259400  0.495000  1.0  -0.1062
  C  C449  1  0.163400  0.218200  0.495200  1.0  -0.1487
  C  C450  1  0.142400  0.149200  0.539400  1.0  0.2139
  C  C451  1  0.076730  0.122930  0.584540  1.0  0.0399
  C  C452  1  0.033000  0.165400  0.583600  1.0  -0.1394
  C  C453  1  0.053700  0.233500  0.538400  1.0  -0.0766
  C  C454  1  0.053060  0.050760  0.633280  1.0  0.0103
  C  C455  1  0.997300  0.009200  0.642600  1.0  0.2053
  C  C456  1  0.974140  0.943440  0.688720  1.0  -0.1931
  C  C457  1  0.007370  0.916070  0.725260  1.0  -0.1433
  C  C458  1  0.059900  0.956900  0.716600  1.0  -0.0995
  C  C459  1  0.081100  0.023500  0.672200  1.0  -0.1251
  C  C460  1  0.982910  0.844210  0.772780  1.0  0.6637
  C  C461  1  0.258000  0.126500  0.500800  1.0  0.0006
  C  C462  1  0.915100  0.999300  0.609200  1.0  0.0058
  C  C463  1  0.173000  0.571400  0.394000  1.0  0.6857
  C  C464  1  0.147560  0.592760  0.444280  1.0  -0.1705
  C  C465  1  0.121590  0.649690  0.435420  1.0  -0.1908
  C  C466  1  0.097300  0.669700  0.480600  1.0  0.2585
  C  C467  1  0.100900  0.635300  0.534400  1.0  0.016
  C  C468  1  0.131900  0.582000  0.541400  1.0  -0.1096
  C  C469  1  0.152200  0.557600  0.498000  1.0  -0.1127
  C  C470  1  0.072000  0.652400  0.588800  1.0  -0.0629
  C  C471  1  0.003100  0.646400  0.622400  1.0  0.2962
  C  C472  1  0.979210  0.660110  0.671980  1.0  -0.1797
  C  C473  1  0.022160  0.677860  0.690080  1.0  -0.1344
  C  C474  1  0.091700  0.688100  0.654200  1.0  -0.0712
  C  C475  1  0.115500  0.674500  0.604400  1.0  -0.1331
  C  C476  1  0.992200  0.687900  0.748000  1.0  0.6698
  C  C477  1  0.058900  0.757900  0.418000  1.0  -0.0163
  C  C478  1  0.890700  0.632300  0.628400  1.0  -0.0049
  C  C479  1  0.410900  0.225600  0.444800  1.0  0.6898
  C  C480  1  0.387400  0.245600  0.495000  1.0  -0.1082
  C  C481  1  0.341400  0.286600  0.495200  1.0  -0.1493
  C  C482  1  0.318200  0.311400  0.539400  1.0  0.2131
  C  C483  1  0.338730  0.292530  0.584540  1.0  0.0396
  C  C484  1  0.383400  0.251000  0.583600  1.0  -0.1378
  C  C485  1  0.407900  0.228100  0.538400  1.0  -0.0775
  C  C486  1  0.313660  0.315960  0.633280  1.0  0.0091
  C  C487  1  0.360100  0.348200  0.642600  1.0  0.2072
  C  C488  1  0.337140  0.367840  0.688720  1.0  -0.1936
  C  C489  1  0.267370  0.358670  0.725260  1.0  -0.1447
  C  C490  1  0.223500  0.326500  0.716600  1.0  -0.0968
  C  C491  1  0.246700  0.304300  0.672200  1.0  -0.1258
  C  C492  1  0.244310  0.383010  0.772780  1.0  0.663
  C  C493  1  0.241200  0.372700  0.500800  1.0  -1e-04
  C  C494  1  0.475700  0.391500  0.609200  1.0  0.0056
  C  C495  1  0.433000  0.034600  0.394000  1.0  0.686
  C  C496  1  0.408160  0.962960  0.444280  1.0  -0.1686
  C  C497  1  0.442990  0.914890  0.435420  1.0  -0.1894
  C  C498  1  0.422100  0.849700  0.480600  1.0  0.2599
  C  C499  1  0.364700  0.830300  0.534400  1.0  0.0179
  C  C500  1  0.326700  0.876600  0.541400  1.0  -0.1097
  C  C501  1  0.349800  0.944400  0.498000  1.0  -0.11
  C  C502  1  0.339200  0.758800  0.588800  1.0  -0.0641
  C  C503  1  0.374500  0.731200  0.622400  1.0  0.2945
  C  C504  1  0.348810  0.667910  0.671980  1.0  -0.1791
  C  C505  1  0.287760  0.632060  0.690080  1.0  -0.1371
  C  C506  1  0.254100  0.657700  0.654200  1.0  -0.0714
  C  C507  1  0.280100  0.721100  0.604400  1.0  -0.1299
  C  C508  1  0.259800  0.564100  0.748000  1.0  0.6719
  C  C509  1  0.523100  0.824100  0.418000  1.0  -0.0142
  C  C510  1  0.480900  0.739300  0.628400  1.0  -0.0
  C  C511  1  0.079600  0.394300  0.944800  1.0  0.6886
  C  C512  1  0.009400  0.367600  0.995000  1.0  -0.107
  C  C513  1  0.968200  0.413400  0.995200  1.0  -0.1506
  C  C514  1  0.899200  0.392400  0.039400  1.0  0.2132
  C  C515  1  0.872930  0.326730  0.084540  1.0  0.0409
  C  C516  1  0.915400  0.283000  0.083600  1.0  -0.1409
  C  C517  1  0.983500  0.303700  0.038400  1.0  -0.0776
  C  C518  1  0.800760  0.303060  0.133280  1.0  0.0091
  C  C519  1  0.759200  0.247300  0.142600  1.0  0.2044
  C  C520  1  0.693440  0.224140  0.188720  1.0  -0.1941
  C  C521  1  0.666070  0.257370  0.225260  1.0  -0.1424
  C  C522  1  0.706900  0.309900  0.216600  1.0  -0.1002
  C  C523  1  0.773500  0.331100  0.172200  1.0  -0.1287
  C  C524  1  0.594210  0.232910  0.272780  1.0  0.6603
  C  C525  1  0.876500  0.508000  0.000800  1.0  0.0002
  C  C526  1  0.749300  0.165100  0.109200  1.0  0.0068
  C  C527  1  0.321400  0.423000  0.894000  1.0  0.6852
  C  C528  1  0.342760  0.397560  0.944280  1.0  -0.1712
  C  C529  1  0.399690  0.371590  0.935420  1.0  -0.1909
  C  C530  1  0.419700  0.347300  0.980600  1.0  0.2583
  C  C531  1  0.385300  0.350900  0.034400  1.0  0.0176
  C  C532  1  0.332000  0.381900  0.041400  1.0  -0.1099
  C  C533  1  0.307600  0.402200  0.998000  1.0  -0.1113
  C  C534  1  0.402400  0.322000  0.088800  1.0  -0.0627
  C  C535  1  0.396400  0.253100  0.122400  1.0  0.2958
  C  C536  1  0.410110  0.229210  0.171980  1.0  -0.1814
  C  C537  1  0.427860  0.272160  0.190080  1.0  -0.1339
  C  C538  1  0.438100  0.341700  0.154200  1.0  -0.0754
  C  C539  1  0.424500  0.365500  0.104400  1.0  -0.1285
  C  C540  1  0.437900  0.242200  0.248000  1.0  0.6723
  C  C541  1  0.507900  0.308900  0.918000  1.0  -0.0155
  C  C542  1  0.382300  0.140700  0.128400  1.0  -0.004
  C  C543  1  0.975600  0.660900  0.944800  1.0  0.6902
  C  C544  1  0.995600  0.637400  0.995000  1.0  -0.1094
  C  C545  1  0.036600  0.591400  0.995200  1.0  -0.1494
  C  C546  1  0.061400  0.568200  0.039400  1.0  0.213
  C  C547  1  0.042530  0.588730  0.084540  1.0  0.0404
  C  C548  1  0.001000  0.633400  0.083600  1.0  -0.1399
  C  C549  1  0.978100  0.657900  0.038400  1.0  -0.0789
  C  C550  1  0.065960  0.563660  0.133280  1.0  0.009
  C  C551  1  0.098200  0.610100  0.142600  1.0  0.2069
  C  C552  1  0.117840  0.587140  0.188720  1.0  -0.194
  C  C553  1  0.108670  0.517370  0.225260  1.0  -0.1423
  C  C554  1  0.076500  0.473500  0.216600  1.0  -0.0963
  C  C555  1  0.054300  0.496700  0.172200  1.0  -0.126
  C  C556  1  0.133010  0.494310  0.272780  1.0  0.6636
  C  C557  1  0.122700  0.491200  0.000800  1.0  0.001
  C  C558  1  0.141500  0.725700  0.109200  1.0  0.0078
  C  C559  1  0.784600  0.683000  0.894000  1.0  0.6839
  C  C560  1  0.712960  0.658160  0.944280  1.0  -0.1689
  C  C561  1  0.664890  0.692990  0.935420  1.0  -0.1891
  C  C562  1  0.599700  0.672100  0.980600  1.0  0.26
  C  C563  1  0.580300  0.614700  0.034400  1.0  0.0173
  C  C564  1  0.626600  0.576700  0.041400  1.0  -0.1077
  C  C565  1  0.694400  0.599800  0.998000  1.0  -0.1097
  C  C566  1  0.508800  0.589200  0.088800  1.0  -0.0642
  C  C567  1  0.481200  0.624500  0.122400  1.0  0.2941
  C  C568  1  0.417910  0.598810  0.171980  1.0  -0.1804
  C  C569  1  0.382060  0.537760  0.190080  1.0  -0.1375
  C  C570  1  0.407700  0.504100  0.154200  1.0  -0.0738
  C  C571  1  0.471100  0.530100  0.104400  1.0  -0.1338
  C  C572  1  0.314100  0.509800  0.248000  1.0  0.6671
  C  C573  1  0.574100  0.773100  0.918000  1.0  -0.0136
  C  C574  1  0.489300  0.730900  0.128400  1.0  -0.0029
  C  C575  1  0.339100  0.920400  0.055200  1.0  0.6913
  C  C576  1  0.362600  0.990600  0.005000  1.0  -0.107
  C  C577  1  0.408600  0.031800  0.004800  1.0  -0.1482
  C  C578  1  0.431800  0.100800  0.960600  1.0  0.2132
  C  C579  1  0.411270  0.127070  0.915460  1.0  0.0403
  C  C580  1  0.366600  0.084600  0.916400  1.0  -0.1378
  C  C581  1  0.342100  0.016500  0.961600  1.0  -0.0771
  C  C582  1  0.436340  0.199240  0.866720  1.0  0.0093
  C  C583  1  0.389900  0.240800  0.857400  1.0  0.205
  C  C584  1  0.412860  0.306560  0.811280  1.0  -0.1949
  C  C585  1  0.482630  0.333930  0.774740  1.0  -0.1445
  C  C586  1  0.526500  0.293100  0.783400  1.0  -0.0975
  C  C587  1  0.503300  0.226500  0.827800  1.0  -0.1243
  C  C588  1  0.505690  0.405790  0.727220  1.0  0.6634
  C  C589  1  0.508800  0.123500  0.999200  1.0  -0.0012
  C  C590  1  0.274300  0.250700  0.890800  1.0  0.0068
  C  C591  1  0.317000  0.678600  0.106000  1.0  0.6843
  C  C592  1  0.341840  0.657240  0.055720  1.0  -0.1713
  C  C593  1  0.307010  0.600310  0.064580  1.0  -0.1917
  C  C594  1  0.327900  0.580300  0.019400  1.0  0.2596
  C  C595  1  0.385300  0.614700  0.965600  1.0  0.0177
  C  C596  1  0.423300  0.668000  0.958600  1.0  -0.1098
  C  C597  1  0.400200  0.692400  0.002000  1.0  -0.1101
  C  C598  1  0.410800  0.597600  0.911200  1.0  -0.0629
  C  C599  1  0.375500  0.603600  0.877600  1.0  0.2963
  C  C600  1  0.401190  0.589890  0.828020  1.0  -0.1811
  C  C601  1  0.462240  0.572140  0.809920  1.0  -0.1363
  C  C602  1  0.495900  0.561900  0.845800  1.0  -0.073
  C  C603  1  0.469900  0.575500  0.895600  1.0  -0.1286
  C  C604  1  0.490200  0.562100  0.752000  1.0  0.6705
  C  C605  1  0.226900  0.492100  0.082000  1.0  -0.0147
  C  C606  1  0.269100  0.617700  0.871600  1.0  1e-04
  C  C607  1  0.605700  0.024400  0.055200  1.0  0.6906
  C  C608  1  0.632400  0.004400  0.005000  1.0  -0.108
  C  C609  1  0.586600  0.963400  0.004800  1.0  -0.1481
  C  C610  1  0.607600  0.938600  0.960600  1.0  0.2137
  C  C611  1  0.673270  0.957470  0.915460  1.0  0.0398
  C  C612  1  0.717000  0.999000  0.916400  1.0  -0.14
  C  C613  1  0.696300  0.021900  0.961600  1.0  -0.0788
  C  C614  1  0.696940  0.934040  0.866720  1.0  0.0091
  C  C615  1  0.752700  0.901800  0.857400  1.0  0.2061
  C  C616  1  0.775860  0.882160  0.811280  1.0  -0.1928
  C  C617  1  0.742630  0.891330  0.774740  1.0  -0.1445
  C  C618  1  0.690100  0.923500  0.783400  1.0  -0.0942
  C  C619  1  0.668900  0.945700  0.827800  1.0  -0.1279
  C  C620  1  0.767090  0.866990  0.727220  1.0  0.6642
  C  C621  1  0.492000  0.877300  0.999200  1.0  -0.0007
  C  C622  1  0.834900  0.858500  0.890800  1.0  0.0084
  C  C623  1  0.577000  0.215400  0.106000  1.0  0.6853
  C  C624  1  0.602440  0.287040  0.055720  1.0  -0.1686
  C  C625  1  0.628410  0.335110  0.064580  1.0  -0.192
  C  C626  1  0.652700  0.400300  0.019400  1.0  0.258
  C  C627  1  0.649100  0.419700  0.965600  1.0  0.0184
  C  C628  1  0.618100  0.373400  0.958600  1.0  -0.1101
  C  C629  1  0.597800  0.305600  0.002000  1.0  -0.1086
  C  C630  1  0.678000  0.491200  0.911200  1.0  -0.0644
  C  C631  1  0.746900  0.518800  0.877600  1.0  0.2929
  C  C632  1  0.770790  0.582090  0.828020  1.0  -0.1801
  C  C633  1  0.727840  0.617940  0.809920  1.0  -0.1371
  C  C634  1  0.658300  0.592300  0.845800  1.0  -0.0729
  C  C635  1  0.634500  0.528900  0.895600  1.0  -0.1298
  C  C636  1  0.757800  0.685900  0.752000  1.0  0.6693
  C  C637  1  0.691100  0.425900  0.082000  1.0  -0.0118
  C  C638  1  0.859300  0.510700  0.871600  1.0  0.0004
  C  C639  1  0.781600  0.204700  0.412400  1.0  0.6574
  C  C640  1  0.807700  0.180200  0.362800  1.0  -0.1391
  C  C641  1  0.857600  0.144500  0.360400  1.0  -0.176
  C  C642  1  0.881600  0.124600  0.311200  1.0  0.2109
  C  C643  1  0.852760  0.137460  0.272080  1.0  0.1557
  C  C644  1  0.805500  0.172500  0.277200  1.0  -0.1188
  C  C645  1  0.782500  0.195200  0.321000  1.0  -0.0821
  C  C646  1  0.966600  0.086300  0.339800  1.0  -0.042
  C  C647  1  0.806000  0.382900  0.412400  1.0  0.6554
  C  C648  1  0.829500  0.457000  0.362800  1.0  -0.1367
  C  C649  1  0.782000  0.495100  0.360400  1.0  -0.174
  C  C650  1  0.807200  0.564200  0.311200  1.0  0.2094
  C  C651  1  0.875160  0.590460  0.272080  1.0  0.1576
  C  C652  1  0.917300  0.550300  0.277200  1.0  -0.1189
  C  C653  1  0.896500  0.483800  0.321000  1.0  -0.0799
  C  C654  1  0.693600  0.573900  0.339800  1.0  -0.0395
  C  C655  1  0.795300  0.194000  0.587600  1.0  0.6567
  C  C656  1  0.819800  0.170500  0.637200  1.0  -0.1412
  C  C657  1  0.855500  0.218000  0.639600  1.0  -0.1736
  C  C658  1  0.875400  0.192800  0.688800  1.0  0.2099
  C  C659  1  0.862540  0.124840  0.727920  1.0  0.1562
  C  C660  1  0.827500  0.082700  0.722800  1.0  -0.1174
  C  C661  1  0.804800  0.103500  0.679000  1.0  -0.078
  C  C662  1  0.913700  0.306400  0.660200  1.0  -0.0409
  C  C663  1  0.617100  0.218400  0.587600  1.0  0.6563
  C  C664  1  0.543000  0.192300  0.637200  1.0  -0.1392
  C  C665  1  0.504900  0.142400  0.639600  1.0  -0.1756
  C  C666  1  0.435800  0.118400  0.688800  1.0  0.2099
  C  C667  1  0.409540  0.147240  0.727920  1.0  0.1564
  C  C668  1  0.449700  0.194500  0.722800  1.0  -0.1144
  C  C669  1  0.516200  0.217500  0.679000  1.0  -0.0802
  C  C670  1  0.426100  0.033400  0.660200  1.0  -0.0395
  C  C671  1  0.944000  0.045300  0.087600  1.0  0.6583
  C  C672  1  0.920500  0.069800  0.137200  1.0  -0.1378
  C  C673  1  0.968000  0.105500  0.139600  1.0  -0.1751
  C  C674  1  0.942800  0.125400  0.188800  1.0  0.2114
  C  C675  1  0.874840  0.112540  0.227920  1.0  0.1559
  C  C676  1  0.832700  0.077500  0.222800  1.0  -0.1157
  C  C677  1  0.853500  0.054800  0.179000  1.0  -0.0795
  C  C678  1  0.056400  0.163700  0.160200  1.0  -0.0409
  C  C679  1  0.968400  0.867100  0.087600  1.0  0.657
  C  C680  1  0.942300  0.793000  0.137200  1.0  -0.1396
  C  C681  1  0.892400  0.754900  0.139600  1.0  -0.1741
  C  C682  1  0.868400  0.685800  0.188800  1.0  0.2088
  C  C683  1  0.897240  0.659540  0.227920  1.0  0.1559
  C  C684  1  0.944500  0.699700  0.222800  1.0  -0.1145
  C  C685  1  0.967500  0.766200  0.179000  1.0  -0.0792
  C  C686  1  0.783400  0.676100  0.160200  1.0  -0.0431
  C  C687  1  0.132900  0.056000  0.912400  1.0  0.6538
  C  C688  1  0.207000  0.079500  0.862800  1.0  -0.1425
  C  C689  1  0.245100  0.032000  0.860400  1.0  -0.1777
  C  C690  1  0.314200  0.057200  0.811200  1.0  0.211
  C  C691  1  0.340460  0.125160  0.772080  1.0  0.1571
  C  C692  1  0.300300  0.167300  0.777200  1.0  -0.1142
  C  C693  1  0.233800  0.146500  0.821000  1.0  -0.0811
  C  C694  1  0.323900  0.943600  0.839800  1.0  -0.04
  C  C695  1  0.954700  0.031600  0.912400  1.0  0.6568
  C  C696  1  0.930200  0.057700  0.862800  1.0  -0.1398
  C  C697  1  0.894500  0.107600  0.860400  1.0  -0.1785
  C  C698  1  0.874600  0.131600  0.811200  1.0  0.2109
  C  C699  1  0.887460  0.102760  0.772080  1.0  0.1568
  C  C700  1  0.922500  0.055500  0.777200  1.0  -0.1165
  C  C701  1  0.945200  0.032500  0.821000  1.0  -0.0806
  C  C702  1  0.836300  0.216600  0.839800  1.0  -0.0372
  C  C703  1  0.590900  0.260800  0.424600  1.0  -0.1581
  C  C704  1  0.583400  0.339100  0.468600  1.0  -0.1657
  C  C705  1  0.474700  0.845800  0.197400  1.0  -0.1721
  C  C706  1  0.528100  0.808900  0.268800  1.0  -0.1682
  C  C707  1  0.984500  0.314600  0.424600  1.0  -0.1577
  C  C708  1  0.948000  0.192300  0.468600  1.0  -0.165
  C  C709  1  0.327900  0.956800  0.197400  1.0  -0.1707
  C  C710  1  0.203100  0.922300  0.268800  1.0  -0.1663
  C  C711  1  0.739200  0.015500  0.575400  1.0  -0.1583
  C  C712  1  0.660900  0.052000  0.531400  1.0  -0.1682
  C  C713  1  0.154200  0.672100  0.802600  1.0  -0.1725
  C  C714  1  0.191100  0.796900  0.731200  1.0  -0.1681
  C  C715  1  0.685400  0.409100  0.575400  1.0  -0.16
  C  C716  1  0.807700  0.416600  0.531400  1.0  -0.1631
  C  C717  1  0.043200  0.525300  0.802600  1.0  -0.1722
  C  C718  1  0.077700  0.471900  0.731200  1.0  -0.1698
  C  C719  1  0.765500  0.989200  0.075400  1.0  -0.1621
  C  C720  1  0.802000  0.910900  0.031400  1.0  -0.166
  C  C721  1  0.422100  0.404200  0.302600  1.0  -0.1692
  C  C722  1  0.546900  0.441100  0.231200  1.0  -0.1691
  C  C723  1  0.159100  0.935400  0.075400  1.0  -0.156
  C  C724  1  0.166600  0.057700  0.031400  1.0  -0.1662
  C  C725  1  0.275300  0.293200  0.302600  1.0  -0.1718
  C  C726  1  0.221900  0.327700  0.231200  1.0  -0.167
  C  C727  1  0.064600  0.234500  0.924600  1.0  -0.1593
  C  C728  1  0.942300  0.198000  0.968600  1.0  -0.1653
  C  C729  1  0.706800  0.577900  0.697400  1.0  -0.1716
  C  C730  1  0.672300  0.453100  0.768800  1.0  -0.1652
  C  C731  1  0.010800  0.840900  0.924600  1.0  -0.1576
  C  C732  1  0.089100  0.833400  0.968600  1.0  -0.1635
  C  C733  1  0.595800  0.724700  0.697400  1.0  -0.1723
  C  C734  1  0.558900  0.778100  0.768800  1.0  -0.1686
  N  N735  1  0.627700  0.308800  0.428000  1.0  -0.0896
  N  N736  1  0.533000  0.858300  0.208600  1.0  -0.0489
  N  N737  1  0.944300  0.263200  0.428000  1.0  -0.0927
  N  N738  1  0.258400  0.933100  0.208600  1.0  -0.0538
  N  N739  1  0.691200  0.055700  0.572000  1.0  -0.0914
  N  N740  1  0.141700  0.741600  0.791400  1.0  -0.0527
  N  N741  1  0.736800  0.372300  0.572000  1.0  -0.0973
  N  N742  1  0.066900  0.467000  0.791400  1.0  -0.0531
  N  N743  1  0.805700  0.941200  0.072000  1.0  -0.0951
  N  N744  1  0.491600  0.391700  0.291400  1.0  -0.0536
  N  N745  1  0.122300  0.986800  0.072000  1.0  -0.0939
  N  N746  1  0.217000  0.316900  0.291400  1.0  -0.0478
  N  N747  1  0.013200  0.194300  0.928000  1.0  -0.0923
  N  N748  1  0.683100  0.508400  0.708600  1.0  -0.0539
  N  N749  1  0.058800  0.877700  0.928000  1.0  -0.0945
  N  N750  1  0.608300  0.783000  0.708600  1.0  -0.0512
  Cl  Cl751  1  0.955100  0.939600  0.463000  1.0  -0.3752
  Cl  Cl752  1  0.581900  0.597400  0.463000  1.0  -0.3785
  Cl  Cl753  1  0.060400  0.418100  0.537000  1.0  -0.3772
  Cl  Cl754  1  0.402600  0.044900  0.537000  1.0  -0.3758
  Cl  Cl755  1  0.168100  0.310400  0.037000  1.0  -0.3752
  Cl  Cl756  1  0.794900  0.652600  0.037000  1.0  -0.3766
  Cl  Cl757  1  0.347400  0.831900  0.963000  1.0  -0.378
  Cl  Cl758  1  0.689600  0.205100  0.963000  1.0  -0.3751
  O  O759  1  0.811610  0.898010  0.554180  1.0  -0.6269
  O  O760  1  0.755250  0.798750  0.594500  1.0  -0.5608
  O  O761  1  0.618080  0.983180  0.200040  1.0  -0.6149
  O  O762  1  0.597820  0.072420  0.213560  1.0  -0.673
  O  O763  1  0.645540  0.813640  0.457720  1.0  -0.3187
  O  O764  1  0.641210  0.030510  0.397380  1.0  -0.2511
  O  O765  1  0.919580  0.820780  0.591440  1.0  -0.6246
  O  O766  1  0.957760  0.815360  0.657680  1.0  -0.5951
  O  O767  1  0.466810  0.965110  0.236980  1.0  -0.6305
  O  O768  1  0.457200  0.067600  0.222000  1.0  -0.6363
  O  O769  1  0.198770  0.932870  0.528860  1.0  -0.2462
  O  O770  1  0.231680  0.038680  0.398240  1.0  -0.2639
  O  O771  1  0.634210  0.547810  0.554180  1.0  -0.6275
  O  O772  1  0.650250  0.606750  0.594500  1.0  -0.5612
  O  O773  1  0.181880  0.816780  0.200040  1.0  -0.6142
  O  O774  1  0.188620  0.714020  0.213560  1.0  -0.6725
  O  O775  1  0.896740  0.728640  0.457720  1.0  -0.3177
  O  O776  1  0.961410  0.572110  0.397380  1.0  -0.2508
  O  O777  1  0.488980  0.587780  0.591440  1.0  -0.6276
  O  O778  1  0.384560  0.526960  0.657680  1.0  -0.597
  O  O779  1  0.296210  0.797910  0.236980  1.0  -0.6286
  O  O780  1  0.320800  0.710400  0.222000  1.0  -0.6382
  O  O781  1  0.272370  0.538270  0.528860  1.0  -0.2451
  O  O782  1  0.370080  0.563080  0.398240  1.0  -0.2626
  O  O783  1  0.101990  0.365790  0.445820  1.0  -0.6254
  O  O784  1  0.201250  0.349750  0.405500  1.0  -0.5636
  O  O785  1  0.016820  0.818120  0.799960  1.0  -0.6141
  O  O786  1  0.927580  0.811380  0.786440  1.0  -0.6731
  O  O787  1  0.186360  0.103260  0.542280  1.0  -0.3159
  O  O788  1  0.969490  0.038590  0.602620  1.0  -0.2508
  O  O789  1  0.179220  0.511020  0.408560  1.0  -0.628
  O  O790  1  0.184640  0.615440  0.342320  1.0  -0.596
  O  O791  1  0.034890  0.703790  0.763020  1.0  -0.6296
  O  O792  1  0.932400  0.679200  0.778000  1.0  -0.6391
  O  O793  1  0.067130  0.727630  0.471140  1.0  -0.2467
  O  O794  1  0.961320  0.629920  0.601760  1.0  -0.2675
  O  O795  1  0.452190  0.188390  0.445820  1.0  -0.6246
  O  O796  1  0.393250  0.244750  0.405500  1.0  -0.562
  O  O797  1  0.183220  0.381920  0.799960  1.0  -0.6147
  O  O798  1  0.285980  0.402180  0.786440  1.0  -0.6754
  O  O799  1  0.271360  0.354460  0.542280  1.0  -0.3182
  O  O800  1  0.427890  0.358790  0.602620  1.0  -0.2514
  O  O801  1  0.412220  0.080420  0.408560  1.0  -0.6259
  O  O802  1  0.473040  0.042240  0.342320  1.0  -0.5964
  O  O803  1  0.202090  0.533190  0.763020  1.0  -0.6287
  O  O804  1  0.289600  0.542800  0.778000  1.0  -0.6375
  O  O805  1  0.461730  0.801230  0.471140  1.0  -0.2459
  O  O806  1  0.436920  0.768320  0.601760  1.0  -0.2642
  O  O807  1  0.115790  0.351990  0.945820  1.0  -0.6245
  O  O808  1  0.099750  0.451250  0.905500  1.0  -0.5601
  O  O809  1  0.568120  0.266820  0.299960  1.0  -0.6133
  O  O810  1  0.561380  0.177580  0.286440  1.0  -0.673
  O  O811  1  0.853260  0.436360  0.042280  1.0  -0.3186
  O  O812  1  0.788590  0.219490  0.102620  1.0  -0.2527
  O  O813  1  0.261020  0.429220  0.908560  1.0  -0.6264
  O  O814  1  0.365440  0.434640  0.842320  1.0  -0.5964
  O  O815  1  0.453790  0.284890  0.263020  1.0  -0.6281
  O  O816  1  0.429200  0.182400  0.278000  1.0  -0.6358
  O  O817  1  0.477630  0.317130  0.971140  1.0  -0.2462
  O  O818  1  0.379920  0.211320  0.101760  1.0  -0.2664
  O  O819  1  0.938390  0.702190  0.945820  1.0  -0.6281
  O  O820  1  0.994750  0.643250  0.905500  1.0  -0.5623
  O  O821  1  0.131920  0.433220  0.299960  1.0  -0.6151
  O  O822  1  0.152180  0.535980  0.286440  1.0  -0.6732
  O  O823  1  0.104460  0.521360  0.042280  1.0  -0.3187
  O  O824  1  0.108790  0.677890  0.102620  1.0  -0.2498
  O  O825  1  0.830420  0.662220  0.908560  1.0  -0.6262
  O  O826  1  0.792240  0.723040  0.842320  1.0  -0.5957
  O  O827  1  0.283190  0.452090  0.263020  1.0  -0.6291
  O  O828  1  0.292800  0.539600  0.278000  1.0  -0.6383
  O  O829  1  0.551230  0.711730  0.971140  1.0  -0.2465
  O  O830  1  0.518320  0.686920  0.101760  1.0  -0.2648
  O  O831  1  0.297810  0.884210  0.054180  1.0  -0.6263
  O  O832  1  0.356750  0.900250  0.094500  1.0  -0.5608
  O  O833  1  0.566780  0.431880  0.700040  1.0  -0.6144
  O  O834  1  0.464020  0.438620  0.713560  1.0  -0.6739
  O  O835  1  0.478640  0.146740  0.957720  1.0  -0.3188
  O  O836  1  0.322110  0.211410  0.897380  1.0  -0.2522
  O  O837  1  0.337780  0.738980  0.091440  1.0  -0.6274
  O  O838  1  0.276960  0.634560  0.157680  1.0  -0.5962
  O  O839  1  0.547910  0.546210  0.736980  1.0  -0.6282
  O  O840  1  0.460400  0.570800  0.722000  1.0  -0.6385
  O  O841  1  0.288270  0.522370  0.028860  1.0  -0.2429
  O  O842  1  0.313080  0.620080  0.898240  1.0  -0.2669
  O  O843  1  0.648010  0.061610  0.054180  1.0  -0.6274
  O  O844  1  0.548750  0.005250  0.094500  1.0  -0.5613
  O  O845  1  0.733180  0.868080  0.700040  1.0  -0.6139
  O  O846  1  0.822420  0.847820  0.713560  1.0  -0.673
  O  O847  1  0.563640  0.895540  0.957720  1.0  -0.3177
  O  O848  1  0.780510  0.891210  0.897380  1.0  -0.2547
  O  O849  1  0.570780  0.169580  0.091440  1.0  -0.6264
  O  O850  1  0.565360  0.207760  0.157680  1.0  -0.596
  O  O851  1  0.715110  0.716810  0.736980  1.0  -0.6282
  O  O852  1  0.817600  0.707200  0.722000  1.0  -0.6384
  O  O853  1  0.682870  0.448770  0.028860  1.0  -0.247
  O  O854  1  0.788680  0.481680  0.898240  1.0  -0.2639
  O  O855  1  0.802710  0.185410  0.452980  1.0  -0.61
  O  O856  1  0.743720  0.244720  0.410160  1.0  -0.6216
  O  O857  1  0.926360  0.084260  0.311680  1.0  -0.2472
  O  O858  1  0.744310  0.361610  0.452980  1.0  -0.6087
  O  O859  1  0.846120  0.345120  0.410160  1.0  -0.6232
  O  O860  1  0.761960  0.604060  0.311680  1.0  -0.2488
  O  O861  1  0.814590  0.255690  0.547020  1.0  -0.6101
  O  O862  1  0.755280  0.153880  0.589840  1.0  -0.6218
  O  O863  1  0.915740  0.238040  0.688320  1.0  -0.2503
  O  O864  1  0.638390  0.197290  0.547020  1.0  -0.6095
  O  O865  1  0.654880  0.256280  0.589840  1.0  -0.6208
  O  O866  1  0.395940  0.073640  0.688320  1.0  -0.2485
  O  O867  1  0.005690  0.064590  0.047020  1.0  -0.6088
  O  O868  1  0.903880  0.005280  0.089840  1.0  -0.6224
  O  O869  1  0.988040  0.165740  0.188320  1.0  -0.2492
  O  O870  1  0.947290  0.888390  0.047020  1.0  -0.6097
  O  O871  1  0.006280  0.904880  0.089840  1.0  -0.6242
  O  O872  1  0.823640  0.645940  0.188320  1.0  -0.2466
  O  O873  1  0.111610  0.994310  0.952980  1.0  -0.6093
  O  O874  1  0.095120  0.096120  0.910160  1.0  -0.6207
  O  O875  1  0.354060  0.011960  0.811680  1.0  -0.2502
  O  O876  1  0.935410  0.052710  0.952980  1.0  -0.6108
  O  O877  1  0.994720  0.993720  0.910160  1.0  -0.6215
  O  O878  1  0.834260  0.176360  0.811680  1.0  -0.2473
