# generated using pymatgen
data_FeH24C33S2N10O
_symmetry_space_group_name_H-M   'P 1'
_cell_length_a   27.79770000
_cell_length_b   27.79770000
_cell_length_c   27.79770000
_cell_angle_alpha   109.47100000
_cell_angle_beta   109.47100000
_cell_angle_gamma   109.47100000
_symmetry_Int_Tables_number   1
_chemical_formula_structural   FeH24C33S2N10O
_chemical_formula_sum   'Fe12 H288 C396 S24 N120 O12'
_cell_volume   16535.15413577
_cell_formula_units_Z   12
loop_
 _symmetry_equiv_pos_site_id
 _symmetry_equiv_pos_as_xyz
  1  'x, y, z'
loop_
 _atom_site_type_symbol
 _atom_site_label
 _atom_site_symmetry_multiplicity
 _atom_site_fract_x
 _atom_site_fract_y
 _atom_site_fract_z
 _atom_site_occupancy
 _atom_site_charge
  Fe  Fe1  1  0.505540  0.789070  0.723890  1.0  0.7514
  Fe  Fe2  1  0.065180  0.781650  0.276110  1.0  0.7522
  Fe  Fe3  1  0.934820  0.210930  0.716470  1.0  0.7502
  Fe  Fe4  1  0.494460  0.218350  0.283530  1.0  0.7499
  Fe  Fe5  1  0.716470  0.934820  0.210930  1.0  0.7491
  Fe  Fe6  1  0.283530  0.494460  0.218350  1.0  0.7513
  Fe  Fe7  1  0.723890  0.505540  0.789070  1.0  0.751
  Fe  Fe8  1  0.276110  0.065180  0.781650  1.0  0.7501
  Fe  Fe9  1  0.781650  0.276110  0.065180  1.0  0.752
  Fe  Fe10  1  0.789070  0.723890  0.505540  1.0  0.7528
  Fe  Fe11  1  0.218350  0.283530  0.494460  1.0  0.7496
  Fe  Fe12  1  0.210930  0.716470  0.934820  1.0  0.7495
  H  H13  1  0.494400  0.806900  0.614900  1.0  0.0986
  H  H14  1  0.456800  0.755500  0.516500  1.0  0.1177
  H  H15  1  0.394900  0.653000  0.463300  1.0  0.13
  H  H16  1  0.424100  0.661100  0.619400  1.0  0.083
  H  H17  1  0.256500  0.370500  0.209400  1.0  0.0967
  H  H18  1  0.250100  0.321200  0.261500  1.0  0.1279
  H  H19  1  0.276600  0.376800  0.362600  1.0  0.1127
  H  H20  1  0.328100  0.522400  0.349100  1.0  0.0929
  H  H21  1  0.261600  0.388500  0.473900  1.0  0.0899
  H  H22  1  0.331900  0.543600  0.617300  1.0  0.1179
  H  H23  1  0.289400  0.492000  0.658000  1.0  0.1269
  H  H24  1  0.249000  0.392000  0.611400  1.0  0.0823
  H  H25  1  0.522000  0.722200  0.795000  1.0  0.0902
  H  H26  1  0.567800  0.671500  0.816300  1.0  0.1172
  H  H27  1  0.622300  0.652600  0.773500  1.0  0.1185
  H  H28  1  0.582600  0.736800  0.688400  1.0  0.0744
  H  H29  1  0.502200  0.712100  0.865100  1.0  0.0899
  H  H30  1  0.600400  0.745400  0.930600  1.0  0.1297
  H  H31  1  0.618600  0.739500  0.019500  1.0  0.1064
  H  H32  1  0.540700  0.690100  0.028800  1.0  0.1174
  H  H33  1  0.445800  0.658400  0.960400  1.0  0.1099
  H  H34  1  0.378200  0.647200  0.784800  1.0  0.2912
  H  H35  1  0.372200  0.628400  0.867200  1.0  0.1305
  H  H36  1  0.389400  0.689300  0.867100  1.0  0.0869
  H  H37  1  0.192000  0.879500  0.385100  1.0  0.0989
  H  H38  1  0.239000  0.940300  0.483500  1.0  0.1198
  H  H39  1  0.189700  0.931600  0.536700  1.0  0.1298
  H  H40  1  0.041700  0.804700  0.380600  1.0  0.0811
  H  H41  1  0.161100  0.047100  0.790600  1.0  0.0948
  H  H42  1  0.059700  0.988600  0.738500  1.0  0.1303
  H  H43  1  0.014200  0.914000  0.637400  1.0  0.113
  H  H44  1  0.173300  0.979000  0.650900  1.0  0.0924
  H  H45  1  0.914600  0.787700  0.526100  1.0  0.0895
  H  H46  1  0.926300  0.714600  0.382700  1.0  0.118
  H  H47  1  0.834000  0.631400  0.342000  1.0  0.1271
  H  H48  1  0.780600  0.637600  0.388600  1.0  0.0829
  H  H49  1  0.927200  0.727000  0.205000  1.0  0.0909
  H  H50  1  0.855200  0.751500  0.183700  1.0  0.118
  H  H51  1  0.879100  0.848800  0.226500  1.0  0.1175
  H  H52  1  0.048400  0.894200  0.311600  1.0  0.0732
  H  H53  1  0.847000  0.637100  0.134900  1.0  0.0886
  H  H54  1  0.814800  0.669800  0.069400  1.0  0.1319
  H  H55  1  0.720000  0.599100  0.980500  1.0  0.1071
  H  H56  1  0.661300  0.511900  0.971200  1.0  0.1168
  H  H57  1  0.698000  0.485400  0.039600  1.0  0.1097
  H  H58  1  0.862400  0.593400  0.215200  1.0  0.2934
  H  H59  1  0.761200  0.505000  0.132800  1.0  0.1306
  H  H60  1  0.822200  0.522300  0.132900  1.0  0.0857
  H  H61  1  0.808000  0.193100  0.687500  1.0  0.098
  H  H62  1  0.761000  0.244500  0.701300  1.0  0.1192
  H  H63  1  0.810300  0.347000  0.741900  1.0  0.13
  H  H64  1  0.958300  0.338900  0.763000  1.0  0.0815
  H  H65  1  0.838900  0.629500  0.886000  1.0  0.0934
  H  H66  1  0.940300  0.678800  0.928900  1.0  0.128
  H  H67  1  0.985800  0.623200  0.899800  1.0  0.1137
  H  H68  1  0.826700  0.477600  0.805700  1.0  0.0952
  H  H69  1  0.085400  0.611500  0.873100  1.0  0.0897
  H  H70  1  0.073700  0.456400  0.788300  1.0  0.118
  H  H71  1  0.166000  0.508000  0.797400  1.0  0.1266
  H  H72  1  0.219400  0.608000  0.857000  1.0  0.0812
  H  H73  1  0.072800  0.277800  0.799800  1.0  0.0911
  H  H74  1  0.144800  0.328500  0.896300  1.0  0.1177
  H  H75  1  0.120900  0.347400  0.969700  1.0  0.1172
  H  H76  1  0.951600  0.263200  0.845800  1.0  0.0733
  H  H77  1  0.153000  0.287900  0.790100  1.0  0.0888
  H  H78  1  0.185200  0.254600  0.855000  1.0  0.1326
  H  H79  1  0.280000  0.260500  0.879100  1.0  0.1066
  H  H80  1  0.338700  0.309900  0.850600  1.0  0.1182
  H  H81  1  0.302000  0.341600  0.787400  1.0  0.111
  H  H82  1  0.137600  0.352800  0.731000  1.0  0.2929
  H  H83  1  0.238800  0.371600  0.743800  1.0  0.1303
  H  H84  1  0.177800  0.310700  0.700100  1.0  0.0876
  H  H85  1  0.505600  0.120500  0.312500  1.0  0.0991
  H  H86  1  0.543200  0.059700  0.298700  1.0  0.1194
  H  H87  1  0.605100  0.068400  0.258100  1.0  0.1292
  H  H88  1  0.575900  0.195300  0.237000  1.0  0.0814
  H  H89  1  0.743500  0.952900  0.114000  1.0  0.0914
  H  H90  1  0.749900  0.011400  0.071100  1.0  0.1284
  H  H91  1  0.723400  0.086000  0.100200  1.0  0.1139
  H  H92  1  0.671900  0.021000  0.194300  1.0  0.0937
  H  H93  1  0.738400  0.212300  0.126900  1.0  0.0906
  H  H94  1  0.668100  0.285400  0.211700  1.0  0.1176
  H  H95  1  0.710600  0.368600  0.202600  1.0  0.128
  H  H96  1  0.751000  0.362400  0.143000  1.0  0.0803
  H  H97  1  0.478000  0.273000  0.200200  1.0  0.0908
  H  H98  1  0.432200  0.248500  0.103700  1.0  0.1183
  H  H99  1  0.377700  0.151200  0.030300  1.0  0.119
  H  H100  1  0.417400  0.105800  0.154200  1.0  0.0729
  H  H101  1  0.497800  0.362900  0.209900  1.0  0.0878
  H  H102  1  0.399600  0.330200  0.145000  1.0  0.1317
  H  H103  1  0.381400  0.400900  0.120900  1.0  0.1075
  H  H104  1  0.459300  0.488100  0.149400  1.0  0.1193
  H  H105  1  0.554200  0.514600  0.212600  1.0  0.1109
  H  H106  1  0.621800  0.406600  0.269000  1.0  0.2966
  H  H107  1  0.627800  0.495000  0.256200  1.0  0.131
  H  H108  1  0.610600  0.477700  0.299900  1.0  0.0885
  H  H109  1  0.687500  0.808000  0.193100  1.0  0.0991
  H  H110  1  0.701300  0.761000  0.244500  1.0  0.1193
  H  H111  1  0.741900  0.810300  0.347000  1.0  0.1289
  H  H112  1  0.763000  0.958300  0.338900  1.0  0.0828
  H  H113  1  0.886000  0.838900  0.629500  1.0  0.0947
  H  H114  1  0.928900  0.940300  0.678800  1.0  0.1277
  H  H115  1  0.899800  0.985800  0.623200  1.0  0.1138
  H  H116  1  0.805700  0.826700  0.477600  1.0  0.0928
  H  H117  1  0.873100  0.085400  0.611500  1.0  0.0898
  H  H118  1  0.788300  0.073700  0.456400  1.0  0.1188
  H  H119  1  0.797400  0.166000  0.508000  1.0  0.1269
  H  H120  1  0.857000  0.219400  0.608000  1.0  0.0832
  H  H121  1  0.799800  0.072800  0.277800  1.0  0.091
  H  H122  1  0.896300  0.144800  0.328500  1.0  0.1178
  H  H123  1  0.969700  0.120900  0.347400  1.0  0.1192
  H  H124  1  0.845800  0.951600  0.263200  1.0  0.075
  H  H125  1  0.790100  0.153000  0.287900  1.0  0.0891
  H  H126  1  0.855000  0.185200  0.254600  1.0  0.1314
  H  H127  1  0.879100  0.280000  0.260500  1.0  0.1071
  H  H128  1  0.850600  0.338700  0.309900  1.0  0.1189
  H  H129  1  0.787400  0.302000  0.341600  1.0  0.1091
  H  H130  1  0.731000  0.137600  0.352800  1.0  0.2917
  H  H131  1  0.743800  0.238800  0.371600  1.0  0.1292
  H  H132  1  0.700100  0.177800  0.310700  1.0  0.0862
  H  H133  1  0.312500  0.505600  0.120500  1.0  0.0983
  H  H134  1  0.298700  0.543200  0.059700  1.0  0.1173
  H  H135  1  0.258100  0.605100  0.068400  1.0  0.1286
  H  H136  1  0.237000  0.575900  0.195300  1.0  0.0834
  H  H137  1  0.114000  0.743500  0.952900  1.0  0.0949
  H  H138  1  0.071100  0.749900  0.011400  1.0  0.1266
  H  H139  1  0.100200  0.723400  0.086000  1.0  0.114
  H  H140  1  0.194300  0.671900  0.021000  1.0  0.0931
  H  H141  1  0.126900  0.738400  0.212300  1.0  0.0896
  H  H142  1  0.211700  0.668100  0.285400  1.0  0.1181
  H  H143  1  0.202600  0.710600  0.368600  1.0  0.1266
  H  H144  1  0.143000  0.751000  0.362400  1.0  0.0816
  H  H145  1  0.200200  0.478000  0.273000  1.0  0.0913
  H  H146  1  0.103700  0.432200  0.248500  1.0  0.1177
  H  H147  1  0.030300  0.377700  0.151200  1.0  0.1188
  H  H148  1  0.154200  0.417400  0.105800  1.0  0.0744
  H  H149  1  0.209900  0.497800  0.362900  1.0  0.0907
  H  H150  1  0.145000  0.399600  0.330200  1.0  0.1298
  H  H151  1  0.120900  0.381400  0.400900  1.0  0.1058
  H  H152  1  0.149400  0.459300  0.488100  1.0  0.1183
  H  H153  1  0.212600  0.554200  0.514600  1.0  0.1111
  H  H154  1  0.269000  0.621800  0.406600  1.0  0.2938
  H  H155  1  0.256200  0.627800  0.495000  1.0  0.1311
  H  H156  1  0.299900  0.610600  0.477700  1.0  0.0846
  H  H157  1  0.614900  0.494400  0.806900  1.0  0.0982
  H  H158  1  0.516500  0.456800  0.755500  1.0  0.1183
  H  H159  1  0.463300  0.394900  0.653000  1.0  0.1298
  H  H160  1  0.619400  0.424100  0.661100  1.0  0.0819
  H  H161  1  0.209400  0.256500  0.370500  1.0  0.0917
  H  H162  1  0.261500  0.250100  0.321200  1.0  0.1273
  H  H163  1  0.362600  0.276600  0.376800  1.0  0.1119
  H  H164  1  0.349100  0.328100  0.522400  1.0  0.0924
  H  H165  1  0.473900  0.261600  0.388500  1.0  0.09
  H  H166  1  0.617300  0.331900  0.543600  1.0  0.1172
  H  H167  1  0.658000  0.289400  0.492000  1.0  0.1255
  H  H168  1  0.611400  0.249000  0.392000  1.0  0.0809
  H  H169  1  0.795000  0.522000  0.722200  1.0  0.0897
  H  H170  1  0.816300  0.567800  0.671500  1.0  0.1177
  H  H171  1  0.773500  0.622300  0.652600  1.0  0.1188
  H  H172  1  0.688400  0.582600  0.736800  1.0  0.0717
  H  H173  1  0.865100  0.502200  0.712100  1.0  0.0878
  H  H174  1  0.930600  0.600400  0.745400  1.0  0.1342
  H  H175  1  0.019500  0.618600  0.739500  1.0  0.1083
  H  H176  1  0.028800  0.540700  0.690100  1.0  0.1186
  H  H177  1  0.960400  0.445800  0.658400  1.0  0.1097
  H  H178  1  0.784800  0.378200  0.647200  1.0  0.2911
  H  H179  1  0.867200  0.372200  0.628400  1.0  0.1301
  H  H180  1  0.867100  0.389400  0.689300  1.0  0.0882
  H  H181  1  0.385100  0.192000  0.879500  1.0  0.0992
  H  H182  1  0.483500  0.239000  0.940300  1.0  0.1213
  H  H183  1  0.536700  0.189700  0.931600  1.0  0.1297
  H  H184  1  0.380600  0.041700  0.804700  1.0  0.0835
  H  H185  1  0.790600  0.161100  0.047100  1.0  0.0913
  H  H186  1  0.738500  0.059700  0.988600  1.0  0.1264
  H  H187  1  0.637400  0.014200  0.914000  1.0  0.1148
  H  H188  1  0.650900  0.173300  0.979000  1.0  0.093
  H  H189  1  0.526100  0.914600  0.787700  1.0  0.0895
  H  H190  1  0.382700  0.926300  0.714600  1.0  0.1181
  H  H191  1  0.342000  0.834000  0.631400  1.0  0.1268
  H  H192  1  0.388600  0.780600  0.637600  1.0  0.081
  H  H193  1  0.205000  0.927200  0.727000  1.0  0.0909
  H  H194  1  0.183700  0.855200  0.751500  1.0  0.1182
  H  H195  1  0.226500  0.879100  0.848800  1.0  0.1175
  H  H196  1  0.311600  0.048400  0.894200  1.0  0.0743
  H  H197  1  0.134900  0.847000  0.637100  1.0  0.0885
  H  H198  1  0.069400  0.814800  0.669800  1.0  0.1315
  H  H199  1  0.980500  0.720000  0.599100  1.0  0.1072
  H  H200  1  0.971200  0.661300  0.511900  1.0  0.1182
  H  H201  1  0.039600  0.698000  0.485400  1.0  0.1082
  H  H202  1  0.215200  0.862400  0.593400  1.0  0.2921
  H  H203  1  0.132800  0.761200  0.505000  1.0  0.1294
  H  H204  1  0.132900  0.822200  0.522300  1.0  0.0874
  H  H205  1  0.879500  0.385100  0.192000  1.0  0.0982
  H  H206  1  0.940300  0.483500  0.239000  1.0  0.1179
  H  H207  1  0.931600  0.536700  0.189700  1.0  0.1302
  H  H208  1  0.804700  0.380600  0.041700  1.0  0.0818
  H  H209  1  0.047100  0.790600  0.161100  1.0  0.0929
  H  H210  1  0.988600  0.738500  0.059700  1.0  0.1296
  H  H211  1  0.914000  0.637400  0.014200  1.0  0.1138
  H  H212  1  0.979000  0.650900  0.173300  1.0  0.0932
  H  H213  1  0.787700  0.526100  0.914600  1.0  0.0911
  H  H214  1  0.714600  0.382700  0.926300  1.0  0.1192
  H  H215  1  0.631400  0.342000  0.834000  1.0  0.1277
  H  H216  1  0.637600  0.388600  0.780600  1.0  0.0815
  H  H217  1  0.727000  0.205000  0.927200  1.0  0.0903
  H  H218  1  0.751500  0.183700  0.855200  1.0  0.1181
  H  H219  1  0.848800  0.226500  0.879100  1.0  0.1192
  H  H220  1  0.894200  0.311600  0.048400  1.0  0.0724
  H  H221  1  0.637100  0.134900  0.847000  1.0  0.0886
  H  H222  1  0.669800  0.069400  0.814800  1.0  0.1315
  H  H223  1  0.599100  0.980500  0.720000  1.0  0.1059
  H  H224  1  0.511900  0.971200  0.661300  1.0  0.1184
  H  H225  1  0.485400  0.039600  0.698000  1.0  0.1091
  H  H226  1  0.593400  0.215200  0.862400  1.0  0.2936
  H  H227  1  0.505000  0.132800  0.761200  1.0  0.1281
  H  H228  1  0.522300  0.132900  0.822200  1.0  0.0876
  H  H229  1  0.806900  0.614900  0.494400  1.0  0.0981
  H  H230  1  0.755500  0.516500  0.456800  1.0  0.1193
  H  H231  1  0.653000  0.463300  0.394900  1.0  0.1295
  H  H232  1  0.661100  0.619400  0.424100  1.0  0.0813
  H  H233  1  0.370500  0.209400  0.256500  1.0  0.0937
  H  H234  1  0.321200  0.261500  0.250100  1.0  0.1284
  H  H235  1  0.376800  0.362600  0.276600  1.0  0.1113
  H  H236  1  0.522400  0.349100  0.328100  1.0  0.0928
  H  H237  1  0.388500  0.473900  0.261600  1.0  0.091
  H  H238  1  0.543600  0.617300  0.331900  1.0  0.1186
  H  H239  1  0.492000  0.658000  0.289400  1.0  0.1287
  H  H240  1  0.392000  0.611400  0.249000  1.0  0.082
  H  H241  1  0.722200  0.795000  0.522000  1.0  0.0919
  H  H242  1  0.671500  0.816300  0.567800  1.0  0.1179
  H  H243  1  0.652600  0.773500  0.622300  1.0  0.1172
  H  H244  1  0.736800  0.688400  0.582600  1.0  0.0743
  H  H245  1  0.712100  0.865100  0.502200  1.0  0.089
  H  H246  1  0.745400  0.930600  0.600400  1.0  0.132
  H  H247  1  0.739500  0.019500  0.618600  1.0  0.1043
  H  H248  1  0.690100  0.028800  0.540700  1.0  0.1183
  H  H249  1  0.658400  0.960400  0.445800  1.0  0.1099
  H  H250  1  0.647200  0.784800  0.378200  1.0  0.2964
  H  H251  1  0.628400  0.867200  0.372200  1.0  0.1284
  H  H252  1  0.689300  0.867100  0.389400  1.0  0.0877
  H  H253  1  0.120500  0.312500  0.505600  1.0  0.0994
  H  H254  1  0.059700  0.298700  0.543200  1.0  0.1186
  H  H255  1  0.068400  0.258100  0.605100  1.0  0.1294
  H  H256  1  0.195300  0.237000  0.575900  1.0  0.0816
  H  H257  1  0.952900  0.114000  0.743500  1.0  0.0957
  H  H258  1  0.011400  0.071100  0.749900  1.0  0.1288
  H  H259  1  0.086000  0.100200  0.723400  1.0  0.1136
  H  H260  1  0.021000  0.194300  0.671900  1.0  0.0924
  H  H261  1  0.212300  0.126900  0.738400  1.0  0.0895
  H  H262  1  0.285400  0.211700  0.668100  1.0  0.119
  H  H263  1  0.368600  0.202600  0.710600  1.0  0.127
  H  H264  1  0.362400  0.143000  0.751000  1.0  0.0825
  H  H265  1  0.273000  0.200200  0.478000  1.0  0.0914
  H  H266  1  0.248500  0.103700  0.432200  1.0  0.1179
  H  H267  1  0.151200  0.030300  0.377700  1.0  0.1182
  H  H268  1  0.105800  0.154200  0.417400  1.0  0.073
  H  H269  1  0.362900  0.209900  0.497800  1.0  0.0874
  H  H270  1  0.330200  0.145000  0.399600  1.0  0.1323
  H  H271  1  0.400900  0.120900  0.381400  1.0  0.1059
  H  H272  1  0.488100  0.149400  0.459300  1.0  0.1184
  H  H273  1  0.514600  0.212600  0.554200  1.0  0.1074
  H  H274  1  0.406600  0.269000  0.621800  1.0  0.291
  H  H275  1  0.495000  0.256200  0.627800  1.0  0.127
  H  H276  1  0.477700  0.299900  0.610600  1.0  0.087
  H  H277  1  0.193100  0.687500  0.808000  1.0  0.0984
  H  H278  1  0.244500  0.701300  0.761000  1.0  0.1164
  H  H279  1  0.347000  0.741900  0.810300  1.0  0.1286
  H  H280  1  0.338900  0.763000  0.958300  1.0  0.0828
  H  H281  1  0.629500  0.886000  0.838900  1.0  0.0955
  H  H282  1  0.678800  0.928900  0.940300  1.0  0.1283
  H  H283  1  0.623200  0.899800  0.985800  1.0  0.1142
  H  H284  1  0.477600  0.805700  0.826700  1.0  0.094
  H  H285  1  0.611500  0.873100  0.085400  1.0  0.0893
  H  H286  1  0.456400  0.788300  0.073700  1.0  0.1184
  H  H287  1  0.508000  0.797400  0.166000  1.0  0.1269
  H  H288  1  0.608000  0.857000  0.219400  1.0  0.0823
  H  H289  1  0.277800  0.799800  0.072800  1.0  0.0909
  H  H290  1  0.328500  0.896300  0.144800  1.0  0.1182
  H  H291  1  0.347400  0.969700  0.120900  1.0  0.1191
  H  H292  1  0.263200  0.845800  0.951600  1.0  0.0747
  H  H293  1  0.287900  0.790100  0.153000  1.0  0.0882
  H  H294  1  0.254600  0.855000  0.185200  1.0  0.132
  H  H295  1  0.260500  0.879100  0.280000  1.0  0.1068
  H  H296  1  0.309900  0.850600  0.338700  1.0  0.1165
  H  H297  1  0.341600  0.787400  0.302000  1.0  0.1077
  H  H298  1  0.352800  0.731000  0.137600  1.0  0.2929
  H  H299  1  0.371600  0.743800  0.238800  1.0  0.1292
  H  H300  1  0.310700  0.700100  0.177800  1.0  0.088
  C  C301  1  0.619500  0.865900  0.722600  1.0  0.2249
  C  C302  1  0.366300  0.581000  0.506500  1.0  0.3958
  C  C303  1  0.322200  0.491700  0.427500  1.0  0.3483
  C  C304  1  0.319100  0.499400  0.508900  1.0  0.3507
  C  C305  1  0.472200  0.765100  0.595100  1.0  0.1549
  C  C306  1  0.448700  0.735000  0.536700  1.0  -0.1428
  C  C307  1  0.412600  0.674400  0.505000  1.0  -0.1019
  C  C308  1  0.403300  0.646100  0.536400  1.0  -0.15
  C  C309  1  0.430800  0.680400  0.597800  1.0  0.1655
  C  C310  1  0.270000  0.392700  0.250100  1.0  0.1742
  C  C311  1  0.264400  0.362400  0.280000  1.0  -0.1441
  C  C312  1  0.281100  0.395400  0.340100  1.0  0.0075
  C  C313  1  0.303800  0.454800  0.364400  1.0  -0.1416
  C  C314  1  0.310300  0.480800  0.330900  1.0  0.1537
  C  C315  1  0.270100  0.410200  0.513100  1.0  0.1835
  C  C316  1  0.299000  0.470600  0.540200  1.0  -0.1589
  C  C317  1  0.309500  0.501800  0.596100  1.0  -0.0353
  C  C318  1  0.287100  0.471700  0.621600  1.0  -0.1563
  C  C319  1  0.261700  0.412300  0.592600  1.0  0.1649
  C  C320  1  0.544300  0.715100  0.776800  1.0  0.1541
  C  C321  1  0.571200  0.684700  0.789500  1.0  -0.1065
  C  C322  1  0.602700  0.673200  0.764100  1.0  -0.0243
  C  C323  1  0.606700  0.691600  0.724900  1.0  -0.1576
  C  C324  1  0.579100  0.723100  0.714800  1.0  0.159
  C  C325  1  0.641500  0.682200  0.697100  1.0  0.4229
  C  C326  1  0.398900  0.692200  0.720300  1.0  0.1344
  C  C327  1  0.463300  0.681400  0.905300  1.0  0.0451
  C  C328  1  0.510400  0.707800  0.899000  1.0  -0.1118
  C  C329  1  0.569500  0.728900  0.937800  1.0  -0.1561
  C  C330  1  0.579400  0.723500  0.989500  1.0  -0.0829
  C  C331  1  0.533900  0.696000  0.995900  1.0  -0.1523
  C  C332  1  0.477000  0.676400  0.954200  1.0  -0.1035
  C  C333  1  0.398100  0.656600  0.860500  1.0  -0.0592
  C  C334  1  0.143300  0.896900  0.277400  1.0  0.2234
  C  C335  1  0.074500  0.859800  0.493500  1.0  0.3949
  C  C336  1  0.064200  0.894700  0.572500  1.0  0.3512
  C  C337  1  0.990500  0.810200  0.491100  1.0  0.3523
  C  C338  1  0.170000  0.877100  0.404900  1.0  0.1582
  C  C339  1  0.198300  0.912000  0.463300  1.0  -0.1474
  C  C340  1  0.169400  0.907600  0.495000  1.0  -0.1038
  C  C341  1  0.109700  0.866900  0.463600  1.0  -0.1501
  C  C342  1  0.082600  0.833000  0.402200  1.0  0.1607
  C  C343  1  0.142600  0.019900  0.749900  1.0  0.1733
  C  C344  1  0.082400  0.984400  0.720000  1.0  -0.141
  C  C345  1  0.055300  0.941000  0.659900  1.0  0.0047
  C  C346  1  0.090400  0.939400  0.635600  1.0  -0.1439
  C  C347  1  0.149900  0.979400  0.669100  1.0  0.1553
  C  C348  1  0.897100  0.757000  0.486900  1.0  0.1829
  C  C349  1  0.930400  0.758800  0.459800  1.0  -0.1581
  C  C350  1  0.905700  0.713400  0.403900  1.0  -0.0341
  C  C351  1  0.850100  0.665500  0.378400  1.0  -0.1594
  C  C352  1  0.819700  0.669100  0.407400  1.0  0.1648
  C  C353  1  0.938300  0.767500  0.223200  1.0  0.1535
  C  C354  1  0.895200  0.781700  0.210500  1.0  -0.1082
  C  C355  1  0.909100  0.838600  0.235900  1.0  -0.023
  C  C356  1  0.966700  0.881800  0.275100  1.0  -0.1594
  C  C357  1  0.008300  0.864300  0.285200  1.0  0.1592
  C  C358  1  0.985100  0.944400  0.302900  1.0  0.4228
  C  C359  1  0.971900  0.678600  0.279700  1.0  0.1305
  C  C360  1  0.776100  0.558000  0.094700  1.0  0.0458
  C  C361  1  0.808800  0.611400  0.101000  1.0  -0.1164
  C  C362  1  0.791100  0.631700  0.062200  1.0  -0.1568
  C  C363  1  0.734000  0.589900  0.010500  1.0  -0.0853
  C  C364  1  0.700100  0.538000  0.004100  1.0  -0.156
  C  C365  1  0.722200  0.522800  0.045800  1.0  -0.1059
  C  C366  1  0.796100  0.537600  0.139500  1.0  -0.0638
  C  C367  1  0.856700  0.134100  0.753600  1.0  0.2206
  C  C368  1  0.925500  0.419000  0.785300  1.0  0.4027
  C  C369  1  0.935800  0.508300  0.830500  1.0  0.359
  C  C370  1  0.009500  0.500600  0.819700  1.0  0.3508
  C  C371  1  0.830000  0.234900  0.707100  1.0  0.1554
  C  C372  1  0.801700  0.265000  0.713700  1.0  -0.1489
  C  C373  1  0.830600  0.325600  0.738200  1.0  -0.1047
  C  C374  1  0.890300  0.353900  0.757200  1.0  -0.148
  C  C375  1  0.917400  0.319600  0.750400  1.0  0.1618
  C  C376  1  0.857400  0.607300  0.877300  1.0  0.1723
  C  C377  1  0.917600  0.637600  0.902000  1.0  -0.1434
  C  C378  1  0.944700  0.604600  0.885700  1.0  0.0068
  C  C379  1  0.909600  0.545200  0.849000  1.0  -0.1423
  C  C380  1  0.850100  0.519200  0.829500  1.0  0.1558
  C  C381  1  0.102900  0.589800  0.859900  1.0  0.1833
  C  C382  1  0.069600  0.529400  0.828400  1.0  -0.1572
  C  C383  1  0.094300  0.498200  0.807700  1.0  -0.0328
  C  C384  1  0.149900  0.528300  0.815400  1.0  -0.1564
  C  C385  1  0.180300  0.587700  0.849400  1.0  0.1671
  C  C386  1  0.061700  0.284900  0.829200  1.0  0.1554
  C  C387  1  0.104800  0.315300  0.886500  1.0  -0.1064
  C  C388  1  0.090900  0.326800  0.929500  1.0  -0.0223
  C  C389  1  0.033300  0.308400  0.915100  1.0  -0.157
  C  C390  1  0.991700  0.276900  0.856000  1.0  0.1589
  C  C391  1  0.014900  0.317800  0.959300  1.0  0.4168
  C  C392  1  0.028100  0.307800  0.706700  1.0  0.1319
  C  C393  1  0.223900  0.318600  0.781900  1.0  0.0421
  C  C394  1  0.191200  0.292200  0.802600  1.0  -0.1168
  C  C395  1  0.208900  0.271100  0.840600  1.0  -0.1531
  C  C396  1  0.266000  0.276500  0.855900  1.0  -0.0745
  C  C397  1  0.299900  0.304000  0.837900  1.0  -0.1507
  C  C398  1  0.277800  0.323600  0.800600  1.0  -0.1058
  C  C399  1  0.203900  0.343400  0.741500  1.0  -0.0618
  C  C400  1  0.380500  0.103100  0.246400  1.0  0.2256
  C  C401  1  0.633700  0.140200  0.214700  1.0  0.3955
  C  C402  1  0.677800  0.105300  0.169500  1.0  0.3549
  C  C403  1  0.680900  0.189800  0.180300  1.0  0.3515
  C  C404  1  0.527800  0.122900  0.292900  1.0  0.1556
  C  C405  1  0.551300  0.088000  0.286300  1.0  -0.1468
  C  C406  1  0.587400  0.092400  0.261800  1.0  -0.1006
  C  C407  1  0.596700  0.133100  0.242800  1.0  -0.1493
  C  C408  1  0.569200  0.167000  0.249600  1.0  0.163
  C  C409  1  0.730000  0.980100  0.122700  1.0  0.1738
  C  C410  1  0.735600  0.015600  0.098000  1.0  -0.145
  C  C411  1  0.718900  0.059000  0.114300  1.0  0.003
  C  C412  1  0.696200  0.060600  0.151000  1.0  -0.1434
  C  C413  1  0.689700  0.020600  0.170500  1.0  0.1561
  C  C414  1  0.729900  0.243000  0.140100  1.0  0.1821
  C  C415  1  0.701000  0.241200  0.171600  1.0  -0.1585
  C  C416  1  0.690500  0.286600  0.192300  1.0  -0.0295
  C  C417  1  0.712900  0.334500  0.184600  1.0  -0.1588
  C  C418  1  0.738300  0.330900  0.150600  1.0  0.1707
  C  C419  1  0.455700  0.232500  0.170800  1.0  0.1554
  C  C420  1  0.428800  0.218300  0.113500  1.0  -0.1109
  C  C421  1  0.397300  0.161400  0.070500  1.0  -0.0221
  C  C422  1  0.393300  0.118200  0.084900  1.0  -0.1547
  C  C423  1  0.420900  0.135700  0.144000  1.0  0.1619
  C  C424  1  0.358500  0.055600  0.040700  1.0  0.4224
  C  C425  1  0.601100  0.321400  0.293300  1.0  0.1361
  C  C426  1  0.536700  0.442000  0.218100  1.0  0.0449
  C  C427  1  0.489600  0.388600  0.197400  1.0  -0.1168
  C  C428  1  0.430500  0.368300  0.159400  1.0  -0.1588
  C  C429  1  0.420600  0.410100  0.144100  1.0  -0.0821
  C  C430  1  0.466100  0.462000  0.162100  1.0  -0.1536
  C  C431  1  0.523000  0.477200  0.199400  1.0  -0.1055
  C  C432  1  0.601900  0.462400  0.258500  1.0  -0.0647
  C  C433  1  0.753600  0.856700  0.134100  1.0  0.2251
  C  C434  1  0.785300  0.925500  0.419000  1.0  0.3952
  C  C435  1  0.830500  0.935800  0.508300  1.0  0.356
  C  C436  1  0.819700  0.009500  0.500600  1.0  0.3513
  C  C437  1  0.707100  0.830000  0.234900  1.0  0.1562
  C  C438  1  0.713700  0.801700  0.265000  1.0  -0.1475
  C  C439  1  0.738200  0.830600  0.325600  1.0  -0.1049
  C  C440  1  0.757200  0.890300  0.353900  1.0  -0.1513
  C  C441  1  0.750400  0.917400  0.319600  1.0  0.1593
  C  C442  1  0.877300  0.857400  0.607300  1.0  0.1744
  C  C443  1  0.902000  0.917600  0.637600  1.0  -0.1385
  C  C444  1  0.885700  0.944700  0.604600  1.0  0.0016
  C  C445  1  0.849000  0.909600  0.545200  1.0  -0.142
  C  C446  1  0.829500  0.850100  0.519200  1.0  0.1534
  C  C447  1  0.859900  0.102900  0.589800  1.0  0.185
  C  C448  1  0.828400  0.069600  0.529400  1.0  -0.1582
  C  C449  1  0.807700  0.094300  0.498200  1.0  -0.0327
  C  C450  1  0.815400  0.149900  0.528300  1.0  -0.1582
  C  C451  1  0.849400  0.180300  0.587700  1.0  0.1627
  C  C452  1  0.829200  0.061700  0.284900  1.0  0.1537
  C  C453  1  0.886500  0.104800  0.315300  1.0  -0.1101
  C  C454  1  0.929500  0.090900  0.326800  1.0  -0.0258
  C  C455  1  0.915100  0.033300  0.308400  1.0  -0.1568
  C  C456  1  0.856000  0.991700  0.276900  1.0  0.1574
  C  C457  1  0.959300  0.014900  0.317800  1.0  0.4178
  C  C458  1  0.706700  0.028100  0.307800  1.0  0.132
  C  C459  1  0.781900  0.223900  0.318600  1.0  0.0441
  C  C460  1  0.802600  0.191200  0.292200  1.0  -0.1155
  C  C461  1  0.840600  0.208900  0.271100  1.0  -0.154
  C  C462  1  0.855900  0.266000  0.276500  1.0  -0.0812
  C  C463  1  0.837900  0.299900  0.304000  1.0  -0.1524
  C  C464  1  0.800600  0.277800  0.323600  1.0  -0.1009
  C  C465  1  0.741500  0.203900  0.343400  1.0  -0.0667
  C  C466  1  0.246400  0.380500  0.103100  1.0  0.2254
  C  C467  1  0.214700  0.633700  0.140200  1.0  0.3956
  C  C468  1  0.169500  0.677800  0.105300  1.0  0.3553
  C  C469  1  0.180300  0.680900  0.189800  1.0  0.3484
  C  C470  1  0.292900  0.527800  0.122900  1.0  0.1547
  C  C471  1  0.286300  0.551300  0.088000  1.0  -0.1438
  C  C472  1  0.261800  0.587400  0.092400  1.0  -0.0993
  C  C473  1  0.242800  0.596700  0.133100  1.0  -0.1515
  C  C474  1  0.249600  0.569200  0.167000  1.0  0.1648
  C  C475  1  0.122700  0.730000  0.980100  1.0  0.1748
  C  C476  1  0.098000  0.735600  0.015600  1.0  -0.1455
  C  C477  1  0.114300  0.718900  0.059000  1.0  0.0073
  C  C478  1  0.151000  0.696200  0.060600  1.0  -0.1433
  C  C479  1  0.170500  0.689700  0.020600  1.0  0.1526
  C  C480  1  0.140100  0.729900  0.243000  1.0  0.1839
  C  C481  1  0.171600  0.701000  0.241200  1.0  -0.1562
  C  C482  1  0.192300  0.690500  0.286600  1.0  -0.0328
  C  C483  1  0.184600  0.712900  0.334500  1.0  -0.1535
  C  C484  1  0.150600  0.738300  0.330900  1.0  0.164
  C  C485  1  0.170800  0.455700  0.232500  1.0  0.1537
  C  C486  1  0.113500  0.428800  0.218300  1.0  -0.1071
  C  C487  1  0.070500  0.397300  0.161400  1.0  -0.0253
  C  C488  1  0.084900  0.393300  0.118200  1.0  -0.1599
  C  C489  1  0.144000  0.420900  0.135700  1.0  0.1598
  C  C490  1  0.040700  0.358500  0.055600  1.0  0.4226
  C  C491  1  0.293300  0.601100  0.321400  1.0  0.1331
  C  C492  1  0.218100  0.536700  0.442000  1.0  0.0475
  C  C493  1  0.197400  0.489600  0.388600  1.0  -0.1138
  C  C494  1  0.159400  0.430500  0.368300  1.0  -0.1553
  C  C495  1  0.144100  0.420600  0.410100  1.0  -0.0855
  C  C496  1  0.162100  0.466100  0.462000  1.0  -0.1571
  C  C497  1  0.199400  0.523000  0.477200  1.0  -0.1039
  C  C498  1  0.258500  0.601900  0.462400  1.0  -0.0597
  C  C499  1  0.722600  0.619500  0.865900  1.0  0.226
  C  C500  1  0.506500  0.366300  0.581000  1.0  0.3982
  C  C501  1  0.427500  0.322200  0.491700  1.0  0.3495
  C  C502  1  0.508900  0.319100  0.499400  1.0  0.3487
  C  C503  1  0.595100  0.472200  0.765100  1.0  0.1549
  C  C504  1  0.536700  0.448700  0.735000  1.0  -0.1478
  C  C505  1  0.505000  0.412600  0.674400  1.0  -0.1055
  C  C506  1  0.536400  0.403300  0.646100  1.0  -0.1474
  C  C507  1  0.597800  0.430800  0.680400  1.0  0.1624
  C  C508  1  0.250100  0.270000  0.392700  1.0  0.1729
  C  C509  1  0.280000  0.264400  0.362400  1.0  -0.1445
  C  C510  1  0.340100  0.281100  0.395400  1.0  0.007
  C  C511  1  0.364400  0.303800  0.454800  1.0  -0.1409
  C  C512  1  0.330900  0.310300  0.480800  1.0  0.155
  C  C513  1  0.513100  0.270100  0.410200  1.0  0.1831
  C  C514  1  0.540200  0.299000  0.470600  1.0  -0.1586
  C  C515  1  0.596100  0.309500  0.501800  1.0  -0.0269
  C  C516  1  0.621600  0.287100  0.471700  1.0  -0.1542
  C  C517  1  0.592600  0.261700  0.412300  1.0  0.1715
  C  C518  1  0.776800  0.544300  0.715100  1.0  0.1552
  C  C519  1  0.789500  0.571200  0.684700  1.0  -0.107
  C  C520  1  0.764100  0.602700  0.673200  1.0  -0.0244
  C  C521  1  0.724900  0.606700  0.691600  1.0  -0.1553
  C  C522  1  0.714800  0.579100  0.723100  1.0  0.1619
  C  C523  1  0.697100  0.641500  0.682200  1.0  0.4228
  C  C524  1  0.720300  0.398900  0.692200  1.0  0.1327
  C  C525  1  0.905300  0.463300  0.681400  1.0  0.0467
  C  C526  1  0.899000  0.510400  0.707800  1.0  -0.1155
  C  C527  1  0.937800  0.569500  0.728900  1.0  -0.1572
  C  C528  1  0.989500  0.579400  0.723500  1.0  -0.081
  C  C529  1  0.995900  0.533900  0.696000  1.0  -0.1533
  C  C530  1  0.954200  0.477000  0.676400  1.0  -0.1073
  C  C531  1  0.860500  0.398100  0.656600  1.0  -0.0624
  C  C532  1  0.277400  0.143300  0.896900  1.0  0.2219
  C  C533  1  0.493500  0.074500  0.859800  1.0  0.4002
  C  C534  1  0.572500  0.064200  0.894700  1.0  0.354
  C  C535  1  0.491100  0.990500  0.810200  1.0  0.3498
  C  C536  1  0.404900  0.170000  0.877100  1.0  0.1565
  C  C537  1  0.463300  0.198300  0.912000  1.0  -0.1435
  C  C538  1  0.495000  0.169400  0.907600  1.0  -0.1022
  C  C539  1  0.463600  0.109700  0.866900  1.0  -0.1483
  C  C540  1  0.402200  0.082600  0.833000  1.0  0.1624
  C  C541  1  0.749900  0.142600  0.019900  1.0  0.1764
  C  C542  1  0.720000  0.082400  0.984400  1.0  -0.1445
  C  C543  1  0.659900  0.055300  0.941000  1.0  0.0035
  C  C544  1  0.635600  0.090400  0.939400  1.0  -0.1413
  C  C545  1  0.669100  0.149900  0.979400  1.0  0.1538
  C  C546  1  0.486900  0.897100  0.757000  1.0  0.1823
  C  C547  1  0.459800  0.930400  0.758800  1.0  -0.157
  C  C548  1  0.403900  0.905700  0.713400  1.0  -0.0332
  C  C549  1  0.378400  0.850100  0.665500  1.0  -0.1577
  C  C550  1  0.407400  0.819700  0.669100  1.0  0.1665
  C  C551  1  0.223200  0.938300  0.767500  1.0  0.1545
  C  C552  1  0.210500  0.895200  0.781700  1.0  -0.1117
  C  C553  1  0.235900  0.909100  0.838600  1.0  -0.0234
  C  C554  1  0.275100  0.966700  0.881800  1.0  -0.1581
  C  C555  1  0.285200  0.008300  0.864300  1.0  0.158
  C  C556  1  0.302900  0.985100  0.944400  1.0  0.4219
  C  C557  1  0.279700  0.971900  0.678600  1.0  0.1334
  C  C558  1  0.094700  0.776100  0.558000  1.0  0.0474
  C  C559  1  0.101000  0.808800  0.611400  1.0  -0.1184
  C  C560  1  0.062200  0.791100  0.631700  1.0  -0.151
  C  C561  1  0.010500  0.734000  0.589900  1.0  -0.0789
  C  C562  1  0.004100  0.700100  0.538000  1.0  -0.1562
  C  C563  1  0.045800  0.722200  0.522800  1.0  -0.104
  C  C564  1  0.139500  0.796100  0.537600  1.0  -0.0636
  C  C565  1  0.896900  0.277400  0.143300  1.0  0.2307
  C  C566  1  0.859800  0.493500  0.074500  1.0  0.3938
  C  C567  1  0.894700  0.572500  0.064200  1.0  0.3533
  C  C568  1  0.810200  0.491100  0.990500  1.0  0.3507
  C  C569  1  0.877100  0.404900  0.170000  1.0  0.1554
  C  C570  1  0.912000  0.463300  0.198300  1.0  -0.1458
  C  C571  1  0.907600  0.495000  0.169400  1.0  -0.1053
  C  C572  1  0.866900  0.463600  0.109700  1.0  -0.1499
  C  C573  1  0.833000  0.402200  0.082600  1.0  0.1612
  C  C574  1  0.019900  0.749900  0.142600  1.0  0.1708
  C  C575  1  0.984400  0.720000  0.082400  1.0  -0.1427
  C  C576  1  0.941000  0.659900  0.055300  1.0  0.0046
  C  C577  1  0.939400  0.635600  0.090400  1.0  -0.1411
  C  C578  1  0.979400  0.669100  0.149900  1.0  0.1553
  C  C579  1  0.757000  0.486900  0.897100  1.0  0.1839
  C  C580  1  0.758800  0.459800  0.930400  1.0  -0.1585
  C  C581  1  0.713400  0.403900  0.905700  1.0  -0.0278
  C  C582  1  0.665500  0.378400  0.850100  1.0  -0.1594
  C  C583  1  0.669100  0.407400  0.819700  1.0  0.1702
  C  C584  1  0.767500  0.223200  0.938300  1.0  0.1557
  C  C585  1  0.781700  0.210500  0.895200  1.0  -0.1107
  C  C586  1  0.838600  0.235900  0.909100  1.0  -0.0234
  C  C587  1  0.881800  0.275100  0.966700  1.0  -0.1562
  C  C588  1  0.864300  0.285200  0.008300  1.0  0.1626
  C  C589  1  0.944400  0.302900  0.985100  1.0  0.4224
  C  C590  1  0.678600  0.279700  0.971900  1.0  0.136
  C  C591  1  0.558000  0.094700  0.776100  1.0  0.0465
  C  C592  1  0.611400  0.101000  0.808800  1.0  -0.1164
  C  C593  1  0.631700  0.062200  0.791100  1.0  -0.1539
  C  C594  1  0.589900  0.010500  0.734000  1.0  -0.0807
  C  C595  1  0.538000  0.004100  0.700100  1.0  -0.1535
  C  C596  1  0.522800  0.045800  0.722200  1.0  -0.1011
  C  C597  1  0.537600  0.139500  0.796100  1.0  -0.0619
  C  C598  1  0.865900  0.722600  0.619500  1.0  0.2258
  C  C599  1  0.581000  0.506500  0.366300  1.0  0.4008
  C  C600  1  0.491700  0.427500  0.322200  1.0  0.353
  C  C601  1  0.499400  0.508900  0.319100  1.0  0.349
  C  C602  1  0.765100  0.595100  0.472200  1.0  0.156
  C  C603  1  0.735000  0.536700  0.448700  1.0  -0.1497
  C  C604  1  0.674400  0.505000  0.412600  1.0  -0.1064
  C  C605  1  0.646100  0.536400  0.403300  1.0  -0.148
  C  C606  1  0.680400  0.597800  0.430800  1.0  0.1619
  C  C607  1  0.392700  0.250100  0.270000  1.0  0.1726
  C  C608  1  0.362400  0.280000  0.264400  1.0  -0.1466
  C  C609  1  0.395400  0.340100  0.281100  1.0  0.0058
  C  C610  1  0.454800  0.364400  0.303800  1.0  -0.1432
  C  C611  1  0.480800  0.330900  0.310300  1.0  0.1545
  C  C612  1  0.410200  0.513100  0.270100  1.0  0.1838
  C  C613  1  0.470600  0.540200  0.299000  1.0  -0.1553
  C  C614  1  0.501800  0.596100  0.309500  1.0  -0.0283
  C  C615  1  0.471700  0.621600  0.287100  1.0  -0.1567
  C  C616  1  0.412300  0.592600  0.261700  1.0  0.1676
  C  C617  1  0.715100  0.776800  0.544300  1.0  0.1556
  C  C618  1  0.684700  0.789500  0.571200  1.0  -0.111
  C  C619  1  0.673200  0.764100  0.602700  1.0  -0.0219
  C  C620  1  0.691600  0.724900  0.606700  1.0  -0.1595
  C  C621  1  0.723100  0.714800  0.579100  1.0  0.1592
  C  C622  1  0.682200  0.697100  0.641500  1.0  0.423
  C  C623  1  0.692200  0.720300  0.398900  1.0  0.1327
  C  C624  1  0.681400  0.905300  0.463300  1.0  0.0481
  C  C625  1  0.707800  0.899000  0.510400  1.0  -0.1151
  C  C626  1  0.728900  0.937800  0.569500  1.0  -0.1516
  C  C627  1  0.723500  0.989500  0.579400  1.0  -0.0752
  C  C628  1  0.696000  0.995900  0.533900  1.0  -0.1561
  C  C629  1  0.676400  0.954200  0.477000  1.0  -0.1001
  C  C630  1  0.656600  0.860500  0.398100  1.0  -0.0671
  C  C631  1  0.103100  0.246400  0.380500  1.0  0.2259
  C  C632  1  0.140200  0.214700  0.633700  1.0  0.3952
  C  C633  1  0.105300  0.169500  0.677800  1.0  0.3562
  C  C634  1  0.189800  0.180300  0.680900  1.0  0.3479
  C  C635  1  0.122900  0.292900  0.527800  1.0  0.1572
  C  C636  1  0.088000  0.286300  0.551300  1.0  -0.1488
  C  C637  1  0.092400  0.261800  0.587400  1.0  -0.1019
  C  C638  1  0.133100  0.242800  0.596700  1.0  -0.1509
  C  C639  1  0.167000  0.249600  0.569200  1.0  0.1614
  C  C640  1  0.980100  0.122700  0.730000  1.0  0.1727
  C  C641  1  0.015600  0.098000  0.735600  1.0  -0.1384
  C  C642  1  0.059000  0.114300  0.718900  1.0  0.0072
  C  C643  1  0.060600  0.151000  0.696200  1.0  -0.1405
  C  C644  1  0.020600  0.170500  0.689700  1.0  0.1544
  C  C645  1  0.243000  0.140100  0.729900  1.0  0.185
  C  C646  1  0.241200  0.171600  0.701000  1.0  -0.1573
  C  C647  1  0.286600  0.192300  0.690500  1.0  -0.0345
  C  C648  1  0.334500  0.184600  0.712900  1.0  -0.1571
  C  C649  1  0.330900  0.150600  0.738300  1.0  0.1678
  C  C650  1  0.232500  0.170800  0.455700  1.0  0.1536
  C  C651  1  0.218300  0.113500  0.428800  1.0  -0.1056
  C  C652  1  0.161400  0.070500  0.397300  1.0  -0.026
  C  C653  1  0.118200  0.084900  0.393300  1.0  -0.1565
  C  C654  1  0.135700  0.144000  0.420900  1.0  0.1594
  C  C655  1  0.055600  0.040700  0.358500  1.0  0.4221
  C  C656  1  0.321400  0.293300  0.601100  1.0  0.1311
  C  C657  1  0.442000  0.218100  0.536700  1.0  0.0452
  C  C658  1  0.388600  0.197400  0.489600  1.0  -0.1143
  C  C659  1  0.368300  0.159400  0.430500  1.0  -0.1572
  C  C660  1  0.410100  0.144100  0.420600  1.0  -0.0797
  C  C661  1  0.462000  0.162100  0.466100  1.0  -0.1536
  C  C662  1  0.477200  0.199400  0.523000  1.0  -0.0988
  C  C663  1  0.462400  0.258500  0.601900  1.0  -0.0628
  C  C664  1  0.134100  0.753600  0.856700  1.0  0.228
  C  C665  1  0.419000  0.785300  0.925500  1.0  0.3987
  C  C666  1  0.508300  0.830500  0.935800  1.0  0.3567
  C  C667  1  0.500600  0.819700  0.009500  1.0  0.35
  C  C668  1  0.234900  0.707100  0.830000  1.0  0.1557
  C  C669  1  0.265000  0.713700  0.801700  1.0  -0.1422
  C  C670  1  0.325600  0.738200  0.830600  1.0  -0.0984
  C  C671  1  0.353900  0.757200  0.890300  1.0  -0.1486
  C  C672  1  0.319600  0.750400  0.917400  1.0  0.1659
  C  C673  1  0.607300  0.877300  0.857400  1.0  0.1761
  C  C674  1  0.637600  0.902000  0.917600  1.0  -0.146
  C  C675  1  0.604600  0.885700  0.944700  1.0  0.0064
  C  C676  1  0.545200  0.849000  0.909600  1.0  -0.144
  C  C677  1  0.519200  0.829500  0.850100  1.0  0.1541
  C  C678  1  0.589800  0.859900  0.102900  1.0  0.1823
  C  C679  1  0.529400  0.828400  0.069600  1.0  -0.1595
  C  C680  1  0.498200  0.807700  0.094300  1.0  -0.035
  C  C681  1  0.528300  0.815400  0.149900  1.0  -0.1564
  C  C682  1  0.587700  0.849400  0.180300  1.0  0.1644
  C  C683  1  0.284900  0.829200  0.061700  1.0  0.1526
  C  C684  1  0.315300  0.886500  0.104800  1.0  -0.1079
  C  C685  1  0.326800  0.929500  0.090900  1.0  -0.0235
  C  C686  1  0.308400  0.915100  0.033300  1.0  -0.1555
  C  C687  1  0.276900  0.856000  0.991700  1.0  0.1595
  C  C688  1  0.317800  0.959300  0.014900  1.0  0.417
  C  C689  1  0.307800  0.706700  0.028100  1.0  0.1342
  C  C690  1  0.318600  0.781900  0.223900  1.0  0.046
  C  C691  1  0.292200  0.802600  0.191200  1.0  -0.1135
  C  C692  1  0.271100  0.840600  0.208900  1.0  -0.1597
  C  C693  1  0.276500  0.855900  0.266000  1.0  -0.0807
  C  C694  1  0.304000  0.837900  0.299900  1.0  -0.151
  C  C695  1  0.323600  0.800600  0.277800  1.0  -0.1003
  C  C696  1  0.343400  0.741500  0.203900  1.0  -0.062
  S  S697  1  0.674000  0.894800  0.713600  1.0  -0.2189
  S  S698  1  0.366480  0.641260  0.735980  1.0  0.1026
  S  S699  1  0.181200  0.960400  0.286400  1.0  -0.2117
  S  S700  1  0.905280  0.630500  0.264020  1.0  0.1
  S  S701  1  0.818800  0.105200  0.779200  1.0  -0.2205
  S  S702  1  0.094720  0.358740  0.725220  1.0  0.1023
  S  S703  1  0.326000  0.039600  0.220800  1.0  -0.218
  S  S704  1  0.633520  0.369500  0.274780  1.0  0.1051
  S  S705  1  0.779200  0.818800  0.105200  1.0  -0.2175
  S  S706  1  0.725220  0.094720  0.358740  1.0  0.0989
  S  S707  1  0.220800  0.326000  0.039600  1.0  -0.2183
  S  S708  1  0.274780  0.633520  0.369500  1.0  0.1032
  S  S709  1  0.713600  0.674000  0.894800  1.0  -0.2182
  S  S710  1  0.735980  0.366480  0.641260  1.0  0.1019
  S  S711  1  0.286400  0.181200  0.960400  1.0  -0.2131
  S  S712  1  0.264020  0.905280  0.630500  1.0  0.1058
  S  S713  1  0.960400  0.286400  0.181200  1.0  -0.2123
  S  S714  1  0.630500  0.264020  0.905280  1.0  0.1011
  S  S715  1  0.894800  0.713600  0.674000  1.0  -0.2188
  S  S716  1  0.641260  0.735980  0.366480  1.0  0.1024
  S  S717  1  0.039600  0.220800  0.326000  1.0  -0.2161
  S  S718  1  0.369500  0.274780  0.633520  1.0  0.1016
  S  S719  1  0.105200  0.779200  0.818800  1.0  -0.2199
  S  S720  1  0.358740  0.725220  0.094720  1.0  0.1074
  N  N721  1  0.579600  0.847200  0.728400  1.0  -0.4266
  N  N722  1  0.465800  0.738550  0.627350  1.0  -0.3214
  N  N723  1  0.349900  0.558300  0.538200  1.0  -0.5319
  N  N724  1  0.353700  0.551400  0.451700  1.0  -0.4785
  N  N725  1  0.306500  0.465300  0.455000  1.0  -0.4303
  N  N726  1  0.292600  0.449900  0.273700  1.0  -0.3116
  N  N727  1  0.253200  0.380200  0.539000  1.0  -0.331
  N  N728  1  0.547300  0.736200  0.739700  1.0  -0.3466
  N  N729  1  0.647600  0.706300  0.664100  1.0  -0.4363
  N  N730  1  0.431900  0.729200  0.718500  1.0  -0.4536
  N  N731  1  0.118800  0.851200  0.271600  1.0  -0.4247
  N  N732  1  0.111200  0.838450  0.372650  1.0  -0.3242
  N  N733  1  0.020100  0.811700  0.461800  1.0  -0.5308
  N  N734  1  0.099700  0.902000  0.548300  1.0  -0.4752
  N  N735  1  0.010300  0.851500  0.545000  1.0  -0.4308
  N  N736  1  0.176200  0.018900  0.726300  1.0  -0.3093
  N  N737  1  0.841200  0.714200  0.461000  1.0  -0.3302
  N  N738  1  0.996500  0.807600  0.260300  1.0  -0.3467
  N  N739  1  0.042200  0.983500  0.335900  1.0  -0.423
  N  N740  1  0.010700  0.713400  0.281500  1.0  -0.451
  N  N741  1  0.881200  0.152800  0.732400  1.0  -0.4277
  N  N742  1  0.888800  0.261450  0.727250  1.0  -0.3214
  N  N743  1  0.979900  0.441700  0.791600  1.0  -0.5282
  N  N744  1  0.900300  0.448600  0.802300  1.0  -0.4718
  N  N745  1  0.989700  0.534700  0.841200  1.0  -0.4334
  N  N746  1  0.823800  0.550100  0.842700  1.0  -0.3105
  N  N747  1  0.158800  0.619800  0.873000  1.0  -0.3303
  N  N748  1  0.003500  0.263800  0.811100  1.0  -0.3463
  N  N749  1  0.957800  0.293700  0.941300  1.0  -0.4371
  N  N750  1  0.989300  0.270800  0.702700  1.0  -0.4515
  N  N751  1  0.420400  0.148800  0.267600  1.0  -0.4268
  N  N752  1  0.534200  0.161550  0.272750  1.0  -0.3206
  N  N753  1  0.650100  0.188300  0.208400  1.0  -0.5269
  N  N754  1  0.646300  0.098000  0.197700  1.0  -0.4742
  N  N755  1  0.693500  0.148500  0.158800  1.0  -0.4333
  N  N756  1  0.707400  0.981100  0.157300  1.0  -0.3106
  N  N757  1  0.746800  0.285800  0.127000  1.0  -0.3301
  N  N758  1  0.452700  0.192400  0.188900  1.0  -0.3475
  N  N759  1  0.352400  0.016500  0.058700  1.0  -0.423
  N  N760  1  0.568100  0.286600  0.297300  1.0  -0.453
  N  N761  1  0.732400  0.881200  0.152800  1.0  -0.4276
  N  N762  1  0.727250  0.888800  0.261450  1.0  -0.3229
  N  N763  1  0.791600  0.979900  0.441700  1.0  -0.5319
  N  N764  1  0.802300  0.900300  0.448600  1.0  -0.4764
  N  N765  1  0.841200  0.989700  0.534700  1.0  -0.4336
  N  N766  1  0.842700  0.823800  0.550100  1.0  -0.31
  N  N767  1  0.873000  0.158800  0.619800  1.0  -0.3323
  N  N768  1  0.811100  0.003500  0.263800  1.0  -0.3468
  N  N769  1  0.941300  0.957800  0.293700  1.0  -0.4321
  N  N770  1  0.702700  0.989300  0.270800  1.0  -0.4532
  N  N771  1  0.267600  0.420400  0.148800  1.0  -0.4266
  N  N772  1  0.272750  0.534200  0.161550  1.0  -0.322
  N  N773  1  0.208400  0.650100  0.188300  1.0  -0.5353
  N  N774  1  0.197700  0.646300  0.098000  1.0  -0.4789
  N  N775  1  0.158800  0.693500  0.148500  1.0  -0.4318
  N  N776  1  0.157300  0.707400  0.981100  1.0  -0.3114
  N  N777  1  0.127000  0.746800  0.285800  1.0  -0.3289
  N  N778  1  0.188900  0.452700  0.192400  1.0  -0.3465
  N  N779  1  0.058700  0.352400  0.016500  1.0  -0.4221
  N  N780  1  0.297300  0.568100  0.286600  1.0  -0.4518
  N  N781  1  0.728400  0.579600  0.847200  1.0  -0.4256
  N  N782  1  0.627350  0.465800  0.738550  1.0  -0.3205
  N  N783  1  0.538200  0.349900  0.558300  1.0  -0.5325
  N  N784  1  0.451700  0.353700  0.551400  1.0  -0.4773
  N  N785  1  0.455000  0.306500  0.465300  1.0  -0.4397
  N  N786  1  0.273700  0.292600  0.449900  1.0  -0.3098
  N  N787  1  0.539000  0.253200  0.380200  1.0  -0.3329
  N  N788  1  0.739700  0.547300  0.736200  1.0  -0.3475
  N  N789  1  0.664100  0.647600  0.706300  1.0  -0.4308
  N  N790  1  0.718500  0.431900  0.729200  1.0  -0.455
  N  N791  1  0.271600  0.118800  0.851200  1.0  -0.4257
  N  N792  1  0.372650  0.111200  0.838450  1.0  -0.321
  N  N793  1  0.461800  0.020100  0.811700  1.0  -0.5274
  N  N794  1  0.548300  0.099700  0.902000  1.0  -0.4704
  N  N795  1  0.545000  0.010300  0.851500  1.0  -0.429
  N  N796  1  0.726300  0.176200  0.018900  1.0  -0.3107
  N  N797  1  0.461000  0.841200  0.714200  1.0  -0.3304
  N  N798  1  0.260300  0.996500  0.807600  1.0  -0.3479
  N  N799  1  0.335900  0.042200  0.983500  1.0  -0.4177
  N  N800  1  0.281500  0.010700  0.713400  1.0  -0.4521
  N  N801  1  0.851200  0.271600  0.118800  1.0  -0.4259
  N  N802  1  0.838450  0.372650  0.111200  1.0  -0.3209
  N  N803  1  0.811700  0.461800  0.020100  1.0  -0.5294
  N  N804  1  0.902000  0.548300  0.099700  1.0  -0.4762
  N  N805  1  0.851500  0.545000  0.010300  1.0  -0.4329
  N  N806  1  0.018900  0.726300  0.176200  1.0  -0.3081
  N  N807  1  0.714200  0.461000  0.841200  1.0  -0.3322
  N  N808  1  0.807600  0.260300  0.996500  1.0  -0.3484
  N  N809  1  0.983500  0.335900  0.042200  1.0  -0.4201
  N  N810  1  0.713400  0.281500  0.010700  1.0  -0.4536
  N  N811  1  0.847200  0.728400  0.579600  1.0  -0.4265
  N  N812  1  0.738550  0.627350  0.465800  1.0  -0.3197
  N  N813  1  0.558300  0.538200  0.349900  1.0  -0.5293
  N  N814  1  0.551400  0.451700  0.353700  1.0  -0.47
  N  N815  1  0.465300  0.455000  0.306500  1.0  -0.4306
  N  N816  1  0.449900  0.273700  0.292600  1.0  -0.3094
  N  N817  1  0.380200  0.539000  0.253200  1.0  -0.3306
  N  N818  1  0.736200  0.739700  0.547300  1.0  -0.3485
  N  N819  1  0.706300  0.664100  0.647600  1.0  -0.4363
  N  N820  1  0.729200  0.718500  0.431900  1.0  -0.4504
  N  N821  1  0.148800  0.267600  0.420400  1.0  -0.426
  N  N822  1  0.161550  0.272750  0.534200  1.0  -0.3221
  N  N823  1  0.188300  0.208400  0.650100  1.0  -0.5318
  N  N824  1  0.098000  0.197700  0.646300  1.0  -0.4782
  N  N825  1  0.148500  0.158800  0.693500  1.0  -0.4352
  N  N826  1  0.981100  0.157300  0.707400  1.0  -0.3109
  N  N827  1  0.285800  0.127000  0.746800  1.0  -0.3328
  N  N828  1  0.192400  0.188900  0.452700  1.0  -0.3477
  N  N829  1  0.016500  0.058700  0.352400  1.0  -0.4234
  N  N830  1  0.286600  0.297300  0.568100  1.0  -0.4541
  N  N831  1  0.152800  0.732400  0.881200  1.0  -0.4268
  N  N832  1  0.261450  0.727250  0.888800  1.0  -0.321
  N  N833  1  0.441700  0.791600  0.979900  1.0  -0.531
  N  N834  1  0.448600  0.802300  0.900300  1.0  -0.4815
  N  N835  1  0.534700  0.841200  0.989700  1.0  -0.4342
  N  N836  1  0.550100  0.842700  0.823800  1.0  -0.3126
  N  N837  1  0.619800  0.873000  0.158800  1.0  -0.3298
  N  N838  1  0.263800  0.811100  0.003500  1.0  -0.3483
  N  N839  1  0.293700  0.941300  0.957800  1.0  -0.435
  N  N840  1  0.270800  0.702700  0.989300  1.0  -0.4553
  O  O841  1  0.385000  0.627500  0.800700  1.0  -0.5715
  O  O842  1  0.826800  0.584300  0.199300  1.0  -0.5715
  O  O843  1  0.173200  0.372500  0.757500  1.0  -0.5703
  O  O844  1  0.615000  0.415700  0.242500  1.0  -0.5689
  O  O845  1  0.757500  0.173200  0.372500  1.0  -0.5702
  O  O846  1  0.242500  0.615000  0.415700  1.0  -0.5698
  O  O847  1  0.800700  0.385000  0.627500  1.0  -0.5691
  O  O848  1  0.199300  0.826800  0.584300  1.0  -0.5752
  O  O849  1  0.584300  0.199300  0.826800  1.0  -0.5705
  O  O850  1  0.627500  0.800700  0.385000  1.0  -0.5729
  O  O851  1  0.415700  0.242500  0.615000  1.0  -0.5717
  O  O852  1  0.372500  0.757500  0.173200  1.0  -0.5694
