# generated using pymatgen
data_Cu2H9C13N2O7
_symmetry_space_group_name_H-M   'P 1'
_cell_length_a   24.49400000
_cell_length_b   24.49400000
_cell_length_c   24.49400000
_cell_angle_alpha   90.00000000
_cell_angle_beta   90.00000000
_cell_angle_gamma   90.00000000
_symmetry_Int_Tables_number   1
_chemical_formula_structural   Cu2H9C13N2O7
_chemical_formula_sum   'Cu48 H216 C312 N48 O168'
_cell_volume   14695.32314578
_cell_formula_units_Z   24
loop_
 _symmetry_equiv_pos_site_id
 _symmetry_equiv_pos_as_xyz
  1  'x, y, z'
loop_
 _atom_site_type_symbol
 _atom_site_label
 _atom_site_symmetry_multiplicity
 _atom_site_fract_x
 _atom_site_fract_y
 _atom_site_fract_z
 _atom_site_occupancy
 _atom_site_charge
  Cu  Cu1  1  0.202660  0.484100  0.146120  1.0  0.9116
  Cu  Cu2  1  0.214020  0.383050  0.056310  1.0  0.8738
  Cu  Cu3  1  0.297340  0.515900  0.646120  1.0  0.9126
  Cu  Cu4  1  0.285980  0.616950  0.556310  1.0  0.8736
  Cu  Cu5  1  0.797340  0.984100  0.353880  1.0  0.9121
  Cu  Cu6  1  0.785980  0.883050  0.443690  1.0  0.8723
  Cu  Cu7  1  0.702660  0.015900  0.853880  1.0  0.9124
  Cu  Cu8  1  0.714020  0.116950  0.943690  1.0  0.8741
  Cu  Cu9  1  0.146120  0.202660  0.484100  1.0  0.909
  Cu  Cu10  1  0.056310  0.214020  0.383050  1.0  0.8726
  Cu  Cu11  1  0.646120  0.297340  0.515900  1.0  0.9091
  Cu  Cu12  1  0.556310  0.285980  0.616950  1.0  0.8693
  Cu  Cu13  1  0.353880  0.797340  0.984100  1.0  0.9091
  Cu  Cu14  1  0.443690  0.785980  0.883050  1.0  0.8684
  Cu  Cu15  1  0.853880  0.702660  0.015900  1.0  0.9087
  Cu  Cu16  1  0.943690  0.714020  0.116950  1.0  0.8708
  Cu  Cu17  1  0.484100  0.146120  0.202660  1.0  0.9156
  Cu  Cu18  1  0.383050  0.056310  0.214020  1.0  0.8763
  Cu  Cu19  1  0.515900  0.646120  0.297340  1.0  0.9165
  Cu  Cu20  1  0.616950  0.556310  0.285980  1.0  0.8763
  Cu  Cu21  1  0.984100  0.353880  0.797340  1.0  0.9148
  Cu  Cu22  1  0.883050  0.443690  0.785980  1.0  0.8756
  Cu  Cu23  1  0.015900  0.853880  0.702660  1.0  0.9163
  Cu  Cu24  1  0.116950  0.943690  0.714020  1.0  0.875
  Cu  Cu25  1  0.797340  0.515900  0.853880  1.0  0.9127
  Cu  Cu26  1  0.785980  0.616950  0.943690  1.0  0.8733
  Cu  Cu27  1  0.702660  0.484100  0.353880  1.0  0.912
  Cu  Cu28  1  0.714020  0.383050  0.443690  1.0  0.8735
  Cu  Cu29  1  0.202660  0.015900  0.646120  1.0  0.9121
  Cu  Cu30  1  0.214020  0.116950  0.556310  1.0  0.8744
  Cu  Cu31  1  0.297340  0.984100  0.146120  1.0  0.9121
  Cu  Cu32  1  0.285980  0.883050  0.056310  1.0  0.8725
  Cu  Cu33  1  0.853880  0.797340  0.515900  1.0  0.9088
  Cu  Cu34  1  0.943690  0.785980  0.616950  1.0  0.868
  Cu  Cu35  1  0.353880  0.702660  0.484100  1.0  0.9088
  Cu  Cu36  1  0.443690  0.714020  0.383050  1.0  0.871
  Cu  Cu37  1  0.646120  0.202660  0.015900  1.0  0.9089
  Cu  Cu38  1  0.556310  0.214020  0.116950  1.0  0.8723
  Cu  Cu39  1  0.146120  0.297340  0.984100  1.0  0.9094
  Cu  Cu40  1  0.056310  0.285980  0.883050  1.0  0.8699
  Cu  Cu41  1  0.515900  0.853880  0.797340  1.0  0.9166
  Cu  Cu42  1  0.616950  0.943690  0.785980  1.0  0.8762
  Cu  Cu43  1  0.484100  0.353880  0.702660  1.0  0.9157
  Cu  Cu44  1  0.383050  0.443690  0.714020  1.0  0.8763
  Cu  Cu45  1  0.015900  0.646120  0.202660  1.0  0.9162
  Cu  Cu46  1  0.116950  0.556310  0.214020  1.0  0.8748
  Cu  Cu47  1  0.984100  0.146120  0.297340  1.0  0.9145
  Cu  Cu48  1  0.883050  0.056310  0.285980  1.0  0.8759
  H  H49  1  0.232300  0.288300  0.149400  1.0  0.1142
  H  H50  1  0.234100  0.311400  0.248200  1.0  0.126
  H  H51  1  0.227000  0.412100  0.253100  1.0  0.1226
  H  H52  1  0.137300  0.456300  0.010100  1.0  0.1331
  H  H53  1  0.155400  0.513500  0.032400  1.0  0.1361
  H  H54  1  0.108600  0.481100  0.061600  1.0  0.1588
  H  H55  1  0.134000  0.392100  0.893600  1.0  0.2125
  H  H56  1  0.285600  0.440900  0.857400  1.0  0.1283
  H  H57  1  0.167000  0.444000  0.742000  1.0  0.1313
  H  H58  1  0.267700  0.711700  0.649400  1.0  0.1135
  H  H59  1  0.265900  0.688600  0.748200  1.0  0.1255
  H  H60  1  0.273000  0.587900  0.753100  1.0  0.1231
  H  H61  1  0.362700  0.543700  0.510100  1.0  0.1343
  H  H62  1  0.344600  0.486500  0.532400  1.0  0.1369
  H  H63  1  0.391400  0.518900  0.561600  1.0  0.1608
  H  H64  1  0.366000  0.607900  0.393600  1.0  0.2128
  H  H65  1  0.214400  0.559100  0.357400  1.0  0.1284
  H  H66  1  0.333000  0.556000  0.242000  1.0  0.1319
  H  H67  1  0.767700  0.788300  0.350600  1.0  0.114
  H  H68  1  0.765900  0.811400  0.251800  1.0  0.1249
  H  H69  1  0.773000  0.912100  0.246900  1.0  0.1227
  H  H70  1  0.862700  0.956300  0.489900  1.0  0.1334
  H  H71  1  0.844600  0.013500  0.467600  1.0  0.1347
  H  H72  1  0.891400  0.981100  0.438400  1.0  0.1606
  H  H73  1  0.866000  0.892100  0.606400  1.0  0.213
  H  H74  1  0.714400  0.940900  0.642600  1.0  0.1285
  H  H75  1  0.833000  0.944000  0.758000  1.0  0.1314
  H  H76  1  0.732300  0.211700  0.850600  1.0  0.1137
  H  H77  1  0.734100  0.188600  0.751800  1.0  0.1252
  H  H78  1  0.727000  0.087900  0.746900  1.0  0.1228
  H  H79  1  0.637300  0.043700  0.989900  1.0  0.1334
  H  H80  1  0.655400  0.986500  0.967600  1.0  0.1379
  H  H81  1  0.608600  0.018900  0.938400  1.0  0.1581
  H  H82  1  0.634000  0.107900  0.106400  1.0  0.2139
  H  H83  1  0.785600  0.059100  0.142600  1.0  0.1287
  H  H84  1  0.667000  0.056000  0.258000  1.0  0.1316
  H  H85  1  0.149400  0.232300  0.288300  1.0  0.1127
  H  H86  1  0.248200  0.234100  0.311400  1.0  0.1236
  H  H87  1  0.253100  0.227000  0.412100  1.0  0.122
  H  H88  1  0.010100  0.137300  0.456300  1.0  0.1353
  H  H89  1  0.032400  0.155400  0.513500  1.0  0.1358
  H  H90  1  0.061600  0.108600  0.481100  1.0  0.1608
  H  H91  1  0.893600  0.134000  0.392100  1.0  0.2136
  H  H92  1  0.857400  0.285600  0.440900  1.0  0.1286
  H  H93  1  0.742000  0.167000  0.444000  1.0  0.132
  H  H94  1  0.649400  0.267700  0.711700  1.0  0.1126
  H  H95  1  0.748200  0.265900  0.688600  1.0  0.1243
  H  H96  1  0.753100  0.273000  0.587900  1.0  0.1217
  H  H97  1  0.510100  0.362700  0.543700  1.0  0.1339
  H  H98  1  0.532400  0.344600  0.486500  1.0  0.1369
  H  H99  1  0.561600  0.391400  0.518900  1.0  0.1624
  H  H100  1  0.393600  0.366000  0.607900  1.0  0.2137
  H  H101  1  0.357400  0.214400  0.559100  1.0  0.1298
  H  H102  1  0.242000  0.333000  0.556000  1.0  0.1316
  H  H103  1  0.350600  0.767700  0.788300  1.0  0.1124
  H  H104  1  0.251800  0.765900  0.811400  1.0  0.1242
  H  H105  1  0.246900  0.773000  0.912100  1.0  0.1231
  H  H106  1  0.489900  0.862700  0.956300  1.0  0.1366
  H  H107  1  0.467600  0.844600  0.013500  1.0  0.1366
  H  H108  1  0.438400  0.891400  0.981100  1.0  0.1621
  H  H109  1  0.606400  0.866000  0.892100  1.0  0.2142
  H  H110  1  0.642600  0.714400  0.940900  1.0  0.1289
  H  H111  1  0.758000  0.833000  0.944000  1.0  0.132
  H  H112  1  0.850600  0.732300  0.211700  1.0  0.1124
  H  H113  1  0.751800  0.734100  0.188600  1.0  0.124
  H  H114  1  0.746900  0.727000  0.087900  1.0  0.1225
  H  H115  1  0.989900  0.637300  0.043700  1.0  0.1365
  H  H116  1  0.967600  0.655400  0.986500  1.0  0.1376
  H  H117  1  0.938400  0.608600  0.018900  1.0  0.1612
  H  H118  1  0.106400  0.634000  0.107900  1.0  0.2142
  H  H119  1  0.142600  0.785600  0.059100  1.0  0.1283
  H  H120  1  0.258000  0.667000  0.056000  1.0  0.132
  H  H121  1  0.288300  0.149400  0.232300  1.0  0.1135
  H  H122  1  0.311400  0.248200  0.234100  1.0  0.1269
  H  H123  1  0.412100  0.253100  0.227000  1.0  0.1243
  H  H124  1  0.456300  0.010100  0.137300  1.0  0.1383
  H  H125  1  0.513500  0.032400  0.155400  1.0  0.1366
  H  H126  1  0.481100  0.061600  0.108600  1.0  0.1593
  H  H127  1  0.392100  0.893600  0.134000  1.0  0.2148
  H  H128  1  0.440900  0.857400  0.285600  1.0  0.1285
  H  H129  1  0.444000  0.742000  0.167000  1.0  0.1329
  H  H130  1  0.711700  0.649400  0.267700  1.0  0.1141
  H  H131  1  0.688600  0.748200  0.265900  1.0  0.1262
  H  H132  1  0.587900  0.753100  0.273000  1.0  0.1241
  H  H133  1  0.543700  0.510100  0.362700  1.0  0.1365
  H  H134  1  0.486500  0.532400  0.344600  1.0  0.1373
  H  H135  1  0.518900  0.561600  0.391400  1.0  0.1605
  H  H136  1  0.607900  0.393600  0.366000  1.0  0.2134
  H  H137  1  0.559100  0.357400  0.214400  1.0  0.1277
  H  H138  1  0.556000  0.242000  0.333000  1.0  0.1327
  H  H139  1  0.788300  0.350600  0.767700  1.0  0.1134
  H  H140  1  0.811400  0.251800  0.765900  1.0  0.1261
  H  H141  1  0.912100  0.246900  0.773000  1.0  0.125
  H  H142  1  0.956300  0.489900  0.862700  1.0  0.1384
  H  H143  1  0.013500  0.467600  0.844600  1.0  0.1365
  H  H144  1  0.981100  0.438400  0.891400  1.0  0.1604
  H  H145  1  0.892100  0.606400  0.866000  1.0  0.2136
  H  H146  1  0.940900  0.642600  0.714400  1.0  0.1282
  H  H147  1  0.944000  0.758000  0.833000  1.0  0.1321
  H  H148  1  0.211700  0.850600  0.732300  1.0  0.1133
  H  H149  1  0.188600  0.751800  0.734100  1.0  0.1263
  H  H150  1  0.087900  0.746900  0.727000  1.0  0.1244
  H  H151  1  0.043700  0.989900  0.637300  1.0  0.1358
  H  H152  1  0.986500  0.967600  0.655400  1.0  0.137
  H  H153  1  0.018900  0.938400  0.608600  1.0  0.1599
  H  H154  1  0.107900  0.106400  0.634000  1.0  0.2138
  H  H155  1  0.059100  0.142600  0.785600  1.0  0.1294
  H  H156  1  0.056000  0.258000  0.667000  1.0  0.1322
  H  H157  1  0.767700  0.711700  0.850600  1.0  0.1135
  H  H158  1  0.765900  0.688600  0.751800  1.0  0.1245
  H  H159  1  0.773000  0.587900  0.746900  1.0  0.1227
  H  H160  1  0.862700  0.543700  0.989900  1.0  0.1342
  H  H161  1  0.844600  0.486500  0.967600  1.0  0.1372
  H  H162  1  0.891400  0.518900  0.938400  1.0  0.1594
  H  H163  1  0.866000  0.607900  0.106400  1.0  0.2137
  H  H164  1  0.714400  0.559100  0.142600  1.0  0.1284
  H  H165  1  0.833000  0.556000  0.258000  1.0  0.1315
  H  H166  1  0.732300  0.288300  0.350600  1.0  0.1141
  H  H167  1  0.734100  0.311400  0.251800  1.0  0.1251
  H  H168  1  0.727000  0.412100  0.246900  1.0  0.1225
  H  H169  1  0.637300  0.456300  0.489900  1.0  0.1334
  H  H170  1  0.655400  0.513500  0.467600  1.0  0.1349
  H  H171  1  0.608600  0.481100  0.438400  1.0  0.1577
  H  H172  1  0.634000  0.392100  0.606400  1.0  0.2138
  H  H173  1  0.785600  0.440900  0.642600  1.0  0.1289
  H  H174  1  0.667000  0.444000  0.758000  1.0  0.1314
  H  H175  1  0.232300  0.211700  0.649400  1.0  0.1137
  H  H176  1  0.234100  0.188600  0.748200  1.0  0.1259
  H  H177  1  0.227000  0.087900  0.753100  1.0  0.1226
  H  H178  1  0.137300  0.043700  0.510100  1.0  0.1336
  H  H179  1  0.155400  0.986500  0.532400  1.0  0.1381
  H  H180  1  0.108600  0.018900  0.561600  1.0  0.1578
  H  H181  1  0.134000  0.107900  0.393600  1.0  0.2127
  H  H182  1  0.285600  0.059100  0.357400  1.0  0.1285
  H  H183  1  0.167000  0.056000  0.242000  1.0  0.131
  H  H184  1  0.267700  0.788300  0.149400  1.0  0.1141
  H  H185  1  0.265900  0.811400  0.248200  1.0  0.1261
  H  H186  1  0.273000  0.912100  0.253100  1.0  0.1227
  H  H187  1  0.362700  0.956300  0.010100  1.0  0.1331
  H  H188  1  0.344600  0.013500  0.032400  1.0  0.1354
  H  H189  1  0.391400  0.981100  0.061600  1.0  0.1593
  H  H190  1  0.366000  0.892100  0.893600  1.0  0.2125
  H  H191  1  0.214400  0.940900  0.857400  1.0  0.1283
  H  H192  1  0.333000  0.944000  0.742000  1.0  0.1319
  H  H193  1  0.850600  0.767700  0.711700  1.0  0.1125
  H  H194  1  0.751800  0.765900  0.688600  1.0  0.1245
  H  H195  1  0.746900  0.773000  0.587900  1.0  0.1228
  H  H196  1  0.989900  0.862700  0.543700  1.0  0.1364
  H  H197  1  0.967600  0.844600  0.486500  1.0  0.1378
  H  H198  1  0.938400  0.891400  0.518900  1.0  0.162
  H  H199  1  0.106400  0.866000  0.607900  1.0  0.2146
  H  H200  1  0.142600  0.714400  0.559100  1.0  0.129
  H  H201  1  0.258000  0.833000  0.556000  1.0  0.1325
  H  H202  1  0.350600  0.732300  0.288300  1.0  0.1125
  H  H203  1  0.251800  0.734100  0.311400  1.0  0.124
  H  H204  1  0.246900  0.727000  0.412100  1.0  0.1224
  H  H205  1  0.489900  0.637300  0.456300  1.0  0.1364
  H  H206  1  0.467600  0.655400  0.513500  1.0  0.1364
  H  H207  1  0.438400  0.608600  0.481100  1.0  0.1599
  H  H208  1  0.606400  0.634000  0.392100  1.0  0.2141
  H  H209  1  0.642600  0.785600  0.440900  1.0  0.1284
  H  H210  1  0.758000  0.667000  0.444000  1.0  0.1322
  H  H211  1  0.649400  0.232300  0.211700  1.0  0.1126
  H  H212  1  0.748200  0.234100  0.188600  1.0  0.1237
  H  H213  1  0.753100  0.227000  0.087900  1.0  0.1221
  H  H214  1  0.510100  0.137300  0.043700  1.0  0.1337
  H  H215  1  0.532400  0.155400  0.986500  1.0  0.1365
  H  H216  1  0.561600  0.108600  0.018900  1.0  0.1597
  H  H217  1  0.393600  0.134000  0.107900  1.0  0.2137
  H  H218  1  0.357400  0.285600  0.059100  1.0  0.1287
  H  H219  1  0.242000  0.167000  0.056000  1.0  0.1316
  H  H220  1  0.149400  0.267700  0.788300  1.0  0.1125
  H  H221  1  0.248200  0.265900  0.811400  1.0  0.1239
  H  H222  1  0.253100  0.273000  0.912100  1.0  0.122
  H  H223  1  0.010100  0.362700  0.956300  1.0  0.1355
  H  H224  1  0.032400  0.344600  0.013500  1.0  0.1363
  H  H225  1  0.061600  0.391400  0.981100  1.0  0.1607
  H  H226  1  0.893600  0.366000  0.892100  1.0  0.2136
  H  H227  1  0.857400  0.214400  0.940900  1.0  0.1293
  H  H228  1  0.742000  0.333000  0.944000  1.0  0.1313
  H  H229  1  0.711700  0.850600  0.767700  1.0  0.1136
  H  H230  1  0.688600  0.751800  0.765900  1.0  0.1266
  H  H231  1  0.587900  0.746900  0.773000  1.0  0.1245
  H  H232  1  0.543700  0.989900  0.862700  1.0  0.136
  H  H233  1  0.486500  0.967600  0.844600  1.0  0.1371
  H  H234  1  0.518900  0.938400  0.891400  1.0  0.1597
  H  H235  1  0.607900  0.106400  0.866000  1.0  0.2135
  H  H236  1  0.559100  0.142600  0.714400  1.0  0.128
  H  H237  1  0.556000  0.258000  0.833000  1.0  0.1323
  H  H238  1  0.288300  0.350600  0.732300  1.0  0.1132
  H  H239  1  0.311400  0.251800  0.734100  1.0  0.1264
  H  H240  1  0.412100  0.246900  0.727000  1.0  0.1247
  H  H241  1  0.456300  0.489900  0.637300  1.0  0.1383
  H  H242  1  0.513500  0.467600  0.655400  1.0  0.1366
  H  H243  1  0.481100  0.438400  0.608600  1.0  0.1586
  H  H244  1  0.392100  0.606400  0.634000  1.0  0.2145
  H  H245  1  0.440900  0.642600  0.785600  1.0  0.1284
  H  H246  1  0.444000  0.758000  0.667000  1.0  0.1324
  H  H247  1  0.211700  0.649400  0.232300  1.0  0.1138
  H  H248  1  0.188600  0.748200  0.234100  1.0  0.1264
  H  H249  1  0.087900  0.753100  0.227000  1.0  0.1247
  H  H250  1  0.043700  0.510100  0.137300  1.0  0.1357
  H  H251  1  0.986500  0.532400  0.155400  1.0  0.138
  H  H252  1  0.018900  0.561600  0.108600  1.0  0.158
  H  H253  1  0.107900  0.393600  0.134000  1.0  0.2143
  H  H254  1  0.059100  0.357400  0.285600  1.0  0.129
  H  H255  1  0.056000  0.242000  0.167000  1.0  0.1324
  H  H256  1  0.788300  0.149400  0.267700  1.0  0.1137
  H  H257  1  0.811400  0.248200  0.265900  1.0  0.1263
  H  H258  1  0.912100  0.253100  0.273000  1.0  0.1238
  H  H259  1  0.956300  0.010100  0.362700  1.0  0.1385
  H  H260  1  0.013500  0.032400  0.344600  1.0  0.1358
  H  H261  1  0.981100  0.061600  0.391400  1.0  0.1591
  H  H262  1  0.892100  0.893600  0.366000  1.0  0.2135
  H  H263  1  0.940900  0.857400  0.214400  1.0  0.1282
  H  H264  1  0.944000  0.742000  0.333000  1.0  0.1326
  C  C265  1  0.210070  0.417540  0.886600  1.0  -0.1376
  C  C266  1  0.156770  0.405900  0.870640  1.0  0.0198
  C  C267  1  0.272740  0.464770  0.752300  1.0  0.6887
  C  C268  1  0.141010  0.414670  0.816600  1.0  -0.1589
  C  C269  1  0.231570  0.445880  0.794010  1.0  -0.1217
  C  C270  1  0.178410  0.435800  0.778660  1.0  -0.032
  C  C271  1  0.247600  0.436620  0.847760  1.0  -0.0303
  C  C272  1  0.229180  0.410540  0.945090  1.0  0.7046
  C  C273  1  0.230300  0.323200  0.164000  1.0  0.0568
  C  C274  1  0.084060  0.401110  0.796950  1.0  0.6957
  C  C275  1  0.231300  0.335600  0.219100  1.0  -0.1619
  C  C276  1  0.227300  0.391400  0.221220  1.0  0.0192
  C  C277  1  0.142600  0.477800  0.042400  1.0  -0.0472
  C  C278  1  0.289930  0.582460  0.386600  1.0  -0.1369
  C  C279  1  0.343230  0.594100  0.370640  1.0  0.0204
  C  C280  1  0.227260  0.535230  0.252300  1.0  0.689
  C  C281  1  0.358990  0.585330  0.316600  1.0  -0.1611
  C  C282  1  0.268430  0.554120  0.294010  1.0  -0.1204
  C  C283  1  0.321590  0.564200  0.278660  1.0  -0.0304
  C  C284  1  0.252400  0.563380  0.347760  1.0  -0.0334
  C  C285  1  0.270820  0.589460  0.445090  1.0  0.7045
  C  C286  1  0.269700  0.676800  0.664000  1.0  0.0564
  C  C287  1  0.415940  0.598890  0.296950  1.0  0.6941
  C  C288  1  0.268700  0.664400  0.719100  1.0  -0.1627
  C  C289  1  0.272700  0.608600  0.721220  1.0  0.0195
  C  C290  1  0.357400  0.522200  0.542400  1.0  -0.0473
  C  C291  1  0.789930  0.917540  0.613400  1.0  -0.1354
  C  C292  1  0.843230  0.905900  0.629360  1.0  0.0202
  C  C293  1  0.727260  0.964770  0.747700  1.0  0.6896
  C  C294  1  0.858990  0.914670  0.683400  1.0  -0.1608
  C  C295  1  0.768430  0.945880  0.705990  1.0  -0.1207
  C  C296  1  0.821590  0.935800  0.721340  1.0  -0.0331
  C  C297  1  0.752400  0.936620  0.652240  1.0  -0.0329
  C  C298  1  0.770820  0.910540  0.554910  1.0  0.706
  C  C299  1  0.769700  0.823200  0.336000  1.0  0.0575
  C  C300  1  0.915940  0.901110  0.703050  1.0  0.6952
  C  C301  1  0.768700  0.835600  0.280900  1.0  -0.1597
  C  C302  1  0.772700  0.891400  0.278780  1.0  0.0194
  C  C303  1  0.857400  0.977800  0.457600  1.0  -0.0488
  C  C304  1  0.710070  0.082460  0.113400  1.0  -0.1362
  C  C305  1  0.656770  0.094100  0.129360  1.0  0.0196
  C  C306  1  0.772740  0.035230  0.247700  1.0  0.6897
  C  C307  1  0.641010  0.085330  0.183400  1.0  -0.1606
  C  C308  1  0.731570  0.054120  0.205990  1.0  -0.1207
  C  C309  1  0.678410  0.064200  0.221340  1.0  -0.0349
  C  C310  1  0.747600  0.063380  0.152240  1.0  -0.031
  C  C311  1  0.729180  0.089460  0.054910  1.0  0.7041
  C  C312  1  0.730300  0.176800  0.836000  1.0  0.0567
  C  C313  1  0.584060  0.098890  0.203050  1.0  0.6935
  C  C314  1  0.731300  0.164400  0.780900  1.0  -0.1594
  C  C315  1  0.727300  0.108600  0.778780  1.0  0.0192
  C  C316  1  0.642600  0.022200  0.957600  1.0  -0.0495
  C  C317  1  0.886600  0.210070  0.417540  1.0  -0.1383
  C  C318  1  0.870640  0.156770  0.405900  1.0  0.0209
  C  C319  1  0.752300  0.272740  0.464770  1.0  0.6898
  C  C320  1  0.816600  0.141010  0.414670  1.0  -0.161
  C  C321  1  0.794010  0.231570  0.445880  1.0  -0.1189
  C  C322  1  0.778660  0.178410  0.435800  1.0  -0.0321
  C  C323  1  0.847760  0.247600  0.436620  1.0  -0.0375
  C  C324  1  0.945090  0.229180  0.410540  1.0  0.699
  C  C325  1  0.164000  0.230300  0.323200  1.0  0.0553
  C  C326  1  0.796950  0.084060  0.401110  1.0  0.6957
  C  C327  1  0.219100  0.231300  0.335600  1.0  -0.1612
  C  C328  1  0.221220  0.227300  0.391400  1.0  0.0164
  C  C329  1  0.042400  0.142600  0.477800  1.0  -0.0473
  C  C330  1  0.386600  0.289930  0.582460  1.0  -0.1366
  C  C331  1  0.370640  0.343230  0.594100  1.0  0.0215
  C  C332  1  0.252300  0.227260  0.535230  1.0  0.6903
  C  C333  1  0.316600  0.358990  0.585330  1.0  -0.1599
  C  C334  1  0.294010  0.268430  0.554120  1.0  -0.1193
  C  C335  1  0.278660  0.321590  0.564200  1.0  -0.0307
  C  C336  1  0.347760  0.252400  0.563380  1.0  -0.0382
  C  C337  1  0.445090  0.270820  0.589460  1.0  0.7014
  C  C338  1  0.664000  0.269700  0.676800  1.0  0.0553
  C  C339  1  0.296950  0.415940  0.598890  1.0  0.6965
  C  C340  1  0.719100  0.268700  0.664400  1.0  -0.1614
  C  C341  1  0.721220  0.272700  0.608600  1.0  0.0149
  C  C342  1  0.542400  0.357400  0.522200  1.0  -0.0468
  C  C343  1  0.613400  0.789930  0.917540  1.0  -0.1365
  C  C344  1  0.629360  0.843230  0.905900  1.0  0.0208
  C  C345  1  0.747700  0.727260  0.964770  1.0  0.6896
  C  C346  1  0.683400  0.858990  0.914670  1.0  -0.1623
  C  C347  1  0.705990  0.768430  0.945880  1.0  -0.1197
  C  C348  1  0.721340  0.821590  0.935800  1.0  -0.0296
  C  C349  1  0.652240  0.752400  0.936620  1.0  -0.0397
  C  C350  1  0.554910  0.770820  0.910540  1.0  0.702
  C  C351  1  0.336000  0.769700  0.823200  1.0  0.0552
  C  C352  1  0.703050  0.915940  0.901110  1.0  0.6953
  C  C353  1  0.280900  0.768700  0.835600  1.0  -0.1612
  C  C354  1  0.278780  0.772700  0.891400  1.0  0.0174
  C  C355  1  0.457600  0.857400  0.977800  1.0  -0.0479
  C  C356  1  0.113400  0.710070  0.082460  1.0  -0.1344
  C  C357  1  0.129360  0.656770  0.094100  1.0  0.0217
  C  C358  1  0.247700  0.772740  0.035230  1.0  0.6898
  C  C359  1  0.183400  0.641010  0.085330  1.0  -0.1613
  C  C360  1  0.205990  0.731570  0.054120  1.0  -0.1194
  C  C361  1  0.221340  0.678410  0.064200  1.0  -0.028
  C  C362  1  0.152240  0.747600  0.063380  1.0  -0.0386
  C  C363  1  0.054910  0.729180  0.089460  1.0  0.701
  C  C364  1  0.836000  0.730300  0.176800  1.0  0.0559
  C  C365  1  0.203050  0.584060  0.098890  1.0  0.6962
  C  C366  1  0.780900  0.731300  0.164400  1.0  -0.1611
  C  C367  1  0.778780  0.727300  0.108600  1.0  0.0163
  C  C368  1  0.957600  0.642600  0.022200  1.0  -0.0476
  C  C369  1  0.417540  0.886600  0.210070  1.0  -0.1385
  C  C370  1  0.405900  0.870640  0.156770  1.0  0.024
  C  C371  1  0.464770  0.752300  0.272740  1.0  0.6909
  C  C372  1  0.414670  0.816600  0.141010  1.0  -0.1619
  C  C373  1  0.445880  0.794010  0.231570  1.0  -0.1244
  C  C374  1  0.435800  0.778660  0.178410  1.0  -0.0322
  C  C375  1  0.436620  0.847760  0.247600  1.0  -0.0324
  C  C376  1  0.410540  0.945090  0.229180  1.0  0.7089
  C  C377  1  0.323200  0.164000  0.230300  1.0  0.0567
  C  C378  1  0.401110  0.796950  0.084060  1.0  0.6948
  C  C379  1  0.335600  0.219100  0.231300  1.0  -0.1682
  C  C380  1  0.391400  0.221220  0.227300  1.0  0.0152
  C  C381  1  0.477800  0.042400  0.142600  1.0  -0.0492
  C  C382  1  0.582460  0.386600  0.289930  1.0  -0.1362
  C  C383  1  0.594100  0.370640  0.343230  1.0  0.0245
  C  C384  1  0.535230  0.252300  0.227260  1.0  0.6913
  C  C385  1  0.585330  0.316600  0.358990  1.0  -0.1625
  C  C386  1  0.554120  0.294010  0.268430  1.0  -0.1241
  C  C387  1  0.564200  0.278660  0.321590  1.0  -0.0332
  C  C388  1  0.563380  0.347760  0.252400  1.0  -0.0285
  C  C389  1  0.589460  0.445090  0.270820  1.0  0.711
  C  C390  1  0.676800  0.664000  0.269700  1.0  0.0564
  C  C391  1  0.598890  0.296950  0.415940  1.0  0.6936
  C  C392  1  0.664400  0.719100  0.268700  1.0  -0.1641
  C  C393  1  0.608600  0.721220  0.272700  1.0  0.0148
  C  C394  1  0.522200  0.542400  0.357400  1.0  -0.0486
  C  C395  1  0.917540  0.613400  0.789930  1.0  -0.1378
  C  C396  1  0.905900  0.629360  0.843230  1.0  0.0234
  C  C397  1  0.964770  0.747700  0.727260  1.0  0.6902
  C  C398  1  0.914670  0.683400  0.858990  1.0  -0.162
  C  C399  1  0.945880  0.705990  0.768430  1.0  -0.1241
  C  C400  1  0.935800  0.721340  0.821590  1.0  -0.0324
  C  C401  1  0.936620  0.652240  0.752400  1.0  -0.0298
  C  C402  1  0.910540  0.554910  0.770820  1.0  0.7098
  C  C403  1  0.823200  0.336000  0.769700  1.0  0.0565
  C  C404  1  0.901110  0.703050  0.915940  1.0  0.6946
  C  C405  1  0.835600  0.280900  0.768700  1.0  -0.165
  C  C406  1  0.891400  0.278780  0.772700  1.0  0.0137
  C  C407  1  0.977800  0.457600  0.857400  1.0  -0.049
  C  C408  1  0.082460  0.113400  0.710070  1.0  -0.1365
  C  C409  1  0.094100  0.129360  0.656770  1.0  0.024
  C  C410  1  0.035230  0.247700  0.772740  1.0  0.6907
  C  C411  1  0.085330  0.183400  0.641010  1.0  -0.1624
  C  C412  1  0.054120  0.205990  0.731570  1.0  -0.1233
  C  C413  1  0.064200  0.221340  0.678410  1.0  -0.0327
  C  C414  1  0.063380  0.152240  0.747600  1.0  -0.032
  C  C415  1  0.089460  0.054910  0.729180  1.0  0.7082
  C  C416  1  0.176800  0.836000  0.730300  1.0  0.0577
  C  C417  1  0.098890  0.203050  0.584060  1.0  0.6941
  C  C418  1  0.164400  0.780900  0.731300  1.0  -0.1656
  C  C419  1  0.108600  0.778780  0.727300  1.0  0.0142
  C  C420  1  0.022200  0.957600  0.642600  1.0  -0.0482
  C  C421  1  0.789930  0.582460  0.113400  1.0  -0.1368
  C  C422  1  0.843230  0.594100  0.129360  1.0  0.0202
  C  C423  1  0.727260  0.535230  0.247700  1.0  0.6895
  C  C424  1  0.858990  0.585330  0.183400  1.0  -0.1616
  C  C425  1  0.768430  0.554120  0.205990  1.0  -0.1202
  C  C426  1  0.821590  0.564200  0.221340  1.0  -0.0323
  C  C427  1  0.752400  0.563380  0.152240  1.0  -0.0335
  C  C428  1  0.770820  0.589460  0.054910  1.0  0.7051
  C  C429  1  0.769700  0.676800  0.836000  1.0  0.0565
  C  C430  1  0.915940  0.598890  0.203050  1.0  0.6947
  C  C431  1  0.768700  0.664400  0.780900  1.0  -0.1594
  C  C432  1  0.772700  0.608600  0.778780  1.0  0.0197
  C  C433  1  0.857400  0.522200  0.957600  1.0  -0.0486
  C  C434  1  0.710070  0.417540  0.613400  1.0  -0.1355
  C  C435  1  0.656770  0.405900  0.629360  1.0  0.0196
  C  C436  1  0.772740  0.464770  0.747700  1.0  0.6899
  C  C437  1  0.641010  0.414670  0.683400  1.0  -0.1597
  C  C438  1  0.731570  0.445880  0.705990  1.0  -0.1216
  C  C439  1  0.678410  0.435800  0.721340  1.0  -0.0359
  C  C440  1  0.747600  0.436620  0.652240  1.0  -0.0305
  C  C441  1  0.729180  0.410540  0.554910  1.0  0.7036
  C  C442  1  0.730300  0.323200  0.336000  1.0  0.0577
  C  C443  1  0.584060  0.401110  0.703050  1.0  0.6939
  C  C444  1  0.731300  0.335600  0.280900  1.0  -0.1596
  C  C445  1  0.727300  0.391400  0.278780  1.0  0.0194
  C  C446  1  0.642600  0.477800  0.457600  1.0  -0.0499
  C  C447  1  0.210070  0.082460  0.386600  1.0  -0.138
  C  C448  1  0.156770  0.094100  0.370640  1.0  0.02
  C  C449  1  0.272740  0.035230  0.252300  1.0  0.6888
  C  C450  1  0.141010  0.085330  0.316600  1.0  -0.1605
  C  C451  1  0.231570  0.054120  0.294010  1.0  -0.1209
  C  C452  1  0.178410  0.064200  0.278660  1.0  -0.0302
  C  C453  1  0.247600  0.063380  0.347760  1.0  -0.0304
  C  C454  1  0.229180  0.089460  0.445090  1.0  0.7053
  C  C455  1  0.230300  0.176800  0.664000  1.0  0.0566
  C  C456  1  0.084060  0.098890  0.296950  1.0  0.6944
  C  C457  1  0.231300  0.164400  0.719100  1.0  -0.1621
  C  C458  1  0.227300  0.108600  0.721220  1.0  0.0188
  C  C459  1  0.142600  0.022200  0.542400  1.0  -0.0476
  C  C460  1  0.289930  0.917540  0.886600  1.0  -0.1362
  C  C461  1  0.343230  0.905900  0.870640  1.0  0.0203
  C  C462  1  0.227260  0.964770  0.752300  1.0  0.6889
  C  C463  1  0.358990  0.914670  0.816600  1.0  -0.1598
  C  C464  1  0.268430  0.945880  0.794010  1.0  -0.1208
  C  C465  1  0.321590  0.935800  0.778660  1.0  -0.032
  C  C466  1  0.252400  0.936620  0.847760  1.0  -0.0336
  C  C467  1  0.270820  0.910540  0.945090  1.0  0.7054
  C  C468  1  0.269700  0.823200  0.164000  1.0  0.0568
  C  C469  1  0.415940  0.901110  0.796950  1.0  0.6957
  C  C470  1  0.268700  0.835600  0.219100  1.0  -0.1623
  C  C471  1  0.272700  0.891400  0.221220  1.0  0.019
  C  C472  1  0.357400  0.977800  0.042400  1.0  -0.0468
  C  C473  1  0.113400  0.789930  0.582460  1.0  -0.1365
  C  C474  1  0.129360  0.843230  0.594100  1.0  0.0213
  C  C475  1  0.247700  0.727260  0.535230  1.0  0.6901
  C  C476  1  0.183400  0.858990  0.585330  1.0  -0.1604
  C  C477  1  0.205990  0.768430  0.554120  1.0  -0.1198
  C  C478  1  0.221340  0.821590  0.564200  1.0  -0.0284
  C  C479  1  0.152240  0.752400  0.563380  1.0  -0.0383
  C  C480  1  0.054910  0.770820  0.589460  1.0  0.7026
  C  C481  1  0.836000  0.769700  0.676800  1.0  0.0561
  C  C482  1  0.203050  0.915940  0.598890  1.0  0.6965
  C  C483  1  0.780900  0.768700  0.664400  1.0  -0.1614
  C  C484  1  0.778780  0.772700  0.608600  1.0  0.017
  C  C485  1  0.957600  0.857400  0.522200  1.0  -0.0483
  C  C486  1  0.613400  0.710070  0.417540  1.0  -0.1373
  C  C487  1  0.629360  0.656770  0.405900  1.0  0.0212
  C  C488  1  0.747700  0.772740  0.464770  1.0  0.6896
  C  C489  1  0.683400  0.641010  0.414670  1.0  -0.1604
  C  C490  1  0.705990  0.731570  0.445880  1.0  -0.1199
  C  C491  1  0.721340  0.678410  0.435800  1.0  -0.0288
  C  C492  1  0.652240  0.747600  0.436620  1.0  -0.0393
  C  C493  1  0.554910  0.729180  0.410540  1.0  0.6989
  C  C494  1  0.336000  0.730300  0.323200  1.0  0.0557
  C  C495  1  0.703050  0.584060  0.401110  1.0  0.6951
  C  C496  1  0.280900  0.731300  0.335600  1.0  -0.1604
  C  C497  1  0.278780  0.727300  0.391400  1.0  0.0162
  C  C498  1  0.457600  0.642600  0.477800  1.0  -0.0478
  C  C499  1  0.386600  0.210070  0.082460  1.0  -0.1356
  C  C500  1  0.370640  0.156770  0.094100  1.0  0.0216
  C  C501  1  0.252300  0.272740  0.035230  1.0  0.6899
  C  C502  1  0.316600  0.141010  0.085330  1.0  -0.1617
  C  C503  1  0.294010  0.231570  0.054120  1.0  -0.1186
  C  C504  1  0.278660  0.178410  0.064200  1.0  -0.0302
  C  C505  1  0.347760  0.247600  0.063380  1.0  -0.0383
  C  C506  1  0.445090  0.229180  0.089460  1.0  0.7
  C  C507  1  0.664000  0.230300  0.176800  1.0  0.0554
  C  C508  1  0.296950  0.084060  0.098890  1.0  0.6968
  C  C509  1  0.719100  0.231300  0.164400  1.0  -0.1616
  C  C510  1  0.721220  0.227300  0.108600  1.0  0.0159
  C  C511  1  0.542400  0.142600  0.022200  1.0  -0.0464
  C  C512  1  0.886600  0.289930  0.917540  1.0  -0.1366
  C  C513  1  0.870640  0.343230  0.905900  1.0  0.0205
  C  C514  1  0.752300  0.227260  0.964770  1.0  0.69
  C  C515  1  0.816600  0.358990  0.914670  1.0  -0.1625
  C  C516  1  0.794010  0.268430  0.945880  1.0  -0.1188
  C  C517  1  0.778660  0.321590  0.935800  1.0  -0.0329
  C  C518  1  0.847760  0.252400  0.936620  1.0  -0.0384
  C  C519  1  0.945090  0.270820  0.910540  1.0  0.7013
  C  C520  1  0.164000  0.269700  0.823200  1.0  0.0545
  C  C521  1  0.796950  0.415940  0.901110  1.0  0.6956
  C  C522  1  0.219100  0.268700  0.835600  1.0  -0.1616
  C  C523  1  0.221220  0.272700  0.891400  1.0  0.0163
  C  C524  1  0.042400  0.357400  0.977800  1.0  -0.0472
  C  C525  1  0.582460  0.113400  0.789930  1.0  -0.1385
  C  C526  1  0.594100  0.129360  0.843230  1.0  0.0239
  C  C527  1  0.535230  0.247700  0.727260  1.0  0.6908
  C  C528  1  0.585330  0.183400  0.858990  1.0  -0.1622
  C  C529  1  0.554120  0.205990  0.768430  1.0  -0.1238
  C  C530  1  0.564200  0.221340  0.821590  1.0  -0.0338
  C  C531  1  0.563380  0.152240  0.752400  1.0  -0.0278
  C  C532  1  0.589460  0.054910  0.770820  1.0  0.7112
  C  C533  1  0.676800  0.836000  0.769700  1.0  0.057
  C  C534  1  0.598890  0.203050  0.915940  1.0  0.6934
  C  C535  1  0.664400  0.780900  0.768700  1.0  -0.164
  C  C536  1  0.608600  0.778780  0.772700  1.0  0.0154
  C  C537  1  0.522200  0.957600  0.857400  1.0  -0.0482
  C  C538  1  0.417540  0.613400  0.710070  1.0  -0.1371
  C  C539  1  0.405900  0.629360  0.656770  1.0  0.0235
  C  C540  1  0.464770  0.747700  0.772740  1.0  0.6903
  C  C541  1  0.414670  0.683400  0.641010  1.0  -0.1606
  C  C542  1  0.445880  0.705990  0.731570  1.0  -0.1243
  C  C543  1  0.435800  0.721340  0.678410  1.0  -0.0325
  C  C544  1  0.436620  0.652240  0.747600  1.0  -0.0323
  C  C545  1  0.410540  0.554910  0.729180  1.0  0.709
  C  C546  1  0.323200  0.336000  0.730300  1.0  0.0569
  C  C547  1  0.401110  0.703050  0.584060  1.0  0.6947
  C  C548  1  0.335600  0.280900  0.731300  1.0  -0.1672
  C  C549  1  0.391400  0.278780  0.727300  1.0  0.014
  C  C550  1  0.477800  0.457600  0.642600  1.0  -0.0493
  C  C551  1  0.082460  0.386600  0.210070  1.0  -0.1368
  C  C552  1  0.094100  0.370640  0.156770  1.0  0.0244
  C  C553  1  0.035230  0.252300  0.272740  1.0  0.6916
  C  C554  1  0.085330  0.316600  0.141010  1.0  -0.1637
  C  C555  1  0.054120  0.294010  0.231570  1.0  -0.1235
  C  C556  1  0.064200  0.278660  0.178410  1.0  -0.0329
  C  C557  1  0.063380  0.347760  0.247600  1.0  -0.0324
  C  C558  1  0.089460  0.445090  0.229180  1.0  0.7085
  C  C559  1  0.176800  0.664000  0.230300  1.0  0.0572
  C  C560  1  0.098890  0.296950  0.084060  1.0  0.6934
  C  C561  1  0.164400  0.719100  0.231300  1.0  -0.1666
  C  C562  1  0.108600  0.721220  0.227300  1.0  0.0144
  C  C563  1  0.022200  0.542400  0.142600  1.0  -0.0485
  C  C564  1  0.917540  0.886600  0.289930  1.0  -0.137
  C  C565  1  0.905900  0.870640  0.343230  1.0  0.0241
  C  C566  1  0.964770  0.752300  0.227260  1.0  0.6907
  C  C567  1  0.914670  0.816600  0.358990  1.0  -0.1625
  C  C568  1  0.945880  0.794010  0.268430  1.0  -0.1242
  C  C569  1  0.935800  0.778660  0.321590  1.0  -0.0319
  C  C570  1  0.936620  0.847760  0.252400  1.0  -0.0304
  C  C571  1  0.910540  0.945090  0.270820  1.0  0.7094
  C  C572  1  0.823200  0.164000  0.269700  1.0  0.056
  C  C573  1  0.901110  0.796950  0.415940  1.0  0.6955
  C  C574  1  0.835600  0.219100  0.268700  1.0  -0.1651
  C  C575  1  0.891400  0.221220  0.272700  1.0  0.0147
  C  C576  1  0.977800  0.042400  0.357400  1.0  -0.049
  N  N577  1  0.223970  0.411680  0.170340  1.0  -0.2384
  N  N578  1  0.225750  0.369410  0.135000  1.0  -0.1615
  N  N579  1  0.276030  0.588320  0.670340  1.0  -0.2399
  N  N580  1  0.274250  0.630590  0.635000  1.0  -0.1628
  N  N581  1  0.776030  0.911680  0.329660  1.0  -0.2403
  N  N582  1  0.774250  0.869410  0.365000  1.0  -0.1624
  N  N583  1  0.723970  0.088320  0.829660  1.0  -0.2405
  N  N584  1  0.725750  0.130590  0.865000  1.0  -0.1608
  N  N585  1  0.170340  0.223970  0.411680  1.0  -0.2401
  N  N586  1  0.135000  0.225750  0.369410  1.0  -0.161
  N  N587  1  0.670340  0.276030  0.588320  1.0  -0.2417
  N  N588  1  0.635000  0.274250  0.630590  1.0  -0.1623
  N  N589  1  0.329660  0.776030  0.911680  1.0  -0.243
  N  N590  1  0.365000  0.774250  0.869410  1.0  -0.1609
  N  N591  1  0.829660  0.723970  0.088320  1.0  -0.2413
  N  N592  1  0.865000  0.725750  0.130590  1.0  -0.1604
  N  N593  1  0.411680  0.170340  0.223970  1.0  -0.2382
  N  N594  1  0.369410  0.135000  0.225750  1.0  -0.1597
  N  N595  1  0.588320  0.670340  0.276030  1.0  -0.2383
  N  N596  1  0.630590  0.635000  0.274250  1.0  -0.16
  N  N597  1  0.911680  0.329660  0.776030  1.0  -0.2382
  N  N598  1  0.869410  0.365000  0.774250  1.0  -0.1597
  N  N599  1  0.088320  0.829660  0.723970  1.0  -0.2385
  N  N600  1  0.130590  0.865000  0.725750  1.0  -0.1605
  N  N601  1  0.776030  0.588320  0.829660  1.0  -0.2411
  N  N602  1  0.774250  0.630590  0.865000  1.0  -0.1617
  N  N603  1  0.723970  0.411680  0.329660  1.0  -0.2395
  N  N604  1  0.725750  0.369410  0.365000  1.0  -0.1612
  N  N605  1  0.223970  0.088320  0.670340  1.0  -0.2392
  N  N606  1  0.225750  0.130590  0.635000  1.0  -0.1617
  N  N607  1  0.276030  0.911680  0.170340  1.0  -0.2393
  N  N608  1  0.274250  0.869410  0.135000  1.0  -0.1625
  N  N609  1  0.829660  0.776030  0.588320  1.0  -0.2412
  N  N610  1  0.865000  0.774250  0.630590  1.0  -0.1611
  N  N611  1  0.329660  0.723970  0.411680  1.0  -0.2405
  N  N612  1  0.365000  0.725750  0.369410  1.0  -0.1608
  N  N613  1  0.670340  0.223970  0.088320  1.0  -0.24
  N  N614  1  0.635000  0.225750  0.130590  1.0  -0.1606
  N  N615  1  0.170340  0.276030  0.911680  1.0  -0.2438
  N  N616  1  0.135000  0.274250  0.869410  1.0  -0.1622
  N  N617  1  0.588320  0.829660  0.776030  1.0  -0.2374
  N  N618  1  0.630590  0.865000  0.774250  1.0  -0.1596
  N  N619  1  0.411680  0.329660  0.723970  1.0  -0.2384
  N  N620  1  0.369410  0.365000  0.725750  1.0  -0.1593
  N  N621  1  0.088320  0.670340  0.223970  1.0  -0.2384
  N  N622  1  0.130590  0.635000  0.225750  1.0  -0.161
  N  N623  1  0.911680  0.170340  0.276030  1.0  -0.2387
  N  N624  1  0.869410  0.135000  0.274250  1.0  -0.16
  O  O625  1  0.194130  0.390760  0.978850  1.0  -0.6546
  O  O626  1  0.055230  0.371490  0.827980  1.0  -0.627
  O  O627  1  0.182560  0.451660  0.077310  1.0  -0.6211
  O  O628  1  0.322600  0.460080  0.765220  1.0  -0.6041
  O  O629  1  0.254860  0.482980  0.707830  1.0  -0.5946
  O  O630  1  0.276090  0.424980  0.957630  1.0  -0.5346
  O  O631  1  0.068570  0.418500  0.752140  1.0  -0.5075
  O  O632  1  0.305870  0.609240  0.478850  1.0  -0.6546
  O  O633  1  0.444770  0.628510  0.327980  1.0  -0.6258
  O  O634  1  0.317440  0.548340  0.577310  1.0  -0.6204
  O  O635  1  0.177400  0.539920  0.265220  1.0  -0.6052
  O  O636  1  0.245140  0.517020  0.207830  1.0  -0.5946
  O  O637  1  0.223910  0.575020  0.457630  1.0  -0.5313
  O  O638  1  0.431430  0.581500  0.252140  1.0  -0.5075
  O  O639  1  0.805870  0.890760  0.521150  1.0  -0.6541
  O  O640  1  0.944770  0.871490  0.672020  1.0  -0.6265
  O  O641  1  0.817440  0.951660  0.422690  1.0  -0.6214
  O  O642  1  0.677400  0.960080  0.734780  1.0  -0.6054
  O  O643  1  0.745140  0.982980  0.792170  1.0  -0.5942
  O  O644  1  0.723910  0.924980  0.542370  1.0  -0.5326
  O  O645  1  0.931430  0.918500  0.747860  1.0  -0.5087
  O  O646  1  0.694130  0.109240  0.021150  1.0  -0.6542
  O  O647  1  0.555230  0.128510  0.172020  1.0  -0.6259
  O  O648  1  0.682560  0.048340  0.922690  1.0  -0.6207
  O  O649  1  0.822600  0.039920  0.234780  1.0  -0.6052
  O  O650  1  0.754860  0.017020  0.292170  1.0  -0.5945
  O  O651  1  0.776090  0.075020  0.042370  1.0  -0.5318
  O  O652  1  0.568570  0.081500  0.247860  1.0  -0.5089
  O  O653  1  0.978850  0.194130  0.390760  1.0  -0.6537
  O  O654  1  0.827980  0.055230  0.371490  1.0  -0.6263
  O  O655  1  0.077310  0.182560  0.451660  1.0  -0.6215
  O  O656  1  0.765220  0.322600  0.460080  1.0  -0.6065
  O  O657  1  0.707830  0.254860  0.482980  1.0  -0.5953
  O  O658  1  0.957630  0.276090  0.424980  1.0  -0.5315
  O  O659  1  0.752140  0.068570  0.418500  1.0  -0.5011
  O  O660  1  0.478850  0.305870  0.609240  1.0  -0.6538
  O  O661  1  0.327980  0.444770  0.628510  1.0  -0.626
  O  O662  1  0.577310  0.317440  0.548340  1.0  -0.6205
  O  O663  1  0.265220  0.177400  0.539920  1.0  -0.6057
  O  O664  1  0.207830  0.245140  0.517020  1.0  -0.595
  O  O665  1  0.457630  0.223910  0.575020  1.0  -0.5302
  O  O666  1  0.252140  0.431430  0.581500  1.0  -0.502
  O  O667  1  0.521150  0.805870  0.890760  1.0  -0.6531
  O  O668  1  0.672020  0.944770  0.871490  1.0  -0.6271
  O  O669  1  0.422690  0.817440  0.951660  1.0  -0.6197
  O  O670  1  0.734780  0.677400  0.960080  1.0  -0.6065
  O  O671  1  0.792170  0.745140  0.982980  1.0  -0.5952
  O  O672  1  0.542370  0.723910  0.924980  1.0  -0.5298
  O  O673  1  0.747860  0.931430  0.918500  1.0  -0.5048
  O  O674  1  0.021150  0.694130  0.109240  1.0  -0.6541
  O  O675  1  0.172020  0.555230  0.128510  1.0  -0.6276
  O  O676  1  0.922690  0.682560  0.048340  1.0  -0.6222
  O  O677  1  0.234780  0.822600  0.039920  1.0  -0.6077
  O  O678  1  0.292170  0.754860  0.017020  1.0  -0.5951
  O  O679  1  0.042370  0.776090  0.075020  1.0  -0.5319
  O  O680  1  0.247860  0.568570  0.081500  1.0  -0.5055
  O  O681  1  0.390760  0.978850  0.194130  1.0  -0.6538
  O  O682  1  0.371490  0.827980  0.055230  1.0  -0.6288
  O  O683  1  0.451660  0.077310  0.182560  1.0  -0.6228
  O  O684  1  0.460080  0.765220  0.322600  1.0  -0.604
  O  O685  1  0.482980  0.707830  0.254860  1.0  -0.5946
  O  O686  1  0.424980  0.957630  0.276090  1.0  -0.5351
  O  O687  1  0.418500  0.752140  0.068570  1.0  -0.508
  O  O688  1  0.609240  0.478850  0.305870  1.0  -0.6534
  O  O689  1  0.628510  0.327980  0.444770  1.0  -0.6283
  O  O690  1  0.548340  0.577310  0.317440  1.0  -0.6223
  O  O691  1  0.539920  0.265220  0.177400  1.0  -0.6066
  O  O692  1  0.517020  0.207830  0.245140  1.0  -0.5964
  O  O693  1  0.575020  0.457630  0.223910  1.0  -0.5308
  O  O694  1  0.581500  0.252140  0.431430  1.0  -0.5083
  O  O695  1  0.890760  0.521150  0.805870  1.0  -0.6538
  O  O696  1  0.871490  0.672020  0.944770  1.0  -0.6299
  O  O697  1  0.951660  0.422690  0.817440  1.0  -0.6229
  O  O698  1  0.960080  0.734780  0.677400  1.0  -0.6037
  O  O699  1  0.982980  0.792170  0.745140  1.0  -0.5953
  O  O700  1  0.924980  0.542370  0.723910  1.0  -0.5259
  O  O701  1  0.918500  0.747860  0.931430  1.0  -0.5088
  O  O702  1  0.109240  0.021150  0.694130  1.0  -0.6539
  O  O703  1  0.128510  0.172020  0.555230  1.0  -0.6284
  O  O704  1  0.048340  0.922690  0.682560  1.0  -0.6226
  O  O705  1  0.039920  0.234780  0.822600  1.0  -0.6045
  O  O706  1  0.017020  0.292170  0.754860  1.0  -0.596
  O  O707  1  0.075020  0.042370  0.776090  1.0  -0.5325
  O  O708  1  0.081500  0.247860  0.568570  1.0  -0.5092
  O  O709  1  0.805870  0.609240  0.021150  1.0  -0.6543
  O  O710  1  0.944770  0.628510  0.172020  1.0  -0.626
  O  O711  1  0.817440  0.548340  0.922690  1.0  -0.621
  O  O712  1  0.677400  0.539920  0.234780  1.0  -0.606
  O  O713  1  0.745140  0.517020  0.292170  1.0  -0.5945
  O  O714  1  0.723910  0.575020  0.042370  1.0  -0.531
  O  O715  1  0.931430  0.581500  0.247860  1.0  -0.5084
  O  O716  1  0.694130  0.390760  0.521150  1.0  -0.654
  O  O717  1  0.555230  0.371490  0.672020  1.0  -0.6262
  O  O718  1  0.682560  0.451660  0.422690  1.0  -0.621
  O  O719  1  0.822600  0.460080  0.734780  1.0  -0.6057
  O  O720  1  0.754860  0.482980  0.792170  1.0  -0.5944
  O  O721  1  0.776090  0.424980  0.542370  1.0  -0.5315
  O  O722  1  0.568570  0.418500  0.747860  1.0  -0.509
  O  O723  1  0.194130  0.109240  0.478850  1.0  -0.6546
  O  O724  1  0.055230  0.128510  0.327980  1.0  -0.6259
  O  O725  1  0.182560  0.048340  0.577310  1.0  -0.6208
  O  O726  1  0.322600  0.039920  0.265220  1.0  -0.6042
  O  O727  1  0.254860  0.017020  0.207830  1.0  -0.5954
  O  O728  1  0.276090  0.075020  0.457630  1.0  -0.5343
  O  O729  1  0.068570  0.081500  0.252140  1.0  -0.5074
  O  O730  1  0.305870  0.890760  0.978850  1.0  -0.6545
  O  O731  1  0.444770  0.871490  0.827980  1.0  -0.6268
  O  O732  1  0.317440  0.951660  0.077310  1.0  -0.6205
  O  O733  1  0.177400  0.960080  0.765220  1.0  -0.6054
  O  O734  1  0.245140  0.982980  0.707830  1.0  -0.5938
  O  O735  1  0.223910  0.924980  0.957630  1.0  -0.5342
  O  O736  1  0.431430  0.918500  0.752140  1.0  -0.5083
  O  O737  1  0.021150  0.805870  0.609240  1.0  -0.6539
  O  O738  1  0.172020  0.944770  0.628510  1.0  -0.6275
  O  O739  1  0.922690  0.817440  0.548340  1.0  -0.6209
  O  O740  1  0.234780  0.677400  0.539920  1.0  -0.6075
  O  O741  1  0.292170  0.745140  0.517020  1.0  -0.5952
  O  O742  1  0.042370  0.723910  0.575020  1.0  -0.5303
  O  O743  1  0.247860  0.931430  0.581500  1.0  -0.5052
  O  O744  1  0.521150  0.694130  0.390760  1.0  -0.6538
  O  O745  1  0.672020  0.555230  0.371490  1.0  -0.6272
  O  O746  1  0.422690  0.682560  0.451660  1.0  -0.621
  O  O747  1  0.734780  0.822600  0.460080  1.0  -0.6081
  O  O748  1  0.792170  0.754860  0.482980  1.0  -0.5952
  O  O749  1  0.542370  0.776090  0.424980  1.0  -0.5319
  O  O750  1  0.747860  0.568570  0.418500  1.0  -0.5051
  O  O751  1  0.478850  0.194130  0.109240  1.0  -0.6541
  O  O752  1  0.327980  0.055230  0.128510  1.0  -0.626
  O  O753  1  0.577310  0.182560  0.048340  1.0  -0.6222
  O  O754  1  0.265220  0.322600  0.039920  1.0  -0.6059
  O  O755  1  0.207830  0.254860  0.017020  1.0  -0.5954
  O  O756  1  0.457630  0.276090  0.075020  1.0  -0.5316
  O  O757  1  0.252140  0.068570  0.081500  1.0  -0.502
  O  O758  1  0.978850  0.305870  0.890760  1.0  -0.653
  O  O759  1  0.827980  0.444770  0.871490  1.0  -0.6263
  O  O760  1  0.077310  0.317440  0.951660  1.0  -0.6201
  O  O761  1  0.765220  0.177400  0.960080  1.0  -0.6059
  O  O762  1  0.707830  0.245140  0.982980  1.0  -0.5948
  O  O763  1  0.957630  0.223910  0.924980  1.0  -0.5297
  O  O764  1  0.752140  0.431430  0.918500  1.0  -0.5012
  O  O765  1  0.609240  0.021150  0.805870  1.0  -0.6537
  O  O766  1  0.628510  0.172020  0.944770  1.0  -0.6287
  O  O767  1  0.548340  0.922690  0.817440  1.0  -0.6226
  O  O768  1  0.539920  0.234780  0.677400  1.0  -0.6058
  O  O769  1  0.517020  0.292170  0.745140  1.0  -0.5963
  O  O770  1  0.575020  0.042370  0.723910  1.0  -0.5309
  O  O771  1  0.581500  0.247860  0.931430  1.0  -0.5096
  O  O772  1  0.390760  0.521150  0.694130  1.0  -0.654
  O  O773  1  0.371490  0.672020  0.555230  1.0  -0.6294
  O  O774  1  0.451660  0.422690  0.682560  1.0  -0.6225
  O  O775  1  0.460080  0.734780  0.822600  1.0  -0.6032
  O  O776  1  0.482980  0.792170  0.754860  1.0  -0.5958
  O  O777  1  0.424980  0.542370  0.776090  1.0  -0.5339
  O  O778  1  0.418500  0.747860  0.568570  1.0  -0.5077
  O  O779  1  0.109240  0.478850  0.194130  1.0  -0.6536
  O  O780  1  0.128510  0.327980  0.055230  1.0  -0.6279
  O  O781  1  0.048340  0.577310  0.182560  1.0  -0.6228
  O  O782  1  0.039920  0.265220  0.322600  1.0  -0.6062
  O  O783  1  0.017020  0.207830  0.254860  1.0  -0.5952
  O  O784  1  0.075020  0.457630  0.276090  1.0  -0.5344
  O  O785  1  0.081500  0.252140  0.068570  1.0  -0.5079
  O  O786  1  0.890760  0.978850  0.305870  1.0  -0.6534
  O  O787  1  0.871490  0.827980  0.444770  1.0  -0.6292
  O  O788  1  0.951660  0.077310  0.317440  1.0  -0.6228
  O  O789  1  0.960080  0.765220  0.177400  1.0  -0.605
  O  O790  1  0.982980  0.707830  0.245140  1.0  -0.5954
  O  O791  1  0.924980  0.957630  0.223910  1.0  -0.5268
  O  O792  1  0.918500  0.752140  0.431430  1.0  -0.5087
