# generated using pymatgen
data_NiH14C18(NO2)2
_symmetry_space_group_name_H-M   'P 1'
_cell_length_a   37.48220000
_cell_length_b   37.48220000
_cell_length_c   17.20240000
_cell_angle_alpha   90.00000000
_cell_angle_beta   90.00000000
_cell_angle_gamma   120.00000000
_symmetry_Int_Tables_number   1
_chemical_formula_structural   NiH14C18(NO2)2
_chemical_formula_sum   'Ni36 H504 C648 N72 O144'
_cell_volume   20930.02855990
_cell_formula_units_Z   36
loop_
 _symmetry_equiv_pos_site_id
 _symmetry_equiv_pos_as_xyz
  1  'x, y, z'
loop_
 _atom_site_type_symbol
 _atom_site_label
 _atom_site_symmetry_multiplicity
 _atom_site_fract_x
 _atom_site_fract_y
 _atom_site_fract_z
 _atom_site_occupancy
 _atom_site_charge
  Ni  Ni1  1  0.507080  0.309130  0.810540  1.0  0.577
  Ni  Ni2  1  0.431490  0.439340  0.519660  1.0  0.8335
  Ni  Ni3  1  0.173750  0.642460  0.143870  1.0  0.5775
  Ni  Ni4  1  0.098160  0.772670  0.852990  1.0  0.8335
  Ni  Ni5  1  0.840410  0.975800  0.477210  1.0  0.577
  Ni  Ni6  1  0.764820  0.106010  0.186330  1.0  0.8336
  Ni  Ni7  1  0.690870  0.197950  0.810540  1.0  0.5595
  Ni  Ni8  1  0.560660  0.992150  0.519660  1.0  0.8344
  Ni  Ni9  1  0.357540  0.531280  0.143870  1.0  0.5595
  Ni  Ni10  1  0.227330  0.325480  0.852990  1.0  0.8344
  Ni  Ni11  1  0.024200  0.864620  0.477210  1.0  0.5595
  Ni  Ni12  1  0.893990  0.658820  0.186330  1.0  0.8341
  Ni  Ni13  1  0.802050  0.492920  0.810540  1.0  0.5625
  Ni  Ni14  1  0.007850  0.568510  0.519660  1.0  0.8306
  Ni  Ni15  1  0.468720  0.826250  0.143870  1.0  0.562
  Ni  Ni16  1  0.674520  0.901840  0.852990  1.0  0.8303
  Ni  Ni17  1  0.135380  0.159590  0.477210  1.0  0.5623
  Ni  Ni18  1  0.341180  0.235180  0.186330  1.0  0.8302
  Ni  Ni19  1  0.492920  0.690870  0.189460  1.0  0.5735
  Ni  Ni20  1  0.568510  0.560660  0.480340  1.0  0.8339
  Ni  Ni21  1  0.159590  0.024200  0.522790  1.0  0.5735
  Ni  Ni22  1  0.235180  0.893990  0.813670  1.0  0.8339
  Ni  Ni23  1  0.826250  0.357540  0.856130  1.0  0.5739
  Ni  Ni24  1  0.901840  0.227330  0.147010  1.0  0.8339
  Ni  Ni25  1  0.309130  0.802050  0.189460  1.0  0.558
  Ni  Ni26  1  0.439340  0.007850  0.480340  1.0  0.8348
  Ni  Ni27  1  0.975800  0.135380  0.522790  1.0  0.558
  Ni  Ni28  1  0.106010  0.341180  0.813670  1.0  0.8347
  Ni  Ni29  1  0.642460  0.468720  0.856130  1.0  0.558
  Ni  Ni30  1  0.772670  0.674520  0.147010  1.0  0.8348
  Ni  Ni31  1  0.197950  0.507080  0.189460  1.0  0.5622
  Ni  Ni32  1  0.992150  0.431490  0.480340  1.0  0.834
  Ni  Ni33  1  0.864620  0.840410  0.522790  1.0  0.562
  Ni  Ni34  1  0.658820  0.764820  0.813670  1.0  0.8335
  Ni  Ni35  1  0.531280  0.173750  0.856130  1.0  0.5618
  Ni  Ni36  1  0.325480  0.098160  0.147010  1.0  0.8336
  H  H37  1  0.564100  0.374100  0.545300  1.0  0.0946
  H  H38  1  0.615500  0.428700  0.590900  1.0  0.0879
  H  H39  1  0.493900  0.364100  0.556500  1.0  0.1011
  H  H40  1  0.544200  0.406500  0.460000  1.0  0.1053
  H  H41  1  0.599600  0.462400  0.497900  1.0  0.0951
  H  H42  1  0.605400  0.483900  0.635300  1.0  0.0992
  H  H43  1  0.484700  0.400600  0.659900  1.0  0.1159
  H  H44  1  0.541700  0.463300  0.698600  1.0  0.116
  H  H45  1  0.458100  0.272900  0.665200  1.0  0.0942
  H  H46  1  0.391300  0.234200  0.621200  1.0  0.1305
  H  H47  1  0.351600  0.222200  0.843800  1.0  0.133
  H  H48  1  0.419700  0.263700  0.882100  1.0  0.0902
  H  H49  1  0.299300  0.194500  0.741100  1.0  0.0966
  H  H50  1  0.328000  0.205300  0.589700  1.0  0.1163
  H  H51  1  0.283100  0.196100  0.484500  1.0  0.1263
  H  H52  1  0.220800  0.183900  0.435600  1.0  0.0886
  H  H53  1  0.170500  0.156300  0.642900  1.0  0.0852
  H  H54  1  0.232000  0.168900  0.699000  1.0  0.1289
  H  H55  1  0.342600  0.400800  0.468500  1.0  0.0904
  H  H56  1  0.303500  0.376100  0.356300  1.0  0.1193
  H  H57  1  0.404600  0.387500  0.247000  1.0  0.1266
  H  H58  1  0.440800  0.412400  0.362700  1.0  0.0967
  H  H59  1  0.297000  0.346900  0.220500  1.0  0.0896
  H  H60  1  0.370700  0.392900  0.140100  1.0  0.0914
  H  H61  1  0.355400  0.412700  0.007100  1.0  0.1225
  H  H62  1  0.315000  0.392200  0.896300  1.0  0.0961
  H  H63  1  0.235600  0.287000  0.995000  1.0  0.11
  H  H64  1  0.272500  0.305400  0.110000  1.0  0.1292
  H  H65  1  0.230770  0.707430  0.878630  1.0  0.0946
  H  H66  1  0.282170  0.762030  0.924230  1.0  0.0879
  H  H67  1  0.160570  0.697430  0.889830  1.0  0.1012
  H  H68  1  0.210870  0.739830  0.793330  1.0  0.1053
  H  H69  1  0.266270  0.795730  0.831230  1.0  0.0951
  H  H70  1  0.272070  0.817230  0.968630  1.0  0.0992
  H  H71  1  0.151370  0.733930  0.993230  1.0  0.1162
  H  H72  1  0.208370  0.796630  0.031930  1.0  0.116
  H  H73  1  0.124770  0.606230  0.998530  1.0  0.0942
  H  H74  1  0.057970  0.567530  0.954530  1.0  0.1305
  H  H75  1  0.018270  0.555530  0.177130  1.0  0.133
  H  H76  1  0.086370  0.597030  0.215430  1.0  0.0902
  H  H77  1  0.965970  0.527830  0.074430  1.0  0.0966
  H  H78  1  0.994670  0.538630  0.923030  1.0  0.1164
  H  H79  1  0.949770  0.529430  0.817830  1.0  0.1263
  H  H80  1  0.887470  0.517230  0.768930  1.0  0.0887
  H  H81  1  0.837170  0.489630  0.976230  1.0  0.0849
  H  H82  1  0.898670  0.502230  0.032330  1.0  0.1289
  H  H83  1  0.009270  0.734130  0.801830  1.0  0.0917
  H  H84  1  0.970170  0.709430  0.689630  1.0  0.1194
  H  H85  1  0.071270  0.720830  0.580330  1.0  0.1266
  H  H86  1  0.107470  0.745730  0.696030  1.0  0.0967
  H  H87  1  0.963670  0.680230  0.553830  1.0  0.0897
  H  H88  1  0.037370  0.726230  0.473430  1.0  0.0914
  H  H89  1  0.022070  0.746030  0.340430  1.0  0.1226
  H  H90  1  0.981670  0.725530  0.229630  1.0  0.0961
  H  H91  1  0.902270  0.620330  0.328330  1.0  0.11
  H  H92  1  0.939170  0.638730  0.443330  1.0  0.1292
  H  H93  1  0.897430  0.040770  0.211970  1.0  0.0925
  H  H94  1  0.948830  0.095370  0.257570  1.0  0.0879
  H  H95  1  0.827230  0.030770  0.223170  1.0  0.1013
  H  H96  1  0.877530  0.073170  0.126670  1.0  0.1053
  H  H97  1  0.932930  0.129070  0.164570  1.0  0.0951
  H  H98  1  0.938730  0.150570  0.301970  1.0  0.0992
  H  H99  1  0.818030  0.067270  0.326570  1.0  0.1159
  H  H100  1  0.875030  0.129970  0.365270  1.0  0.116
  H  H101  1  0.791430  0.939570  0.331870  1.0  0.0941
  H  H102  1  0.724630  0.900870  0.287870  1.0  0.1305
  H  H103  1  0.684930  0.888870  0.510470  1.0  0.133
  H  H104  1  0.753030  0.930370  0.548770  1.0  0.0902
  H  H105  1  0.632630  0.861170  0.407770  1.0  0.0966
  H  H106  1  0.661330  0.871970  0.256370  1.0  0.1164
  H  H107  1  0.616430  0.862770  0.151170  1.0  0.1263
  H  H108  1  0.554130  0.850570  0.102270  1.0  0.0887
  H  H109  1  0.503830  0.822970  0.309570  1.0  0.0853
  H  H110  1  0.565330  0.835570  0.365670  1.0  0.1288
  H  H111  1  0.675930  0.067470  0.135170  1.0  0.0904
  H  H112  1  0.636830  0.042770  0.022970  1.0  0.1193
  H  H113  1  0.737930  0.054170  0.913670  1.0  0.1266
  H  H114  1  0.774130  0.079070  0.029370  1.0  0.0967
  H  H115  1  0.630330  0.013570  0.887170  1.0  0.0898
  H  H116  1  0.704030  0.059570  0.806770  1.0  0.0914
  H  H117  1  0.688730  0.079370  0.673770  1.0  0.1226
  H  H118  1  0.648330  0.058870  0.562970  1.0  0.0961
  H  H119  1  0.568930  0.953670  0.661670  1.0  0.1092
  H  H120  1  0.605830  0.972070  0.776670  1.0  0.1292
  H  H121  1  0.625900  0.190000  0.545300  1.0  0.0921
  H  H122  1  0.571300  0.186800  0.590900  1.0  0.0925
  H  H123  1  0.635900  0.129800  0.556500  1.0  0.0987
  H  H124  1  0.593500  0.137700  0.460000  1.0  0.1053
  H  H125  1  0.537600  0.137200  0.497900  1.0  0.0963
  H  H126  1  0.516100  0.121500  0.635300  1.0  0.0998
  H  H127  1  0.599400  0.084100  0.659900  1.0  0.1152
  H  H128  1  0.536700  0.078400  0.698600  1.0  0.1174
  H  H129  1  0.727100  0.185200  0.665200  1.0  0.0946
  H  H130  1  0.765800  0.157100  0.621200  1.0  0.1302
  H  H131  1  0.777800  0.129400  0.843800  1.0  0.1332
  H  H132  1  0.736300  0.156000  0.882100  1.0  0.0899
  H  H133  1  0.805500  0.104800  0.741100  1.0  0.097
  H  H134  1  0.794700  0.122700  0.589700  1.0  0.1168
  H  H135  1  0.803900  0.087000  0.484500  1.0  0.1261
  H  H136  1  0.816100  0.036900  0.435600  1.0  0.089
  H  H137  1  0.843700  0.014200  0.642900  1.0  0.0843
  H  H138  1  0.831100  0.063100  0.699000  1.0  0.1273
  H  H139  1  0.599200  0.941800  0.468500  1.0  0.091
  H  H140  1  0.623900  0.927400  0.356300  1.0  0.1196
  H  H141  1  0.612500  0.017100  0.247000  1.0  0.1283
  H  H142  1  0.587600  0.028400  0.362700  1.0  0.0957
  H  H143  1  0.653100  0.950100  0.220500  1.0  0.0896
  H  H144  1  0.607100  0.977800  0.140100  1.0  0.0917
  H  H145  1  0.587300  0.942700  0.007100  1.0  0.1238
  H  H146  1  0.607800  0.922800  0.896300  1.0  0.0951
  H  H147  1  0.713000  0.948600  0.995000  1.0  0.1075
  H  H148  1  0.694600  0.967100  0.110000  1.0  0.1283
  H  H149  1  0.292570  0.523330  0.878630  1.0  0.0921
  H  H150  1  0.237970  0.520130  0.924230  1.0  0.0924
  H  H151  1  0.302570  0.463130  0.889830  1.0  0.0986
  H  H152  1  0.260170  0.471030  0.793330  1.0  0.1053
  H  H153  1  0.204270  0.470530  0.831230  1.0  0.0963
  H  H154  1  0.182770  0.454830  0.968630  1.0  0.0998
  H  H155  1  0.266070  0.417430  0.993230  1.0  0.1149
  H  H156  1  0.203370  0.411730  0.031930  1.0  0.1174
  H  H157  1  0.393770  0.518530  0.998530  1.0  0.0946
  H  H158  1  0.432470  0.490430  0.954530  1.0  0.1302
  H  H159  1  0.444470  0.462730  0.177130  1.0  0.1332
  H  H160  1  0.402970  0.489330  0.215430  1.0  0.0899
  H  H161  1  0.472170  0.438130  0.074430  1.0  0.0969
  H  H162  1  0.461370  0.456030  0.923030  1.0  0.1168
  H  H163  1  0.470570  0.420330  0.817830  1.0  0.1261
  H  H164  1  0.482770  0.370230  0.768930  1.0  0.0891
  H  H165  1  0.510370  0.347530  0.976230  1.0  0.0845
  H  H166  1  0.497770  0.396430  0.032330  1.0  0.1273
  H  H167  1  0.265870  0.275130  0.801830  1.0  0.09
  H  H168  1  0.290570  0.260730  0.689630  1.0  0.1197
  H  H169  1  0.279170  0.350430  0.580330  1.0  0.1283
  H  H170  1  0.254270  0.361730  0.696030  1.0  0.0957
  H  H171  1  0.319770  0.283430  0.553830  1.0  0.0896
  H  H172  1  0.273770  0.311130  0.473430  1.0  0.0917
  H  H173  1  0.253970  0.276030  0.340430  1.0  0.1239
  H  H174  1  0.274470  0.256130  0.229630  1.0  0.0952
  H  H175  1  0.379670  0.281930  0.328330  1.0  0.1075
  H  H176  1  0.361270  0.300430  0.443330  1.0  0.1283
  H  H177  1  0.959230  0.856670  0.211970  1.0  0.092
  H  H178  1  0.904630  0.853470  0.257570  1.0  0.0925
  H  H179  1  0.969230  0.796470  0.223170  1.0  0.0985
  H  H180  1  0.926830  0.804370  0.126670  1.0  0.1053
  H  H181  1  0.870930  0.803870  0.164570  1.0  0.0963
  H  H182  1  0.849430  0.788170  0.301970  1.0  0.0998
  H  H183  1  0.932730  0.750770  0.326570  1.0  0.1151
  H  H184  1  0.870030  0.745070  0.365270  1.0  0.1173
  H  H185  1  0.060430  0.851870  0.331870  1.0  0.0946
  H  H186  1  0.099130  0.823770  0.287870  1.0  0.1302
  H  H187  1  0.111130  0.796070  0.510470  1.0  0.1329
  H  H188  1  0.069630  0.822670  0.548770  1.0  0.0899
  H  H189  1  0.138830  0.771470  0.407770  1.0  0.0969
  H  H190  1  0.128030  0.789370  0.256370  1.0  0.1168
  H  H191  1  0.137230  0.753670  0.151170  1.0  0.1261
  H  H192  1  0.149430  0.703570  0.102270  1.0  0.0891
  H  H193  1  0.177030  0.680870  0.309570  1.0  0.0843
  H  H194  1  0.164430  0.729770  0.365670  1.0  0.1273
  H  H195  1  0.932530  0.608470  0.135170  1.0  0.09
  H  H196  1  0.957230  0.594070  0.022970  1.0  0.1196
  H  H197  1  0.945830  0.683770  0.913670  1.0  0.1283
  H  H198  1  0.920930  0.695070  0.029370  1.0  0.0957
  H  H199  1  0.986430  0.616770  0.887170  1.0  0.0896
  H  H200  1  0.940430  0.644470  0.806770  1.0  0.0917
  H  H201  1  0.920630  0.609370  0.673770  1.0  0.1239
  H  H202  1  0.941130  0.589470  0.562970  1.0  0.0951
  H  H203  1  0.046330  0.615270  0.661670  1.0  0.1084
  H  H204  1  0.027930  0.633770  0.776670  1.0  0.1288
  H  H205  1  0.810000  0.435900  0.545300  1.0  0.0912
  H  H206  1  0.813200  0.384500  0.590900  1.0  0.0906
  H  H207  1  0.870200  0.506100  0.556500  1.0  0.1024
  H  H208  1  0.862300  0.455800  0.460000  1.0  0.1037
  H  H209  1  0.862800  0.400400  0.497900  1.0  0.0947
  H  H210  1  0.878500  0.394600  0.635300  1.0  0.1001
  H  H211  1  0.915900  0.515300  0.659900  1.0  0.1165
  H  H212  1  0.921600  0.458300  0.698600  1.0  0.118
  H  H213  1  0.814800  0.541900  0.665200  1.0  0.0937
  H  H214  1  0.842900  0.608700  0.621200  1.0  0.1302
  H  H215  1  0.870600  0.648400  0.843800  1.0  0.1334
  H  H216  1  0.844000  0.580300  0.882100  1.0  0.0899
  H  H217  1  0.895200  0.700700  0.741100  1.0  0.0959
  H  H218  1  0.877300  0.672000  0.589700  1.0  0.1171
  H  H219  1  0.913000  0.716900  0.484500  1.0  0.126
  H  H220  1  0.963100  0.779200  0.435600  1.0  0.0888
  H  H221  1  0.985800  0.829500  0.642900  1.0  0.0844
  H  H222  1  0.936900  0.768000  0.699000  1.0  0.1287
  H  H223  1  0.058200  0.657400  0.468500  1.0  0.0906
  H  H224  1  0.072600  0.696500  0.356300  1.0  0.1191
  H  H225  1  0.982900  0.595400  0.247000  1.0  0.1278
  H  H226  1  0.971600  0.559200  0.362700  1.0  0.0962
  H  H227  1  0.049900  0.703000  0.220500  1.0  0.0911
  H  H228  1  0.022200  0.629300  0.140100  1.0  0.0926
  H  H229  1  0.057300  0.644600  0.007100  1.0  0.1222
  H  H230  1  0.077200  0.685000  0.896300  1.0  0.0959
  H  H231  1  0.051400  0.764400  0.995000  1.0  0.1099
  H  H232  1  0.032900  0.727500  0.110000  1.0  0.1273
  H  H233  1  0.476670  0.769230  0.878630  1.0  0.0912
  H  H234  1  0.479870  0.717830  0.924230  1.0  0.0906
  H  H235  1  0.536870  0.839430  0.889830  1.0  0.1024
  H  H236  1  0.528970  0.789130  0.793330  1.0  0.1037
  H  H237  1  0.529470  0.733730  0.831230  1.0  0.0947
  H  H238  1  0.545170  0.727930  0.968630  1.0  0.1001
  H  H239  1  0.582570  0.848630  0.993230  1.0  0.1167
  H  H240  1  0.588270  0.791630  0.031930  1.0  0.118
  H  H241  1  0.481470  0.875230  0.998530  1.0  0.0937
  H  H242  1  0.509570  0.942030  0.954530  1.0  0.1303
  H  H243  1  0.537270  0.981730  0.177130  1.0  0.1334
  H  H244  1  0.510670  0.913630  0.215430  1.0  0.0899
  H  H245  1  0.561870  0.034030  0.074430  1.0  0.0959
  H  H246  1  0.543970  0.005330  0.923030  1.0  0.1171
  H  H247  1  0.579670  0.050230  0.817830  1.0  0.126
  H  H248  1  0.629770  0.112530  0.768930  1.0  0.0888
  H  H249  1  0.652470  0.162830  0.976230  1.0  0.0844
  H  H250  1  0.603570  0.101330  0.032330  1.0  0.1287
  H  H251  1  0.724870  0.990730  0.801830  1.0  0.0905
  H  H252  1  0.739270  0.029830  0.689630  1.0  0.1191
  H  H253  1  0.649570  0.928730  0.580330  1.0  0.1279
  H  H254  1  0.638270  0.892530  0.696030  1.0  0.0962
  H  H255  1  0.716570  0.036330  0.553830  1.0  0.0911
  H  H256  1  0.688870  0.962630  0.473430  1.0  0.0926
  H  H257  1  0.723970  0.977930  0.340430  1.0  0.1222
  H  H258  1  0.743870  0.018330  0.229630  1.0  0.0958
  H  H259  1  0.718070  0.097730  0.328330  1.0  0.1099
  H  H260  1  0.699570  0.060830  0.443330  1.0  0.1277
  H  H261  1  0.143330  0.102570  0.211970  1.0  0.0912
  H  H262  1  0.146530  0.051170  0.257570  1.0  0.0906
  H  H263  1  0.203530  0.172770  0.223170  1.0  0.1024
  H  H264  1  0.195630  0.122470  0.126670  1.0  0.1037
  H  H265  1  0.196130  0.067070  0.164570  1.0  0.0947
  H  H266  1  0.211830  0.061270  0.301970  1.0  0.1001
  H  H267  1  0.249230  0.181970  0.326570  1.0  0.1165
  H  H268  1  0.254930  0.124970  0.365270  1.0  0.118
  H  H269  1  0.148130  0.208570  0.331870  1.0  0.0937
  H  H270  1  0.176230  0.275370  0.287870  1.0  0.1302
  H  H271  1  0.203930  0.315070  0.510470  1.0  0.1332
  H  H272  1  0.177330  0.246970  0.548770  1.0  0.0899
  H  H273  1  0.228530  0.367370  0.407770  1.0  0.0959
  H  H274  1  0.210630  0.338670  0.256370  1.0  0.1171
  H  H275  1  0.246330  0.383570  0.151170  1.0  0.126
  H  H276  1  0.296430  0.445870  0.102270  1.0  0.0888
  H  H277  1  0.319130  0.496170  0.309570  1.0  0.0843
  H  H278  1  0.270230  0.434670  0.365670  1.0  0.1287
  H  H279  1  0.391530  0.324070  0.135170  1.0  0.0906
  H  H280  1  0.405930  0.363170  0.022970  1.0  0.1191
  H  H281  1  0.316230  0.262070  0.913670  1.0  0.1279
  H  H282  1  0.304930  0.225870  0.029370  1.0  0.0962
  H  H283  1  0.383230  0.369670  0.887170  1.0  0.0911
  H  H284  1  0.355530  0.295970  0.806770  1.0  0.0926
  H  H285  1  0.390630  0.311270  0.673770  1.0  0.1222
  H  H286  1  0.410530  0.351670  0.562970  1.0  0.0959
  H  H287  1  0.384730  0.431070  0.661670  1.0  0.1099
  H  H288  1  0.366230  0.394170  0.776670  1.0  0.1273
  H  H289  1  0.435900  0.625900  0.454700  1.0  0.096
  H  H290  1  0.384500  0.571300  0.409100  1.0  0.0871
  H  H291  1  0.506100  0.635900  0.443500  1.0  0.0996
  H  H292  1  0.455800  0.593500  0.540000  1.0  0.1053
  H  H293  1  0.400400  0.537600  0.502100  1.0  0.0932
  H  H294  1  0.394600  0.516100  0.364700  1.0  0.0991
  H  H295  1  0.515300  0.599400  0.340100  1.0  0.1137
  H  H296  1  0.458300  0.536700  0.301400  1.0  0.1162
  H  H297  1  0.541900  0.727100  0.334800  1.0  0.0945
  H  H298  1  0.608700  0.765800  0.378800  1.0  0.1309
  H  H299  1  0.648400  0.777800  0.156200  1.0  0.1327
  H  H300  1  0.580300  0.736300  0.117900  1.0  0.091
  H  H301  1  0.700700  0.805500  0.258900  1.0  0.0968
  H  H302  1  0.672000  0.794700  0.410300  1.0  0.1173
  H  H303  1  0.716900  0.803900  0.515500  1.0  0.1262
  H  H304  1  0.779200  0.816100  0.564400  1.0  0.0899
  H  H305  1  0.829500  0.843700  0.357100  1.0  0.0852
  H  H306  1  0.768000  0.831100  0.301000  1.0  0.1285
  H  H307  1  0.657400  0.599200  0.531500  1.0  0.0912
  H  H308  1  0.696500  0.623900  0.643700  1.0  0.1189
  H  H309  1  0.595400  0.612500  0.753000  1.0  0.1268
  H  H310  1  0.559200  0.587600  0.637300  1.0  0.0951
  H  H311  1  0.703000  0.653100  0.779500  1.0  0.0899
  H  H312  1  0.629300  0.607100  0.859900  1.0  0.0915
  H  H313  1  0.644600  0.587300  0.992900  1.0  0.1226
  H  H314  1  0.685000  0.607800  0.103700  1.0  0.0952
  H  H315  1  0.764400  0.713000  0.005000  1.0  0.1099
  H  H316  1  0.727500  0.694600  0.890000  1.0  0.1291
  H  H317  1  0.102570  0.959230  0.788030  1.0  0.0936
  H  H318  1  0.051170  0.904630  0.742430  1.0  0.0871
  H  H319  1  0.172770  0.969230  0.776830  1.0  0.0998
  H  H320  1  0.122470  0.926830  0.873330  1.0  0.1052
  H  H321  1  0.067070  0.870930  0.835430  1.0  0.0932
  H  H322  1  0.061270  0.849430  0.698030  1.0  0.099
  H  H323  1  0.181970  0.932730  0.673430  1.0  0.1137
  H  H324  1  0.124970  0.870030  0.634730  1.0  0.1162
  H  H325  1  0.208570  0.060430  0.668130  1.0  0.0945
  H  H326  1  0.275370  0.099130  0.712130  1.0  0.131
  H  H327  1  0.315070  0.111130  0.489530  1.0  0.1327
  H  H328  1  0.246970  0.069630  0.451230  1.0  0.091
  H  H329  1  0.367370  0.138830  0.592230  1.0  0.0968
  H  H330  1  0.338670  0.128030  0.743630  1.0  0.1173
  H  H331  1  0.383570  0.137230  0.848830  1.0  0.1262
  H  H332  1  0.445870  0.149430  0.897730  1.0  0.09
  H  H333  1  0.496170  0.177030  0.690430  1.0  0.0853
  H  H334  1  0.434670  0.164430  0.634330  1.0  0.1284
  H  H335  1  0.324070  0.932530  0.864830  1.0  0.0912
  H  H336  1  0.363170  0.957230  0.977030  1.0  0.1189
  H  H337  1  0.262070  0.945830  0.086330  1.0  0.1268
  H  H338  1  0.225870  0.920930  0.970630  1.0  0.0951
  H  H339  1  0.369670  0.986430  0.112830  1.0  0.0901
  H  H340  1  0.295970  0.940430  0.193230  1.0  0.0914
  H  H341  1  0.311270  0.920630  0.326230  1.0  0.1226
  H  H342  1  0.351670  0.941130  0.437030  1.0  0.0952
  H  H343  1  0.431070  0.046330  0.338330  1.0  0.1092
  H  H344  1  0.394170  0.027930  0.223330  1.0  0.1291
  H  H345  1  0.769230  0.292570  0.121370  1.0  0.096
  H  H346  1  0.717830  0.237970  0.075770  1.0  0.0871
  H  H347  1  0.839430  0.302570  0.110170  1.0  0.0996
  H  H348  1  0.789130  0.260170  0.206670  1.0  0.1053
  H  H349  1  0.733730  0.204270  0.168770  1.0  0.0932
  H  H350  1  0.727930  0.182770  0.031370  1.0  0.099
  H  H351  1  0.848630  0.266070  0.006770  1.0  0.114
  H  H352  1  0.791630  0.203370  0.968070  1.0  0.1162
  H  H353  1  0.875230  0.393770  0.001470  1.0  0.0945
  H  H354  1  0.942030  0.432470  0.045470  1.0  0.1309
  H  H355  1  0.981730  0.444470  0.822870  1.0  0.1327
  H  H356  1  0.913630  0.402970  0.784570  1.0  0.091
  H  H357  1  0.034030  0.472170  0.925570  1.0  0.0968
  H  H358  1  0.005330  0.461370  0.076970  1.0  0.1173
  H  H359  1  0.050230  0.470570  0.182170  1.0  0.1262
  H  H360  1  0.112530  0.482770  0.231070  1.0  0.09
  H  H361  1  0.162830  0.510370  0.023770  1.0  0.0851
  H  H362  1  0.101330  0.497770  0.967670  1.0  0.1285
  H  H363  1  0.990730  0.265870  0.198170  1.0  0.0924
  H  H364  1  0.029830  0.290570  0.310370  1.0  0.1189
  H  H365  1  0.928730  0.279170  0.419670  1.0  0.1268
  H  H366  1  0.892530  0.254270  0.303970  1.0  0.0951
  H  H367  1  0.036330  0.319770  0.446170  1.0  0.09
  H  H368  1  0.962630  0.273770  0.526570  1.0  0.0915
  H  H369  1  0.977930  0.253970  0.659570  1.0  0.1226
  H  H370  1  0.018330  0.274470  0.770370  1.0  0.0952
  H  H371  1  0.097730  0.379670  0.671670  1.0  0.1099
  H  H372  1  0.060830  0.361270  0.556670  1.0  0.1291
  H  H373  1  0.374100  0.810000  0.454700  1.0  0.0934
  H  H374  1  0.428700  0.813200  0.409100  1.0  0.0932
  H  H375  1  0.364100  0.870200  0.443500  1.0  0.1001
  H  H376  1  0.406500  0.862300  0.540000  1.0  0.1059
  H  H377  1  0.462400  0.862800  0.502100  1.0  0.0953
  H  H378  1  0.483900  0.878500  0.364700  1.0  0.099
  H  H379  1  0.400600  0.915900  0.340100  1.0  0.1164
  H  H380  1  0.463300  0.921600  0.301400  1.0  0.1175
  H  H381  1  0.272900  0.814800  0.334800  1.0  0.0953
  H  H382  1  0.234200  0.842900  0.378800  1.0  0.1303
  H  H383  1  0.222200  0.870600  0.156200  1.0  0.1331
  H  H384  1  0.263700  0.844000  0.117900  1.0  0.09
  H  H385  1  0.194500  0.895200  0.258900  1.0  0.0968
  H  H386  1  0.205300  0.877300  0.410300  1.0  0.1175
  H  H387  1  0.196100  0.913000  0.515500  1.0  0.1259
  H  H388  1  0.183900  0.963100  0.564400  1.0  0.0905
  H  H389  1  0.156300  0.985800  0.357100  1.0  0.0842
  H  H390  1  0.168900  0.936900  0.301000  1.0  0.1285
  H  H391  1  0.400800  0.058200  0.531500  1.0  0.0923
  H  H392  1  0.376100  0.072600  0.643700  1.0  0.1192
  H  H393  1  0.387500  0.982900  0.753000  1.0  0.1276
  H  H394  1  0.412400  0.971600  0.637300  1.0  0.0956
  H  H395  1  0.346900  0.049900  0.779500  1.0  0.0897
  H  H396  1  0.392900  0.022200  0.859900  1.0  0.0916
  H  H397  1  0.412700  0.057300  0.992900  1.0  0.1234
  H  H398  1  0.392200  0.077200  0.103700  1.0  0.0947
  H  H399  1  0.287000  0.051400  0.005000  1.0  0.1066
  H  H400  1  0.305400  0.032900  0.890000  1.0  0.129
  H  H401  1  0.040770  0.143330  0.788030  1.0  0.0934
  H  H402  1  0.095370  0.146530  0.742430  1.0  0.0932
  H  H403  1  0.030770  0.203530  0.776830  1.0  0.0999
  H  H404  1  0.073170  0.195630  0.873330  1.0  0.1059
  H  H405  1  0.129070  0.196130  0.835430  1.0  0.0953
  H  H406  1  0.150570  0.211830  0.698030  1.0  0.099
  H  H407  1  0.067270  0.249230  0.673430  1.0  0.1164
  H  H408  1  0.129970  0.254930  0.634730  1.0  0.1175
  H  H409  1  0.939570  0.148130  0.668130  1.0  0.0953
  H  H410  1  0.900870  0.176230  0.712130  1.0  0.1303
  H  H411  1  0.888870  0.203930  0.489530  1.0  0.1328
  H  H412  1  0.930370  0.177330  0.451230  1.0  0.0901
  H  H413  1  0.861170  0.228530  0.592230  1.0  0.0968
  H  H414  1  0.871970  0.210630  0.743630  1.0  0.1175
  H  H415  1  0.862770  0.246330  0.848830  1.0  0.1259
  H  H416  1  0.850570  0.296430  0.897730  1.0  0.0906
  H  H417  1  0.822970  0.319130  0.690430  1.0  0.0842
  H  H418  1  0.835570  0.270230  0.634330  1.0  0.1285
  H  H419  1  0.067470  0.391530  0.864830  1.0  0.0913
  H  H420  1  0.042770  0.405930  0.977030  1.0  0.1192
  H  H421  1  0.054170  0.316230  0.086330  1.0  0.1276
  H  H422  1  0.079070  0.304930  0.970630  1.0  0.0956
  H  H423  1  0.013570  0.383230  0.112830  1.0  0.0897
  H  H424  1  0.059570  0.355530  0.193230  1.0  0.0916
  H  H425  1  0.079370  0.390630  0.326230  1.0  0.1232
  H  H426  1  0.058870  0.410530  0.437030  1.0  0.0947
  H  H427  1  0.953670  0.384730  0.338330  1.0  0.1076
  H  H428  1  0.972070  0.366230  0.223330  1.0  0.1295
  H  H429  1  0.707430  0.476670  0.121370  1.0  0.0934
  H  H430  1  0.762030  0.479870  0.075770  1.0  0.0931
  H  H431  1  0.697430  0.536870  0.110170  1.0  0.1
  H  H432  1  0.739830  0.528970  0.206670  1.0  0.1059
  H  H433  1  0.795730  0.529470  0.168770  1.0  0.0953
  H  H434  1  0.817230  0.545170  0.031370  1.0  0.099
  H  H435  1  0.733930  0.582570  0.006770  1.0  0.1162
  H  H436  1  0.796630  0.588270  0.968070  1.0  0.1175
  H  H437  1  0.606230  0.481470  0.001470  1.0  0.0953
  H  H438  1  0.567530  0.509570  0.045470  1.0  0.1303
  H  H439  1  0.555530  0.537270  0.822870  1.0  0.1331
  H  H440  1  0.597030  0.510670  0.784570  1.0  0.09
  H  H441  1  0.527830  0.561870  0.925570  1.0  0.0968
  H  H442  1  0.538630  0.543970  0.076970  1.0  0.1175
  H  H443  1  0.529430  0.579670  0.182170  1.0  0.1259
  H  H444  1  0.517230  0.629770  0.231070  1.0  0.0906
  H  H445  1  0.489630  0.652470  0.023770  1.0  0.0843
  H  H446  1  0.502230  0.603570  0.967670  1.0  0.1285
  H  H447  1  0.734130  0.724870  0.198170  1.0  0.0914
  H  H448  1  0.709430  0.739270  0.310370  1.0  0.1192
  H  H449  1  0.720830  0.649570  0.419670  1.0  0.1276
  H  H450  1  0.745730  0.638270  0.303970  1.0  0.0955
  H  H451  1  0.680230  0.716570  0.446170  1.0  0.0897
  H  H452  1  0.726230  0.688870  0.526570  1.0  0.0916
  H  H453  1  0.746030  0.723970  0.659570  1.0  0.1234
  H  H454  1  0.725530  0.743870  0.770370  1.0  0.0948
  H  H455  1  0.620330  0.718070  0.671670  1.0  0.1066
  H  H456  1  0.638730  0.699570  0.556670  1.0  0.129
  H  H457  1  0.190000  0.564100  0.454700  1.0  0.0917
  H  H458  1  0.186800  0.615500  0.409100  1.0  0.0927
  H  H459  1  0.129800  0.493900  0.443500  1.0  0.1012
  H  H460  1  0.137700  0.544200  0.540000  1.0  0.1039
  H  H461  1  0.137200  0.599600  0.502100  1.0  0.0956
  H  H462  1  0.121500  0.605400  0.364700  1.0  0.1001
  H  H463  1  0.084100  0.484700  0.340100  1.0  0.1167
  H  H464  1  0.078400  0.541700  0.301400  1.0  0.1169
  H  H465  1  0.185200  0.458100  0.334800  1.0  0.0934
  H  H466  1  0.157100  0.391300  0.378800  1.0  0.1297
  H  H467  1  0.129400  0.351600  0.156200  1.0  0.1326
  H  H468  1  0.156000  0.419700  0.117900  1.0  0.0904
  H  H469  1  0.104800  0.299300  0.258900  1.0  0.0962
  H  H470  1  0.122700  0.328000  0.410300  1.0  0.1174
  H  H471  1  0.087000  0.283100  0.515500  1.0  0.1257
  H  H472  1  0.036900  0.220800  0.564400  1.0  0.0904
  H  H473  1  0.014200  0.170500  0.357100  1.0  0.0844
  H  H474  1  0.063100  0.232000  0.301000  1.0  0.1293
  H  H475  1  0.941800  0.342600  0.531500  1.0  0.0922
  H  H476  1  0.927400  0.303500  0.643700  1.0  0.1188
  H  H477  1  0.017100  0.404600  0.753000  1.0  0.1282
  H  H478  1  0.028400  0.440800  0.637300  1.0  0.097
  H  H479  1  0.950100  0.297000  0.779500  1.0  0.0911
  H  H480  1  0.977800  0.370700  0.859900  1.0  0.0922
  H  H481  1  0.942700  0.355400  0.992900  1.0  0.1223
  H  H482  1  0.922800  0.315000  0.103700  1.0  0.0949
  H  H483  1  0.948600  0.235600  0.005000  1.0  0.1092
  H  H484  1  0.967100  0.272500  0.890000  1.0  0.1273
  H  H485  1  0.856670  0.897430  0.788030  1.0  0.0917
  H  H486  1  0.853470  0.948830  0.742430  1.0  0.0927
  H  H487  1  0.796470  0.827230  0.776830  1.0  0.1012
  H  H488  1  0.804370  0.877530  0.873330  1.0  0.1039
  H  H489  1  0.803870  0.932930  0.835430  1.0  0.0956
  H  H490  1  0.788170  0.938730  0.698030  1.0  0.1
  H  H491  1  0.750770  0.818030  0.673430  1.0  0.1168
  H  H492  1  0.745070  0.875030  0.634730  1.0  0.1169
  H  H493  1  0.851870  0.791430  0.668130  1.0  0.0934
  H  H494  1  0.823770  0.724630  0.712130  1.0  0.1297
  H  H495  1  0.796070  0.684930  0.489530  1.0  0.1324
  H  H496  1  0.822670  0.753030  0.451230  1.0  0.0904
  H  H497  1  0.771470  0.632630  0.592230  1.0  0.0962
  H  H498  1  0.789370  0.661330  0.743630  1.0  0.1174
  H  H499  1  0.753670  0.616430  0.848830  1.0  0.1257
  H  H500  1  0.703570  0.554130  0.897730  1.0  0.0904
  H  H501  1  0.680870  0.503830  0.690430  1.0  0.0843
  H  H502  1  0.729770  0.565330  0.634330  1.0  0.1293
  H  H503  1  0.608470  0.675930  0.864830  1.0  0.0923
  H  H504  1  0.594070  0.636830  0.977030  1.0  0.1188
  H  H505  1  0.683770  0.737930  0.086330  1.0  0.1282
  H  H506  1  0.695070  0.774130  0.970630  1.0  0.0969
  H  H507  1  0.616770  0.630330  0.112830  1.0  0.0911
  H  H508  1  0.644470  0.704030  0.193230  1.0  0.0922
  H  H509  1  0.609370  0.688730  0.326230  1.0  0.1223
  H  H510  1  0.589470  0.648330  0.437030  1.0  0.0949
  H  H511  1  0.615270  0.568930  0.338330  1.0  0.1092
  H  H512  1  0.633770  0.605830  0.223330  1.0  0.1273
  H  H513  1  0.523330  0.230770  0.121370  1.0  0.0917
  H  H514  1  0.520130  0.282170  0.075770  1.0  0.0927
  H  H515  1  0.463130  0.160570  0.110170  1.0  0.1012
  H  H516  1  0.471030  0.210870  0.206670  1.0  0.1039
  H  H517  1  0.470530  0.266270  0.168770  1.0  0.0956
  H  H518  1  0.454830  0.272070  0.031370  1.0  0.1001
  H  H519  1  0.417430  0.151370  0.006770  1.0  0.1171
  H  H520  1  0.411730  0.208370  0.968070  1.0  0.1169
  H  H521  1  0.518530  0.124770  0.001470  1.0  0.0934
  H  H522  1  0.490430  0.057970  0.045470  1.0  0.1297
  H  H523  1  0.462730  0.018270  0.822870  1.0  0.1326
  H  H524  1  0.489330  0.086370  0.784570  1.0  0.0904
  H  H525  1  0.438130  0.965970  0.925570  1.0  0.0962
  H  H526  1  0.456030  0.994670  0.076970  1.0  0.1174
  H  H527  1  0.420330  0.949770  0.182170  1.0  0.1257
  H  H528  1  0.370230  0.887470  0.231070  1.0  0.0904
  H  H529  1  0.347530  0.837170  0.023770  1.0  0.0844
  H  H530  1  0.396430  0.898670  0.967670  1.0  0.1293
  H  H531  1  0.275130  0.009270  0.198170  1.0  0.0922
  H  H532  1  0.260730  0.970170  0.310370  1.0  0.1188
  H  H533  1  0.350430  0.071270  0.419670  1.0  0.1283
  H  H534  1  0.361730  0.107470  0.303970  1.0  0.0969
  H  H535  1  0.283430  0.963670  0.446170  1.0  0.0912
  H  H536  1  0.311130  0.037370  0.526570  1.0  0.0922
  H  H537  1  0.276030  0.022070  0.659570  1.0  0.1223
  H  H538  1  0.256130  0.981670  0.770370  1.0  0.0949
  H  H539  1  0.281930  0.902270  0.671670  1.0  0.1092
  H  H540  1  0.300430  0.939170  0.556670  1.0  0.1277
  C  C541  1  0.554610  0.381440  0.594000  1.0  -0.1493
  C  C542  1  0.591630  0.422110  0.625900  1.0  -0.1587
  C  C543  1  0.519470  0.390220  0.570800  1.0  -0.0679
  C  C544  1  0.535710  0.419840  0.500700  1.0  -0.1547
  C  C545  1  0.575490  0.460510  0.526500  1.0  -0.157
  C  C546  1  0.582070  0.457390  0.615500  1.0  -0.0882
  C  C547  1  0.511090  0.411530  0.636400  1.0  -0.1059
  C  C548  1  0.543110  0.446480  0.658800  1.0  -0.11
  C  C549  1  0.538000  0.344040  0.648400  1.0  0.7029
  C  C550  1  0.606000  0.420390  0.708200  1.0  0.7018
  C  C551  1  0.503940  0.428970  0.464000  1.0  0.6968
  C  C552  1  0.573600  0.499210  0.510600  1.0  0.6533
  C  C553  1  0.436180  0.263510  0.701700  1.0  0.1683
  C  C554  1  0.396340  0.240160  0.675100  1.0  -0.1963
  C  C555  1  0.363260  0.225150  0.726900  1.0  0.1055
  C  C556  1  0.372860  0.233280  0.805800  1.0  -0.1624
  C  C557  1  0.413730  0.257740  0.828400  1.0  0.1804
  C  C558  1  0.319940  0.204740  0.701900  1.0  -0.1775
  C  C559  1  0.307500  0.199530  0.627900  1.0  -0.0764
  C  C560  1  0.265750  0.185860  0.598600  1.0  0.1111
  C  C561  1  0.260620  0.188740  0.518900  1.0  -0.2201
  C  C562  1  0.223170  0.181020  0.489900  1.0  0.1755
  C  C563  1  0.194020  0.165150  0.610600  1.0  0.1748
  C  C564  1  0.230720  0.172710  0.644700  1.0  -0.1936
  C  C565  1  0.355250  0.398190  0.422700  1.0  0.1757
  C  C566  1  0.331720  0.383460  0.355800  1.0  -0.205
  C  C567  1  0.349560  0.379400  0.287800  1.0  0.098
  C  C568  1  0.391170  0.390210  0.291600  1.0  -0.1869
  C  C569  1  0.412520  0.404860  0.360900  1.0  0.1726
  C  C570  1  0.325810  0.364990  0.216200  1.0  -0.1529
  C  C571  1  0.341770  0.375460  0.144600  1.0  -0.1499
  C  C572  1  0.317580  0.361790  0.072900  1.0  0.0782
  C  C573  1  0.330330  0.387130  0.006400  1.0  -0.1698
  C  C574  1  0.306310  0.374590  0.940400  1.0  0.1851
  C  C575  1  0.259810  0.313230  0.998600  1.0  0.1638
  C  C576  1  0.281760  0.323870  0.067100  1.0  -0.192
  C  C577  1  0.221280  0.714770  0.927330  1.0  -0.1493
  C  C578  1  0.258300  0.755440  0.959230  1.0  -0.1587
  C  C579  1  0.186140  0.723550  0.904130  1.0  -0.0679
  C  C580  1  0.202380  0.753170  0.834030  1.0  -0.1547
  C  C581  1  0.242160  0.793840  0.859830  1.0  -0.1569
  C  C582  1  0.248740  0.790720  0.948830  1.0  -0.0882
  C  C583  1  0.177760  0.744860  0.969730  1.0  -0.1059
  C  C584  1  0.209780  0.779810  0.992130  1.0  -0.11
  C  C585  1  0.204670  0.677370  0.981730  1.0  0.7029
  C  C586  1  0.272670  0.753720  0.041530  1.0  0.7018
  C  C587  1  0.170610  0.762300  0.797330  1.0  0.6968
  C  C588  1  0.240270  0.832540  0.843930  1.0  0.6533
  C  C589  1  0.102850  0.596840  0.035030  1.0  0.1679
  C  C590  1  0.063010  0.573490  0.008430  1.0  -0.1962
  C  C591  1  0.029930  0.558480  0.060230  1.0  0.1055
  C  C592  1  0.039530  0.566610  0.139130  1.0  -0.1622
  C  C593  1  0.080400  0.591070  0.161730  1.0  0.1808
  C  C594  1  0.986610  0.538070  0.035230  1.0  -0.1774
  C  C595  1  0.974170  0.532860  0.961230  1.0  -0.0764
  C  C596  1  0.932420  0.519190  0.931930  1.0  0.1111
  C  C597  1  0.927290  0.522070  0.852230  1.0  -0.2202
  C  C598  1  0.889840  0.514350  0.823230  1.0  0.1755
  C  C599  1  0.860690  0.498480  0.943930  1.0  0.1748
  C  C600  1  0.897390  0.506040  0.978030  1.0  -0.1936
  C  C601  1  0.021920  0.731520  0.756030  1.0  0.1757
  C  C602  1  0.998390  0.716790  0.689130  1.0  -0.205
  C  C603  1  0.016230  0.712730  0.621130  1.0  0.098
  C  C604  1  0.057840  0.723540  0.624930  1.0  -0.1869
  C  C605  1  0.079190  0.738190  0.694230  1.0  0.1726
  C  C606  1  0.992480  0.698320  0.549530  1.0  -0.1529
  C  C607  1  0.008440  0.708790  0.477930  1.0  -0.1499
  C  C608  1  0.984250  0.695120  0.406230  1.0  0.0783
  C  C609  1  0.997000  0.720460  0.339730  1.0  -0.1698
  C  C610  1  0.972980  0.707920  0.273730  1.0  0.1851
  C  C611  1  0.926480  0.646560  0.331930  1.0  0.1636
  C  C612  1  0.948430  0.657200  0.400430  1.0  -0.192
  C  C613  1  0.887940  0.048110  0.260670  1.0  -0.1493
  C  C614  1  0.924960  0.088780  0.292570  1.0  -0.1587
  C  C615  1  0.852800  0.056890  0.237470  1.0  -0.0679
  C  C616  1  0.869040  0.086510  0.167370  1.0  -0.1547
  C  C617  1  0.908820  0.127180  0.193170  1.0  -0.157
  C  C618  1  0.915400  0.124060  0.282170  1.0  -0.0881
  C  C619  1  0.844420  0.078200  0.303070  1.0  -0.1054
  C  C620  1  0.876440  0.113150  0.325470  1.0  -0.1101
  C  C621  1  0.871330  0.010710  0.315070  1.0  0.7029
  C  C622  1  0.939330  0.087060  0.374870  1.0  0.7018
  C  C623  1  0.837270  0.095640  0.130670  1.0  0.6966
  C  C624  1  0.906930  0.165880  0.177270  1.0  0.6533
  C  C625  1  0.769510  0.930180  0.368370  1.0  0.1683
  C  C626  1  0.729670  0.906830  0.341770  1.0  -0.1965
  C  C627  1  0.696590  0.891820  0.393570  1.0  0.1055
  C  C628  1  0.706190  0.899950  0.472470  1.0  -0.1624
  C  C629  1  0.747060  0.924410  0.495070  1.0  0.1804
  C  C630  1  0.653270  0.871410  0.368570  1.0  -0.1775
  C  C631  1  0.640830  0.866200  0.294570  1.0  -0.0764
  C  C632  1  0.599080  0.852530  0.265270  1.0  0.1111
  C  C633  1  0.593950  0.855410  0.185570  1.0  -0.2201
  C  C634  1  0.556500  0.847690  0.156570  1.0  0.1755
  C  C635  1  0.527350  0.831820  0.277270  1.0  0.1748
  C  C636  1  0.564050  0.839380  0.311370  1.0  -0.1936
  C  C637  1  0.688580  0.064860  0.089370  1.0  0.1757
  C  C638  1  0.665050  0.050130  0.022470  1.0  -0.205
  C  C639  1  0.682890  0.046070  0.954470  1.0  0.0979
  C  C640  1  0.724500  0.056880  0.958270  1.0  -0.1869
  C  C641  1  0.745850  0.071530  0.027570  1.0  0.1726
  C  C642  1  0.659140  0.031660  0.882870  1.0  -0.153
  C  C643  1  0.675100  0.042130  0.811270  1.0  -0.15
  C  C644  1  0.650910  0.028460  0.739570  1.0  0.0784
  C  C645  1  0.663660  0.053800  0.673070  1.0  -0.1698
  C  C646  1  0.639640  0.041260  0.607070  1.0  0.1851
  C  C647  1  0.593140  0.979900  0.665270  1.0  0.1636
  C  C648  1  0.615090  0.990540  0.733770  1.0  -0.1919
  C  C649  1  0.618560  0.173170  0.594000  1.0  -0.1456
  C  C650  1  0.577890  0.169520  0.625900  1.0  -0.1615
  C  C651  1  0.609780  0.129250  0.570800  1.0  -0.0689
  C  C652  1  0.580160  0.115870  0.500700  1.0  -0.1554
  C  C653  1  0.539490  0.114980  0.526500  1.0  -0.1587
  C  C654  1  0.542610  0.124680  0.615500  1.0  -0.0909
  C  C655  1  0.588470  0.099560  0.636400  1.0  -0.1051
  C  C656  1  0.553520  0.096630  0.658800  1.0  -0.1065
  C  C657  1  0.655960  0.193960  0.648400  1.0  0.7006
  C  C658  1  0.579610  0.185610  0.708200  1.0  0.7056
  C  C659  1  0.571030  0.074970  0.464000  1.0  0.6955
  C  C660  1  0.500790  0.074390  0.510600  1.0  0.6519
  C  C661  1  0.736490  0.172670  0.701700  1.0  0.1678
  C  C662  1  0.759840  0.156180  0.675100  1.0  -0.1981
  C  C663  1  0.774850  0.138110  0.726900  1.0  0.1042
  C  C664  1  0.766720  0.139580  0.805800  1.0  -0.1639
  C  C665  1  0.742260  0.155990  0.828400  1.0  0.1796
  C  C666  1  0.795260  0.115200  0.701900  1.0  -0.1759
  C  C667  1  0.800470  0.107970  0.627900  1.0  -0.0755
  C  C668  1  0.814140  0.079890  0.598600  1.0  0.1106
  C  C669  1  0.811260  0.071880  0.518900  1.0  -0.2195
  C  C670  1  0.818980  0.042150  0.489900  1.0  0.1753
  C  C671  1  0.834850  0.028870  0.610600  1.0  0.1757
  C  C672  1  0.827290  0.058010  0.644700  1.0  -0.1879
  C  C673  1  0.601810  0.957060  0.422700  1.0  0.1744
  C  C674  1  0.616540  0.948260  0.355800  1.0  -0.2053
  C  C675  1  0.620600  0.970160  0.287800  1.0  0.0981
  C  C676  1  0.609790  0.000960  0.291600  1.0  -0.192
  C  C677  1  0.595140  0.007660  0.360900  1.0  0.1699
  C  C678  1  0.635010  0.960820  0.216200  1.0  -0.153
  C  C679  1  0.624540  0.966310  0.144600  1.0  -0.1515
  C  C680  1  0.638210  0.955790  0.072900  1.0  0.0782
  C  C681  1  0.612870  0.943200  0.006400  1.0  -0.1706
  C  C682  1  0.625410  0.931720  0.940400  1.0  0.187
  C  C683  1  0.686770  0.946580  0.998600  1.0  0.1627
  C  C684  1  0.676130  0.957890  0.067100  1.0  -0.1887
  C  C685  1  0.285230  0.506500  0.927330  1.0  -0.1456
  C  C686  1  0.244560  0.502850  0.959230  1.0  -0.1615
  C  C687  1  0.276450  0.462580  0.904130  1.0  -0.0689
  C  C688  1  0.246830  0.449200  0.834030  1.0  -0.1554
  C  C689  1  0.206160  0.448310  0.859830  1.0  -0.1587
  C  C690  1  0.209280  0.458010  0.948830  1.0  -0.091
  C  C691  1  0.255140  0.432890  0.969730  1.0  -0.1051
  C  C692  1  0.220190  0.429960  0.992130  1.0  -0.1065
  C  C693  1  0.322630  0.527290  0.981730  1.0  0.7006
  C  C694  1  0.246280  0.518940  0.041530  1.0  0.7055
  C  C695  1  0.237700  0.408300  0.797330  1.0  0.6955
  C  C696  1  0.167460  0.407720  0.843930  1.0  0.6519
  C  C697  1  0.403160  0.506000  0.035030  1.0  0.1678
  C  C698  1  0.426510  0.489510  0.008430  1.0  -0.1985
  C  C699  1  0.441520  0.471440  0.060230  1.0  0.1042
  C  C700  1  0.433390  0.472910  0.139130  1.0  -0.1639
  C  C701  1  0.408930  0.489320  0.161730  1.0  0.1796
  C  C702  1  0.461930  0.448530  0.035230  1.0  -0.1766
  C  C703  1  0.467140  0.441300  0.961230  1.0  -0.0755
  C  C704  1  0.480810  0.413220  0.931930  1.0  0.1106
  C  C705  1  0.477930  0.405210  0.852230  1.0  -0.2195
  C  C706  1  0.485650  0.375480  0.823230  1.0  0.1753
  C  C707  1  0.501520  0.362200  0.943930  1.0  0.1757
  C  C708  1  0.493960  0.391340  0.978030  1.0  -0.1879
  C  C709  1  0.268480  0.290390  0.756030  1.0  0.1743
  C  C710  1  0.283210  0.281590  0.689130  1.0  -0.2053
  C  C711  1  0.287270  0.303490  0.621130  1.0  0.0981
  C  C712  1  0.276460  0.334290  0.624930  1.0  -0.192
  C  C713  1  0.261810  0.340990  0.694230  1.0  0.1699
  C  C714  1  0.301680  0.294150  0.549530  1.0  -0.153
  C  C715  1  0.291210  0.299640  0.477930  1.0  -0.1515
  C  C716  1  0.304880  0.289120  0.406230  1.0  0.0782
  C  C717  1  0.279540  0.276530  0.339730  1.0  -0.1705
  C  C718  1  0.292080  0.265050  0.273730  1.0  0.187
  C  C719  1  0.353440  0.279910  0.331930  1.0  0.1628
  C  C720  1  0.342800  0.291220  0.400430  1.0  -0.1887
  C  C721  1  0.951890  0.839840  0.260670  1.0  -0.1456
  C  C722  1  0.911220  0.836190  0.292570  1.0  -0.1615
  C  C723  1  0.943110  0.795920  0.237470  1.0  -0.0689
  C  C724  1  0.913490  0.782540  0.167370  1.0  -0.1554
  C  C725  1  0.872820  0.781650  0.193170  1.0  -0.1587
  C  C726  1  0.875940  0.791350  0.282170  1.0  -0.0909
  C  C727  1  0.921800  0.766230  0.303070  1.0  -0.1052
  C  C728  1  0.886850  0.763300  0.325470  1.0  -0.1065
  C  C729  1  0.989290  0.860630  0.315070  1.0  0.7006
  C  C730  1  0.912940  0.852280  0.374870  1.0  0.7056
  C  C731  1  0.904360  0.741640  0.130670  1.0  0.6956
  C  C732  1  0.834120  0.741060  0.177270  1.0  0.6519
  C  C733  1  0.069820  0.839340  0.368370  1.0  0.1678
  C  C734  1  0.093170  0.822850  0.341770  1.0  -0.1981
  C  C735  1  0.108180  0.804780  0.393570  1.0  0.1042
  C  C736  1  0.100050  0.806250  0.472470  1.0  -0.1639
  C  C737  1  0.075590  0.822660  0.495070  1.0  0.1796
  C  C738  1  0.128590  0.781870  0.368570  1.0  -0.1759
  C  C739  1  0.133800  0.774640  0.294570  1.0  -0.0755
  C  C740  1  0.147470  0.746560  0.265270  1.0  0.1106
  C  C741  1  0.144590  0.738550  0.185570  1.0  -0.2195
  C  C742  1  0.152310  0.708820  0.156570  1.0  0.1753
  C  C743  1  0.168180  0.695540  0.277270  1.0  0.1758
  C  C744  1  0.160620  0.724680  0.311370  1.0  -0.1879
  C  C745  1  0.935140  0.623730  0.089370  1.0  0.1744
  C  C746  1  0.949870  0.614930  0.022470  1.0  -0.2053
  C  C747  1  0.953930  0.636830  0.954470  1.0  0.0982
  C  C748  1  0.943120  0.667630  0.958270  1.0  -0.1919
  C  C749  1  0.928470  0.674330  0.027570  1.0  0.1699
  C  C750  1  0.968340  0.627490  0.882870  1.0  -0.153
  C  C751  1  0.957870  0.632980  0.811270  1.0  -0.1515
  C  C752  1  0.971540  0.622460  0.739570  1.0  0.0781
  C  C753  1  0.946200  0.609870  0.673070  1.0  -0.1705
  C  C754  1  0.958740  0.598390  0.607070  1.0  0.187
  C  C755  1  0.020100  0.613250  0.665270  1.0  0.1629
  C  C756  1  0.009460  0.624560  0.733770  1.0  -0.1887
  C  C757  1  0.826830  0.445390  0.594000  1.0  -0.1483
  C  C758  1  0.830480  0.408370  0.625900  1.0  -0.1629
  C  C759  1  0.870750  0.480530  0.570800  1.0  -0.0701
  C  C760  1  0.884130  0.464290  0.500700  1.0  -0.1539
  C  C761  1  0.885020  0.424510  0.526500  1.0  -0.1587
  C  C762  1  0.875320  0.417930  0.615500  1.0  -0.0895
  C  C763  1  0.900440  0.488910  0.636400  1.0  -0.1021
  C  C764  1  0.903370  0.456890  0.658800  1.0  -0.1082
  C  C765  1  0.806040  0.462000  0.648400  1.0  0.7008
  C  C766  1  0.814390  0.394000  0.708200  1.0  0.6966
  C  C767  1  0.925030  0.496060  0.464000  1.0  0.6951
  C  C768  1  0.925610  0.426400  0.510600  1.0  0.6512
  C  C769  1  0.827330  0.563820  0.701700  1.0  0.1661
  C  C770  1  0.843820  0.603660  0.675100  1.0  -0.1973
  C  C771  1  0.861890  0.636740  0.726900  1.0  0.104
  C  C772  1  0.860420  0.627140  0.805800  1.0  -0.161
  C  C773  1  0.844010  0.586270  0.828400  1.0  0.1816
  C  C774  1  0.884800  0.680060  0.701900  1.0  -0.1761
  C  C775  1  0.892030  0.692500  0.627900  1.0  -0.0782
  C  C776  1  0.920110  0.734250  0.598600  1.0  0.1108
  C  C777  1  0.928120  0.739380  0.518900  1.0  -0.2185
  C  C778  1  0.957850  0.776830  0.489900  1.0  0.1752
  C  C779  1  0.971130  0.805980  0.610600  1.0  0.1739
  C  C780  1  0.941990  0.769280  0.644700  1.0  -0.1942
  C  C781  1  0.042940  0.644750  0.422700  1.0  0.1742
  C  C782  1  0.051740  0.668280  0.355800  1.0  -0.2069
  C  C783  1  0.029840  0.650440  0.287800  1.0  0.1009
  C  C784  1  0.999040  0.608830  0.291600  1.0  -0.193
  C  C785  1  0.992340  0.587480  0.360900  1.0  0.1679
  C  C786  1  0.039180  0.674190  0.216200  1.0  -0.1516
  C  C787  1  0.033690  0.658230  0.144600  1.0  -0.1506
  C  C788  1  0.044210  0.682420  0.072900  1.0  0.0794
  C  C789  1  0.056800  0.669670  0.006400  1.0  -0.1695
  C  C790  1  0.068280  0.693690  0.940400  1.0  0.1853
  C  C791  1  0.053420  0.740190  0.998600  1.0  0.1634
  C  C792  1  0.042110  0.718240  0.067100  1.0  -0.1944
  C  C793  1  0.493500  0.778720  0.927330  1.0  -0.1483
  C  C794  1  0.497150  0.741700  0.959230  1.0  -0.1629
  C  C795  1  0.537420  0.813860  0.904130  1.0  -0.0701
  C  C796  1  0.550800  0.797620  0.834030  1.0  -0.1539
  C  C797  1  0.551690  0.757840  0.859830  1.0  -0.1587
  C  C798  1  0.541990  0.751260  0.948830  1.0  -0.0895
  C  C799  1  0.567110  0.822240  0.969730  1.0  -0.1021
  C  C800  1  0.570040  0.790220  0.992130  1.0  -0.1083
  C  C801  1  0.472710  0.795330  0.981730  1.0  0.7008
  C  C802  1  0.481060  0.727330  0.041530  1.0  0.6965
  C  C803  1  0.591700  0.829390  0.797330  1.0  0.6951
  C  C804  1  0.592280  0.759730  0.843930  1.0  0.6512
  C  C805  1  0.494000  0.897150  0.035030  1.0  0.1662
  C  C806  1  0.510490  0.936990  0.008430  1.0  -0.1976
  C  C807  1  0.528560  0.970070  0.060230  1.0  0.1038
  C  C808  1  0.527090  0.960470  0.139130  1.0  -0.161
  C  C809  1  0.510680  0.919600  0.161730  1.0  0.1812
  C  C810  1  0.551470  0.013390  0.035230  1.0  -0.1752
  C  C811  1  0.558700  0.025830  0.961230  1.0  -0.0782
  C  C812  1  0.586780  0.067580  0.931930  1.0  0.1108
  C  C813  1  0.594790  0.072710  0.852230  1.0  -0.2185
  C  C814  1  0.624520  0.110160  0.823230  1.0  0.1751
  C  C815  1  0.637800  0.139310  0.943930  1.0  0.1738
  C  C816  1  0.608660  0.102610  0.978030  1.0  -0.1943
  C  C817  1  0.709610  0.978080  0.756030  1.0  0.1743
  C  C818  1  0.718410  0.001610  0.689130  1.0  -0.2069
  C  C819  1  0.696510  0.983770  0.621130  1.0  0.101
  C  C820  1  0.665710  0.942160  0.624930  1.0  -0.193
  C  C821  1  0.659010  0.920810  0.694230  1.0  0.1679
  C  C822  1  0.705850  0.007520  0.549530  1.0  -0.1516
  C  C823  1  0.700360  0.991560  0.477930  1.0  -0.1506
  C  C824  1  0.710880  0.015750  0.406230  1.0  0.0793
  C  C825  1  0.723470  0.003000  0.339730  1.0  -0.1695
  C  C826  1  0.734950  0.027020  0.273730  1.0  0.1853
  C  C827  1  0.720090  0.073520  0.331930  1.0  0.1636
  C  C828  1  0.708780  0.051570  0.400430  1.0  -0.1944
  C  C829  1  0.160160  0.112060  0.260670  1.0  -0.1483
  C  C830  1  0.163810  0.075040  0.292570  1.0  -0.1629
  C  C831  1  0.204080  0.147200  0.237470  1.0  -0.0701
  C  C832  1  0.217460  0.130960  0.167370  1.0  -0.1539
  C  C833  1  0.218350  0.091180  0.193170  1.0  -0.1587
  C  C834  1  0.208650  0.084600  0.282170  1.0  -0.0895
  C  C835  1  0.233770  0.155580  0.303070  1.0  -0.1021
  C  C836  1  0.236700  0.123560  0.325470  1.0  -0.1082
  C  C837  1  0.139370  0.128670  0.315070  1.0  0.7008
  C  C838  1  0.147720  0.060670  0.374870  1.0  0.6966
  C  C839  1  0.258360  0.162730  0.130670  1.0  0.6949
  C  C840  1  0.258940  0.093070  0.177270  1.0  0.6512
  C  C841  1  0.160660  0.230490  0.368370  1.0  0.1661
  C  C842  1  0.177150  0.270330  0.341770  1.0  -0.1975
  C  C843  1  0.195220  0.303410  0.393570  1.0  0.1039
  C  C844  1  0.193750  0.293810  0.472470  1.0  -0.161
  C  C845  1  0.177340  0.252940  0.495070  1.0  0.1812
  C  C846  1  0.218130  0.346730  0.368570  1.0  -0.1758
  C  C847  1  0.225360  0.359170  0.294570  1.0  -0.0782
  C  C848  1  0.253440  0.400920  0.265270  1.0  0.1108
  C  C849  1  0.261450  0.406050  0.185570  1.0  -0.2185
  C  C850  1  0.291180  0.443500  0.156570  1.0  0.1751
  C  C851  1  0.304460  0.472650  0.277270  1.0  0.1739
  C  C852  1  0.275320  0.435950  0.311370  1.0  -0.1943
  C  C853  1  0.376270  0.311420  0.089370  1.0  0.1742
  C  C854  1  0.385070  0.334950  0.022470  1.0  -0.2069
  C  C855  1  0.363170  0.317110  0.954470  1.0  0.1009
  C  C856  1  0.332370  0.275500  0.958270  1.0  -0.193
  C  C857  1  0.325670  0.254150  0.027570  1.0  0.1679
  C  C858  1  0.372510  0.340860  0.882870  1.0  -0.1517
  C  C859  1  0.367020  0.324900  0.811270  1.0  -0.1506
  C  C860  1  0.377540  0.349090  0.739570  1.0  0.0794
  C  C861  1  0.390130  0.336340  0.673070  1.0  -0.1695
  C  C862  1  0.401610  0.360360  0.607070  1.0  0.1853
  C  C863  1  0.386750  0.406860  0.665270  1.0  0.1634
  C  C864  1  0.375440  0.384910  0.733770  1.0  -0.1944
  C  C865  1  0.445390  0.618560  0.406000  1.0  -0.1516
  C  C866  1  0.408370  0.577890  0.374100  1.0  -0.16
  C  C867  1  0.480530  0.609780  0.429200  1.0  -0.0666
  C  C868  1  0.464290  0.580160  0.499300  1.0  -0.1545
  C  C869  1  0.424510  0.539490  0.473500  1.0  -0.1559
  C  C870  1  0.417930  0.542610  0.384500  1.0  -0.0884
  C  C871  1  0.488910  0.588470  0.363600  1.0  -0.1056
  C  C872  1  0.456890  0.553520  0.341200  1.0  -0.11
  C  C873  1  0.462000  0.655960  0.351600  1.0  0.7017
  C  C874  1  0.394000  0.579610  0.291800  1.0  0.7026
  C  C875  1  0.496060  0.571030  0.536000  1.0  0.6991
  C  C876  1  0.426400  0.500790  0.489400  1.0  0.652
  C  C877  1  0.563820  0.736490  0.298300  1.0  0.1687
  C  C878  1  0.603660  0.759840  0.324900  1.0  -0.195
  C  C879  1  0.636740  0.774850  0.273100  1.0  0.1068
  C  C880  1  0.627140  0.766720  0.194200  1.0  -0.1621
  C  C881  1  0.586270  0.742260  0.171600  1.0  0.1827
  C  C882  1  0.680060  0.795260  0.298100  1.0  -0.177
  C  C883  1  0.692500  0.800470  0.372100  1.0  -0.0764
  C  C884  1  0.734250  0.814140  0.401400  1.0  0.1119
  C  C885  1  0.739380  0.811260  0.481100  1.0  -0.2209
  C  C886  1  0.776830  0.818980  0.510100  1.0  0.1741
  C  C887  1  0.805980  0.834850  0.389400  1.0  0.1741
  C  C888  1  0.769280  0.827290  0.355300  1.0  -0.1921
  C  C889  1  0.644750  0.601810  0.577300  1.0  0.1756
  C  C890  1  0.668280  0.616540  0.644200  1.0  -0.2061
  C  C891  1  0.650440  0.620600  0.712200  1.0  0.0987
  C  C892  1  0.608830  0.609790  0.708400  1.0  -0.1861
  C  C893  1  0.587480  0.595140  0.639100  1.0  0.1735
  C  C894  1  0.674190  0.635010  0.783800  1.0  -0.1505
  C  C895  1  0.658230  0.624540  0.855400  1.0  -0.1514
  C  C896  1  0.682420  0.638210  0.927100  1.0  0.0776
  C  C897  1  0.669670  0.612870  0.993600  1.0  -0.1699
  C  C898  1  0.693690  0.625410  0.059600  1.0  0.1858
  C  C899  1  0.740190  0.686770  0.001400  1.0  0.1643
  C  C900  1  0.718240  0.676130  0.932900  1.0  -0.1928
  C  C901  1  0.112060  0.951890  0.739330  1.0  -0.1516
  C  C902  1  0.075040  0.911220  0.707430  1.0  -0.16
  C  C903  1  0.147200  0.943110  0.762530  1.0  -0.0666
  C  C904  1  0.130960  0.913490  0.832630  1.0  -0.1545
  C  C905  1  0.091180  0.872820  0.806830  1.0  -0.1559
  C  C906  1  0.084600  0.875940  0.717830  1.0  -0.0883
  C  C907  1  0.155580  0.921800  0.696930  1.0  -0.1052
  C  C908  1  0.123560  0.886850  0.674530  1.0  -0.11
  C  C909  1  0.128670  0.989290  0.684930  1.0  0.7018
  C  C910  1  0.060670  0.912940  0.625130  1.0  0.7026
  C  C911  1  0.162730  0.904360  0.869330  1.0  0.699
  C  C912  1  0.093070  0.834120  0.822730  1.0  0.652
  C  C913  1  0.230490  0.069820  0.631630  1.0  0.1687
  C  C914  1  0.270330  0.093170  0.658230  1.0  -0.1953
  C  C915  1  0.303410  0.108180  0.606430  1.0  0.1068
  C  C916  1  0.293810  0.100050  0.527530  1.0  -0.1621
  C  C917  1  0.252940  0.075590  0.504930  1.0  0.1827
  C  C918  1  0.346730  0.128590  0.631430  1.0  -0.177
  C  C919  1  0.359170  0.133800  0.705430  1.0  -0.0764
  C  C920  1  0.400920  0.147470  0.734730  1.0  0.1119
  C  C921  1  0.406050  0.144590  0.814430  1.0  -0.2209
  C  C922  1  0.443500  0.152310  0.843430  1.0  0.1741
  C  C923  1  0.472650  0.168180  0.722730  1.0  0.1741
  C  C924  1  0.435950  0.160620  0.688630  1.0  -0.1921
  C  C925  1  0.311420  0.935140  0.910630  1.0  0.1755
  C  C926  1  0.334950  0.949870  0.977530  1.0  -0.206
  C  C927  1  0.317110  0.953930  0.045530  1.0  0.0986
  C  C928  1  0.275500  0.943120  0.041730  1.0  -0.1861
  C  C929  1  0.254150  0.928470  0.972430  1.0  0.1735
  C  C930  1  0.340860  0.968340  0.117130  1.0  -0.1506
  C  C931  1  0.324900  0.957870  0.188730  1.0  -0.1514
  C  C932  1  0.349090  0.971540  0.260430  1.0  0.0778
  C  C933  1  0.336340  0.946200  0.326930  1.0  -0.1699
  C  C934  1  0.360360  0.958740  0.392930  1.0  0.1858
  C  C935  1  0.406860  0.020100  0.334730  1.0  0.1641
  C  C936  1  0.384910  0.009460  0.266230  1.0  -0.193
  C  C937  1  0.778720  0.285230  0.072670  1.0  -0.1516
  C  C938  1  0.741700  0.244560  0.040770  1.0  -0.16
  C  C939  1  0.813860  0.276450  0.095870  1.0  -0.0666
  C  C940  1  0.797620  0.246830  0.165970  1.0  -0.1545
  C  C941  1  0.757840  0.206160  0.140170  1.0  -0.1559
  C  C942  1  0.751260  0.209280  0.051170  1.0  -0.0884
  C  C943  1  0.822240  0.255140  0.030270  1.0  -0.1056
  C  C944  1  0.790220  0.220190  0.007870  1.0  -0.11
  C  C945  1  0.795330  0.322630  0.018270  1.0  0.7018
  C  C946  1  0.727330  0.246280  0.958470  1.0  0.7026
  C  C947  1  0.829390  0.237700  0.202670  1.0  0.6991
  C  C948  1  0.759730  0.167460  0.156070  1.0  0.652
  C  C949  1  0.897150  0.403160  0.964970  1.0  0.1683
  C  C950  1  0.936990  0.426510  0.991570  1.0  -0.195
  C  C951  1  0.970070  0.441520  0.939770  1.0  0.1068
  C  C952  1  0.960470  0.433390  0.860870  1.0  -0.1619
  C  C953  1  0.919600  0.408930  0.838270  1.0  0.1831
  C  C954  1  0.013390  0.461930  0.964770  1.0  -0.177
  C  C955  1  0.025830  0.467140  0.038770  1.0  -0.0764
  C  C956  1  0.067580  0.480810  0.068070  1.0  0.112
  C  C957  1  0.072710  0.477930  0.147770  1.0  -0.221
  C  C958  1  0.110160  0.485650  0.176770  1.0  0.1742
  C  C959  1  0.139310  0.501520  0.056070  1.0  0.1741
  C  C960  1  0.102610  0.493960  0.021970  1.0  -0.1921
  C  C961  1  0.978080  0.268480  0.243970  1.0  0.1756
  C  C962  1  0.001610  0.283210  0.310870  1.0  -0.2061
  C  C963  1  0.983770  0.287270  0.378870  1.0  0.0987
  C  C964  1  0.942160  0.276460  0.375070  1.0  -0.1861
  C  C965  1  0.920810  0.261810  0.305770  1.0  0.1735
  C  C966  1  0.007520  0.301680  0.450470  1.0  -0.1505
  C  C967  1  0.991560  0.291210  0.522070  1.0  -0.1514
  C  C968  1  0.015750  0.304880  0.593770  1.0  0.0778
  C  C969  1  0.003000  0.279540  0.660270  1.0  -0.1699
  C  C970  1  0.027020  0.292080  0.726270  1.0  0.1858
  C  C971  1  0.073520  0.353440  0.668070  1.0  0.1642
  C  C972  1  0.051570  0.342800  0.599570  1.0  -0.1928
  C  C973  1  0.381440  0.826830  0.406000  1.0  -0.1461
  C  C974  1  0.422110  0.830480  0.374100  1.0  -0.1597
  C  C975  1  0.390220  0.870750  0.429200  1.0  -0.0688
  C  C976  1  0.419840  0.884130  0.499300  1.0  -0.1537
  C  C977  1  0.460510  0.885020  0.473500  1.0  -0.1571
  C  C978  1  0.457390  0.875320  0.384500  1.0  -0.089
  C  C979  1  0.411530  0.900440  0.363600  1.0  -0.1045
  C  C980  1  0.446480  0.903370  0.341200  1.0  -0.1058
  C  C981  1  0.344040  0.806040  0.351600  1.0  0.6996
  C  C982  1  0.420390  0.814390  0.291800  1.0  0.707
  C  C983  1  0.428970  0.925030  0.536000  1.0  0.6968
  C  C984  1  0.499210  0.925610  0.489400  1.0  0.6512
  C  C985  1  0.263510  0.827330  0.298300  1.0  0.1677
  C  C986  1  0.240160  0.843820  0.324900  1.0  -0.1961
  C  C987  1  0.225150  0.861890  0.273100  1.0  0.104
  C  C988  1  0.233280  0.860420  0.194200  1.0  -0.1639
  C  C989  1  0.257740  0.844010  0.171600  1.0  0.1813
  C  C990  1  0.204740  0.884800  0.298100  1.0  -0.1767
  C  C991  1  0.199530  0.892030  0.372100  1.0  -0.0758
  C  C992  1  0.185860  0.920110  0.401400  1.0  0.1101
  C  C993  1  0.188740  0.928120  0.481100  1.0  -0.2175
  C  C994  1  0.181020  0.957850  0.510100  1.0  0.1748
  C  C995  1  0.165150  0.971130  0.389400  1.0  0.1752
  C  C996  1  0.172710  0.941990  0.355300  1.0  -0.1864
  C  C997  1  0.398190  0.042940  0.577300  1.0  0.1743
  C  C998  1  0.383460  0.051740  0.644200  1.0  -0.2059
  C  C999  1  0.379400  0.029840  0.712200  1.0  0.0981
  C  C1000  1  0.390210  0.999040  0.708400  1.0  -0.1913
  C  C1001  1  0.404860  0.992340  0.639100  1.0  0.1695
  C  C1002  1  0.364990  0.039180  0.783800  1.0  -0.1529
  C  C1003  1  0.375460  0.033690  0.855400  1.0  -0.1528
  C  C1004  1  0.361790  0.044210  0.927100  1.0  0.0787
  C  C1005  1  0.387130  0.056800  0.993600  1.0  -0.1719
  C  C1006  1  0.374590  0.068280  0.059600  1.0  0.187
  C  C1007  1  0.313230  0.053420  0.001400  1.0  0.1646
  C  C1008  1  0.323870  0.042110  0.932900  1.0  -0.1893
  C  C1009  1  0.048110  0.160160  0.739330  1.0  -0.1461
  C  C1010  1  0.088780  0.163810  0.707430  1.0  -0.1597
  C  C1011  1  0.056890  0.204080  0.762530  1.0  -0.0688
  C  C1012  1  0.086510  0.217460  0.832630  1.0  -0.1537
  C  C1013  1  0.127180  0.218350  0.806830  1.0  -0.1571
  C  C1014  1  0.124060  0.208650  0.717830  1.0  -0.089
  C  C1015  1  0.078200  0.233770  0.696930  1.0  -0.1045
  C  C1016  1  0.113150  0.236700  0.674530  1.0  -0.1058
  C  C1017  1  0.010710  0.139370  0.684930  1.0  0.6996
  C  C1018  1  0.087060  0.147720  0.625130  1.0  0.707
  C  C1019  1  0.095640  0.258360  0.869330  1.0  0.697
  C  C1020  1  0.165880  0.258940  0.822730  1.0  0.6512
  C  C1021  1  0.930180  0.160660  0.631630  1.0  0.1677
  C  C1022  1  0.906830  0.177150  0.658230  1.0  -0.1961
  C  C1023  1  0.891820  0.195220  0.606430  1.0  0.104
  C  C1024  1  0.899950  0.193750  0.527530  1.0  -0.1639
  C  C1025  1  0.924410  0.177340  0.504930  1.0  0.1813
  C  C1026  1  0.871410  0.218130  0.631430  1.0  -0.1767
  C  C1027  1  0.866200  0.225360  0.705430  1.0  -0.0758
  C  C1028  1  0.852530  0.253440  0.734730  1.0  0.1101
  C  C1029  1  0.855410  0.261450  0.814430  1.0  -0.2175
  C  C1030  1  0.847690  0.291180  0.843430  1.0  0.1748
  C  C1031  1  0.831820  0.304460  0.722730  1.0  0.1751
  C  C1032  1  0.839380  0.275320  0.688630  1.0  -0.1864
  C  C1033  1  0.064860  0.376270  0.910630  1.0  0.1743
  C  C1034  1  0.050130  0.385070  0.977530  1.0  -0.2059
  C  C1035  1  0.046070  0.363170  0.045530  1.0  0.0982
  C  C1036  1  0.056880  0.332370  0.041730  1.0  -0.1913
  C  C1037  1  0.071530  0.325670  0.972430  1.0  0.1695
  C  C1038  1  0.031660  0.372510  0.117130  1.0  -0.1529
  C  C1039  1  0.042130  0.367020  0.188730  1.0  -0.1528
  C  C1040  1  0.028460  0.377540  0.260430  1.0  0.0785
  C  C1041  1  0.053800  0.390130  0.326930  1.0  -0.1719
  C  C1042  1  0.041260  0.401610  0.392930  1.0  0.187
  C  C1043  1  0.979900  0.386750  0.334730  1.0  0.1648
  C  C1044  1  0.990540  0.375440  0.266230  1.0  -0.1893
  C  C1045  1  0.714770  0.493500  0.072670  1.0  -0.1461
  C  C1046  1  0.755440  0.497150  0.040770  1.0  -0.1597
  C  C1047  1  0.723550  0.537420  0.095870  1.0  -0.0688
  C  C1048  1  0.753170  0.550800  0.165970  1.0  -0.1537
  C  C1049  1  0.793840  0.551690  0.140170  1.0  -0.1571
  C  C1050  1  0.790720  0.541990  0.051170  1.0  -0.0891
  C  C1051  1  0.744860  0.567110  0.030270  1.0  -0.1045
  C  C1052  1  0.779810  0.570040  0.007870  1.0  -0.1058
  C  C1053  1  0.677370  0.472710  0.018270  1.0  0.6996
  C  C1054  1  0.753720  0.481060  0.958470  1.0  0.7071
  C  C1055  1  0.762300  0.591700  0.202670  1.0  0.6968
  C  C1056  1  0.832540  0.592280  0.156070  1.0  0.6512
  C  C1057  1  0.596840  0.494000  0.964970  1.0  0.1676
  C  C1058  1  0.573490  0.510490  0.991570  1.0  -0.1963
  C  C1059  1  0.558480  0.528560  0.939770  1.0  0.104
  C  C1060  1  0.566610  0.527090  0.860870  1.0  -0.1639
  C  C1061  1  0.591070  0.510680  0.838270  1.0  0.1813
  C  C1062  1  0.538070  0.551470  0.964770  1.0  -0.1773
  C  C1063  1  0.532860  0.558700  0.038770  1.0  -0.0758
  C  C1064  1  0.519190  0.586780  0.068070  1.0  0.1101
  C  C1065  1  0.522070  0.594790  0.147770  1.0  -0.2175
  C  C1066  1  0.514350  0.624520  0.176770  1.0  0.1748
  C  C1067  1  0.498480  0.637800  0.056070  1.0  0.1752
  C  C1068  1  0.506040  0.608660  0.021970  1.0  -0.1864
  C  C1069  1  0.731520  0.709610  0.243970  1.0  0.1742
  C  C1070  1  0.716790  0.718410  0.310870  1.0  -0.2059
  C  C1071  1  0.712730  0.696510  0.378870  1.0  0.098
  C  C1072  1  0.723540  0.665710  0.375070  1.0  -0.1913
  C  C1073  1  0.738190  0.659010  0.305770  1.0  0.1695
  C  C1074  1  0.698320  0.705850  0.450470  1.0  -0.1529
  C  C1075  1  0.708790  0.700360  0.522070  1.0  -0.1528
  C  C1076  1  0.695120  0.710880  0.593770  1.0  0.0787
  C  C1077  1  0.720460  0.723470  0.660270  1.0  -0.1719
  C  C1078  1  0.707920  0.734950  0.726270  1.0  0.187
  C  C1079  1  0.646560  0.720090  0.668070  1.0  0.1647
  C  C1080  1  0.657200  0.708780  0.599570  1.0  -0.1893
  C  C1081  1  0.173170  0.554610  0.406000  1.0  -0.1492
  C  C1082  1  0.169520  0.591630  0.374100  1.0  -0.1625
  C  C1083  1  0.129250  0.519470  0.429200  1.0  -0.0699
  C  C1084  1  0.115870  0.535710  0.499300  1.0  -0.1528
  C  C1085  1  0.114980  0.575490  0.473500  1.0  -0.1576
  C  C1086  1  0.124680  0.582070  0.384500  1.0  -0.0903
  C  C1087  1  0.099560  0.511090  0.363600  1.0  -0.1053
  C  C1088  1  0.096630  0.543110  0.341200  1.0  -0.1094
  C  C1089  1  0.193960  0.538000  0.351600  1.0  0.7043
  C  C1090  1  0.185610  0.606000  0.291800  1.0  0.7036
  C  C1091  1  0.074970  0.503940  0.536000  1.0  0.6966
  C  C1092  1  0.074390  0.573600  0.489400  1.0  0.6485
  C  C1093  1  0.172670  0.436180  0.298300  1.0  0.1677
  C  C1094  1  0.156180  0.396340  0.324900  1.0  -0.1966
  C  C1095  1  0.138110  0.363260  0.273100  1.0  0.1045
  C  C1096  1  0.139580  0.372860  0.194200  1.0  -0.1628
  C  C1097  1  0.155990  0.413730  0.171600  1.0  0.1822
  C  C1098  1  0.115200  0.319940  0.298100  1.0  -0.1758
  C  C1099  1  0.107970  0.307500  0.372100  1.0  -0.077
  C  C1100  1  0.079890  0.265750  0.401400  1.0  0.1121
  C  C1101  1  0.071880  0.260620  0.481100  1.0  -0.2198
  C  C1102  1  0.042150  0.223170  0.510100  1.0  0.1744
  C  C1103  1  0.028870  0.194020  0.389400  1.0  0.173
  C  C1104  1  0.058010  0.230720  0.355300  1.0  -0.192
  C  C1105  1  0.957060  0.355250  0.577300  1.0  0.1735
  C  C1106  1  0.948260  0.331720  0.644200  1.0  -0.2057
  C  C1107  1  0.970160  0.349560  0.712200  1.0  0.1005
  C  C1108  1  0.000960  0.391170  0.708400  1.0  -0.1929
  C  C1109  1  0.007660  0.412520  0.639100  1.0  0.1688
  C  C1110  1  0.960820  0.325810  0.783800  1.0  -0.1515
  C  C1111  1  0.966310  0.341770  0.855400  1.0  -0.1512
  C  C1112  1  0.955790  0.317580  0.927100  1.0  0.0798
  C  C1113  1  0.943200  0.330330  0.993600  1.0  -0.1686
  C  C1114  1  0.931720  0.306310  0.059600  1.0  0.1871
  C  C1115  1  0.946580  0.259810  0.001400  1.0  0.1632
  C  C1116  1  0.957890  0.281760  0.932900  1.0  -0.1936
  C  C1117  1  0.839840  0.887940  0.739330  1.0  -0.1492
  C  C1118  1  0.836190  0.924960  0.707430  1.0  -0.1625
  C  C1119  1  0.795920  0.852800  0.762530  1.0  -0.0699
  C  C1120  1  0.782540  0.869040  0.832630  1.0  -0.1528
  C  C1121  1  0.781650  0.908820  0.806830  1.0  -0.1576
  C  C1122  1  0.791350  0.915400  0.717830  1.0  -0.0903
  C  C1123  1  0.766230  0.844420  0.696930  1.0  -0.1053
  C  C1124  1  0.763300  0.876440  0.674530  1.0  -0.1094
  C  C1125  1  0.860630  0.871330  0.684930  1.0  0.7043
  C  C1126  1  0.852280  0.939330  0.625130  1.0  0.7036
  C  C1127  1  0.741640  0.837270  0.869330  1.0  0.6964
  C  C1128  1  0.741060  0.906930  0.822730  1.0  0.6485
  C  C1129  1  0.839340  0.769510  0.631630  1.0  0.1677
  C  C1130  1  0.822850  0.729670  0.658230  1.0  -0.1966
  C  C1131  1  0.804780  0.696590  0.606430  1.0  0.1044
  C  C1132  1  0.806250  0.706190  0.527530  1.0  -0.1628
  C  C1133  1  0.822660  0.747060  0.504930  1.0  0.1818
  C  C1134  1  0.781870  0.653270  0.631430  1.0  -0.1755
  C  C1135  1  0.774640  0.640830  0.705430  1.0  -0.077
  C  C1136  1  0.746560  0.599080  0.734730  1.0  0.1121
  C  C1137  1  0.738550  0.593950  0.814430  1.0  -0.2199
  C  C1138  1  0.708820  0.556500  0.843430  1.0  0.1744
  C  C1139  1  0.695540  0.527350  0.722730  1.0  0.173
  C  C1140  1  0.724680  0.564050  0.688630  1.0  -0.1921
  C  C1141  1  0.623730  0.688580  0.910630  1.0  0.1735
  C  C1142  1  0.614930  0.665050  0.977530  1.0  -0.2057
  C  C1143  1  0.636830  0.682890  0.045530  1.0  0.1005
  C  C1144  1  0.667630  0.724500  0.041730  1.0  -0.1929
  C  C1145  1  0.674330  0.745850  0.972430  1.0  0.1688
  C  C1146  1  0.627490  0.659140  0.117130  1.0  -0.1515
  C  C1147  1  0.632980  0.675100  0.188730  1.0  -0.1512
  C  C1148  1  0.622460  0.650910  0.260430  1.0  0.0798
  C  C1149  1  0.609870  0.663660  0.326930  1.0  -0.1686
  C  C1150  1  0.598390  0.639640  0.392930  1.0  0.1871
  C  C1151  1  0.613250  0.593140  0.334730  1.0  0.1631
  C  C1152  1  0.624560  0.615090  0.266230  1.0  -0.1937
  C  C1153  1  0.506500  0.221280  0.072670  1.0  -0.1492
  C  C1154  1  0.502850  0.258300  0.040770  1.0  -0.1625
  C  C1155  1  0.462580  0.186140  0.095870  1.0  -0.0699
  C  C1156  1  0.449200  0.202380  0.165970  1.0  -0.1528
  C  C1157  1  0.448310  0.242160  0.140170  1.0  -0.1576
  C  C1158  1  0.458010  0.248740  0.051170  1.0  -0.0903
  C  C1159  1  0.432890  0.177760  0.030270  1.0  -0.1053
  C  C1160  1  0.429960  0.209780  0.007870  1.0  -0.1093
  C  C1161  1  0.527290  0.204670  0.018270  1.0  0.7043
  C  C1162  1  0.518940  0.272670  0.958470  1.0  0.7037
  C  C1163  1  0.408300  0.170610  0.202670  1.0  0.6966
  C  C1164  1  0.407720  0.240270  0.156070  1.0  0.6485
  C  C1165  1  0.506000  0.102850  0.964970  1.0  0.1678
  C  C1166  1  0.489510  0.063010  0.991570  1.0  -0.1969
  C  C1167  1  0.471440  0.029930  0.939770  1.0  0.1044
  C  C1168  1  0.472910  0.039530  0.860870  1.0  -0.1628
  C  C1169  1  0.489320  0.080400  0.838270  1.0  0.1818
  C  C1170  1  0.448530  0.986610  0.964770  1.0  -0.1748
  C  C1171  1  0.441300  0.974170  0.038770  1.0  -0.077
  C  C1172  1  0.413220  0.932420  0.068070  1.0  0.112
  C  C1173  1  0.405210  0.927290  0.147770  1.0  -0.2199
  C  C1174  1  0.375480  0.889840  0.176770  1.0  0.1744
  C  C1175  1  0.362200  0.860690  0.056070  1.0  0.1729
  C  C1176  1  0.391340  0.897390  0.021970  1.0  -0.192
  C  C1177  1  0.290390  0.021920  0.243970  1.0  0.1736
  C  C1178  1  0.281590  0.998390  0.310870  1.0  -0.2057
  C  C1179  1  0.303490  0.016230  0.378870  1.0  0.1007
  C  C1180  1  0.334290  0.057840  0.375070  1.0  -0.193
  C  C1181  1  0.340990  0.079190  0.305770  1.0  0.1688
  C  C1182  1  0.294150  0.992480  0.450470  1.0  -0.1515
  C  C1183  1  0.299640  0.008440  0.522070  1.0  -0.1512
  C  C1184  1  0.289120  0.984250  0.593770  1.0  0.0796
  C  C1185  1  0.276530  0.997000  0.660270  1.0  -0.1685
  C  C1186  1  0.265050  0.972980  0.726270  1.0  0.1871
  C  C1187  1  0.279910  0.926480  0.668070  1.0  0.1634
  C  C1188  1  0.291220  0.948430  0.599570  1.0  -0.1936
  N  N1189  1  0.445480  0.273550  0.776900  1.0  -0.3358
  N  N1190  1  0.190030  0.169710  0.534400  1.0  -0.34
  N  N1191  1  0.394830  0.408820  0.425500  1.0  -0.3005
  N  N1192  1  0.271180  0.338440  0.936200  1.0  -0.3385
  N  N1193  1  0.112150  0.606880  0.110230  1.0  -0.3358
  N  N1194  1  0.856700  0.503040  0.867730  1.0  -0.34
  N  N1195  1  0.061500  0.742150  0.758830  1.0  -0.3004
  N  N1196  1  0.937850  0.671770  0.269530  1.0  -0.3385
  N  N1197  1  0.778810  0.940220  0.443570  1.0  -0.3357
  N  N1198  1  0.523360  0.836380  0.201070  1.0  -0.34
  N  N1199  1  0.728160  0.075490  0.092170  1.0  -0.3005
  N  N1200  1  0.604510  0.005110  0.602870  1.0  -0.3385
  N  N1201  1  0.726450  0.171930  0.776900  1.0  -0.3349
  N  N1202  1  0.830290  0.020320  0.534400  1.0  -0.3368
  N  N1203  1  0.591180  0.986010  0.425500  1.0  -0.3019
  N  N1204  1  0.661560  0.932740  0.936200  1.0  -0.3357
  N  N1205  1  0.393120  0.505260  0.110230  1.0  -0.335
  N  N1206  1  0.496960  0.353650  0.867730  1.0  -0.3368
  N  N1207  1  0.257850  0.319340  0.758830  1.0  -0.302
  N  N1208  1  0.328230  0.266070  0.269530  1.0  -0.3355
  N  N1209  1  0.059780  0.838600  0.443570  1.0  -0.3353
  N  N1210  1  0.163620  0.686990  0.201070  1.0  -0.3369
  N  N1211  1  0.924510  0.652680  0.092170  1.0  -0.302
  N  N1212  1  0.994890  0.599410  0.602870  1.0  -0.3359
  N  N1213  1  0.828070  0.554520  0.776900  1.0  -0.3332
  N  N1214  1  0.979680  0.809970  0.534400  1.0  -0.3378
  N  N1215  1  0.013990  0.605170  0.425500  1.0  -0.3007
  N  N1216  1  0.067260  0.728820  0.936200  1.0  -0.3397
  N  N1217  1  0.494740  0.887850  0.110230  1.0  -0.3335
  N  N1218  1  0.646350  0.143300  0.867730  1.0  -0.3378
  N  N1219  1  0.680660  0.938500  0.758830  1.0  -0.3006
  N  N1220  1  0.733930  0.062150  0.269530  1.0  -0.3397
  N  N1221  1  0.161400  0.221190  0.443570  1.0  -0.3332
  N  N1222  1  0.313010  0.476640  0.201070  1.0  -0.3378
  N  N1223  1  0.347320  0.271840  0.092170  1.0  -0.3006
  N  N1224  1  0.400590  0.395490  0.602870  1.0  -0.3397
  N  N1225  1  0.554520  0.726450  0.223100  1.0  -0.3365
  N  N1226  1  0.809970  0.830290  0.465600  1.0  -0.3384
  N  N1227  1  0.605170  0.591180  0.574500  1.0  -0.3029
  N  N1228  1  0.728820  0.661560  0.063800  1.0  -0.3367
  N  N1229  1  0.221190  0.059780  0.556430  1.0  -0.3365
  N  N1230  1  0.476640  0.163620  0.798930  1.0  -0.3384
  N  N1231  1  0.271840  0.924510  0.907830  1.0  -0.3029
  N  N1232  1  0.395490  0.994890  0.397130  1.0  -0.3367
  N  N1233  1  0.887850  0.393120  0.889770  1.0  -0.3365
  N  N1234  1  0.143300  0.496960  0.132270  1.0  -0.3384
  N  N1235  1  0.938500  0.257850  0.241170  1.0  -0.3028
  N  N1236  1  0.062150  0.328230  0.730470  1.0  -0.3367
  N  N1237  1  0.273550  0.828070  0.223100  1.0  -0.3349
  N  N1238  1  0.169710  0.979680  0.465600  1.0  -0.339
  N  N1239  1  0.408820  0.013990  0.574500  1.0  -0.301
  N  N1240  1  0.338440  0.067260  0.063800  1.0  -0.3374
  N  N1241  1  0.940220  0.161400  0.556430  1.0  -0.3352
  N  N1242  1  0.836380  0.313010  0.798930  1.0  -0.3391
  N  N1243  1  0.075490  0.347320  0.907830  1.0  -0.3011
  N  N1244  1  0.005110  0.400590  0.397130  1.0  -0.3374
  N  N1245  1  0.606880  0.494740  0.889770  1.0  -0.3349
  N  N1246  1  0.503040  0.646350  0.132270  1.0  -0.3389
  N  N1247  1  0.742150  0.680660  0.241170  1.0  -0.3011
  N  N1248  1  0.671770  0.733930  0.730470  1.0  -0.3373
  N  N1249  1  0.171930  0.445480  0.223100  1.0  -0.3324
  N  N1250  1  0.020320  0.190030  0.465600  1.0  -0.3402
  N  N1251  1  0.986010  0.394830  0.574500  1.0  -0.3017
  N  N1252  1  0.932740  0.271180  0.063800  1.0  -0.3391
  N  N1253  1  0.838600  0.778810  0.556430  1.0  -0.3324
  N  N1254  1  0.686990  0.523360  0.798930  1.0  -0.3402
  N  N1255  1  0.652680  0.728160  0.907830  1.0  -0.3016
  N  N1256  1  0.599410  0.604510  0.397130  1.0  -0.3391
  N  N1257  1  0.505260  0.112150  0.889770  1.0  -0.3328
  N  N1258  1  0.353650  0.856700  0.132270  1.0  -0.3402
  N  N1259  1  0.319340  0.061500  0.241170  1.0  -0.3017
  N  N1260  1  0.266070  0.937850  0.730470  1.0  -0.3391
  O  O1261  1  0.523420  0.346070  0.712660  1.0  -0.5849
  O  O1262  1  0.537690  0.312420  0.622700  1.0  -0.5079
  O  O1263  1  0.615910  0.393280  0.722270  1.0  -0.5385
  O  O1264  1  0.610050  0.448070  0.754860  1.0  -0.5941
  O  O1265  1  0.599820  0.526780  0.465430  1.0  -0.5833
  O  O1266  1  0.546570  0.504840  0.542390  1.0  -0.5688
  O  O1267  1  0.513270  0.447100  0.399960  1.0  -0.5461
  O  O1268  1  0.470900  0.417760  0.500980  1.0  -0.5988
  O  O1269  1  0.190090  0.679400  0.045990  1.0  -0.5851
  O  O1270  1  0.204360  0.645750  0.956030  1.0  -0.5079
  O  O1271  1  0.282580  0.726610  0.055600  1.0  -0.5385
  O  O1272  1  0.276720  0.781400  0.088190  1.0  -0.5942
  O  O1273  1  0.266490  0.860110  0.798760  1.0  -0.5834
  O  O1274  1  0.213240  0.838170  0.875720  1.0  -0.5688
  O  O1275  1  0.179940  0.780430  0.733290  1.0  -0.546
  O  O1276  1  0.137570  0.751090  0.834310  1.0  -0.5988
  O  O1277  1  0.856750  0.012740  0.379330  1.0  -0.5849
  O  O1278  1  0.871020  0.979090  0.289370  1.0  -0.5079
  O  O1279  1  0.949240  0.059950  0.388940  1.0  -0.5378
  O  O1280  1  0.943380  0.114740  0.421530  1.0  -0.5941
  O  O1281  1  0.933150  0.193450  0.132100  1.0  -0.5833
  O  O1282  1  0.879900  0.171510  0.209060  1.0  -0.5688
  O  O1283  1  0.846600  0.113770  0.066630  1.0  -0.5461
  O  O1284  1  0.804230  0.084430  0.167650  1.0  -0.5988
  O  O1285  1  0.653930  0.177350  0.712660  1.0  -0.5815
  O  O1286  1  0.687580  0.225270  0.622700  1.0  -0.5099
  O  O1287  1  0.606720  0.222630  0.722270  1.0  -0.5466
  O  O1288  1  0.551930  0.161980  0.754860  1.0  -0.5949
  O  O1289  1  0.473220  0.073040  0.465430  1.0  -0.5833
  O  O1290  1  0.495160  0.041730  0.542390  1.0  -0.5683
  O  O1291  1  0.552900  0.066170  0.399960  1.0  -0.545
  O  O1292  1  0.582240  0.053140  0.500980  1.0  -0.5985
  O  O1293  1  0.320600  0.510680  0.045990  1.0  -0.5815
  O  O1294  1  0.354250  0.558600  0.956030  1.0  -0.5099
  O  O1295  1  0.273390  0.555960  0.055600  1.0  -0.5466
  O  O1296  1  0.218600  0.495310  0.088190  1.0  -0.5949
  O  O1297  1  0.139890  0.406370  0.798760  1.0  -0.5833
  O  O1298  1  0.161830  0.375060  0.875720  1.0  -0.5683
  O  O1299  1  0.219570  0.399500  0.733290  1.0  -0.545
  O  O1300  1  0.248910  0.386470  0.834310  1.0  -0.5986
  O  O1301  1  0.987260  0.844020  0.379330  1.0  -0.5815
  O  O1302  1  0.020910  0.891940  0.289370  1.0  -0.5099
  O  O1303  1  0.940050  0.889300  0.388940  1.0  -0.5466
  O  O1304  1  0.885260  0.828650  0.421530  1.0  -0.5952
  O  O1305  1  0.806550  0.739710  0.132100  1.0  -0.5833
  O  O1306  1  0.828490  0.708400  0.209060  1.0  -0.5683
  O  O1307  1  0.886230  0.732840  0.066630  1.0  -0.545
  O  O1308  1  0.915570  0.719810  0.167650  1.0  -0.5985
  O  O1309  1  0.822650  0.476580  0.712660  1.0  -0.583
  O  O1310  1  0.774730  0.462310  0.622700  1.0  -0.5056
  O  O1311  1  0.777370  0.384090  0.722270  1.0  -0.5423
  O  O1312  1  0.838020  0.389950  0.754860  1.0  -0.5938
  O  O1313  1  0.926960  0.400180  0.465430  1.0  -0.5854
  O  O1314  1  0.958270  0.453430  0.542390  1.0  -0.5686
  O  O1315  1  0.933830  0.486730  0.399960  1.0  -0.546
  O  O1316  1  0.946860  0.529100  0.500980  1.0  -0.5996
  O  O1317  1  0.489320  0.809910  0.045990  1.0  -0.583
  O  O1318  1  0.441400  0.795640  0.956030  1.0  -0.5056
  O  O1319  1  0.444040  0.717420  0.055600  1.0  -0.5423
  O  O1320  1  0.504690  0.723280  0.088190  1.0  -0.5938
  O  O1321  1  0.593630  0.733510  0.798760  1.0  -0.5855
  O  O1322  1  0.624940  0.786760  0.875720  1.0  -0.5686
  O  O1323  1  0.600500  0.820060  0.733290  1.0  -0.5461
  O  O1324  1  0.613530  0.862430  0.834310  1.0  -0.5996
  O  O1325  1  0.155980  0.143250  0.379330  1.0  -0.583
  O  O1326  1  0.108060  0.128980  0.289370  1.0  -0.5056
  O  O1327  1  0.110700  0.050760  0.388940  1.0  -0.5408
  O  O1328  1  0.171350  0.056620  0.421530  1.0  -0.5942
  O  O1329  1  0.260290  0.066850  0.132100  1.0  -0.5854
  O  O1330  1  0.291600  0.120100  0.209060  1.0  -0.5686
  O  O1331  1  0.267160  0.153400  0.066630  1.0  -0.546
  O  O1332  1  0.280190  0.195770  0.167650  1.0  -0.5996
  O  O1333  1  0.476580  0.653930  0.287340  1.0  -0.5839
  O  O1334  1  0.462310  0.687580  0.377300  1.0  -0.5095
  O  O1335  1  0.384090  0.606720  0.277730  1.0  -0.5388
  O  O1336  1  0.389950  0.551930  0.245140  1.0  -0.595
  O  O1337  1  0.400180  0.473220  0.534570  1.0  -0.5842
  O  O1338  1  0.453430  0.495160  0.457610  1.0  -0.569
  O  O1339  1  0.486730  0.552900  0.600040  1.0  -0.5507
  O  O1340  1  0.529100  0.582240  0.499020  1.0  -0.5988
  O  O1341  1  0.143250  0.987260  0.620670  1.0  -0.5839
  O  O1342  1  0.128980  0.020910  0.710630  1.0  -0.5095
  O  O1343  1  0.050760  0.940050  0.611060  1.0  -0.5394
  O  O1344  1  0.056620  0.885260  0.578470  1.0  -0.595
  O  O1345  1  0.066850  0.806550  0.867900  1.0  -0.5842
  O  O1346  1  0.120100  0.828490  0.790940  1.0  -0.569
  O  O1347  1  0.153400  0.886230  0.933370  1.0  -0.5507
  O  O1348  1  0.195770  0.915570  0.832350  1.0  -0.5988
  O  O1349  1  0.809910  0.320600  0.954010  1.0  -0.5841
  O  O1350  1  0.795640  0.354250  0.043970  1.0  -0.5095
  O  O1351  1  0.717420  0.273390  0.944400  1.0  -0.5388
  O  O1352  1  0.723280  0.218600  0.911810  1.0  -0.5952
  O  O1353  1  0.733510  0.139890  0.201240  1.0  -0.5843
  O  O1354  1  0.786760  0.161830  0.124280  1.0  -0.569
  O  O1355  1  0.820060  0.219570  0.266710  1.0  -0.5506
  O  O1356  1  0.862430  0.248910  0.165690  1.0  -0.5988
  O  O1357  1  0.346070  0.822650  0.287340  1.0  -0.5826
  O  O1358  1  0.312420  0.774730  0.377300  1.0  -0.5134
  O  O1359  1  0.393280  0.777370  0.277730  1.0  -0.5456
  O  O1360  1  0.448070  0.838020  0.245140  1.0  -0.5943
  O  O1361  1  0.526780  0.926960  0.534570  1.0  -0.5825
  O  O1362  1  0.504840  0.958270  0.457610  1.0  -0.567
  O  O1363  1  0.447100  0.933830  0.600040  1.0  -0.5493
  O  O1364  1  0.417760  0.946860  0.499020  1.0  -0.5994
  O  O1365  1  0.012740  0.155980  0.620670  1.0  -0.5826
  O  O1366  1  0.979090  0.108060  0.710630  1.0  -0.5134
  O  O1367  1  0.059950  0.110700  0.611060  1.0  -0.5456
  O  O1368  1  0.114740  0.171350  0.578470  1.0  -0.5946
  O  O1369  1  0.193450  0.260290  0.867900  1.0  -0.5825
  O  O1370  1  0.171510  0.291600  0.790940  1.0  -0.567
  O  O1371  1  0.113770  0.267160  0.933370  1.0  -0.5493
  O  O1372  1  0.084430  0.280190  0.832350  1.0  -0.5994
  O  O1373  1  0.679400  0.489320  0.954010  1.0  -0.5826
  O  O1374  1  0.645750  0.441400  0.043970  1.0  -0.5134
  O  O1375  1  0.726610  0.444040  0.944400  1.0  -0.5456
  O  O1376  1  0.781400  0.504690  0.911810  1.0  -0.5943
  O  O1377  1  0.860110  0.593630  0.201240  1.0  -0.5825
  O  O1378  1  0.838170  0.624940  0.124280  1.0  -0.567
  O  O1379  1  0.780430  0.600500  0.266710  1.0  -0.5494
  O  O1380  1  0.751090  0.613530  0.165690  1.0  -0.5994
  O  O1381  1  0.177350  0.523420  0.287340  1.0  -0.5838
  O  O1382  1  0.225270  0.537690  0.377300  1.0  -0.505
  O  O1383  1  0.222630  0.615910  0.277730  1.0  -0.5422
  O  O1384  1  0.161980  0.610050  0.245140  1.0  -0.5928
  O  O1385  1  0.073040  0.599820  0.534570  1.0  -0.5837
  O  O1386  1  0.041730  0.546570  0.457610  1.0  -0.5685
  O  O1387  1  0.066170  0.513270  0.600040  1.0  -0.5501
  O  O1388  1  0.053140  0.470900  0.499020  1.0  -0.5986
  O  O1389  1  0.844020  0.856750  0.620670  1.0  -0.5838
  O  O1390  1  0.891940  0.871020  0.710630  1.0  -0.505
  O  O1391  1  0.889300  0.949240  0.611060  1.0  -0.5419
  O  O1392  1  0.828650  0.943380  0.578470  1.0  -0.5932
  O  O1393  1  0.739710  0.933150  0.867900  1.0  -0.5837
  O  O1394  1  0.708400  0.879900  0.790940  1.0  -0.5685
  O  O1395  1  0.732840  0.846600  0.933370  1.0  -0.5501
  O  O1396  1  0.719810  0.804230  0.832350  1.0  -0.5986
  O  O1397  1  0.510680  0.190090  0.954010  1.0  -0.5838
  O  O1398  1  0.558600  0.204360  0.043970  1.0  -0.505
  O  O1399  1  0.555960  0.282580  0.944400  1.0  -0.5422
  O  O1400  1  0.495310  0.276720  0.911810  1.0  -0.5928
  O  O1401  1  0.406370  0.266490  0.201240  1.0  -0.5837
  O  O1402  1  0.375060  0.213240  0.124280  1.0  -0.5685
  O  O1403  1  0.399500  0.179940  0.266710  1.0  -0.5501
  O  O1404  1  0.386470  0.137570  0.165690  1.0  -0.5986
