# generated using pymatgen
data_Cu4Ag6Au4C40S8N8ClO16
_symmetry_space_group_name_H-M   'P 1'
_cell_length_a   32.74900000
_cell_length_b   32.74900000
_cell_length_c   32.74900000
_cell_angle_alpha   90.00000000
_cell_angle_beta   90.00000000
_cell_angle_gamma   90.00000000
_symmetry_Int_Tables_number   1
_chemical_formula_structural   Cu4Ag6Au4C40S8N8ClO16
_chemical_formula_sum   'Cu48 Ag72 Au48 C480 S96 N96 Cl12 O192'
_cell_volume   35123.20428575
_cell_formula_units_Z   12
loop_
 _symmetry_equiv_pos_site_id
 _symmetry_equiv_pos_as_xyz
  1  'x, y, z'
loop_
 _atom_site_type_symbol
 _atom_site_label
 _atom_site_symmetry_multiplicity
 _atom_site_fract_x
 _atom_site_fract_y
 _atom_site_fract_z
 _atom_site_occupancy
 _atom_site_charge
  Cu  Cu1  1  0.389510  0.133200  0.449330  1.0  0.8495
  Cu  Cu2  1  0.282450  0.025320  0.645170  1.0  0.8754
  Cu  Cu3  1  0.550670  0.889510  0.366800  1.0  0.8447
  Cu  Cu4  1  0.354830  0.782450  0.474680  1.0  0.8778
  Cu  Cu5  1  0.633200  0.050670  0.610490  1.0  0.8444
  Cu  Cu6  1  0.525320  0.854830  0.717550  1.0  0.8786
  Cu  Cu7  1  0.110490  0.866800  0.949330  1.0  0.8472
  Cu  Cu8  1  0.217550  0.974680  0.145170  1.0  0.8783
  Cu  Cu9  1  0.949330  0.110490  0.866800  1.0  0.8454
  Cu  Cu10  1  0.145170  0.217550  0.974680  1.0  0.879
  Cu  Cu11  1  0.866800  0.949330  0.110490  1.0  0.8456
  Cu  Cu12  1  0.974680  0.145170  0.217550  1.0  0.8782
  Cu  Cu13  1  0.610490  0.633200  0.050670  1.0  0.8497
  Cu  Cu14  1  0.717550  0.525320  0.854830  1.0  0.8774
  Cu  Cu15  1  0.449330  0.389510  0.133200  1.0  0.8442
  Cu  Cu16  1  0.645170  0.282450  0.025320  1.0  0.879
  Cu  Cu17  1  0.366800  0.550670  0.889510  1.0  0.8469
  Cu  Cu18  1  0.474680  0.354830  0.782450  1.0  0.8808
  Cu  Cu19  1  0.889510  0.366800  0.550670  1.0  0.8473
  Cu  Cu20  1  0.782450  0.474680  0.354830  1.0  0.8778
  Cu  Cu21  1  0.050670  0.610490  0.633200  1.0  0.8439
  Cu  Cu22  1  0.854830  0.717550  0.525320  1.0  0.8768
  Cu  Cu23  1  0.133200  0.449330  0.389510  1.0  0.8442
  Cu  Cu24  1  0.025320  0.645170  0.282450  1.0  0.8795
  Cu  Cu25  1  0.026640  0.109280  0.719950  1.0  0.9434
  Cu  Cu26  1  0.177440  0.031240  0.534690  1.0  0.9938
  Cu  Cu27  1  0.780050  0.973360  0.609280  1.0  0.9435
  Cu  Cu28  1  0.965310  0.822560  0.531240  1.0  0.991
  Cu  Cu29  1  0.890720  0.219950  0.473360  1.0  0.9439
  Cu  Cu30  1  0.968760  0.034690  0.322560  1.0  0.9956
  Cu  Cu31  1  0.473360  0.890720  0.219950  1.0  0.9454
  Cu  Cu32  1  0.322560  0.968760  0.034690  1.0  0.9949
  Cu  Cu33  1  0.719950  0.026640  0.109280  1.0  0.9432
  Cu  Cu34  1  0.534690  0.177440  0.031240  1.0  0.9907
  Cu  Cu35  1  0.609280  0.780050  0.973360  1.0  0.9432
  Cu  Cu36  1  0.531240  0.965310  0.822560  1.0  0.9957
  Cu  Cu37  1  0.973360  0.609280  0.780050  1.0  0.9458
  Cu  Cu38  1  0.822560  0.531240  0.965310  1.0  0.9942
  Cu  Cu39  1  0.219950  0.473360  0.890720  1.0  0.9436
  Cu  Cu40  1  0.034690  0.322560  0.968760  1.0  0.9914
  Cu  Cu41  1  0.109280  0.719950  0.026640  1.0  0.9437
  Cu  Cu42  1  0.031240  0.534690  0.177440  1.0  0.9942
  Cu  Cu43  1  0.526640  0.390720  0.280050  1.0  0.9446
  Cu  Cu44  1  0.677440  0.468760  0.465310  1.0  0.9955
  Cu  Cu45  1  0.280050  0.526640  0.390720  1.0  0.9451
  Cu  Cu46  1  0.465310  0.677440  0.468760  1.0  0.9905
  Cu  Cu47  1  0.390720  0.280050  0.526640  1.0  0.9433
  Cu  Cu48  1  0.468760  0.465310  0.677440  1.0  0.9952
  Ag  Ag49  1  0.332640  0.082230  0.548100  1.0  0.2148
  Ag  Ag50  1  0.422040  0.009490  0.476050  1.0  0.3129
  Ag  Ag51  1  0.404300  0.987680  0.616740  1.0  0.2957
  Ag  Ag52  1  0.451900  0.832640  0.417770  1.0  0.2154
  Ag  Ag53  1  0.523950  0.922040  0.490510  1.0  0.3111
  Ag  Ag54  1  0.383260  0.904300  0.512320  1.0  0.294
  Ag  Ag55  1  0.582230  0.951900  0.667360  1.0  0.215
  Ag  Ag56  1  0.509490  0.023950  0.577960  1.0  0.3111
  Ag  Ag57  1  0.487680  0.883260  0.595700  1.0  0.2931
  Ag  Ag58  1  0.167360  0.917770  0.048100  1.0  0.2148
  Ag  Ag59  1  0.077960  0.990510  0.976050  1.0  0.3127
  Ag  Ag60  1  0.095700  0.012320  0.116740  1.0  0.2937
  Ag  Ag61  1  0.048100  0.167360  0.917770  1.0  0.2151
  Ag  Ag62  1  0.976050  0.077960  0.990510  1.0  0.3115
  Ag  Ag63  1  0.116740  0.095700  0.012320  1.0  0.2938
  Ag  Ag64  1  0.917770  0.048100  0.167360  1.0  0.2153
  Ag  Ag65  1  0.990510  0.976050  0.077960  1.0  0.3132
  Ag  Ag66  1  0.012320  0.116740  0.095700  1.0  0.2944
  Ag  Ag67  1  0.667360  0.582230  0.951900  1.0  0.214
  Ag  Ag68  1  0.577960  0.509490  0.023950  1.0  0.312
  Ag  Ag69  1  0.595700  0.487680  0.883260  1.0  0.2942
  Ag  Ag70  1  0.548100  0.332640  0.082230  1.0  0.2148
  Ag  Ag71  1  0.476050  0.422040  0.009490  1.0  0.3126
  Ag  Ag72  1  0.616740  0.404300  0.987680  1.0  0.2944
  Ag  Ag73  1  0.417770  0.451900  0.832640  1.0  0.2154
  Ag  Ag74  1  0.490510  0.523950  0.922040  1.0  0.3128
  Ag  Ag75  1  0.512320  0.383260  0.904300  1.0  0.2941
  Ag  Ag76  1  0.832640  0.417770  0.451900  1.0  0.2152
  Ag  Ag77  1  0.922040  0.490510  0.523950  1.0  0.313
  Ag  Ag78  1  0.904300  0.512320  0.383260  1.0  0.2953
  Ag  Ag79  1  0.951900  0.667360  0.582230  1.0  0.215
  Ag  Ag80  1  0.023950  0.577960  0.509490  1.0  0.3122
  Ag  Ag81  1  0.883260  0.595700  0.487680  1.0  0.2949
  Ag  Ag82  1  0.082230  0.548100  0.332640  1.0  0.2153
  Ag  Ag83  1  0.009490  0.476050  0.422040  1.0  0.3115
  Ag  Ag84  1  0.987680  0.616740  0.404300  1.0  0.2928
  Ag  Ag85  1  0.109630  0.074150  0.626990  1.0  0.1842
  Ag  Ag86  1  0.976260  0.037630  0.626280  1.0  0.2566
  Ag  Ag87  1  0.057010  0.057940  0.503620  1.0  0.319
  Ag  Ag88  1  0.873010  0.890370  0.574150  1.0  0.1848
  Ag  Ag89  1  0.873720  0.023740  0.537630  1.0  0.2571
  Ag  Ag90  1  0.996380  0.942990  0.557940  1.0  0.3202
  Ag  Ag91  1  0.925850  0.126990  0.390370  1.0  0.183
  Ag  Ag92  1  0.962370  0.126280  0.523740  1.0  0.2588
  Ag  Ag93  1  0.942060  0.003620  0.442990  1.0  0.3186
  Ag  Ag94  1  0.390370  0.925850  0.126990  1.0  0.185
  Ag  Ag95  1  0.523740  0.962370  0.126280  1.0  0.2574
  Ag  Ag96  1  0.442990  0.942060  0.003620  1.0  0.3188
  Ag  Ag97  1  0.626990  0.109630  0.074150  1.0  0.1852
  Ag  Ag98  1  0.626280  0.976260  0.037630  1.0  0.257
  Ag  Ag99  1  0.503620  0.057010  0.057940  1.0  0.3189
  Ag  Ag100  1  0.574150  0.873010  0.890370  1.0  0.1803
  Ag  Ag101  1  0.537630  0.873720  0.023740  1.0  0.2597
  Ag  Ag102  1  0.557940  0.996380  0.942990  1.0  0.3187
  Ag  Ag103  1  0.890370  0.574150  0.873010  1.0  0.1822
  Ag  Ag104  1  0.023740  0.537630  0.873720  1.0  0.2561
  Ag  Ag105  1  0.942990  0.557940  0.996380  1.0  0.3186
  Ag  Ag106  1  0.126990  0.390370  0.925850  1.0  0.1829
  Ag  Ag107  1  0.126280  0.523740  0.962370  1.0  0.2572
  Ag  Ag108  1  0.003620  0.442990  0.942060  1.0  0.3199
  Ag  Ag109  1  0.074150  0.626990  0.109630  1.0  0.184
  Ag  Ag110  1  0.037630  0.626280  0.976260  1.0  0.2593
  Ag  Ag111  1  0.057940  0.503620  0.057010  1.0  0.3172
  Ag  Ag112  1  0.609630  0.425850  0.373010  1.0  0.1812
  Ag  Ag113  1  0.476260  0.462370  0.373720  1.0  0.2561
  Ag  Ag114  1  0.557010  0.442060  0.496380  1.0  0.319
  Ag  Ag115  1  0.373010  0.609630  0.425850  1.0  0.1847
  Ag  Ag116  1  0.373720  0.476260  0.462370  1.0  0.2564
  Ag  Ag117  1  0.496380  0.557010  0.442060  1.0  0.3188
  Ag  Ag118  1  0.425850  0.373010  0.609630  1.0  0.1842
  Ag  Ag119  1  0.462370  0.373720  0.476260  1.0  0.2605
  Ag  Ag120  1  0.442060  0.496380  0.557010  1.0  0.3179
  Au  Au121  1  0.347970  0.996570  0.521650  1.0  0.1631
  Au  Au122  1  0.418750  0.062300  0.571310  1.0  0.1962
  Au  Au123  1  0.478350  0.847970  0.503430  1.0  0.1636
  Au  Au124  1  0.428690  0.918750  0.437700  1.0  0.1954
  Au  Au125  1  0.496570  0.978350  0.652030  1.0  0.1631
  Au  Au126  1  0.562300  0.928690  0.581250  1.0  0.1959
  Au  Au127  1  0.152030  0.003430  0.021650  1.0  0.1628
  Au  Au128  1  0.081250  0.937700  0.071310  1.0  0.195
  Au  Au129  1  0.021650  0.152030  0.003430  1.0  0.1633
  Au  Au130  1  0.071310  0.081250  0.937700  1.0  0.196
  Au  Au131  1  0.003430  0.021650  0.152030  1.0  0.1633
  Au  Au132  1  0.937700  0.071310  0.081250  1.0  0.1966
  Au  Au133  1  0.652030  0.496570  0.978350  1.0  0.1624
  Au  Au134  1  0.581250  0.562300  0.928690  1.0  0.1959
  Au  Au135  1  0.521650  0.347970  0.996570  1.0  0.163
  Au  Au136  1  0.571310  0.418750  0.062300  1.0  0.1966
  Au  Au137  1  0.503430  0.478350  0.847970  1.0  0.1628
  Au  Au138  1  0.437700  0.428690  0.918750  1.0  0.1961
  Au  Au139  1  0.847970  0.503430  0.478350  1.0  0.1631
  Au  Au140  1  0.918750  0.437700  0.428690  1.0  0.196
  Au  Au141  1  0.978350  0.652030  0.496570  1.0  0.1637
  Au  Au142  1  0.928690  0.581250  0.562300  1.0  0.1955
  Au  Au143  1  0.996570  0.521650  0.347970  1.0  0.1623
  Au  Au144  1  0.062300  0.571310  0.418750  1.0  0.1958
  Au  Au145  1  0.055540  0.006130  0.599690  1.0  0.1839
  Au  Au146  1  0.043970  0.110430  0.574550  1.0  0.1644
  Au  Au147  1  0.900310  0.944460  0.506130  1.0  0.1851
  Au  Au148  1  0.925450  0.956030  0.610430  1.0  0.1641
  Au  Au149  1  0.993870  0.099690  0.444460  1.0  0.1846
  Au  Au150  1  0.889570  0.074550  0.456030  1.0  0.164
  Au  Au151  1  0.444460  0.993870  0.099690  1.0  0.185
  Au  Au152  1  0.456030  0.889570  0.074550  1.0  0.1642
  Au  Au153  1  0.599690  0.055540  0.006130  1.0  0.185
  Au  Au154  1  0.574550  0.043970  0.110430  1.0  0.1627
  Au  Au155  1  0.506130  0.900310  0.944460  1.0  0.1842
  Au  Au156  1  0.610430  0.925450  0.956030  1.0  0.1642
  Au  Au157  1  0.944460  0.506130  0.900310  1.0  0.1846
  Au  Au158  1  0.956030  0.610430  0.925450  1.0  0.1645
  Au  Au159  1  0.099690  0.444460  0.993870  1.0  0.1846
  Au  Au160  1  0.074550  0.456030  0.889570  1.0  0.163
  Au  Au161  1  0.006130  0.599690  0.055540  1.0  0.1844
  Au  Au162  1  0.110430  0.574550  0.043970  1.0  0.1644
  Au  Au163  1  0.555540  0.493870  0.400310  1.0  0.184
  Au  Au164  1  0.543970  0.389570  0.425450  1.0  0.1638
  Au  Au165  1  0.400310  0.555540  0.493870  1.0  0.1853
  Au  Au166  1  0.425450  0.543970  0.389570  1.0  0.1645
  Au  Au167  1  0.493870  0.400310  0.555540  1.0  0.1848
  Au  Au168  1  0.389570  0.425450  0.543970  1.0  0.1644
  C  C169  1  0.358600  0.094000  0.386500  1.0  0.4944
  C  C170  1  0.320800  0.094300  0.415600  1.0  0.0106
  C  C171  1  0.317200  0.055400  0.440500  1.0  0.153
  C  C172  1  0.275200  0.054400  0.462600  1.0  -0.023
  C  C173  1  0.320500  0.016000  0.413500  1.0  -0.0064
  C  C174  1  0.424400  0.154300  0.522700  1.0  0.641
  C  C175  1  0.463100  0.140300  0.497900  1.0  -0.0029
  C  C176  1  0.494000  0.112500  0.519100  1.0  0.1263
  C  C177  1  0.530500  0.108300  0.490000  1.0  -0.0444
  C  C178  1  0.506300  0.131200  0.560800  1.0  -0.027
  C  C179  1  0.257500  0.995500  0.572400  1.0  0.6283
  C  C180  1  0.269400  0.954900  0.595000  1.0  0.0317
  C  C181  1  0.294000  0.923000  0.572000  1.0  0.109
  C  C182  1  0.297300  0.885000  0.600800  1.0  -0.0475
  C  C183  1  0.275700  0.911300  0.529500  1.0  -0.0223
  C  C184  1  0.324100  0.052800  0.709600  1.0  0.4066
  C  C185  1  0.326700  0.088800  0.678000  1.0  0.0765
  C  C186  1  0.365500  0.095000  0.652700  1.0  0.1593
  C  C187  1  0.367200  0.136300  0.629900  1.0  -0.0251
  C  C188  1  0.405000  0.091200  0.678200  1.0  -0.0137
  C  C189  1  0.613500  0.858600  0.406000  1.0  0.4904
  C  C190  1  0.584400  0.820800  0.405700  1.0  0.0139
  C  C191  1  0.559500  0.817200  0.444600  1.0  0.1527
  C  C192  1  0.537400  0.775200  0.445600  1.0  -0.0236
  C  C193  1  0.586500  0.820500  0.484000  1.0  -0.0042
  C  C194  1  0.477300  0.924400  0.345700  1.0  0.6446
  C  C195  1  0.502100  0.963100  0.359700  1.0  -0.0065
  C  C196  1  0.480900  0.994000  0.387500  1.0  0.1275
  C  C197  1  0.510000  0.030500  0.391700  1.0  -0.0442
  C  C198  1  0.439200  0.006300  0.368800  1.0  -0.021
  C  C199  1  0.427600  0.757500  0.504500  1.0  0.6269
  C  C200  1  0.405000  0.769400  0.545100  1.0  0.0303
  C  C201  1  0.428000  0.794000  0.577000  1.0  0.1071
  C  C202  1  0.399200  0.797300  0.615000  1.0  -0.0443
  C  C203  1  0.470500  0.775700  0.588700  1.0  -0.023
  C  C204  1  0.290400  0.824100  0.447200  1.0  0.4081
  C  C205  1  0.322000  0.826700  0.411200  1.0  0.0759
  C  C206  1  0.347300  0.865500  0.405000  1.0  0.1576
  C  C207  1  0.370100  0.867200  0.363700  1.0  -0.024
  C  C208  1  0.321800  0.905000  0.408800  1.0  -0.0111
  C  C209  1  0.594000  0.113500  0.641400  1.0  0.4872
  C  C210  1  0.594300  0.084400  0.679200  1.0  0.0133
  C  C211  1  0.555400  0.059500  0.682800  1.0  0.1534
  C  C212  1  0.554400  0.037400  0.724800  1.0  -0.0271
  C  C213  1  0.516000  0.086500  0.679500  1.0  -0.0023
  C  C214  1  0.654300  0.977300  0.575600  1.0  0.6444
  C  C215  1  0.640300  0.002100  0.536900  1.0  -0.0044
  C  C216  1  0.612500  0.980900  0.506000  1.0  0.1263
  C  C217  1  0.608300  0.010000  0.469500  1.0  -0.0481
  C  C218  1  0.631200  0.939200  0.493700  1.0  -0.0248
  C  C219  1  0.495500  0.927600  0.742500  1.0  0.6249
  C  C220  1  0.454900  0.905000  0.730600  1.0  0.028
  C  C221  1  0.423000  0.928000  0.706000  1.0  0.106
  C  C222  1  0.385000  0.899200  0.702700  1.0  -0.0401
  C  C223  1  0.411300  0.970500  0.724300  1.0  -0.0229
  C  C224  1  0.552800  0.790400  0.675900  1.0  0.3995
  C  C225  1  0.588800  0.822000  0.673300  1.0  0.0758
  C  C226  1  0.595000  0.847300  0.634500  1.0  0.1595
  C  C227  1  0.636300  0.870100  0.632800  1.0  -0.0205
  C  C228  1  0.591200  0.821800  0.595000  1.0  -0.0157
  C  C229  1  0.141400  0.906000  0.886500  1.0  0.4938
  C  C230  1  0.179200  0.905700  0.915600  1.0  0.0117
  C  C231  1  0.182800  0.944600  0.940500  1.0  0.1519
  C  C232  1  0.224800  0.945600  0.962600  1.0  -0.0235
  C  C233  1  0.179500  0.984000  0.913500  1.0  -0.0082
  C  C234  1  0.075600  0.845700  0.022700  1.0  0.6422
  C  C235  1  0.036900  0.859700  0.997900  1.0  -0.0046
  C  C236  1  0.006000  0.887500  0.019100  1.0  0.127
  C  C237  1  0.969500  0.891700  0.990000  1.0  -0.0437
  C  C238  1  0.993700  0.868800  0.060800  1.0  -0.0264
  C  C239  1  0.242500  0.004500  0.072400  1.0  0.6275
  C  C240  1  0.230600  0.045100  0.095000  1.0  0.0326
  C  C241  1  0.206000  0.077000  0.072000  1.0  0.1074
  C  C242  1  0.202700  0.115000  0.100800  1.0  -0.0457
  C  C243  1  0.224300  0.088700  0.029500  1.0  -0.025
  C  C244  1  0.175900  0.947200  0.209600  1.0  0.4065
  C  C245  1  0.173300  0.911200  0.178000  1.0  0.0763
  C  C246  1  0.134500  0.905000  0.152700  1.0  0.1601
  C  C247  1  0.132800  0.863700  0.129900  1.0  -0.0258
  C  C248  1  0.095000  0.908800  0.178200  1.0  -0.0118
  C  C249  1  0.886500  0.141400  0.906000  1.0  0.4921
  C  C250  1  0.915600  0.179200  0.905700  1.0  0.0101
  C  C251  1  0.940500  0.182800  0.944600  1.0  0.1518
  C  C252  1  0.962600  0.224800  0.945600  1.0  -0.0225
  C  C253  1  0.913500  0.179500  0.984000  1.0  -0.005
  C  C254  1  0.022700  0.075600  0.845700  1.0  0.6438
  C  C255  1  0.997900  0.036900  0.859700  1.0  -0.0061
  C  C256  1  0.019100  0.006000  0.887500  1.0  0.1286
  C  C257  1  0.990000  0.969500  0.891700  1.0  -0.0447
  C  C258  1  0.060800  0.993700  0.868800  1.0  -0.0234
  C  C259  1  0.072400  0.242500  0.004500  1.0  0.6287
  C  C260  1  0.095000  0.230600  0.045100  1.0  0.0311
  C  C261  1  0.072000  0.206000  0.077000  1.0  0.1073
  C  C262  1  0.100800  0.202700  0.115000  1.0  -0.0446
  C  C263  1  0.029500  0.224300  0.088700  1.0  -0.02
  C  C264  1  0.209600  0.175900  0.947200  1.0  0.4062
  C  C265  1  0.178000  0.173300  0.911200  1.0  0.0776
  C  C266  1  0.152700  0.134500  0.905000  1.0  0.1593
  C  C267  1  0.129900  0.132800  0.863700  1.0  -0.0239
  C  C268  1  0.178200  0.095000  0.908800  1.0  -0.0124
  C  C269  1  0.906000  0.886500  0.141400  1.0  0.491
  C  C270  1  0.905700  0.915600  0.179200  1.0  0.0123
  C  C271  1  0.944600  0.940500  0.182800  1.0  0.154
  C  C272  1  0.945600  0.962600  0.224800  1.0  -0.0267
  C  C273  1  0.984000  0.913500  0.179500  1.0  -0.0039
  C  C274  1  0.845700  0.022700  0.075600  1.0  0.6431
  C  C275  1  0.859700  0.997900  0.036900  1.0  -0.005
  C  C276  1  0.887500  0.019100  0.006000  1.0  0.1265
  C  C277  1  0.891700  0.990000  0.969500  1.0  -0.0475
  C  C278  1  0.868800  0.060800  0.993700  1.0  -0.0244
  C  C279  1  0.004500  0.072400  0.242500  1.0  0.6243
  C  C280  1  0.045100  0.095000  0.230600  1.0  0.0294
  C  C281  1  0.077000  0.072000  0.206000  1.0  0.1077
  C  C282  1  0.115000  0.100800  0.202700  1.0  -0.0421
  C  C283  1  0.088700  0.029500  0.224300  1.0  -0.0246
  C  C284  1  0.947200  0.209600  0.175900  1.0  0.4005
  C  C285  1  0.911200  0.178000  0.173300  1.0  0.0758
  C  C286  1  0.905000  0.152700  0.134500  1.0  0.1595
  C  C287  1  0.863700  0.129900  0.132800  1.0  -0.0201
  C  C288  1  0.908800  0.178200  0.095000  1.0  -0.0162
  C  C289  1  0.641400  0.594000  0.113500  1.0  0.4907
  C  C290  1  0.679200  0.594300  0.084400  1.0  0.011
  C  C291  1  0.682800  0.555400  0.059500  1.0  0.1546
  C  C292  1  0.724800  0.554400  0.037400  1.0  -0.0242
  C  C293  1  0.679500  0.516000  0.086500  1.0  -0.0075
  C  C294  1  0.575600  0.654300  0.977300  1.0  0.6423
  C  C295  1  0.536900  0.640300  0.002100  1.0  -0.0033
  C  C296  1  0.506000  0.612500  0.980900  1.0  0.1265
  C  C297  1  0.469500  0.608300  0.010000  1.0  -0.0435
  C  C298  1  0.493700  0.631200  0.939200  1.0  -0.0244
  C  C299  1  0.742500  0.495500  0.927600  1.0  0.6277
  C  C300  1  0.730600  0.454900  0.905000  1.0  0.0343
  C  C301  1  0.706000  0.423000  0.928000  1.0  0.109
  C  C302  1  0.702700  0.385000  0.899200  1.0  -0.0464
  C  C303  1  0.724300  0.411300  0.970500  1.0  -0.026
  C  C304  1  0.675900  0.552800  0.790400  1.0  0.4079
  C  C305  1  0.673300  0.588800  0.822000  1.0  0.0765
  C  C306  1  0.634500  0.595000  0.847300  1.0  0.1583
  C  C307  1  0.632800  0.636300  0.870100  1.0  -0.0264
  C  C308  1  0.595000  0.591200  0.821800  1.0  -0.0111
  C  C309  1  0.386500  0.358600  0.094000  1.0  0.4918
  C  C310  1  0.415600  0.320800  0.094300  1.0  0.0119
  C  C311  1  0.440500  0.317200  0.055400  1.0  0.1534
  C  C312  1  0.462600  0.275200  0.054400  1.0  -0.0225
  C  C313  1  0.413500  0.320500  0.016000  1.0  -0.0027
  C  C314  1  0.522700  0.424400  0.154300  1.0  0.6445
  C  C315  1  0.497900  0.463100  0.140300  1.0  -0.0073
  C  C316  1  0.519100  0.494000  0.112500  1.0  0.129
  C  C317  1  0.490000  0.530500  0.108300  1.0  -0.0448
  C  C318  1  0.560800  0.506300  0.131200  1.0  -0.0246
  C  C319  1  0.572400  0.257500  0.995500  1.0  0.6287
  C  C320  1  0.595000  0.269400  0.954900  1.0  0.0319
  C  C321  1  0.572000  0.294000  0.923000  1.0  0.1063
  C  C322  1  0.600800  0.297300  0.885000  1.0  -0.045
  C  C323  1  0.529500  0.275700  0.911300  1.0  -0.0206
  C  C324  1  0.709600  0.324100  0.052800  1.0  0.4078
  C  C325  1  0.678000  0.326700  0.088800  1.0  0.0784
  C  C326  1  0.652700  0.365500  0.095000  1.0  0.1593
  C  C327  1  0.629900  0.367200  0.136300  1.0  -0.026
  C  C328  1  0.678200  0.405000  0.091200  1.0  -0.0112
  C  C329  1  0.406000  0.613500  0.858600  1.0  0.4872
  C  C330  1  0.405700  0.584400  0.820800  1.0  0.0112
  C  C331  1  0.444600  0.559500  0.817200  1.0  0.1528
  C  C332  1  0.445600  0.537400  0.775200  1.0  -0.0253
  C  C333  1  0.484000  0.586500  0.820500  1.0  -0.0038
  C  C334  1  0.345700  0.477300  0.924400  1.0  0.6435
  C  C335  1  0.359700  0.502100  0.963100  1.0  -0.0061
  C  C336  1  0.387500  0.480900  0.994000  1.0  0.1261
  C  C337  1  0.391700  0.510000  0.030500  1.0  -0.0481
  C  C338  1  0.368800  0.439200  0.006300  1.0  -0.0237
  C  C339  1  0.504500  0.427600  0.757500  1.0  0.6244
  C  C340  1  0.545100  0.405000  0.769400  1.0  0.0311
  C  C341  1  0.577000  0.428000  0.794000  1.0  0.107
  C  C342  1  0.615000  0.399200  0.797300  1.0  -0.0441
  C  C343  1  0.588700  0.470500  0.775700  1.0  -0.0237
  C  C344  1  0.447200  0.290400  0.824100  1.0  0.4017
  C  C345  1  0.411200  0.322000  0.826700  1.0  0.0745
  C  C346  1  0.405000  0.347300  0.865500  1.0  0.1604
  C  C347  1  0.363700  0.370100  0.867200  1.0  -0.0198
  C  C348  1  0.408800  0.321800  0.905000  1.0  -0.0179
  C  C349  1  0.858600  0.406000  0.613500  1.0  0.492
  C  C350  1  0.820800  0.405700  0.584400  1.0  0.0122
  C  C351  1  0.817200  0.444600  0.559500  1.0  0.1533
  C  C352  1  0.775200  0.445600  0.537400  1.0  -0.0221
  C  C353  1  0.820500  0.484000  0.586500  1.0  -0.0082
  C  C354  1  0.924400  0.345700  0.477300  1.0  0.6414
  C  C355  1  0.963100  0.359700  0.502100  1.0  -0.002
  C  C356  1  0.994000  0.387500  0.480900  1.0  0.1263
  C  C357  1  0.030500  0.391700  0.510000  1.0  -0.0447
  C  C358  1  0.006300  0.368800  0.439200  1.0  -0.0254
  C  C359  1  0.757500  0.504500  0.427600  1.0  0.628
  C  C360  1  0.769400  0.545100  0.405000  1.0  0.032
  C  C361  1  0.794000  0.577000  0.428000  1.0  0.1075
  C  C362  1  0.797300  0.615000  0.399200  1.0  -0.0459
  C  C363  1  0.775700  0.588700  0.470500  1.0  -0.0255
  C  C364  1  0.824100  0.447200  0.290400  1.0  0.4077
  C  C365  1  0.826700  0.411200  0.322000  1.0  0.0759
  C  C366  1  0.865500  0.405000  0.347300  1.0  0.1605
  C  C367  1  0.867200  0.363700  0.370100  1.0  -0.0274
  C  C368  1  0.905000  0.408800  0.321800  1.0  -0.0146
  C  C369  1  0.113500  0.641400  0.594000  1.0  0.4902
  C  C370  1  0.084400  0.679200  0.594300  1.0  0.0121
  C  C371  1  0.059500  0.682800  0.555400  1.0  0.1522
  C  C372  1  0.037400  0.724800  0.554400  1.0  -0.0225
  C  C373  1  0.086500  0.679500  0.516000  1.0  -0.0038
  C  C374  1  0.977300  0.575600  0.654300  1.0  0.6435
  C  C375  1  0.002100  0.536900  0.640300  1.0  -0.005
  C  C376  1  0.980900  0.506000  0.612500  1.0  0.1298
  C  C377  1  0.010000  0.469500  0.608300  1.0  -0.0447
  C  C378  1  0.939200  0.493700  0.631200  1.0  -0.0218
  C  C379  1  0.927600  0.742500  0.495500  1.0  0.6268
  C  C380  1  0.905000  0.730600  0.454900  1.0  0.0306
  C  C381  1  0.928000  0.706000  0.423000  1.0  0.108
  C  C382  1  0.899200  0.702700  0.385000  1.0  -0.0456
  C  C383  1  0.970500  0.724300  0.411300  1.0  -0.0224
  C  C384  1  0.790400  0.675900  0.552800  1.0  0.407
  C  C385  1  0.822000  0.673300  0.588800  1.0  0.0772
  C  C386  1  0.847300  0.634500  0.595000  1.0  0.1605
  C  C387  1  0.870100  0.632800  0.636300  1.0  -0.026
  C  C388  1  0.821800  0.595000  0.591200  1.0  -0.0119
  C  C389  1  0.094000  0.386500  0.358600  1.0  0.4913
  C  C390  1  0.094300  0.415600  0.320800  1.0  0.0133
  C  C391  1  0.055400  0.440500  0.317200  1.0  0.1539
  C  C392  1  0.054400  0.462600  0.275200  1.0  -0.0258
  C  C393  1  0.016000  0.413500  0.320500  1.0  -0.0016
  C  C394  1  0.154300  0.522700  0.424400  1.0  0.6435
  C  C395  1  0.140300  0.497900  0.463100  1.0  -0.0024
  C  C396  1  0.112500  0.519100  0.494000  1.0  0.1259
  C  C397  1  0.108300  0.490000  0.530500  1.0  -0.0478
  C  C398  1  0.131200  0.560800  0.506300  1.0  -0.0245
  C  C399  1  0.995500  0.572400  0.257500  1.0  0.6252
  C  C400  1  0.954900  0.595000  0.269400  1.0  0.0303
  C  C401  1  0.923000  0.572000  0.294000  1.0  0.1067
  C  C402  1  0.885000  0.600800  0.297300  1.0  -0.0401
  C  C403  1  0.911300  0.529500  0.275700  1.0  -0.0225
  C  C404  1  0.052800  0.709600  0.324100  1.0  0.4001
  C  C405  1  0.088800  0.678000  0.326700  1.0  0.0783
  C  C406  1  0.095000  0.652700  0.365500  1.0  0.1587
  C  C407  1  0.136300  0.629900  0.367200  1.0  -0.021
  C  C408  1  0.091200  0.678200  0.405000  1.0  -0.0171
  C  C409  1  0.005300  0.035500  0.751700  1.0  0.6397
  C  C410  1  0.051300  0.030200  0.740600  1.0  0.0147
  C  C411  1  0.061100  0.009200  0.700300  1.0  0.1491
  C  C412  1  0.107500  0.002400  0.697900  1.0  -0.0224
  C  C413  1  0.037400  0.968300  0.697700  1.0  -0.0112
  C  C414  1  0.045100  0.168000  0.664200  1.0  0.6477
  C  C415  1  0.997000  0.172000  0.664700  1.0  0.0568
  C  C416  1  0.976800  0.174100  0.622700  1.0  0.1282
  C  C417  1  0.993500  0.205800  0.592800  1.0  -0.0178
  C  C418  1  0.930400  0.181500  0.631100  1.0  -0.0343
  C  C419  1  0.154500  0.972200  0.588700  1.0  0.6176
  C  C420  1  0.144000  0.952300  0.547200  1.0  0.0163
  C  C421  1  0.101800  0.931600  0.544300  1.0  0.1299
  C  C422  1  0.089900  0.905400  0.583100  1.0  -0.0319
  C  C423  1  0.098300  0.906400  0.503900  1.0  -0.0525
  C  C424  1  0.182300  0.096700  0.480800  1.0  0.6449
  C  C425  1  0.181300  0.116800  0.524100  1.0  0.0694
  C  C426  1  0.138900  0.131000  0.536400  1.0  0.166
  C  C427  1  0.141700  0.158200  0.574800  1.0  -0.0437
  C  C428  1  0.119000  0.156900  0.501900  1.0  -0.03
  C  C429  1  0.748300  0.994700  0.535500  1.0  0.639
  C  C430  1  0.759400  0.948700  0.530200  1.0  0.0162
  C  C431  1  0.799700  0.938900  0.509200  1.0  0.1439
  C  C432  1  0.802100  0.892500  0.502400  1.0  -0.0278
  C  C433  1  0.802300  0.962600  0.468300  1.0  -0.0117
  C  C434  1  0.835800  0.954900  0.668000  1.0  0.647
  C  C435  1  0.835300  0.003000  0.672000  1.0  0.0582
  C  C436  1  0.877300  0.023200  0.674100  1.0  0.1302
  C  C437  1  0.907200  0.006500  0.705800  1.0  -0.0181
  C  C438  1  0.868900  0.069600  0.681500  1.0  -0.0418
  C  C439  1  0.911300  0.845500  0.472200  1.0  0.6154
  C  C440  1  0.952800  0.856000  0.452300  1.0  0.0156
  C  C441  1  0.955700  0.898200  0.431600  1.0  0.1279
  C  C442  1  0.916900  0.910100  0.405400  1.0  -0.0292
  C  C443  1  0.996100  0.901700  0.406400  1.0  -0.0527
  C  C444  1  0.019200  0.817700  0.596700  1.0  0.6422
  C  C445  1  0.975900  0.818700  0.616800  1.0  0.0715
  C  C446  1  0.963600  0.861100  0.631000  1.0  0.1669
  C  C447  1  0.925200  0.858300  0.658200  1.0  -0.0409
  C  C448  1  0.998100  0.881000  0.656900  1.0  -0.0288
  C  C449  1  0.964500  0.251700  0.494700  1.0  0.6432
  C  C450  1  0.969800  0.240600  0.448700  1.0  0.0162
  C  C451  1  0.990800  0.200300  0.438900  1.0  0.1464
  C  C452  1  0.997600  0.197900  0.392500  1.0  -0.0281
  C  C453  1  0.031700  0.197700  0.462600  1.0  -0.0097
  C  C454  1  0.832000  0.164200  0.454900  1.0  0.6517
  C  C455  1  0.828000  0.164700  0.503000  1.0  0.0576
  C  C456  1  0.825900  0.122700  0.523200  1.0  0.1286
  C  C457  1  0.794200  0.092800  0.506500  1.0  -0.0169
  C  C458  1  0.818500  0.131100  0.569600  1.0  -0.0446
  C  C459  1  0.027800  0.088700  0.345500  1.0  0.6174
  C  C460  1  0.047700  0.047200  0.356000  1.0  0.0163
  C  C461  1  0.068400  0.044300  0.398200  1.0  0.1309
  C  C462  1  0.094600  0.083100  0.410100  1.0  -0.0282
  C  C463  1  0.093600  0.003900  0.401700  1.0  -0.0516
  C  C464  1  0.903300  0.980800  0.317700  1.0  0.642
  C  C465  1  0.883200  0.024100  0.318700  1.0  0.074
  C  C466  1  0.869000  0.036400  0.361100  1.0  0.1669
  C  C467  1  0.841800  0.074800  0.358300  1.0  -0.0387
  C  C468  1  0.843100  0.001900  0.381000  1.0  -0.0298
  C  C469  1  0.494700  0.964500  0.251700  1.0  0.6406
  C  C470  1  0.448700  0.969800  0.240600  1.0  0.0143
  C  C471  1  0.438900  0.990800  0.200300  1.0  0.1467
  C  C472  1  0.392500  0.997600  0.197900  1.0  -0.0187
  C  C473  1  0.462600  0.031700  0.197700  1.0  -0.0109
  C  C474  1  0.454900  0.832000  0.164200  1.0  0.6466
  C  C475  1  0.503000  0.828000  0.164700  1.0  0.0585
  C  C476  1  0.523200  0.825900  0.122700  1.0  0.1283
  C  C477  1  0.506500  0.794200  0.092800  1.0  -0.0173
  C  C478  1  0.569600  0.818500  0.131100  1.0  -0.0401
  C  C479  1  0.345500  0.027800  0.088700  1.0  0.6173
  C  C480  1  0.356000  0.047700  0.047200  1.0  0.0152
  C  C481  1  0.398200  0.068400  0.044300  1.0  0.13
  C  C482  1  0.410100  0.094600  0.083100  1.0  -0.0319
  C  C483  1  0.401700  0.093600  0.003900  1.0  -0.0534
  C  C484  1  0.317700  0.903300  0.980800  1.0  0.6447
  C  C485  1  0.318700  0.883200  0.024100  1.0  0.0714
  C  C486  1  0.361100  0.869000  0.036400  1.0  0.1657
  C  C487  1  0.358300  0.841800  0.074800  1.0  -0.0465
  C  C488  1  0.381000  0.843100  0.001900  1.0  -0.0303
  C  C489  1  0.751700  0.005300  0.035500  1.0  0.6411
  C  C490  1  0.740600  0.051300  0.030200  1.0  0.017
  C  C491  1  0.700300  0.061100  0.009200  1.0  0.1451
  C  C492  1  0.697900  0.107500  0.002400  1.0  -0.0277
  C  C493  1  0.697700  0.037400  0.968300  1.0  -0.0124
  C  C494  1  0.664200  0.045100  0.168000  1.0  0.645
  C  C495  1  0.664700  0.997000  0.172000  1.0  0.0581
  C  C496  1  0.622700  0.976800  0.174100  1.0  0.1313
  C  C497  1  0.592800  0.993500  0.205800  1.0  -0.0171
  C  C498  1  0.631100  0.930400  0.181500  1.0  -0.0425
  C  C499  1  0.588700  0.154500  0.972200  1.0  0.6177
  C  C500  1  0.547200  0.144000  0.952300  1.0  0.0163
  C  C501  1  0.544300  0.101800  0.931600  1.0  0.1276
  C  C502  1  0.583100  0.089900  0.905400  1.0  -0.0295
  C  C503  1  0.503900  0.098300  0.906400  1.0  -0.0519
  C  C504  1  0.480800  0.182300  0.096700  1.0  0.6413
  C  C505  1  0.524100  0.181300  0.116800  1.0  0.069
  C  C506  1  0.536400  0.138900  0.131000  1.0  0.1657
  C  C507  1  0.574800  0.141700  0.158200  1.0  -0.0424
  C  C508  1  0.501900  0.119000  0.156900  1.0  -0.0282
  C  C509  1  0.535500  0.748300  0.994700  1.0  0.6421
  C  C510  1  0.530200  0.759400  0.948700  1.0  0.0164
  C  C511  1  0.509200  0.799700  0.938900  1.0  0.1446
  C  C512  1  0.502400  0.802100  0.892500  1.0  -0.0266
  C  C513  1  0.468300  0.802300  0.962600  1.0  -0.006
  C  C514  1  0.668000  0.835800  0.954900  1.0  0.6509
  C  C515  1  0.672000  0.835300  0.003000  1.0  0.0577
  C  C516  1  0.674100  0.877300  0.023200  1.0  0.1288
  C  C517  1  0.705800  0.907200  0.006500  1.0  -0.015
  C  C518  1  0.681500  0.868900  0.069600  1.0  -0.0447
  C  C519  1  0.472200  0.911300  0.845500  1.0  0.6174
  C  C520  1  0.452300  0.952800  0.856000  1.0  0.0175
  C  C521  1  0.431600  0.955700  0.898200  1.0  0.1294
  C  C522  1  0.405400  0.916900  0.910100  1.0  -0.0285
  C  C523  1  0.406400  0.996100  0.901700  1.0  -0.0516
  C  C524  1  0.596700  0.019200  0.817700  1.0  0.641
  C  C525  1  0.616800  0.975900  0.818700  1.0  0.0747
  C  C526  1  0.631000  0.963600  0.861100  1.0  0.1665
  C  C527  1  0.658200  0.925200  0.858300  1.0  -0.0405
  C  C528  1  0.656900  0.998100  0.881000  1.0  -0.0285
  C  C529  1  0.994700  0.535500  0.748300  1.0  0.6401
  C  C530  1  0.948700  0.530200  0.759400  1.0  0.0154
  C  C531  1  0.938900  0.509200  0.799700  1.0  0.1459
  C  C532  1  0.892500  0.502400  0.802100  1.0  -0.0189
  C  C533  1  0.962600  0.468300  0.802300  1.0  -0.0122
  C  C534  1  0.954900  0.668000  0.835800  1.0  0.6478
  C  C535  1  0.003000  0.672000  0.835300  1.0  0.0573
  C  C536  1  0.023200  0.674100  0.877300  1.0  0.1286
  C  C537  1  0.006500  0.705800  0.907200  1.0  -0.019
  C  C538  1  0.069600  0.681500  0.868900  1.0  -0.0386
  C  C539  1  0.845500  0.472200  0.911300  1.0  0.6181
  C  C540  1  0.856000  0.452300  0.952800  1.0  0.0128
  C  C541  1  0.898200  0.431600  0.955700  1.0  0.1316
  C  C542  1  0.910100  0.405400  0.916900  1.0  -0.0304
  C  C543  1  0.901700  0.406400  0.996100  1.0  -0.0523
  C  C544  1  0.817700  0.596700  0.019200  1.0  0.6423
  C  C545  1  0.818700  0.616800  0.975900  1.0  0.0684
  C  C546  1  0.861100  0.631000  0.963600  1.0  0.166
  C  C547  1  0.858300  0.658200  0.925200  1.0  -0.0427
  C  C548  1  0.881000  0.656900  0.998100  1.0  -0.0321
  C  C549  1  0.251700  0.494700  0.964500  1.0  0.6394
  C  C550  1  0.240600  0.448700  0.969800  1.0  0.0173
  C  C551  1  0.200300  0.438900  0.990800  1.0  0.147
  C  C552  1  0.197900  0.392500  0.997600  1.0  -0.028
  C  C553  1  0.197700  0.462600  0.031700  1.0  -0.0139
  C  C554  1  0.164200  0.454900  0.832000  1.0  0.6462
  C  C555  1  0.164700  0.503000  0.828000  1.0  0.0589
  C  C556  1  0.122700  0.523200  0.825900  1.0  0.1294
  C  C557  1  0.092800  0.506500  0.794200  1.0  -0.0163
  C  C558  1  0.131100  0.569600  0.818500  1.0  -0.0425
  C  C559  1  0.088700  0.345500  0.027800  1.0  0.6187
  C  C560  1  0.047200  0.356000  0.047700  1.0  0.014
  C  C561  1  0.044300  0.398200  0.068400  1.0  0.129
  C  C562  1  0.083100  0.410100  0.094600  1.0  -0.0283
  C  C563  1  0.003900  0.401700  0.093600  1.0  -0.0511
  C  C564  1  0.980800  0.317700  0.903300  1.0  0.6413
  C  C565  1  0.024100  0.318700  0.883200  1.0  0.0732
  C  C566  1  0.036400  0.361100  0.869000  1.0  0.1637
  C  C567  1  0.074800  0.358300  0.841800  1.0  -0.0432
  C  C568  1  0.001900  0.381000  0.843100  1.0  -0.027
  C  C569  1  0.035500  0.751700  0.005300  1.0  0.6426
  C  C570  1  0.030200  0.740600  0.051300  1.0  0.0148
  C  C571  1  0.009200  0.700300  0.061100  1.0  0.1452
  C  C572  1  0.002400  0.697900  0.107500  1.0  -0.0293
  C  C573  1  0.968300  0.697700  0.037400  1.0  -0.0046
  C  C574  1  0.168000  0.664200  0.045100  1.0  0.6522
  C  C575  1  0.172000  0.664700  0.997000  1.0  0.0589
  C  C576  1  0.174100  0.622700  0.976800  1.0  0.1265
  C  C577  1  0.205800  0.592800  0.993500  1.0  -0.0166
  C  C578  1  0.181500  0.631100  0.930400  1.0  -0.0458
  C  C579  1  0.972200  0.588700  0.154500  1.0  0.6173
  C  C580  1  0.952300  0.547200  0.144000  1.0  0.016
  C  C581  1  0.931600  0.544300  0.101800  1.0  0.1296
  C  C582  1  0.905400  0.583100  0.089900  1.0  -0.0274
  C  C583  1  0.906400  0.503900  0.098300  1.0  -0.051
  C  C584  1  0.096700  0.480800  0.182300  1.0  0.6418
  C  C585  1  0.116800  0.524100  0.181300  1.0  0.0726
  C  C586  1  0.131000  0.536400  0.138900  1.0  0.1663
  C  C587  1  0.158200  0.574800  0.141700  1.0  -0.0401
  C  C588  1  0.156900  0.501900  0.119000  1.0  -0.0277
  C  C589  1  0.505300  0.464500  0.248300  1.0  0.6395
  C  C590  1  0.551300  0.469800  0.259400  1.0  0.0172
  C  C591  1  0.561100  0.490800  0.299700  1.0  0.1492
  C  C592  1  0.607500  0.497600  0.302100  1.0  -0.0221
  C  C593  1  0.537400  0.531700  0.302300  1.0  -0.0128
  C  C594  1  0.545100  0.332000  0.335800  1.0  0.6461
  C  C595  1  0.497000  0.328000  0.335300  1.0  0.0587
  C  C596  1  0.476800  0.325900  0.377300  1.0  0.1291
  C  C597  1  0.493500  0.294200  0.407200  1.0  -0.0193
  C  C598  1  0.430400  0.318500  0.368900  1.0  -0.0344
  C  C599  1  0.654500  0.527800  0.411300  1.0  0.6179
  C  C600  1  0.644000  0.547700  0.452800  1.0  0.015
  C  C601  1  0.601800  0.568400  0.455700  1.0  0.129
  C  C602  1  0.589900  0.594600  0.416900  1.0  -0.03
  C  C603  1  0.598300  0.593600  0.496100  1.0  -0.0516
  C  C604  1  0.682300  0.403300  0.519200  1.0  0.6434
  C  C605  1  0.681300  0.383200  0.475900  1.0  0.0709
  C  C606  1  0.638900  0.369000  0.463600  1.0  0.1657
  C  C607  1  0.641700  0.341800  0.425200  1.0  -0.0442
  C  C608  1  0.619000  0.343100  0.498100  1.0  -0.0304
  C  C609  1  0.248300  0.505300  0.464500  1.0  0.6416
  C  C610  1  0.259400  0.551300  0.469800  1.0  0.0163
  C  C611  1  0.299700  0.561100  0.490800  1.0  0.1452
  C  C612  1  0.302100  0.607500  0.497600  1.0  -0.0267
  C  C613  1  0.302300  0.537400  0.531700  1.0  -0.0137
  C  C614  1  0.335800  0.545100  0.332000  1.0  0.6451
  C  C615  1  0.335300  0.497000  0.328000  1.0  0.059
  C  C616  1  0.377300  0.476800  0.325900  1.0  0.1294
  C  C617  1  0.407200  0.493500  0.294200  1.0  -0.015
  C  C618  1  0.368900  0.430400  0.318500  1.0  -0.0437
  C  C619  1  0.411300  0.654500  0.527800  1.0  0.6154
  C  C620  1  0.452800  0.644000  0.547700  1.0  0.0147
  C  C621  1  0.455700  0.601800  0.568400  1.0  0.13
  C  C622  1  0.416900  0.589900  0.594600  1.0  -0.0284
  C  C623  1  0.496100  0.598300  0.593600  1.0  -0.0523
  C  C624  1  0.519200  0.682300  0.403300  1.0  0.642
  C  C625  1  0.475900  0.681300  0.383200  1.0  0.07
  C  C626  1  0.463600  0.638900  0.369000  1.0  0.1646
  C  C627  1  0.425200  0.641700  0.341800  1.0  -0.0412
  C  C628  1  0.498100  0.619000  0.343100  1.0  -0.0284
  C  C629  1  0.464500  0.248300  0.505300  1.0  0.6429
  C  C630  1  0.469800  0.259400  0.551300  1.0  0.0176
  C  C631  1  0.490800  0.299700  0.561100  1.0  0.147
  C  C632  1  0.497600  0.302100  0.607500  1.0  -0.0309
  C  C633  1  0.531700  0.302300  0.537400  1.0  -0.0081
  C  C634  1  0.332000  0.335800  0.545100  1.0  0.651
  C  C635  1  0.328000  0.335300  0.497000  1.0  0.0587
  C  C636  1  0.325900  0.377300  0.476800  1.0  0.1272
  C  C637  1  0.294200  0.407200  0.493500  1.0  -0.0158
  C  C638  1  0.318500  0.368900  0.430400  1.0  -0.0463
  C  C639  1  0.527800  0.411300  0.654500  1.0  0.6181
  C  C640  1  0.547700  0.452800  0.644000  1.0  0.0162
  C  C641  1  0.568400  0.455700  0.601800  1.0  0.13
  C  C642  1  0.594600  0.416900  0.589900  1.0  -0.0287
  C  C643  1  0.593600  0.496100  0.598300  1.0  -0.0511
  C  C644  1  0.403300  0.519200  0.682300  1.0  0.6418
  C  C645  1  0.383200  0.475900  0.681300  1.0  0.0733
  C  C646  1  0.369000  0.463600  0.638900  1.0  0.1664
  C  C647  1  0.341800  0.425200  0.641700  1.0  -0.0387
  C  C648  1  0.343100  0.498100  0.619000  1.0  -0.0277
  S  S649  1  0.358360  0.052910  0.480360  1.0  -0.06
  S  S650  1  0.346730  0.942070  0.565340  1.0  -0.0748
  S  S651  1  0.363260  0.053410  0.613810  1.0  -0.0414
  S  S652  1  0.472240  0.061380  0.526000  1.0  -0.0608
  S  S653  1  0.519640  0.858360  0.447090  1.0  -0.0603
  S  S654  1  0.434660  0.846730  0.557930  1.0  -0.0707
  S  S655  1  0.386190  0.863260  0.446590  1.0  -0.0417
  S  S656  1  0.474000  0.972240  0.438620  1.0  -0.0614
  S  S657  1  0.552910  0.019640  0.641640  1.0  -0.0618
  S  S658  1  0.442070  0.934660  0.653270  1.0  -0.0735
  S  S659  1  0.553410  0.886190  0.636740  1.0  -0.0407
  S  S660  1  0.561380  0.974000  0.527760  1.0  -0.0615
  S  S661  1  0.141640  0.947090  0.980360  1.0  -0.0595
  S  S662  1  0.153270  0.057930  0.065340  1.0  -0.0724
  S  S663  1  0.136740  0.946590  0.113810  1.0  -0.0417
  S  S664  1  0.027760  0.938620  0.026000  1.0  -0.0626
  S  S665  1  0.980360  0.141640  0.947090  1.0  -0.0608
  S  S666  1  0.065340  0.153270  0.057930  1.0  -0.0722
  S  S667  1  0.113810  0.136740  0.946590  1.0  -0.0402
  S  S668  1  0.026000  0.027760  0.938620  1.0  -0.0592
  S  S669  1  0.947090  0.980360  0.141640  1.0  -0.0606
  S  S670  1  0.057930  0.065340  0.153270  1.0  -0.0727
  S  S671  1  0.946590  0.113810  0.136740  1.0  -0.0414
  S  S672  1  0.938620  0.026000  0.027760  1.0  -0.0647
  S  S673  1  0.641640  0.552910  0.019640  1.0  -0.059
  S  S674  1  0.653270  0.442070  0.934660  1.0  -0.0723
  S  S675  1  0.636740  0.553410  0.886190  1.0  -0.0422
  S  S676  1  0.527760  0.561380  0.974000  1.0  -0.062
  S  S677  1  0.480360  0.358360  0.052910  1.0  -0.0618
  S  S678  1  0.565340  0.346730  0.942070  1.0  -0.073
  S  S679  1  0.613810  0.363260  0.053410  1.0  -0.0406
  S  S680  1  0.526000  0.472240  0.061380  1.0  -0.0596
  S  S681  1  0.447090  0.519640  0.858360  1.0  -0.0599
  S  S682  1  0.557930  0.434660  0.846730  1.0  -0.0736
  S  S683  1  0.446590  0.386190  0.863260  1.0  -0.0415
  S  S684  1  0.438620  0.474000  0.972240  1.0  -0.0639
  S  S685  1  0.858360  0.447090  0.519640  1.0  -0.0599
  S  S686  1  0.846730  0.557930  0.434660  1.0  -0.0754
  S  S687  1  0.863260  0.446590  0.386190  1.0  -0.0415
  S  S688  1  0.972240  0.438620  0.474000  1.0  -0.0609
  S  S689  1  0.019640  0.641640  0.552910  1.0  -0.0609
  S  S690  1  0.934660  0.653270  0.442070  1.0  -0.0714
  S  S691  1  0.886190  0.636740  0.553410  1.0  -0.0406
  S  S692  1  0.974000  0.527760  0.561380  1.0  -0.0608
  S  S693  1  0.052910  0.480360  0.358360  1.0  -0.0617
  S  S694  1  0.942070  0.565340  0.346730  1.0  -0.0754
  S  S695  1  0.053410  0.613810  0.363260  1.0  -0.041
  S  S696  1  0.061380  0.526000  0.472240  1.0  -0.0606
  S  S697  1  0.045750  0.043050  0.658640  1.0  0.0139
  S  S698  1  0.062460  0.972440  0.538880  1.0  -0.1035
  S  S699  1  0.106650  0.087940  0.551300  1.0  -0.0083
  S  S700  1  0.978610  0.122020  0.596980  1.0  -0.0926
  S  S701  1  0.841360  0.954250  0.543050  1.0  0.0151
  S  S702  1  0.961120  0.937540  0.472440  1.0  -0.1007
  S  S703  1  0.948700  0.893350  0.587940  1.0  -0.0074
  S  S704  1  0.903020  0.021390  0.622020  1.0  -0.0938
  S  S705  1  0.956950  0.158640  0.454250  1.0  0.0155
  S  S706  1  0.027560  0.038880  0.437540  1.0  -0.1015
  S  S707  1  0.912060  0.051300  0.393350  1.0  -0.0071
  S  S708  1  0.877980  0.096980  0.521390  1.0  -0.0916
  S  S709  1  0.454250  0.956950  0.158640  1.0  0.0133
  S  S710  1  0.437540  0.027560  0.038880  1.0  -0.1042
  S  S711  1  0.393350  0.912060  0.051300  1.0  -0.0072
  S  S712  1  0.521390  0.877980  0.096980  1.0  -0.0952
  S  S713  1  0.658640  0.045750  0.043050  1.0  0.0153
  S  S714  1  0.538880  0.062460  0.972440  1.0  -0.1027
  S  S715  1  0.551300  0.106650  0.087940  1.0  -0.0084
  S  S716  1  0.596980  0.978610  0.122020  1.0  -0.0928
  S  S717  1  0.543050  0.841360  0.954250  1.0  0.0137
  S  S718  1  0.472440  0.961120  0.937540  1.0  -0.1011
  S  S719  1  0.587940  0.948700  0.893350  1.0  -0.0064
  S  S720  1  0.622020  0.903020  0.021390  1.0  -0.0923
  S  S721  1  0.954250  0.543050  0.841360  1.0  0.0125
  S  S722  1  0.937540  0.472440  0.961120  1.0  -0.1029
  S  S723  1  0.893350  0.587940  0.948700  1.0  -0.0078
  S  S724  1  0.021390  0.622020  0.903020  1.0  -0.0924
  S  S725  1  0.158640  0.454250  0.956950  1.0  0.0155
  S  S726  1  0.038880  0.437540  0.027560  1.0  -0.1022
  S  S727  1  0.051300  0.393350  0.912060  1.0  -0.0085
  S  S728  1  0.096980  0.521390  0.877980  1.0  -0.0942
  S  S729  1  0.043050  0.658640  0.045750  1.0  0.0148
  S  S730  1  0.972440  0.538880  0.062460  1.0  -0.1034
  S  S731  1  0.087940  0.551300  0.106650  1.0  -0.0071
  S  S732  1  0.122020  0.596980  0.978610  1.0  -0.0929
  S  S733  1  0.545750  0.456950  0.341360  1.0  0.0125
  S  S734  1  0.562460  0.527560  0.461120  1.0  -0.1021
  S  S735  1  0.606650  0.412060  0.448700  1.0  -0.0086
  S  S736  1  0.478610  0.377980  0.403020  1.0  -0.0938
  S  S737  1  0.341360  0.545750  0.456950  1.0  0.0148
  S  S738  1  0.461120  0.562460  0.527560  1.0  -0.1037
  S  S739  1  0.448700  0.606650  0.412060  1.0  -0.008
  S  S740  1  0.403020  0.478610  0.377980  1.0  -0.0955
  S  S741  1  0.456950  0.341360  0.545750  1.0  0.0135
  S  S742  1  0.527560  0.461120  0.562460  1.0  -0.1023
  S  S743  1  0.412060  0.448700  0.606650  1.0  -0.0071
  S  S744  1  0.377980  0.403020  0.478610  1.0  -0.0917
  N  N745  1  0.329600  0.129600  0.443000  1.0  -0.3086
  N  N746  1  0.449100  0.123800  0.457400  1.0  -0.2436
  N  N747  1  0.288000  0.966500  0.636000  1.0  -0.2694
  N  N748  1  0.288400  0.086100  0.653200  1.0  -0.3456
  N  N749  1  0.557000  0.829600  0.370400  1.0  -0.3035
  N  N750  1  0.542600  0.949100  0.376200  1.0  -0.2483
  N  N751  1  0.364000  0.788000  0.533500  1.0  -0.2676
  N  N752  1  0.346800  0.788400  0.413900  1.0  -0.3453
  N  N753  1  0.629600  0.057000  0.670400  1.0  -0.307
  N  N754  1  0.623800  0.042600  0.550900  1.0  -0.2448
  N  N755  1  0.466500  0.864000  0.712000  1.0  -0.2721
  N  N756  1  0.586100  0.846800  0.711600  1.0  -0.3446
  N  N757  1  0.170400  0.870400  0.943000  1.0  -0.3095
  N  N758  1  0.050900  0.876200  0.957400  1.0  -0.2422
  N  N759  1  0.212000  0.033500  0.136000  1.0  -0.2701
  N  N760  1  0.211600  0.913900  0.153200  1.0  -0.3449
  N  N761  1  0.943000  0.170400  0.870400  1.0  -0.3046
  N  N762  1  0.957400  0.050900  0.876200  1.0  -0.246
  N  N763  1  0.136000  0.212000  0.033500  1.0  -0.2689
  N  N764  1  0.153200  0.211600  0.913900  1.0  -0.3486
  N  N765  1  0.870400  0.943000  0.170400  1.0  -0.3047
  N  N766  1  0.876200  0.957400  0.050900  1.0  -0.2459
  N  N767  1  0.033500  0.136000  0.212000  1.0  -0.2706
  N  N768  1  0.913900  0.153200  0.211600  1.0  -0.3441
  N  N769  1  0.670400  0.629600  0.057000  1.0  -0.3098
  N  N770  1  0.550900  0.623800  0.042600  1.0  -0.2427
  N  N771  1  0.712000  0.466500  0.864000  1.0  -0.2719
  N  N772  1  0.711600  0.586100  0.846800  1.0  -0.3459
  N  N773  1  0.443000  0.329600  0.129600  1.0  -0.3056
  N  N774  1  0.457400  0.449100  0.123800  1.0  -0.2474
  N  N775  1  0.636000  0.288000  0.966500  1.0  -0.2681
  N  N776  1  0.653200  0.288400  0.086100  1.0  -0.3439
  N  N777  1  0.370400  0.557000  0.829600  1.0  -0.3055
  N  N778  1  0.376200  0.542600  0.949100  1.0  -0.2444
  N  N779  1  0.533500  0.364000  0.788000  1.0  -0.2706
  N  N780  1  0.413900  0.346800  0.788400  1.0  -0.3438
  N  N781  1  0.829600  0.370400  0.557000  1.0  -0.3091
  N  N782  1  0.949100  0.376200  0.542600  1.0  -0.2417
  N  N783  1  0.788000  0.533500  0.364000  1.0  -0.2716
  N  N784  1  0.788400  0.413900  0.346800  1.0  -0.3457
  N  N785  1  0.057000  0.670400  0.629600  1.0  -0.3043
  N  N786  1  0.042600  0.550900  0.623800  1.0  -0.2489
  N  N787  1  0.864000  0.712000  0.466500  1.0  -0.2692
  N  N788  1  0.846800  0.711600  0.586100  1.0  -0.3468
  N  N789  1  0.129600  0.443000  0.329600  1.0  -0.3049
  N  N790  1  0.123800  0.457400  0.449100  1.0  -0.2465
  N  N791  1  0.966500  0.636000  0.288000  1.0  -0.2718
  N  N792  1  0.086100  0.653200  0.288400  1.0  -0.3442
  N  N793  1  0.069200  0.072500  0.742400  1.0  -0.2827
  N  N794  1  0.982800  0.136500  0.691100  1.0  -0.3019
  N  N795  1  0.151600  0.982800  0.513500  1.0  -0.3152
  N  N796  1  0.197000  0.086000  0.554900  1.0  -0.3437
  N  N797  1  0.757600  0.930800  0.572500  1.0  -0.283
  N  N798  1  0.808900  0.017200  0.636500  1.0  -0.3027
  N  N799  1  0.986500  0.848400  0.482800  1.0  -0.3138
  N  N800  1  0.945100  0.803000  0.586000  1.0  -0.3419
  N  N801  1  0.927500  0.242400  0.430800  1.0  -0.2778
  N  N802  1  0.863500  0.191100  0.517200  1.0  -0.3044
  N  N803  1  0.017200  0.013500  0.348400  1.0  -0.3132
  N  N804  1  0.914000  0.054900  0.303000  1.0  -0.344
  N  N805  1  0.430800  0.927500  0.242400  1.0  -0.2824
  N  N806  1  0.517200  0.863500  0.191100  1.0  -0.3011
  N  N807  1  0.348400  0.017200  0.013500  1.0  -0.3161
  N  N808  1  0.303000  0.914000  0.054900  1.0  -0.3429
  N  N809  1  0.742400  0.069200  0.072500  1.0  -0.2803
  N  N810  1  0.691100  0.982800  0.136500  1.0  -0.3032
  N  N811  1  0.513500  0.151600  0.982800  1.0  -0.3119
  N  N812  1  0.554900  0.197000  0.086000  1.0  -0.3425
  N  N813  1  0.572500  0.757600  0.930800  1.0  -0.2789
  N  N814  1  0.636500  0.808900  0.017200  1.0  -0.3037
  N  N815  1  0.482800  0.986500  0.848400  1.0  -0.3163
  N  N816  1  0.586000  0.945100  0.803000  1.0  -0.3429
  N  N817  1  0.930800  0.572500  0.757600  1.0  -0.2816
  N  N818  1  0.017200  0.636500  0.808900  1.0  -0.3014
  N  N819  1  0.848400  0.482800  0.986500  1.0  -0.3158
  N  N820  1  0.803000  0.586000  0.945100  1.0  -0.3414
  N  N821  1  0.242400  0.430800  0.927500  1.0  -0.2819
  N  N822  1  0.191100  0.517200  0.863500  1.0  -0.3012
  N  N823  1  0.013500  0.348400  0.017200  1.0  -0.3106
  N  N824  1  0.054900  0.303000  0.914000  1.0  -0.3431
  N  N825  1  0.072500  0.742400  0.069200  1.0  -0.2806
  N  N826  1  0.136500  0.691100  0.982800  1.0  -0.3053
  N  N827  1  0.982800  0.513500  0.151600  1.0  -0.3147
  N  N828  1  0.086000  0.554900  0.197000  1.0  -0.3437
  N  N829  1  0.569200  0.427500  0.257600  1.0  -0.2832
  N  N830  1  0.482800  0.363500  0.308900  1.0  -0.3011
  N  N831  1  0.651600  0.517200  0.486500  1.0  -0.3163
  N  N832  1  0.697000  0.414000  0.445100  1.0  -0.3414
  N  N833  1  0.257600  0.569200  0.427500  1.0  -0.2803
  N  N834  1  0.308900  0.482800  0.363500  1.0  -0.3027
  N  N835  1  0.486500  0.651600  0.517200  1.0  -0.3123
  N  N836  1  0.445100  0.697000  0.414000  1.0  -0.343
  N  N837  1  0.427500  0.257600  0.569200  1.0  -0.2814
  N  N838  1  0.363500  0.308900  0.482800  1.0  -0.3053
  N  N839  1  0.517200  0.486500  0.651600  1.0  -0.3153
  N  N840  1  0.414000  0.445100  0.697000  1.0  -0.3435
  Cl  Cl841  1  0.282400  0.135800  0.549900  1.0  -0.5009
  Cl  Cl842  1  0.450100  0.782400  0.364200  1.0  -0.4984
  Cl  Cl843  1  0.635800  0.950100  0.717600  1.0  -0.5
  Cl  Cl844  1  0.217600  0.864200  0.049900  1.0  -0.5016
  Cl  Cl845  1  0.049900  0.217600  0.864200  1.0  -0.4992
  Cl  Cl846  1  0.864200  0.049900  0.217600  1.0  -0.5004
  Cl  Cl847  1  0.717600  0.635800  0.950100  1.0  -0.5019
  Cl  Cl848  1  0.549900  0.282400  0.135800  1.0  -0.4988
  Cl  Cl849  1  0.364200  0.450100  0.782400  1.0  -0.5006
  Cl  Cl850  1  0.782400  0.364200  0.450100  1.0  -0.5006
  Cl  Cl851  1  0.950100  0.717600  0.635800  1.0  -0.4981
  Cl  Cl852  1  0.135800  0.549900  0.282400  1.0  -0.5008
  O  O853  1  0.391800  0.108100  0.399000  1.0  -0.5036
  O  O854  1  0.352300  0.076300  0.351600  1.0  -0.4975
  O  O855  1  0.389900  0.152500  0.505400  1.0  -0.5283
  O  O856  1  0.428800  0.171000  0.557500  1.0  -0.5093
  O  O857  1  0.265800  0.029000  0.590800  1.0  -0.5386
  O  O858  1  0.238100  0.991400  0.538100  1.0  -0.5962
  O  O859  1  0.309600  0.018800  0.697900  1.0  -0.4846
  O  O860  1  0.343800  0.059200  0.743000  1.0  -0.5181
  O  O861  1  0.601000  0.891800  0.391900  1.0  -0.5071
  O  O862  1  0.648400  0.852300  0.423700  1.0  -0.4964
  O  O863  1  0.494600  0.889900  0.347500  1.0  -0.5248
  O  O864  1  0.442500  0.928800  0.329000  1.0  -0.5086
  O  O865  1  0.409200  0.765800  0.471000  1.0  -0.5388
  O  O866  1  0.461900  0.738100  0.508600  1.0  -0.5946
  O  O867  1  0.302100  0.809600  0.481200  1.0  -0.4824
  O  O868  1  0.257000  0.843800  0.440800  1.0  -0.5203
  O  O869  1  0.608100  0.101000  0.608200  1.0  -0.5041
  O  O870  1  0.576300  0.148400  0.647700  1.0  -0.4974
  O  O871  1  0.652500  0.994600  0.610100  1.0  -0.5278
  O  O872  1  0.671000  0.942500  0.571200  1.0  -0.5022
  O  O873  1  0.529000  0.909200  0.734200  1.0  -0.5379
  O  O874  1  0.491400  0.961900  0.761900  1.0  -0.5919
  O  O875  1  0.518800  0.802100  0.690400  1.0  -0.4855
  O  O876  1  0.559200  0.757000  0.656200  1.0  -0.5208
  O  O877  1  0.108200  0.891900  0.899000  1.0  -0.5036
  O  O878  1  0.147700  0.923700  0.851600  1.0  -0.4961
  O  O879  1  0.110100  0.847500  0.005400  1.0  -0.528
  O  O880  1  0.071200  0.829000  0.057500  1.0  -0.5083
  O  O881  1  0.234200  0.971000  0.090800  1.0  -0.5389
  O  O882  1  0.261900  0.008600  0.038100  1.0  -0.5935
  O  O883  1  0.190400  0.981200  0.197900  1.0  -0.4816
  O  O884  1  0.156200  0.940800  0.243000  1.0  -0.5185
  O  O885  1  0.899000  0.108200  0.891900  1.0  -0.5084
  O  O886  1  0.851600  0.147700  0.923700  1.0  -0.4973
  O  O887  1  0.005400  0.110100  0.847500  1.0  -0.5237
  O  O888  1  0.057500  0.071200  0.829000  1.0  -0.507
  O  O889  1  0.090800  0.234200  0.971000  1.0  -0.5379
  O  O890  1  0.038100  0.261900  0.008600  1.0  -0.5951
  O  O891  1  0.197900  0.190400  0.981200  1.0  -0.4816
  O  O892  1  0.243000  0.156200  0.940800  1.0  -0.5197
  O  O893  1  0.891900  0.899000  0.108200  1.0  -0.5046
  O  O894  1  0.923700  0.851600  0.147700  1.0  -0.4989
  O  O895  1  0.847500  0.005400  0.110100  1.0  -0.5284
  O  O896  1  0.829000  0.057500  0.071200  1.0  -0.5046
  O  O897  1  0.971000  0.090800  0.234200  1.0  -0.5386
  O  O898  1  0.008600  0.038100  0.261900  1.0  -0.5941
  O  O899  1  0.981200  0.197900  0.190400  1.0  -0.4822
  O  O900  1  0.940800  0.243000  0.156200  1.0  -0.5192
  O  O901  1  0.608200  0.608100  0.101000  1.0  -0.5037
  O  O902  1  0.647700  0.576300  0.148400  1.0  -0.4967
  O  O903  1  0.610100  0.652500  0.994600  1.0  -0.5278
  O  O904  1  0.571200  0.671000  0.942500  1.0  -0.5119
  O  O905  1  0.734200  0.529000  0.909200  1.0  -0.539
  O  O906  1  0.761900  0.491400  0.961900  1.0  -0.5965
  O  O907  1  0.690400  0.518800  0.802100  1.0  -0.4827
  O  O908  1  0.656200  0.559200  0.757000  1.0  -0.5189
  O  O909  1  0.399000  0.391800  0.108100  1.0  -0.5083
  O  O910  1  0.351600  0.352300  0.076300  1.0  -0.4978
  O  O911  1  0.505400  0.389900  0.152500  1.0  -0.5257
  O  O912  1  0.557500  0.428800  0.171000  1.0  -0.5079
  O  O913  1  0.590800  0.265800  0.029000  1.0  -0.5396
  O  O914  1  0.538100  0.238100  0.991400  1.0  -0.5965
  O  O915  1  0.697900  0.309600  0.018800  1.0  -0.4801
  O  O916  1  0.743000  0.343800  0.059200  1.0  -0.5199
  O  O917  1  0.391900  0.601000  0.891800  1.0  -0.5034
  O  O918  1  0.423700  0.648400  0.852300  1.0  -0.4973
  O  O919  1  0.347500  0.494600  0.889900  1.0  -0.5272
  O  O920  1  0.329000  0.442500  0.928800  1.0  -0.5031
  O  O921  1  0.471000  0.409200  0.765800  1.0  -0.538
  O  O922  1  0.508600  0.461900  0.738100  1.0  -0.5928
  O  O923  1  0.481200  0.302100  0.809600  1.0  -0.4838
  O  O924  1  0.440800  0.257000  0.843800  1.0  -0.5222
  O  O925  1  0.891800  0.391900  0.601000  1.0  -0.504
  O  O926  1  0.852300  0.423700  0.648400  1.0  -0.4984
  O  O927  1  0.889900  0.347500  0.494600  1.0  -0.5272
  O  O928  1  0.928800  0.329000  0.442500  1.0  -0.5115
  O  O929  1  0.765800  0.471000  0.409200  1.0  -0.5387
  O  O930  1  0.738100  0.508600  0.461900  1.0  -0.5974
  O  O931  1  0.809600  0.481200  0.302100  1.0  -0.4832
  O  O932  1  0.843800  0.440800  0.257000  1.0  -0.5174
  O  O933  1  0.101000  0.608200  0.608100  1.0  -0.5086
  O  O934  1  0.148400  0.647700  0.576300  1.0  -0.4955
  O  O935  1  0.994600  0.610100  0.652500  1.0  -0.5228
  O  O936  1  0.942500  0.571200  0.671000  1.0  -0.507
  O  O937  1  0.909200  0.734200  0.529000  1.0  -0.5403
  O  O938  1  0.961900  0.761900  0.491400  1.0  -0.594
  O  O939  1  0.802100  0.690400  0.518800  1.0  -0.482
  O  O940  1  0.757000  0.656200  0.559200  1.0  -0.5221
  O  O941  1  0.108100  0.399000  0.391800  1.0  -0.5033
  O  O942  1  0.076300  0.351600  0.352300  1.0  -0.4999
  O  O943  1  0.152500  0.505400  0.389900  1.0  -0.5272
  O  O944  1  0.171000  0.557500  0.428800  1.0  -0.5029
  O  O945  1  0.029000  0.590800  0.265800  1.0  -0.5382
  O  O946  1  0.991400  0.538100  0.238100  1.0  -0.594
  O  O947  1  0.018800  0.697900  0.309600  1.0  -0.4844
  O  O948  1  0.059200  0.743000  0.343800  1.0  -0.5174
  O  O949  1  0.988700  0.069600  0.744200  1.0  -0.514
  O  O950  1  0.987500  0.004400  0.766300  1.0  -0.5026
  O  O951  1  0.062000  0.141400  0.686500  1.0  -0.5555
  O  O952  1  0.065000  0.193800  0.643500  1.0  -0.4833
  O  O953  1  0.163300  0.009200  0.587800  1.0  -0.5345
  O  O954  1  0.156400  0.948000  0.619400  1.0  -0.4815
  O  O955  1  0.179600  0.057900  0.481300  1.0  -0.5576
  O  O956  1  0.185800  0.118500  0.449400  1.0  -0.4688
  O  O957  1  0.755800  0.011300  0.569600  1.0  -0.5104
  O  O958  1  0.733700  0.012500  0.504400  1.0  -0.5043
  O  O959  1  0.813500  0.938000  0.641400  1.0  -0.5546
  O  O960  1  0.856500  0.935000  0.693800  1.0  -0.4853
  O  O961  1  0.912200  0.836700  0.509200  1.0  -0.5345
  O  O962  1  0.880600  0.843600  0.448000  1.0  -0.4867
  O  O963  1  0.018700  0.820400  0.557900  1.0  -0.5583
  O  O964  1  0.050600  0.814200  0.618500  1.0  -0.4725
  O  O965  1  0.930400  0.244200  0.511300  1.0  -0.5154
  O  O966  1  0.995600  0.266300  0.512500  1.0  -0.5064
  O  O967  1  0.858600  0.186500  0.438000  1.0  -0.5542
  O  O968  1  0.806200  0.143500  0.435000  1.0  -0.4835
  O  O969  1  0.990800  0.087800  0.336700  1.0  -0.5367
  O  O970  1  0.052000  0.119400  0.343600  1.0  -0.4843
  O  O971  1  0.942100  0.981300  0.320400  1.0  -0.5618
  O  O972  1  0.881500  0.949400  0.314200  1.0  -0.4714
  O  O973  1  0.511300  0.930400  0.244200  1.0  -0.5121
  O  O974  1  0.512500  0.995600  0.266300  1.0  -0.5024
  O  O975  1  0.438000  0.858600  0.186500  1.0  -0.5528
  O  O976  1  0.435000  0.806200  0.143500  1.0  -0.4831
  O  O977  1  0.336700  0.990800  0.087800  1.0  -0.5355
  O  O978  1  0.343600  0.052000  0.119400  1.0  -0.4848
  O  O979  1  0.320400  0.942100  0.981300  1.0  -0.5558
  O  O980  1  0.314200  0.881500  0.949400  1.0  -0.469
  O  O981  1  0.744200  0.988700  0.069600  1.0  -0.5132
  O  O982  1  0.766300  0.987500  0.004400  1.0  -0.5035
  O  O983  1  0.686500  0.062000  0.141400  1.0  -0.5554
  O  O984  1  0.643500  0.065000  0.193800  1.0  -0.4851
  O  O985  1  0.587800  0.163300  0.009200  1.0  -0.5339
  O  O986  1  0.619400  0.156400  0.948000  1.0  -0.484
  O  O987  1  0.481300  0.179600  0.057900  1.0  -0.5592
  O  O988  1  0.449400  0.185800  0.118500  1.0  -0.4698
  O  O989  1  0.569600  0.755800  0.011300  1.0  -0.514
  O  O990  1  0.504400  0.733700  0.012500  1.0  -0.5051
  O  O991  1  0.641400  0.813500  0.938000  1.0  -0.5535
  O  O992  1  0.693800  0.856500  0.935000  1.0  -0.4836
  O  O993  1  0.509200  0.912200  0.836700  1.0  -0.5363
  O  O994  1  0.448000  0.880600  0.843600  1.0  -0.4837
  O  O995  1  0.557900  0.018700  0.820400  1.0  -0.56
  O  O996  1  0.618500  0.050600  0.814200  1.0  -0.4702
  O  O997  1  0.011300  0.569600  0.755800  1.0  -0.5118
  O  O998  1  0.012500  0.504400  0.733700  1.0  -0.5016
  O  O999  1  0.938000  0.641400  0.813500  1.0  -0.5541
  O  O1000  1  0.935000  0.693800  0.856500  1.0  -0.4825
  O  O1001  1  0.836700  0.509200  0.912200  1.0  -0.5347
  O  O1002  1  0.843600  0.448000  0.880600  1.0  -0.48
  O  O1003  1  0.820400  0.557900  0.018700  1.0  -0.5574
  O  O1004  1  0.814200  0.618500  0.050600  1.0  -0.4661
  O  O1005  1  0.244200  0.511300  0.930400  1.0  -0.5103
  O  O1006  1  0.266300  0.512500  0.995600  1.0  -0.5037
  O  O1007  1  0.186500  0.438000  0.858600  1.0  -0.5556
  O  O1008  1  0.143500  0.435000  0.806200  1.0  -0.4845
  O  O1009  1  0.087800  0.336700  0.990800  1.0  -0.5351
  O  O1010  1  0.119400  0.343600  0.052000  1.0  -0.4863
  O  O1011  1  0.981300  0.320400  0.942100  1.0  -0.5577
  O  O1012  1  0.949400  0.314200  0.881500  1.0  -0.4718
  O  O1013  1  0.069600  0.744200  0.988700  1.0  -0.5126
  O  O1014  1  0.004400  0.766300  0.987500  1.0  -0.5059
  O  O1015  1  0.141400  0.686500  0.062000  1.0  -0.5541
  O  O1016  1  0.193800  0.643500  0.065000  1.0  -0.4859
  O  O1017  1  0.009200  0.587800  0.163300  1.0  -0.5374
  O  O1018  1  0.948000  0.619400  0.156400  1.0  -0.4855
  O  O1019  1  0.057900  0.481300  0.179600  1.0  -0.5594
  O  O1020  1  0.118500  0.449400  0.185800  1.0  -0.4703
  O  O1021  1  0.488700  0.430400  0.255800  1.0  -0.513
  O  O1022  1  0.487500  0.495600  0.233700  1.0  -0.5023
  O  O1023  1  0.562000  0.358600  0.313500  1.0  -0.5543
  O  O1024  1  0.565000  0.306200  0.356500  1.0  -0.483
  O  O1025  1  0.663300  0.490800  0.412200  1.0  -0.5349
  O  O1026  1  0.656400  0.552000  0.380600  1.0  -0.4842
  O  O1027  1  0.679600  0.442100  0.518700  1.0  -0.5562
  O  O1028  1  0.685800  0.381500  0.550600  1.0  -0.465
  O  O1029  1  0.255800  0.488700  0.430400  1.0  -0.5126
  O  O1030  1  0.233700  0.487500  0.495600  1.0  -0.504
  O  O1031  1  0.313500  0.562000  0.358600  1.0  -0.5547
  O  O1032  1  0.356500  0.565000  0.306200  1.0  -0.4858
  O  O1033  1  0.412200  0.663300  0.490800  1.0  -0.5353
  O  O1034  1  0.380600  0.656400  0.552000  1.0  -0.4856
  O  O1035  1  0.518700  0.679600  0.442100  1.0  -0.5581
  O  O1036  1  0.550600  0.685800  0.381500  1.0  -0.4717
  O  O1037  1  0.430400  0.255800  0.488700  1.0  -0.5134
  O  O1038  1  0.495600  0.233700  0.487500  1.0  -0.5035
  O  O1039  1  0.358600  0.313500  0.562000  1.0  -0.5534
  O  O1040  1  0.306200  0.356500  0.565000  1.0  -0.4825
  O  O1041  1  0.490800  0.412200  0.663300  1.0  -0.5365
  O  O1042  1  0.552000  0.380600  0.656400  1.0  -0.483
  O  O1043  1  0.442100  0.518700  0.679600  1.0  -0.5628
  O  O1044  1  0.381500  0.550600  0.685800  1.0  -0.4693
