# generated using pymatgen
data_CdH13C20N2O5
_symmetry_space_group_name_H-M   'P 1'
_cell_length_a   13.52900000
_cell_length_b   32.89600000
_cell_length_c   39.78500000
_cell_angle_alpha   90.00000000
_cell_angle_beta   90.00000000
_cell_angle_gamma   90.00000000
_symmetry_Int_Tables_number   1
_chemical_formula_structural   CdH13C20N2O5
_chemical_formula_sum   'Cd32 H416 C640 N64 O160'
_cell_volume   17706.31361344
_cell_formula_units_Z   32
loop_
 _symmetry_equiv_pos_site_id
 _symmetry_equiv_pos_as_xyz
  1  'x, y, z'
loop_
 _atom_site_type_symbol
 _atom_site_label
 _atom_site_symmetry_multiplicity
 _atom_site_fract_x
 _atom_site_fract_y
 _atom_site_fract_z
 _atom_site_occupancy
 _atom_site_charge
  Cd  Cd1  1  0.009070  0.694500  0.260540  1.0  1.073
  Cd  Cd2  1  0.009070  0.194500  0.760540  1.0  1.073
  Cd  Cd3  1  0.509070  0.694500  0.760540  1.0  1.073
  Cd  Cd4  1  0.509070  0.194500  0.260540  1.0  1.073
  Cd  Cd5  1  0.740930  0.055500  0.260540  1.0  1.0745
  Cd  Cd6  1  0.740930  0.555500  0.760540  1.0  1.0745
  Cd  Cd7  1  0.240930  0.055500  0.760540  1.0  1.0745
  Cd  Cd8  1  0.240930  0.555500  0.260540  1.0  1.0745
  Cd  Cd9  1  0.740930  0.694500  0.489460  1.0  1.0745
  Cd  Cd10  1  0.740930  0.194500  0.989460  1.0  1.0745
  Cd  Cd11  1  0.240930  0.694500  0.989460  1.0  1.0745
  Cd  Cd12  1  0.240930  0.194500  0.489460  1.0  1.0745
  Cd  Cd13  1  0.009070  0.055500  0.489460  1.0  1.0732
  Cd  Cd14  1  0.009070  0.555500  0.989460  1.0  1.0732
  Cd  Cd15  1  0.509070  0.055500  0.989460  1.0  1.0732
  Cd  Cd16  1  0.509070  0.555500  0.489460  1.0  1.0732
  Cd  Cd17  1  0.990930  0.305500  0.739460  1.0  1.0746
  Cd  Cd18  1  0.990930  0.805500  0.239460  1.0  1.0746
  Cd  Cd19  1  0.490930  0.305500  0.239460  1.0  1.0746
  Cd  Cd20  1  0.490930  0.805500  0.739460  1.0  1.0746
  Cd  Cd21  1  0.259070  0.944500  0.739460  1.0  1.0731
  Cd  Cd22  1  0.259070  0.444500  0.239460  1.0  1.0731
  Cd  Cd23  1  0.759070  0.944500  0.239460  1.0  1.0731
  Cd  Cd24  1  0.759070  0.444500  0.739460  1.0  1.0731
  Cd  Cd25  1  0.259070  0.305500  0.510540  1.0  1.0731
  Cd  Cd26  1  0.259070  0.805500  0.010540  1.0  1.0731
  Cd  Cd27  1  0.759070  0.305500  0.010540  1.0  1.0731
  Cd  Cd28  1  0.759070  0.805500  0.510540  1.0  1.0731
  Cd  Cd29  1  0.990930  0.944500  0.510540  1.0  1.0744
  Cd  Cd30  1  0.990930  0.444500  0.010540  1.0  1.0744
  Cd  Cd31  1  0.490930  0.944500  0.010540  1.0  1.0744
  Cd  Cd32  1  0.490930  0.444500  0.510540  1.0  1.0744
  H  H33  1  0.315800  0.786900  0.309000  1.0  0.1144
  H  H34  1  0.412000  0.748200  0.344800  1.0  0.1248
  H  H35  1  0.396900  0.678300  0.342800  1.0  0.0955
  H  H36  1  0.239300  0.628200  0.353900  1.0  0.1129
  H  H37  1  0.281000  0.596700  0.400300  1.0  0.1139
  H  H38  1  0.024500  0.719000  0.182300  1.0  0.0824
  H  H39  1  0.021800  0.692700  0.128800  1.0  0.1191
  H  H40  1  0.985500  0.582200  0.169100  1.0  0.1217
  H  H41  1  0.995700  0.611100  0.221200  1.0  0.0929
  H  H42  1  0.156700  0.512600  0.458300  1.0  0.11
  H  H43  1  0.128800  0.506200  0.357200  1.0  0.1005
  H  H44  1  0.095100  0.478800  0.410500  1.0  0.1329
  H  H45  1  0.258200  0.568000  0.452100  1.0  0.1109
  H  H46  1  0.315800  0.286900  0.809000  1.0  0.1144
  H  H47  1  0.412000  0.248200  0.844800  1.0  0.1248
  H  H48  1  0.396900  0.178300  0.842800  1.0  0.0955
  H  H49  1  0.239300  0.128200  0.853900  1.0  0.1129
  H  H50  1  0.281000  0.096700  0.900300  1.0  0.1139
  H  H51  1  0.024500  0.219000  0.682300  1.0  0.0824
  H  H52  1  0.021800  0.192700  0.628800  1.0  0.1191
  H  H53  1  0.985500  0.082200  0.669100  1.0  0.1217
  H  H54  1  0.995700  0.111100  0.721200  1.0  0.0929
  H  H55  1  0.156700  0.012600  0.958300  1.0  0.11
  H  H56  1  0.128800  0.006200  0.857200  1.0  0.1005
  H  H57  1  0.095100  0.978800  0.910500  1.0  0.1329
  H  H58  1  0.258200  0.068000  0.952100  1.0  0.1109
  H  H59  1  0.815800  0.786900  0.809000  1.0  0.1144
  H  H60  1  0.912000  0.748200  0.844800  1.0  0.1248
  H  H61  1  0.896900  0.678300  0.842800  1.0  0.0955
  H  H62  1  0.739300  0.628200  0.853900  1.0  0.1129
  H  H63  1  0.781000  0.596700  0.900300  1.0  0.1139
  H  H64  1  0.524500  0.719000  0.682300  1.0  0.0824
  H  H65  1  0.521800  0.692700  0.628800  1.0  0.1191
  H  H66  1  0.485500  0.582200  0.669100  1.0  0.1217
  H  H67  1  0.495700  0.611100  0.721200  1.0  0.0929
  H  H68  1  0.656700  0.512600  0.958300  1.0  0.11
  H  H69  1  0.628800  0.506200  0.857200  1.0  0.1005
  H  H70  1  0.595100  0.478800  0.910500  1.0  0.1329
  H  H71  1  0.758200  0.568000  0.952100  1.0  0.1109
  H  H72  1  0.815800  0.286900  0.309000  1.0  0.1144
  H  H73  1  0.912000  0.248200  0.344800  1.0  0.1248
  H  H74  1  0.896900  0.178300  0.342800  1.0  0.0955
  H  H75  1  0.739300  0.128200  0.353900  1.0  0.1129
  H  H76  1  0.781000  0.096700  0.400300  1.0  0.1139
  H  H77  1  0.524500  0.219000  0.182300  1.0  0.0824
  H  H78  1  0.521800  0.192700  0.128800  1.0  0.1191
  H  H79  1  0.485500  0.082200  0.169100  1.0  0.1217
  H  H80  1  0.495700  0.111100  0.221200  1.0  0.0929
  H  H81  1  0.656700  0.012600  0.458300  1.0  0.11
  H  H82  1  0.628800  0.006200  0.357200  1.0  0.1005
  H  H83  1  0.595100  0.978800  0.410500  1.0  0.1329
  H  H84  1  0.758200  0.068000  0.452100  1.0  0.1109
  H  H85  1  0.434200  0.963100  0.309000  1.0  0.1155
  H  H86  1  0.338000  0.001800  0.344800  1.0  0.125
  H  H87  1  0.353100  0.071700  0.342800  1.0  0.0956
  H  H88  1  0.510700  0.121800  0.353900  1.0  0.1132
  H  H89  1  0.469000  0.153300  0.400300  1.0  0.1135
  H  H90  1  0.725500  0.031000  0.182300  1.0  0.0828
  H  H91  1  0.728200  0.057300  0.128800  1.0  0.1187
  H  H92  1  0.764500  0.167800  0.169100  1.0  0.1203
  H  H93  1  0.754300  0.138900  0.221200  1.0  0.0919
  H  H94  1  0.593300  0.237400  0.458300  1.0  0.1097
  H  H95  1  0.621200  0.243800  0.357200  1.0  0.1005
  H  H96  1  0.654900  0.271200  0.410500  1.0  0.1325
  H  H97  1  0.491800  0.182000  0.452100  1.0  0.1107
  H  H98  1  0.434200  0.463100  0.809000  1.0  0.1155
  H  H99  1  0.338000  0.501800  0.844800  1.0  0.125
  H  H100  1  0.353100  0.571700  0.842800  1.0  0.0956
  H  H101  1  0.510700  0.621800  0.853900  1.0  0.1132
  H  H102  1  0.469000  0.653300  0.900300  1.0  0.1135
  H  H103  1  0.725500  0.531000  0.682300  1.0  0.0828
  H  H104  1  0.728200  0.557300  0.628800  1.0  0.1187
  H  H105  1  0.764500  0.667800  0.669100  1.0  0.1203
  H  H106  1  0.754300  0.638900  0.721200  1.0  0.0919
  H  H107  1  0.593300  0.737400  0.958300  1.0  0.1097
  H  H108  1  0.621200  0.743800  0.857200  1.0  0.1005
  H  H109  1  0.654900  0.771200  0.910500  1.0  0.1325
  H  H110  1  0.491800  0.682000  0.952100  1.0  0.1107
  H  H111  1  0.934200  0.963100  0.809000  1.0  0.1155
  H  H112  1  0.838000  0.001800  0.844800  1.0  0.125
  H  H113  1  0.853100  0.071700  0.842800  1.0  0.0956
  H  H114  1  0.010700  0.121800  0.853900  1.0  0.1132
  H  H115  1  0.969000  0.153300  0.900300  1.0  0.1135
  H  H116  1  0.225500  0.031000  0.682300  1.0  0.0828
  H  H117  1  0.228200  0.057300  0.628800  1.0  0.1187
  H  H118  1  0.264500  0.167800  0.669100  1.0  0.1203
  H  H119  1  0.254300  0.138900  0.721200  1.0  0.0919
  H  H120  1  0.093300  0.237400  0.958300  1.0  0.1097
  H  H121  1  0.121200  0.243800  0.857200  1.0  0.1005
  H  H122  1  0.154900  0.271200  0.910500  1.0  0.1325
  H  H123  1  0.991800  0.182000  0.952100  1.0  0.1107
  H  H124  1  0.934200  0.463100  0.309000  1.0  0.1155
  H  H125  1  0.838000  0.501800  0.344800  1.0  0.125
  H  H126  1  0.853100  0.571700  0.342800  1.0  0.0956
  H  H127  1  0.010700  0.621800  0.353900  1.0  0.1132
  H  H128  1  0.969000  0.653300  0.400300  1.0  0.1135
  H  H129  1  0.225500  0.531000  0.182300  1.0  0.0828
  H  H130  1  0.228200  0.557300  0.128800  1.0  0.1187
  H  H131  1  0.264500  0.667800  0.169100  1.0  0.1203
  H  H132  1  0.254300  0.638900  0.221200  1.0  0.0919
  H  H133  1  0.093300  0.737400  0.458300  1.0  0.1097
  H  H134  1  0.121200  0.743800  0.357200  1.0  0.1005
  H  H135  1  0.154900  0.771200  0.410500  1.0  0.1325
  H  H136  1  0.991800  0.682000  0.452100  1.0  0.1107
  H  H137  1  0.434200  0.786900  0.441000  1.0  0.114
  H  H138  1  0.338000  0.748200  0.405200  1.0  0.1253
  H  H139  1  0.353100  0.678300  0.407200  1.0  0.0955
  H  H140  1  0.510700  0.628200  0.396100  1.0  0.1127
  H  H141  1  0.469000  0.596700  0.349700  1.0  0.1134
  H  H142  1  0.725500  0.719000  0.567700  1.0  0.0823
  H  H143  1  0.728200  0.692700  0.621200  1.0  0.1188
  H  H144  1  0.764500  0.582200  0.580900  1.0  0.1213
  H  H145  1  0.754300  0.611100  0.528800  1.0  0.0917
  H  H146  1  0.593300  0.512600  0.291700  1.0  0.1095
  H  H147  1  0.621200  0.506200  0.392800  1.0  0.1002
  H  H148  1  0.654900  0.478800  0.339500  1.0  0.1329
  H  H149  1  0.491800  0.568000  0.297900  1.0  0.1103
  H  H150  1  0.434200  0.286900  0.941000  1.0  0.114
  H  H151  1  0.338000  0.248200  0.905200  1.0  0.1253
  H  H152  1  0.353100  0.178300  0.907200  1.0  0.0955
  H  H153  1  0.510700  0.128200  0.896100  1.0  0.1127
  H  H154  1  0.469000  0.096700  0.849700  1.0  0.1134
  H  H155  1  0.725500  0.219000  0.067700  1.0  0.0823
  H  H156  1  0.728200  0.192700  0.121200  1.0  0.1188
  H  H157  1  0.764500  0.082200  0.080900  1.0  0.1213
  H  H158  1  0.754300  0.111100  0.028800  1.0  0.0917
  H  H159  1  0.593300  0.012600  0.791700  1.0  0.1095
  H  H160  1  0.621200  0.006200  0.892800  1.0  0.1002
  H  H161  1  0.654900  0.978800  0.839500  1.0  0.1329
  H  H162  1  0.491800  0.068000  0.797900  1.0  0.1103
  H  H163  1  0.934200  0.786900  0.941000  1.0  0.114
  H  H164  1  0.838000  0.748200  0.905200  1.0  0.1253
  H  H165  1  0.853100  0.678300  0.907200  1.0  0.0955
  H  H166  1  0.010700  0.628200  0.896100  1.0  0.1127
  H  H167  1  0.969000  0.596700  0.849700  1.0  0.1134
  H  H168  1  0.225500  0.719000  0.067700  1.0  0.0823
  H  H169  1  0.228200  0.692700  0.121200  1.0  0.1188
  H  H170  1  0.264500  0.582200  0.080900  1.0  0.1213
  H  H171  1  0.254300  0.611100  0.028800  1.0  0.0917
  H  H172  1  0.093300  0.512600  0.791700  1.0  0.1095
  H  H173  1  0.121200  0.506200  0.892800  1.0  0.1002
  H  H174  1  0.154900  0.478800  0.839500  1.0  0.1329
  H  H175  1  0.991800  0.568000  0.797900  1.0  0.1103
  H  H176  1  0.934200  0.286900  0.441000  1.0  0.114
  H  H177  1  0.838000  0.248200  0.405200  1.0  0.1253
  H  H178  1  0.853100  0.178300  0.407200  1.0  0.0955
  H  H179  1  0.010700  0.128200  0.396100  1.0  0.1127
  H  H180  1  0.969000  0.096700  0.349700  1.0  0.1134
  H  H181  1  0.225500  0.219000  0.567700  1.0  0.0823
  H  H182  1  0.228200  0.192700  0.621200  1.0  0.1188
  H  H183  1  0.264500  0.082200  0.580900  1.0  0.1213
  H  H184  1  0.254300  0.111100  0.528800  1.0  0.0917
  H  H185  1  0.093300  0.012600  0.291700  1.0  0.1095
  H  H186  1  0.121200  0.006200  0.392800  1.0  0.1002
  H  H187  1  0.154900  0.978800  0.339500  1.0  0.1329
  H  H188  1  0.991800  0.068000  0.297900  1.0  0.1103
  H  H189  1  0.315800  0.963100  0.441000  1.0  0.1153
  H  H190  1  0.412000  0.001800  0.405200  1.0  0.1252
  H  H191  1  0.396900  0.071700  0.407200  1.0  0.095
  H  H192  1  0.239300  0.121800  0.396100  1.0  0.1123
  H  H193  1  0.281000  0.153300  0.349700  1.0  0.114
  H  H194  1  0.024500  0.031000  0.567700  1.0  0.083
  H  H195  1  0.021800  0.057300  0.621200  1.0  0.1189
  H  H196  1  0.985500  0.167800  0.580900  1.0  0.1215
  H  H197  1  0.995700  0.138900  0.528800  1.0  0.0925
  H  H198  1  0.156700  0.237400  0.291700  1.0  0.1095
  H  H199  1  0.128800  0.243800  0.392800  1.0  0.1001
  H  H200  1  0.095100  0.271200  0.339500  1.0  0.1329
  H  H201  1  0.258200  0.182000  0.297900  1.0  0.111
  H  H202  1  0.315800  0.463100  0.941000  1.0  0.1153
  H  H203  1  0.412000  0.501800  0.905200  1.0  0.1252
  H  H204  1  0.396900  0.571700  0.907200  1.0  0.095
  H  H205  1  0.239300  0.621800  0.896100  1.0  0.1123
  H  H206  1  0.281000  0.653300  0.849700  1.0  0.114
  H  H207  1  0.024500  0.531000  0.067700  1.0  0.083
  H  H208  1  0.021800  0.557300  0.121200  1.0  0.1189
  H  H209  1  0.985500  0.667800  0.080900  1.0  0.1215
  H  H210  1  0.995700  0.638900  0.028800  1.0  0.0925
  H  H211  1  0.156700  0.737400  0.791700  1.0  0.1095
  H  H212  1  0.128800  0.743800  0.892800  1.0  0.1001
  H  H213  1  0.095100  0.771200  0.839500  1.0  0.1329
  H  H214  1  0.258200  0.682000  0.797900  1.0  0.111
  H  H215  1  0.815800  0.963100  0.941000  1.0  0.1153
  H  H216  1  0.912000  0.001800  0.905200  1.0  0.1252
  H  H217  1  0.896900  0.071700  0.907200  1.0  0.095
  H  H218  1  0.739300  0.121800  0.896100  1.0  0.1123
  H  H219  1  0.781000  0.153300  0.849700  1.0  0.114
  H  H220  1  0.524500  0.031000  0.067700  1.0  0.083
  H  H221  1  0.521800  0.057300  0.121200  1.0  0.1189
  H  H222  1  0.485500  0.167800  0.080900  1.0  0.1215
  H  H223  1  0.495700  0.138900  0.028800  1.0  0.0925
  H  H224  1  0.656700  0.237400  0.791700  1.0  0.1095
  H  H225  1  0.628800  0.243800  0.892800  1.0  0.1001
  H  H226  1  0.595100  0.271200  0.839500  1.0  0.1329
  H  H227  1  0.758200  0.182000  0.797900  1.0  0.111
  H  H228  1  0.815800  0.463100  0.441000  1.0  0.1153
  H  H229  1  0.912000  0.501800  0.405200  1.0  0.1252
  H  H230  1  0.896900  0.571700  0.407200  1.0  0.095
  H  H231  1  0.739300  0.621800  0.396100  1.0  0.1123
  H  H232  1  0.781000  0.653300  0.349700  1.0  0.114
  H  H233  1  0.524500  0.531000  0.567700  1.0  0.083
  H  H234  1  0.521800  0.557300  0.621200  1.0  0.1189
  H  H235  1  0.485500  0.667800  0.580900  1.0  0.1215
  H  H236  1  0.495700  0.638900  0.528800  1.0  0.0925
  H  H237  1  0.656700  0.737400  0.291700  1.0  0.1095
  H  H238  1  0.628800  0.743800  0.392800  1.0  0.1001
  H  H239  1  0.595100  0.771200  0.339500  1.0  0.1329
  H  H240  1  0.758200  0.682000  0.297900  1.0  0.111
  H  H241  1  0.684200  0.213100  0.691000  1.0  0.1153
  H  H242  1  0.588000  0.251800  0.655200  1.0  0.125
  H  H243  1  0.603100  0.321700  0.657200  1.0  0.0955
  H  H244  1  0.760700  0.371800  0.646100  1.0  0.1122
  H  H245  1  0.719000  0.403300  0.599700  1.0  0.113
  H  H246  1  0.975500  0.281000  0.817700  1.0  0.0827
  H  H247  1  0.978200  0.307300  0.871200  1.0  0.1188
  H  H248  1  0.014500  0.417800  0.830900  1.0  0.1204
  H  H249  1  0.004300  0.388900  0.778800  1.0  0.0921
  H  H250  1  0.843300  0.487400  0.541700  1.0  0.1094
  H  H251  1  0.871200  0.493800  0.642800  1.0  0.1003
  H  H252  1  0.904900  0.521200  0.589500  1.0  0.1327
  H  H253  1  0.741800  0.432000  0.547900  1.0  0.1113
  H  H254  1  0.684200  0.713100  0.191000  1.0  0.1153
  H  H255  1  0.588000  0.751800  0.155200  1.0  0.125
  H  H256  1  0.603100  0.821700  0.157200  1.0  0.0955
  H  H257  1  0.760700  0.871800  0.146100  1.0  0.1122
  H  H258  1  0.719000  0.903300  0.099700  1.0  0.113
  H  H259  1  0.975500  0.781000  0.317700  1.0  0.0827
  H  H260  1  0.978200  0.807300  0.371200  1.0  0.1188
  H  H261  1  0.014500  0.917800  0.330900  1.0  0.1204
  H  H262  1  0.004300  0.888900  0.278800  1.0  0.0921
  H  H263  1  0.843300  0.987400  0.041700  1.0  0.1094
  H  H264  1  0.871200  0.993800  0.142800  1.0  0.1003
  H  H265  1  0.904900  0.021200  0.089500  1.0  0.1327
  H  H266  1  0.741800  0.932000  0.047900  1.0  0.1113
  H  H267  1  0.184200  0.213100  0.191000  1.0  0.1153
  H  H268  1  0.088000  0.251800  0.155200  1.0  0.125
  H  H269  1  0.103100  0.321700  0.157200  1.0  0.0955
  H  H270  1  0.260700  0.371800  0.146100  1.0  0.1122
  H  H271  1  0.219000  0.403300  0.099700  1.0  0.113
  H  H272  1  0.475500  0.281000  0.317700  1.0  0.0827
  H  H273  1  0.478200  0.307300  0.371200  1.0  0.1188
  H  H274  1  0.514500  0.417800  0.330900  1.0  0.1204
  H  H275  1  0.504300  0.388900  0.278800  1.0  0.0921
  H  H276  1  0.343300  0.487400  0.041700  1.0  0.1094
  H  H277  1  0.371200  0.493800  0.142800  1.0  0.1003
  H  H278  1  0.404900  0.521200  0.089500  1.0  0.1327
  H  H279  1  0.241800  0.432000  0.047900  1.0  0.1113
  H  H280  1  0.184200  0.713100  0.691000  1.0  0.1153
  H  H281  1  0.088000  0.751800  0.655200  1.0  0.125
  H  H282  1  0.103100  0.821700  0.657200  1.0  0.0955
  H  H283  1  0.260700  0.871800  0.646100  1.0  0.1122
  H  H284  1  0.219000  0.903300  0.599700  1.0  0.113
  H  H285  1  0.475500  0.781000  0.817700  1.0  0.0827
  H  H286  1  0.478200  0.807300  0.871200  1.0  0.1188
  H  H287  1  0.514500  0.917800  0.830900  1.0  0.1204
  H  H288  1  0.504300  0.888900  0.778800  1.0  0.0921
  H  H289  1  0.343300  0.987400  0.541700  1.0  0.1094
  H  H290  1  0.371200  0.993800  0.642800  1.0  0.1003
  H  H291  1  0.404900  0.021200  0.589500  1.0  0.1327
  H  H292  1  0.241800  0.932000  0.547900  1.0  0.1113
  H  H293  1  0.565800  0.036900  0.691000  1.0  0.1146
  H  H294  1  0.662000  0.998200  0.655200  1.0  0.1252
  H  H295  1  0.646900  0.928300  0.657200  1.0  0.0953
  H  H296  1  0.489300  0.878200  0.646100  1.0  0.1127
  H  H297  1  0.531000  0.846700  0.599700  1.0  0.1141
  H  H298  1  0.274500  0.969000  0.817700  1.0  0.0829
  H  H299  1  0.271800  0.942700  0.871200  1.0  0.119
  H  H300  1  0.235500  0.832200  0.830900  1.0  0.1206
  H  H301  1  0.245700  0.861100  0.778800  1.0  0.0923
  H  H302  1  0.406700  0.762600  0.541700  1.0  0.1096
  H  H303  1  0.378800  0.756200  0.642800  1.0  0.1003
  H  H304  1  0.345100  0.728800  0.589500  1.0  0.1325
  H  H305  1  0.508200  0.818000  0.547900  1.0  0.1115
  H  H306  1  0.565800  0.536900  0.191000  1.0  0.1146
  H  H307  1  0.662000  0.498200  0.155200  1.0  0.1252
  H  H308  1  0.646900  0.428300  0.157200  1.0  0.0953
  H  H309  1  0.489300  0.378200  0.146100  1.0  0.1127
  H  H310  1  0.531000  0.346700  0.099700  1.0  0.1141
  H  H311  1  0.274500  0.469000  0.317700  1.0  0.0829
  H  H312  1  0.271800  0.442700  0.371200  1.0  0.119
  H  H313  1  0.235500  0.332200  0.330900  1.0  0.1206
  H  H314  1  0.245700  0.361100  0.278800  1.0  0.0923
  H  H315  1  0.406700  0.262600  0.041700  1.0  0.1096
  H  H316  1  0.378800  0.256200  0.142800  1.0  0.1003
  H  H317  1  0.345100  0.228800  0.089500  1.0  0.1325
  H  H318  1  0.508200  0.318000  0.047900  1.0  0.1115
  H  H319  1  0.065800  0.036900  0.191000  1.0  0.1146
  H  H320  1  0.162000  0.998200  0.155200  1.0  0.1252
  H  H321  1  0.146900  0.928300  0.157200  1.0  0.0953
  H  H322  1  0.989300  0.878200  0.146100  1.0  0.1127
  H  H323  1  0.031000  0.846700  0.099700  1.0  0.1141
  H  H324  1  0.774500  0.969000  0.317700  1.0  0.0829
  H  H325  1  0.771800  0.942700  0.371200  1.0  0.119
  H  H326  1  0.735500  0.832200  0.330900  1.0  0.1206
  H  H327  1  0.745700  0.861100  0.278800  1.0  0.0923
  H  H328  1  0.906700  0.762600  0.041700  1.0  0.1096
  H  H329  1  0.878800  0.756200  0.142800  1.0  0.1003
  H  H330  1  0.845100  0.728800  0.089500  1.0  0.1325
  H  H331  1  0.008200  0.818000  0.047900  1.0  0.1115
  H  H332  1  0.065800  0.536900  0.691000  1.0  0.1146
  H  H333  1  0.162000  0.498200  0.655200  1.0  0.1252
  H  H334  1  0.146900  0.428300  0.657200  1.0  0.0953
  H  H335  1  0.989300  0.378200  0.646100  1.0  0.1127
  H  H336  1  0.031000  0.346700  0.599700  1.0  0.1141
  H  H337  1  0.774500  0.469000  0.817700  1.0  0.0829
  H  H338  1  0.771800  0.442700  0.871200  1.0  0.119
  H  H339  1  0.735500  0.332200  0.830900  1.0  0.1206
  H  H340  1  0.745700  0.361100  0.778800  1.0  0.0923
  H  H341  1  0.906700  0.262600  0.541700  1.0  0.1096
  H  H342  1  0.878800  0.256200  0.642800  1.0  0.1003
  H  H343  1  0.845100  0.228800  0.589500  1.0  0.1325
  H  H344  1  0.008200  0.318000  0.547900  1.0  0.1115
  H  H345  1  0.565800  0.213100  0.559000  1.0  0.1157
  H  H346  1  0.662000  0.251800  0.594800  1.0  0.1253
  H  H347  1  0.646900  0.321700  0.592800  1.0  0.0953
  H  H348  1  0.489300  0.371800  0.603900  1.0  0.1131
  H  H349  1  0.531000  0.403300  0.650300  1.0  0.1145
  H  H350  1  0.274500  0.281000  0.432300  1.0  0.0832
  H  H351  1  0.271800  0.307300  0.378800  1.0  0.1186
  H  H352  1  0.235500  0.417800  0.419100  1.0  0.121
  H  H353  1  0.245700  0.388900  0.471200  1.0  0.0925
  H  H354  1  0.406700  0.487400  0.708300  1.0  0.1101
  H  H355  1  0.378800  0.493800  0.607200  1.0  0.1007
  H  H356  1  0.345100  0.521200  0.660500  1.0  0.1331
  H  H357  1  0.508200  0.432000  0.702100  1.0  0.1125
  H  H358  1  0.565800  0.713100  0.059000  1.0  0.1157
  H  H359  1  0.662000  0.751800  0.094800  1.0  0.1253
  H  H360  1  0.646900  0.821700  0.092800  1.0  0.0953
  H  H361  1  0.489300  0.871800  0.103900  1.0  0.1131
  H  H362  1  0.531000  0.903300  0.150300  1.0  0.1145
  H  H363  1  0.274500  0.781000  0.932300  1.0  0.0832
  H  H364  1  0.271800  0.807300  0.878800  1.0  0.1186
  H  H365  1  0.235500  0.917800  0.919100  1.0  0.121
  H  H366  1  0.245700  0.888900  0.971200  1.0  0.0925
  H  H367  1  0.406700  0.987400  0.208300  1.0  0.1101
  H  H368  1  0.378800  0.993800  0.107200  1.0  0.1007
  H  H369  1  0.345100  0.021200  0.160500  1.0  0.1331
  H  H370  1  0.508200  0.932000  0.202100  1.0  0.1125
  H  H371  1  0.065800  0.213100  0.059000  1.0  0.1157
  H  H372  1  0.162000  0.251800  0.094800  1.0  0.1253
  H  H373  1  0.146900  0.321700  0.092800  1.0  0.0953
  H  H374  1  0.989300  0.371800  0.103900  1.0  0.1131
  H  H375  1  0.031000  0.403300  0.150300  1.0  0.1145
  H  H376  1  0.774500  0.281000  0.932300  1.0  0.0832
  H  H377  1  0.771800  0.307300  0.878800  1.0  0.1186
  H  H378  1  0.735500  0.417800  0.919100  1.0  0.121
  H  H379  1  0.745700  0.388900  0.971200  1.0  0.0925
  H  H380  1  0.906700  0.487400  0.208300  1.0  0.1101
  H  H381  1  0.878800  0.493800  0.107200  1.0  0.1007
  H  H382  1  0.845100  0.521200  0.160500  1.0  0.1331
  H  H383  1  0.008200  0.432000  0.202100  1.0  0.1125
  H  H384  1  0.065800  0.713100  0.559000  1.0  0.1157
  H  H385  1  0.162000  0.751800  0.594800  1.0  0.1253
  H  H386  1  0.146900  0.821700  0.592800  1.0  0.0953
  H  H387  1  0.989300  0.871800  0.603900  1.0  0.1131
  H  H388  1  0.031000  0.903300  0.650300  1.0  0.1145
  H  H389  1  0.774500  0.781000  0.432300  1.0  0.0832
  H  H390  1  0.771800  0.807300  0.378800  1.0  0.1186
  H  H391  1  0.735500  0.917800  0.419100  1.0  0.121
  H  H392  1  0.745700  0.888900  0.471200  1.0  0.0925
  H  H393  1  0.906700  0.987400  0.708300  1.0  0.1101
  H  H394  1  0.878800  0.993800  0.607200  1.0  0.1007
  H  H395  1  0.845100  0.021200  0.660500  1.0  0.1331
  H  H396  1  0.008200  0.932000  0.702100  1.0  0.1125
  H  H397  1  0.684200  0.036900  0.559000  1.0  0.1138
  H  H398  1  0.588000  0.998200  0.594800  1.0  0.1246
  H  H399  1  0.603100  0.928300  0.592800  1.0  0.0957
  H  H400  1  0.760700  0.878200  0.603900  1.0  0.1131
  H  H401  1  0.719000  0.846700  0.650300  1.0  0.113
  H  H402  1  0.975500  0.969000  0.432300  1.0  0.0822
  H  H403  1  0.978200  0.942700  0.378800  1.0  0.1191
  H  H404  1  0.014500  0.832200  0.419100  1.0  0.1209
  H  H405  1  0.004300  0.861100  0.471200  1.0  0.0919
  H  H406  1  0.843300  0.762600  0.708300  1.0  0.1096
  H  H407  1  0.871200  0.756200  0.607200  1.0  0.1003
  H  H408  1  0.904900  0.728800  0.660500  1.0  0.1328
  H  H409  1  0.741800  0.818000  0.702100  1.0  0.1121
  H  H410  1  0.684200  0.536900  0.059000  1.0  0.1138
  H  H411  1  0.588000  0.498200  0.094800  1.0  0.1246
  H  H412  1  0.603100  0.428300  0.092800  1.0  0.0957
  H  H413  1  0.760700  0.378200  0.103900  1.0  0.1131
  H  H414  1  0.719000  0.346700  0.150300  1.0  0.113
  H  H415  1  0.975500  0.469000  0.932300  1.0  0.0822
  H  H416  1  0.978200  0.442700  0.878800  1.0  0.1191
  H  H417  1  0.014500  0.332200  0.919100  1.0  0.1209
  H  H418  1  0.004300  0.361100  0.971200  1.0  0.0919
  H  H419  1  0.843300  0.262600  0.208300  1.0  0.1096
  H  H420  1  0.871200  0.256200  0.107200  1.0  0.1003
  H  H421  1  0.904900  0.228800  0.160500  1.0  0.1328
  H  H422  1  0.741800  0.318000  0.202100  1.0  0.1121
  H  H423  1  0.184200  0.036900  0.059000  1.0  0.1138
  H  H424  1  0.088000  0.998200  0.094800  1.0  0.1246
  H  H425  1  0.103100  0.928300  0.092800  1.0  0.0957
  H  H426  1  0.260700  0.878200  0.103900  1.0  0.1131
  H  H427  1  0.219000  0.846700  0.150300  1.0  0.113
  H  H428  1  0.475500  0.969000  0.932300  1.0  0.0822
  H  H429  1  0.478200  0.942700  0.878800  1.0  0.1191
  H  H430  1  0.514500  0.832200  0.919100  1.0  0.1209
  H  H431  1  0.504300  0.861100  0.971200  1.0  0.0919
  H  H432  1  0.343300  0.762600  0.208300  1.0  0.1096
  H  H433  1  0.371200  0.756200  0.107200  1.0  0.1003
  H  H434  1  0.404900  0.728800  0.160500  1.0  0.1328
  H  H435  1  0.241800  0.818000  0.202100  1.0  0.1121
  H  H436  1  0.184200  0.536900  0.559000  1.0  0.1138
  H  H437  1  0.088000  0.498200  0.594800  1.0  0.1246
  H  H438  1  0.103100  0.428300  0.592800  1.0  0.0957
  H  H439  1  0.260700  0.378200  0.603900  1.0  0.1131
  H  H440  1  0.219000  0.346700  0.650300  1.0  0.113
  H  H441  1  0.475500  0.469000  0.432300  1.0  0.0822
  H  H442  1  0.478200  0.442700  0.378800  1.0  0.1191
  H  H443  1  0.514500  0.332200  0.419100  1.0  0.1209
  H  H444  1  0.504300  0.361100  0.471200  1.0  0.0919
  H  H445  1  0.343300  0.262600  0.708300  1.0  0.1096
  H  H446  1  0.371200  0.256200  0.607200  1.0  0.1003
  H  H447  1  0.404900  0.228800  0.660500  1.0  0.1328
  H  H448  1  0.241800  0.318000  0.702100  1.0  0.1121
  C  C449  1  0.177200  0.768300  0.266670  1.0  0.7068
  C  C450  1  0.241900  0.740700  0.287550  1.0  -0.0329
  C  C451  1  0.309500  0.758800  0.309000  1.0  -0.0346
  C  C452  1  0.367500  0.735900  0.330100  1.0  -0.1125
  C  C453  1  0.357600  0.694200  0.328900  1.0  -0.112
  C  C454  1  0.291800  0.675600  0.307880  1.0  0.0717
  C  C455  1  0.279900  0.630500  0.306230  1.0  0.3517
  C  C456  1  0.250300  0.611700  0.335280  1.0  -0.0876
  C  C457  1  0.234800  0.569600  0.339650  1.0  0.3966
  C  C458  1  0.210400  0.553700  0.373550  1.0  -0.0707
  C  C459  1  0.245700  0.572600  0.402200  1.0  -0.1194
  C  C460  1  0.018000  0.691000  0.179490  1.0  0.1842
  C  C461  1  0.015100  0.675400  0.147160  1.0  -0.1615
  C  C462  1  0.002200  0.634000  0.142150  1.0  0.0983
  C  C463  1  0.994500  0.610100  0.171000  1.0  -0.1608
  C  C464  1  0.000100  0.627700  0.202340  1.0  0.192
  C  C465  1  0.171100  0.522400  0.436900  1.0  -0.1079
  C  C466  1  0.153400  0.518700  0.376400  1.0  -0.0484
  C  C467  1  0.132900  0.502300  0.408300  1.0  -0.1499
  C  C468  1  0.229500  0.556200  0.433300  1.0  -0.0996
  C  C469  1  0.177200  0.268300  0.766670  1.0  0.7068
  C  C470  1  0.241900  0.240700  0.787550  1.0  -0.0329
  C  C471  1  0.309500  0.258800  0.809000  1.0  -0.0346
  C  C472  1  0.367500  0.235900  0.830100  1.0  -0.1125
  C  C473  1  0.357600  0.194200  0.828900  1.0  -0.112
  C  C474  1  0.291800  0.175600  0.807880  1.0  0.0717
  C  C475  1  0.279900  0.130500  0.806230  1.0  0.3517
  C  C476  1  0.250300  0.111700  0.835280  1.0  -0.0876
  C  C477  1  0.234800  0.069600  0.839650  1.0  0.3966
  C  C478  1  0.210400  0.053700  0.873550  1.0  -0.0707
  C  C479  1  0.245700  0.072600  0.902200  1.0  -0.1194
  C  C480  1  0.018000  0.191000  0.679490  1.0  0.1842
  C  C481  1  0.015100  0.175400  0.647160  1.0  -0.1615
  C  C482  1  0.002200  0.134000  0.642150  1.0  0.0983
  C  C483  1  0.994500  0.110100  0.671000  1.0  -0.1608
  C  C484  1  0.000100  0.127700  0.702340  1.0  0.192
  C  C485  1  0.171100  0.022400  0.936900  1.0  -0.1079
  C  C486  1  0.153400  0.018700  0.876400  1.0  -0.0484
  C  C487  1  0.132900  0.002300  0.908300  1.0  -0.1499
  C  C488  1  0.229500  0.056200  0.933300  1.0  -0.0996
  C  C489  1  0.677200  0.768300  0.766670  1.0  0.7068
  C  C490  1  0.741900  0.740700  0.787550  1.0  -0.0329
  C  C491  1  0.809500  0.758800  0.809000  1.0  -0.0346
  C  C492  1  0.867500  0.735900  0.830100  1.0  -0.1125
  C  C493  1  0.857600  0.694200  0.828900  1.0  -0.112
  C  C494  1  0.791800  0.675600  0.807880  1.0  0.0717
  C  C495  1  0.779900  0.630500  0.806230  1.0  0.3517
  C  C496  1  0.750300  0.611700  0.835280  1.0  -0.0876
  C  C497  1  0.734800  0.569600  0.839650  1.0  0.3966
  C  C498  1  0.710400  0.553700  0.873550  1.0  -0.0707
  C  C499  1  0.745700  0.572600  0.902200  1.0  -0.1194
  C  C500  1  0.518000  0.691000  0.679490  1.0  0.1842
  C  C501  1  0.515100  0.675400  0.647160  1.0  -0.1615
  C  C502  1  0.502200  0.634000  0.642150  1.0  0.0983
  C  C503  1  0.494500  0.610100  0.671000  1.0  -0.1608
  C  C504  1  0.500100  0.627700  0.702340  1.0  0.192
  C  C505  1  0.671100  0.522400  0.936900  1.0  -0.1079
  C  C506  1  0.653400  0.518700  0.876400  1.0  -0.0484
  C  C507  1  0.632900  0.502300  0.908300  1.0  -0.1499
  C  C508  1  0.729500  0.556200  0.933300  1.0  -0.0996
  C  C509  1  0.677200  0.268300  0.266670  1.0  0.7068
  C  C510  1  0.741900  0.240700  0.287550  1.0  -0.0329
  C  C511  1  0.809500  0.258800  0.309000  1.0  -0.0346
  C  C512  1  0.867500  0.235900  0.330100  1.0  -0.1125
  C  C513  1  0.857600  0.194200  0.328900  1.0  -0.112
  C  C514  1  0.791800  0.175600  0.307880  1.0  0.0717
  C  C515  1  0.779900  0.130500  0.306230  1.0  0.3517
  C  C516  1  0.750300  0.111700  0.335280  1.0  -0.0876
  C  C517  1  0.734800  0.069600  0.339650  1.0  0.3966
  C  C518  1  0.710400  0.053700  0.373550  1.0  -0.0707
  C  C519  1  0.745700  0.072600  0.402200  1.0  -0.1194
  C  C520  1  0.518000  0.191000  0.179490  1.0  0.1842
  C  C521  1  0.515100  0.175400  0.147160  1.0  -0.1615
  C  C522  1  0.502200  0.134000  0.142150  1.0  0.0983
  C  C523  1  0.494500  0.110100  0.171000  1.0  -0.1608
  C  C524  1  0.500100  0.127700  0.202340  1.0  0.192
  C  C525  1  0.671100  0.022400  0.436900  1.0  -0.1079
  C  C526  1  0.653400  0.018700  0.376400  1.0  -0.0484
  C  C527  1  0.632900  0.002300  0.408300  1.0  -0.1499
  C  C528  1  0.729500  0.056200  0.433300  1.0  -0.0996
  C  C529  1  0.572800  0.981700  0.266670  1.0  0.7062
  C  C530  1  0.508100  0.009300  0.287550  1.0  -0.034
  C  C531  1  0.440500  0.991200  0.309000  1.0  -0.036
  C  C532  1  0.382500  0.014100  0.330100  1.0  -0.1148
  C  C533  1  0.392400  0.055800  0.328900  1.0  -0.1126
  C  C534  1  0.458200  0.074400  0.307880  1.0  0.0727
  C  C535  1  0.470100  0.119500  0.306230  1.0  0.3517
  C  C536  1  0.499700  0.138300  0.335280  1.0  -0.0891
  C  C537  1  0.515200  0.180400  0.339650  1.0  0.396
  C  C538  1  0.539600  0.196300  0.373550  1.0  -0.0706
  C  C539  1  0.504300  0.177400  0.402200  1.0  -0.1187
  C  C540  1  0.732000  0.059000  0.179490  1.0  0.1855
  C  C541  1  0.734900  0.074600  0.147160  1.0  -0.1614
  C  C542  1  0.747800  0.116000  0.142150  1.0  0.0972
  C  C543  1  0.755500  0.139900  0.171000  1.0  -0.1626
  C  C544  1  0.749900  0.122300  0.202340  1.0  0.1916
  C  C545  1  0.578900  0.227600  0.436900  1.0  -0.1066
  C  C546  1  0.596600  0.231300  0.376400  1.0  -0.0492
  C  C547  1  0.617100  0.247700  0.408300  1.0  -0.1489
  C  C548  1  0.520500  0.193800  0.433300  1.0  -0.0995
  C  C549  1  0.572800  0.481700  0.766670  1.0  0.7062
  C  C550  1  0.508100  0.509300  0.787550  1.0  -0.034
  C  C551  1  0.440500  0.491200  0.809000  1.0  -0.036
  C  C552  1  0.382500  0.514100  0.830100  1.0  -0.1148
  C  C553  1  0.392400  0.555800  0.828900  1.0  -0.1126
  C  C554  1  0.458200  0.574400  0.807880  1.0  0.0727
  C  C555  1  0.470100  0.619500  0.806230  1.0  0.3517
  C  C556  1  0.499700  0.638300  0.835280  1.0  -0.0891
  C  C557  1  0.515200  0.680400  0.839650  1.0  0.396
  C  C558  1  0.539600  0.696300  0.873550  1.0  -0.0706
  C  C559  1  0.504300  0.677400  0.902200  1.0  -0.1187
  C  C560  1  0.732000  0.559000  0.679490  1.0  0.1855
  C  C561  1  0.734900  0.574600  0.647160  1.0  -0.1614
  C  C562  1  0.747800  0.616000  0.642150  1.0  0.0972
  C  C563  1  0.755500  0.639900  0.671000  1.0  -0.1626
  C  C564  1  0.749900  0.622300  0.702340  1.0  0.1916
  C  C565  1  0.578900  0.727600  0.936900  1.0  -0.1066
  C  C566  1  0.596600  0.731300  0.876400  1.0  -0.0492
  C  C567  1  0.617100  0.747700  0.908300  1.0  -0.1489
  C  C568  1  0.520500  0.693800  0.933300  1.0  -0.0995
  C  C569  1  0.072800  0.981700  0.766670  1.0  0.7062
  C  C570  1  0.008100  0.009300  0.787550  1.0  -0.034
  C  C571  1  0.940500  0.991200  0.809000  1.0  -0.036
  C  C572  1  0.882500  0.014100  0.830100  1.0  -0.1148
  C  C573  1  0.892400  0.055800  0.828900  1.0  -0.1126
  C  C574  1  0.958200  0.074400  0.807880  1.0  0.0727
  C  C575  1  0.970100  0.119500  0.806230  1.0  0.3517
  C  C576  1  0.999700  0.138300  0.835280  1.0  -0.0891
  C  C577  1  0.015200  0.180400  0.839650  1.0  0.396
  C  C578  1  0.039600  0.196300  0.873550  1.0  -0.0706
  C  C579  1  0.004300  0.177400  0.902200  1.0  -0.1187
  C  C580  1  0.232000  0.059000  0.679490  1.0  0.1855
  C  C581  1  0.234900  0.074600  0.647160  1.0  -0.1614
  C  C582  1  0.247800  0.116000  0.642150  1.0  0.0972
  C  C583  1  0.255500  0.139900  0.671000  1.0  -0.1626
  C  C584  1  0.249900  0.122300  0.702340  1.0  0.1916
  C  C585  1  0.078900  0.227600  0.936900  1.0  -0.1066
  C  C586  1  0.096600  0.231300  0.876400  1.0  -0.0492
  C  C587  1  0.117100  0.247700  0.908300  1.0  -0.1489
  C  C588  1  0.020500  0.193800  0.933300  1.0  -0.0995
  C  C589  1  0.072800  0.481700  0.266670  1.0  0.7062
  C  C590  1  0.008100  0.509300  0.287550  1.0  -0.034
  C  C591  1  0.940500  0.491200  0.309000  1.0  -0.036
  C  C592  1  0.882500  0.514100  0.330100  1.0  -0.1148
  C  C593  1  0.892400  0.555800  0.328900  1.0  -0.1126
  C  C594  1  0.958200  0.574400  0.307880  1.0  0.0727
  C  C595  1  0.970100  0.619500  0.306230  1.0  0.3517
  C  C596  1  0.999700  0.638300  0.335280  1.0  -0.0891
  C  C597  1  0.015200  0.680400  0.339650  1.0  0.396
  C  C598  1  0.039600  0.696300  0.373550  1.0  -0.0706
  C  C599  1  0.004300  0.677400  0.402200  1.0  -0.1187
  C  C600  1  0.232000  0.559000  0.179490  1.0  0.1855
  C  C601  1  0.234900  0.574600  0.147160  1.0  -0.1614
  C  C602  1  0.247800  0.616000  0.142150  1.0  0.0972
  C  C603  1  0.255500  0.639900  0.171000  1.0  -0.1626
  C  C604  1  0.249900  0.622300  0.202340  1.0  0.1916
  C  C605  1  0.078900  0.727600  0.436900  1.0  -0.1066
  C  C606  1  0.096600  0.731300  0.376400  1.0  -0.0492
  C  C607  1  0.117100  0.747700  0.408300  1.0  -0.1489
  C  C608  1  0.020500  0.693800  0.433300  1.0  -0.0995
  C  C609  1  0.572800  0.768300  0.483330  1.0  0.7056
  C  C610  1  0.508100  0.740700  0.462450  1.0  -0.0348
  C  C611  1  0.440500  0.758800  0.441000  1.0  -0.034
  C  C612  1  0.382500  0.735900  0.419900  1.0  -0.1147
  C  C613  1  0.392400  0.694200  0.421100  1.0  -0.113
  C  C614  1  0.458200  0.675600  0.442120  1.0  0.0719
  C  C615  1  0.470100  0.630500  0.443770  1.0  0.3515
  C  C616  1  0.499700  0.611700  0.414720  1.0  -0.0884
  C  C617  1  0.515200  0.569600  0.410350  1.0  0.3952
  C  C618  1  0.539600  0.553700  0.376450  1.0  -0.0701
  C  C619  1  0.504300  0.572600  0.347800  1.0  -0.1193
  C  C620  1  0.732000  0.691000  0.570510  1.0  0.1842
  C  C621  1  0.734900  0.675400  0.602840  1.0  -0.1626
  C  C622  1  0.747800  0.634000  0.607850  1.0  0.098
  C  C623  1  0.755500  0.610100  0.579000  1.0  -0.1619
  C  C624  1  0.749900  0.627700  0.547660  1.0  0.1935
  C  C625  1  0.578900  0.522400  0.313100  1.0  -0.1077
  C  C626  1  0.596600  0.518700  0.373600  1.0  -0.0513
  C  C627  1  0.617100  0.502300  0.341700  1.0  -0.1502
  C  C628  1  0.520500  0.556200  0.316700  1.0  -0.0992
  C  C629  1  0.572800  0.268300  0.983330  1.0  0.7056
  C  C630  1  0.508100  0.240700  0.962450  1.0  -0.0348
  C  C631  1  0.440500  0.258800  0.941000  1.0  -0.034
  C  C632  1  0.382500  0.235900  0.919900  1.0  -0.1147
  C  C633  1  0.392400  0.194200  0.921100  1.0  -0.113
  C  C634  1  0.458200  0.175600  0.942120  1.0  0.0719
  C  C635  1  0.470100  0.130500  0.943770  1.0  0.3515
  C  C636  1  0.499700  0.111700  0.914720  1.0  -0.0884
  C  C637  1  0.515200  0.069600  0.910350  1.0  0.3952
  C  C638  1  0.539600  0.053700  0.876450  1.0  -0.0701
  C  C639  1  0.504300  0.072600  0.847800  1.0  -0.1193
  C  C640  1  0.732000  0.191000  0.070510  1.0  0.1842
  C  C641  1  0.734900  0.175400  0.102840  1.0  -0.1626
  C  C642  1  0.747800  0.134000  0.107850  1.0  0.098
  C  C643  1  0.755500  0.110100  0.079000  1.0  -0.1619
  C  C644  1  0.749900  0.127700  0.047660  1.0  0.1935
  C  C645  1  0.578900  0.022400  0.813100  1.0  -0.1077
  C  C646  1  0.596600  0.018700  0.873600  1.0  -0.0513
  C  C647  1  0.617100  0.002300  0.841700  1.0  -0.1502
  C  C648  1  0.520500  0.056200  0.816700  1.0  -0.0992
  C  C649  1  0.072800  0.768300  0.983330  1.0  0.7056
  C  C650  1  0.008100  0.740700  0.962450  1.0  -0.0348
  C  C651  1  0.940500  0.758800  0.941000  1.0  -0.034
  C  C652  1  0.882500  0.735900  0.919900  1.0  -0.1147
  C  C653  1  0.892400  0.694200  0.921100  1.0  -0.113
  C  C654  1  0.958200  0.675600  0.942120  1.0  0.0719
  C  C655  1  0.970100  0.630500  0.943770  1.0  0.3515
  C  C656  1  0.999700  0.611700  0.914720  1.0  -0.0884
  C  C657  1  0.015200  0.569600  0.910350  1.0  0.3952
  C  C658  1  0.039600  0.553700  0.876450  1.0  -0.0701
  C  C659  1  0.004300  0.572600  0.847800  1.0  -0.1193
  C  C660  1  0.232000  0.691000  0.070510  1.0  0.1842
  C  C661  1  0.234900  0.675400  0.102840  1.0  -0.1626
  C  C662  1  0.247800  0.634000  0.107850  1.0  0.098
  C  C663  1  0.255500  0.610100  0.079000  1.0  -0.1619
  C  C664  1  0.249900  0.627700  0.047660  1.0  0.1935
  C  C665  1  0.078900  0.522400  0.813100  1.0  -0.1077
  C  C666  1  0.096600  0.518700  0.873600  1.0  -0.0513
  C  C667  1  0.117100  0.502300  0.841700  1.0  -0.1502
  C  C668  1  0.020500  0.556200  0.816700  1.0  -0.0992
  C  C669  1  0.072800  0.268300  0.483330  1.0  0.7056
  C  C670  1  0.008100  0.240700  0.462450  1.0  -0.0348
  C  C671  1  0.940500  0.258800  0.441000  1.0  -0.034
  C  C672  1  0.882500  0.235900  0.419900  1.0  -0.1147
  C  C673  1  0.892400  0.194200  0.421100  1.0  -0.113
  C  C674  1  0.958200  0.175600  0.442120  1.0  0.0719
  C  C675  1  0.970100  0.130500  0.443770  1.0  0.3515
  C  C676  1  0.999700  0.111700  0.414720  1.0  -0.0884
  C  C677  1  0.015200  0.069600  0.410350  1.0  0.3952
  C  C678  1  0.039600  0.053700  0.376450  1.0  -0.0701
  C  C679  1  0.004300  0.072600  0.347800  1.0  -0.1193
  C  C680  1  0.232000  0.191000  0.570510  1.0  0.1842
  C  C681  1  0.234900  0.175400  0.602840  1.0  -0.1626
  C  C682  1  0.247800  0.134000  0.607850  1.0  0.098
  C  C683  1  0.255500  0.110100  0.579000  1.0  -0.1619
  C  C684  1  0.249900  0.127700  0.547660  1.0  0.1935
  C  C685  1  0.078900  0.022400  0.313100  1.0  -0.1077
  C  C686  1  0.096600  0.018700  0.373600  1.0  -0.0513
  C  C687  1  0.117100  0.002300  0.341700  1.0  -0.1502
  C  C688  1  0.020500  0.056200  0.316700  1.0  -0.0992
  C  C689  1  0.177200  0.981700  0.483330  1.0  0.7072
  C  C690  1  0.241900  0.009300  0.462450  1.0  -0.0347
  C  C691  1  0.309500  0.991200  0.441000  1.0  -0.0358
  C  C692  1  0.367500  0.014100  0.419900  1.0  -0.1143
  C  C693  1  0.357600  0.055800  0.421100  1.0  -0.1127
  C  C694  1  0.291800  0.074400  0.442120  1.0  0.0724
  C  C695  1  0.279900  0.119500  0.443770  1.0  0.351
  C  C696  1  0.250300  0.138300  0.414720  1.0  -0.0868
  C  C697  1  0.234800  0.180400  0.410350  1.0  0.395
  C  C698  1  0.210400  0.196300  0.376450  1.0  -0.0701
  C  C699  1  0.245700  0.177400  0.347800  1.0  -0.1201
  C  C700  1  0.018000  0.059000  0.570510  1.0  0.1856
  C  C701  1  0.015100  0.074600  0.602840  1.0  -0.1609
  C  C702  1  0.002200  0.116000  0.607850  1.0  0.099
  C  C703  1  0.994500  0.139900  0.579000  1.0  -0.1622
  C  C704  1  0.000100  0.122300  0.547660  1.0  0.1928
  C  C705  1  0.171100  0.227600  0.313100  1.0  -0.1082
  C  C706  1  0.153400  0.231300  0.373600  1.0  -0.0497
  C  C707  1  0.132900  0.247700  0.341700  1.0  -0.149
  C  C708  1  0.229500  0.193800  0.316700  1.0  -0.099
  C  C709  1  0.177200  0.481700  0.983330  1.0  0.7072
  C  C710  1  0.241900  0.509300  0.962450  1.0  -0.0347
  C  C711  1  0.309500  0.491200  0.941000  1.0  -0.0358
  C  C712  1  0.367500  0.514100  0.919900  1.0  -0.1143
  C  C713  1  0.357600  0.555800  0.921100  1.0  -0.1127
  C  C714  1  0.291800  0.574400  0.942120  1.0  0.0724
  C  C715  1  0.279900  0.619500  0.943770  1.0  0.351
  C  C716  1  0.250300  0.638300  0.914720  1.0  -0.0868
  C  C717  1  0.234800  0.680400  0.910350  1.0  0.395
  C  C718  1  0.210400  0.696300  0.876450  1.0  -0.0701
  C  C719  1  0.245700  0.677400  0.847800  1.0  -0.1201
  C  C720  1  0.018000  0.559000  0.070510  1.0  0.1856
  C  C721  1  0.015100  0.574600  0.102840  1.0  -0.1609
  C  C722  1  0.002200  0.616000  0.107850  1.0  0.099
  C  C723  1  0.994500  0.639900  0.079000  1.0  -0.1622
  C  C724  1  0.000100  0.622300  0.047660  1.0  0.1928
  C  C725  1  0.171100  0.727600  0.813100  1.0  -0.1082
  C  C726  1  0.153400  0.731300  0.873600  1.0  -0.0497
  C  C727  1  0.132900  0.747700  0.841700  1.0  -0.149
  C  C728  1  0.229500  0.693800  0.816700  1.0  -0.099
  C  C729  1  0.677200  0.981700  0.983330  1.0  0.7072
  C  C730  1  0.741900  0.009300  0.962450  1.0  -0.0347
  C  C731  1  0.809500  0.991200  0.941000  1.0  -0.0358
  C  C732  1  0.867500  0.014100  0.919900  1.0  -0.1143
  C  C733  1  0.857600  0.055800  0.921100  1.0  -0.1127
  C  C734  1  0.791800  0.074400  0.942120  1.0  0.0724
  C  C735  1  0.779900  0.119500  0.943770  1.0  0.351
  C  C736  1  0.750300  0.138300  0.914720  1.0  -0.0868
  C  C737  1  0.734800  0.180400  0.910350  1.0  0.395
  C  C738  1  0.710400  0.196300  0.876450  1.0  -0.0701
  C  C739  1  0.745700  0.177400  0.847800  1.0  -0.1201
  C  C740  1  0.518000  0.059000  0.070510  1.0  0.1856
  C  C741  1  0.515100  0.074600  0.102840  1.0  -0.1609
  C  C742  1  0.502200  0.116000  0.107850  1.0  0.099
  C  C743  1  0.494500  0.139900  0.079000  1.0  -0.1622
  C  C744  1  0.500100  0.122300  0.047660  1.0  0.1928
  C  C745  1  0.671100  0.227600  0.813100  1.0  -0.1082
  C  C746  1  0.653400  0.231300  0.873600  1.0  -0.0497
  C  C747  1  0.632900  0.247700  0.841700  1.0  -0.149
  C  C748  1  0.729500  0.193800  0.816700  1.0  -0.099
  C  C749  1  0.677200  0.481700  0.483330  1.0  0.7072
  C  C750  1  0.741900  0.509300  0.462450  1.0  -0.0347
  C  C751  1  0.809500  0.491200  0.441000  1.0  -0.0358
  C  C752  1  0.867500  0.514100  0.419900  1.0  -0.1143
  C  C753  1  0.857600  0.555800  0.421100  1.0  -0.1127
  C  C754  1  0.791800  0.574400  0.442120  1.0  0.0724
  C  C755  1  0.779900  0.619500  0.443770  1.0  0.351
  C  C756  1  0.750300  0.638300  0.414720  1.0  -0.0868
  C  C757  1  0.734800  0.680400  0.410350  1.0  0.395
  C  C758  1  0.710400  0.696300  0.376450  1.0  -0.0701
  C  C759  1  0.745700  0.677400  0.347800  1.0  -0.1201
  C  C760  1  0.518000  0.559000  0.570510  1.0  0.1856
  C  C761  1  0.515100  0.574600  0.602840  1.0  -0.1609
  C  C762  1  0.502200  0.616000  0.607850  1.0  0.099
  C  C763  1  0.494500  0.639900  0.579000  1.0  -0.1622
  C  C764  1  0.500100  0.622300  0.547660  1.0  0.1928
  C  C765  1  0.671100  0.727600  0.313100  1.0  -0.1082
  C  C766  1  0.653400  0.731300  0.373600  1.0  -0.0497
  C  C767  1  0.632900  0.747700  0.341700  1.0  -0.149
  C  C768  1  0.729500  0.693800  0.316700  1.0  -0.099
  C  C769  1  0.822800  0.231700  0.733330  1.0  0.7059
  C  C770  1  0.758100  0.259300  0.712450  1.0  -0.0348
  C  C771  1  0.690500  0.241200  0.691000  1.0  -0.0353
  C  C772  1  0.632500  0.264100  0.669900  1.0  -0.1152
  C  C773  1  0.642400  0.305800  0.671100  1.0  -0.1131
  C  C774  1  0.708200  0.324400  0.692120  1.0  0.0723
  C  C775  1  0.720100  0.369500  0.693770  1.0  0.3513
  C  C776  1  0.749700  0.388300  0.664720  1.0  -0.0882
  C  C777  1  0.765200  0.430400  0.660350  1.0  0.3946
  C  C778  1  0.789600  0.446300  0.626450  1.0  -0.07
  C  C779  1  0.754300  0.427400  0.597800  1.0  -0.1191
  C  C780  1  0.982000  0.309000  0.820510  1.0  0.1853
  C  C781  1  0.984900  0.324600  0.852840  1.0  -0.1611
  C  C782  1  0.997800  0.366000  0.857850  1.0  0.0977
  C  C783  1  0.005500  0.389900  0.829000  1.0  -0.1617
  C  C784  1  0.999900  0.372300  0.797660  1.0  0.193
  C  C785  1  0.828900  0.477600  0.563100  1.0  -0.1081
  C  C786  1  0.846600  0.481300  0.623600  1.0  -0.0511
  C  C787  1  0.867100  0.497700  0.591700  1.0  -0.149
  C  C788  1  0.770500  0.443800  0.566700  1.0  -0.099
  C  C789  1  0.822800  0.731700  0.233330  1.0  0.7059
  C  C790  1  0.758100  0.759300  0.212450  1.0  -0.0348
  C  C791  1  0.690500  0.741200  0.191000  1.0  -0.0353
  C  C792  1  0.632500  0.764100  0.169900  1.0  -0.1152
  C  C793  1  0.642400  0.805800  0.171100  1.0  -0.1131
  C  C794  1  0.708200  0.824400  0.192120  1.0  0.0723
  C  C795  1  0.720100  0.869500  0.193770  1.0  0.3513
  C  C796  1  0.749700  0.888300  0.164720  1.0  -0.0882
  C  C797  1  0.765200  0.930400  0.160350  1.0  0.3946
  C  C798  1  0.789600  0.946300  0.126450  1.0  -0.07
  C  C799  1  0.754300  0.927400  0.097800  1.0  -0.1191
  C  C800  1  0.982000  0.809000  0.320510  1.0  0.1853
  C  C801  1  0.984900  0.824600  0.352840  1.0  -0.1611
  C  C802  1  0.997800  0.866000  0.357850  1.0  0.0977
  C  C803  1  0.005500  0.889900  0.329000  1.0  -0.1617
  C  C804  1  0.999900  0.872300  0.297660  1.0  0.193
  C  C805  1  0.828900  0.977600  0.063100  1.0  -0.1081
  C  C806  1  0.846600  0.981300  0.123600  1.0  -0.0511
  C  C807  1  0.867100  0.997700  0.091700  1.0  -0.149
  C  C808  1  0.770500  0.943800  0.066700  1.0  -0.099
  C  C809  1  0.322800  0.231700  0.233330  1.0  0.7059
  C  C810  1  0.258100  0.259300  0.212450  1.0  -0.0348
  C  C811  1  0.190500  0.241200  0.191000  1.0  -0.0353
  C  C812  1  0.132500  0.264100  0.169900  1.0  -0.1152
  C  C813  1  0.142400  0.305800  0.171100  1.0  -0.1131
  C  C814  1  0.208200  0.324400  0.192120  1.0  0.0723
  C  C815  1  0.220100  0.369500  0.193770  1.0  0.3513
  C  C816  1  0.249700  0.388300  0.164720  1.0  -0.0882
  C  C817  1  0.265200  0.430400  0.160350  1.0  0.3946
  C  C818  1  0.289600  0.446300  0.126450  1.0  -0.07
  C  C819  1  0.254300  0.427400  0.097800  1.0  -0.1191
  C  C820  1  0.482000  0.309000  0.320510  1.0  0.1853
  C  C821  1  0.484900  0.324600  0.352840  1.0  -0.1611
  C  C822  1  0.497800  0.366000  0.357850  1.0  0.0977
  C  C823  1  0.505500  0.389900  0.329000  1.0  -0.1617
  C  C824  1  0.499900  0.372300  0.297660  1.0  0.193
  C  C825  1  0.328900  0.477600  0.063100  1.0  -0.1081
  C  C826  1  0.346600  0.481300  0.123600  1.0  -0.0511
  C  C827  1  0.367100  0.497700  0.091700  1.0  -0.149
  C  C828  1  0.270500  0.443800  0.066700  1.0  -0.099
  C  C829  1  0.322800  0.731700  0.733330  1.0  0.7059
  C  C830  1  0.258100  0.759300  0.712450  1.0  -0.0348
  C  C831  1  0.190500  0.741200  0.691000  1.0  -0.0353
  C  C832  1  0.132500  0.764100  0.669900  1.0  -0.1152
  C  C833  1  0.142400  0.805800  0.671100  1.0  -0.1131
  C  C834  1  0.208200  0.824400  0.692120  1.0  0.0723
  C  C835  1  0.220100  0.869500  0.693770  1.0  0.3513
  C  C836  1  0.249700  0.888300  0.664720  1.0  -0.0882
  C  C837  1  0.265200  0.930400  0.660350  1.0  0.3946
  C  C838  1  0.289600  0.946300  0.626450  1.0  -0.07
  C  C839  1  0.254300  0.927400  0.597800  1.0  -0.1191
  C  C840  1  0.482000  0.809000  0.820510  1.0  0.1853
  C  C841  1  0.484900  0.824600  0.852840  1.0  -0.1611
  C  C842  1  0.497800  0.866000  0.857850  1.0  0.0977
  C  C843  1  0.505500  0.889900  0.829000  1.0  -0.1617
  C  C844  1  0.499900  0.872300  0.797660  1.0  0.193
  C  C845  1  0.328900  0.977600  0.563100  1.0  -0.1081
  C  C846  1  0.346600  0.981300  0.623600  1.0  -0.0511
  C  C847  1  0.367100  0.997700  0.591700  1.0  -0.149
  C  C848  1  0.270500  0.943800  0.566700  1.0  -0.099
  C  C849  1  0.427200  0.018300  0.733330  1.0  0.7061
  C  C850  1  0.491900  0.990700  0.712450  1.0  -0.0337
  C  C851  1  0.559500  0.008800  0.691000  1.0  -0.0345
  C  C852  1  0.617500  0.985900  0.669900  1.0  -0.1132
  C  C853  1  0.607600  0.944200  0.671100  1.0  -0.1128
  C  C854  1  0.541800  0.925600  0.692120  1.0  0.072
  C  C855  1  0.529900  0.880500  0.693770  1.0  0.3512
  C  C856  1  0.500300  0.861700  0.664720  1.0  -0.087
  C  C857  1  0.484800  0.819600  0.660350  1.0  0.3956
  C  C858  1  0.460400  0.803700  0.626450  1.0  -0.0702
  C  C859  1  0.495700  0.822600  0.597800  1.0  -0.1202
  C  C860  1  0.268000  0.941000  0.820510  1.0  0.1846
  C  C861  1  0.265100  0.925400  0.852840  1.0  -0.1614
  C  C862  1  0.252200  0.884000  0.857850  1.0  0.0991
  C  C863  1  0.244500  0.860100  0.829000  1.0  -0.1611
  C  C864  1  0.250100  0.877700  0.797660  1.0  0.1929
  C  C865  1  0.421100  0.772400  0.563100  1.0  -0.1078
  C  C866  1  0.403400  0.768700  0.623600  1.0  -0.0501
  C  C867  1  0.382900  0.752300  0.591700  1.0  -0.1505
  C  C868  1  0.479500  0.806200  0.566700  1.0  -0.099
  C  C869  1  0.427200  0.518300  0.233330  1.0  0.7061
  C  C870  1  0.491900  0.490700  0.212450  1.0  -0.0337
  C  C871  1  0.559500  0.508800  0.191000  1.0  -0.0345
  C  C872  1  0.617500  0.485900  0.169900  1.0  -0.1132
  C  C873  1  0.607600  0.444200  0.171100  1.0  -0.1128
  C  C874  1  0.541800  0.425600  0.192120  1.0  0.072
  C  C875  1  0.529900  0.380500  0.193770  1.0  0.3512
  C  C876  1  0.500300  0.361700  0.164720  1.0  -0.087
  C  C877  1  0.484800  0.319600  0.160350  1.0  0.3956
  C  C878  1  0.460400  0.303700  0.126450  1.0  -0.0702
  C  C879  1  0.495700  0.322600  0.097800  1.0  -0.1202
  C  C880  1  0.268000  0.441000  0.320510  1.0  0.1846
  C  C881  1  0.265100  0.425400  0.352840  1.0  -0.1614
  C  C882  1  0.252200  0.384000  0.357850  1.0  0.0991
  C  C883  1  0.244500  0.360100  0.329000  1.0  -0.1611
  C  C884  1  0.250100  0.377700  0.297660  1.0  0.1929
  C  C885  1  0.421100  0.272400  0.063100  1.0  -0.1078
  C  C886  1  0.403400  0.268700  0.123600  1.0  -0.0501
  C  C887  1  0.382900  0.252300  0.091700  1.0  -0.1505
  C  C888  1  0.479500  0.306200  0.066700  1.0  -0.099
  C  C889  1  0.927200  0.018300  0.233330  1.0  0.7061
  C  C890  1  0.991900  0.990700  0.212450  1.0  -0.0337
  C  C891  1  0.059500  0.008800  0.191000  1.0  -0.0345
  C  C892  1  0.117500  0.985900  0.169900  1.0  -0.1132
  C  C893  1  0.107600  0.944200  0.171100  1.0  -0.1128
  C  C894  1  0.041800  0.925600  0.192120  1.0  0.072
  C  C895  1  0.029900  0.880500  0.193770  1.0  0.3512
  C  C896  1  0.000300  0.861700  0.164720  1.0  -0.087
  C  C897  1  0.984800  0.819600  0.160350  1.0  0.3956
  C  C898  1  0.960400  0.803700  0.126450  1.0  -0.0702
  C  C899  1  0.995700  0.822600  0.097800  1.0  -0.1202
  C  C900  1  0.768000  0.941000  0.320510  1.0  0.1846
  C  C901  1  0.765100  0.925400  0.352840  1.0  -0.1614
  C  C902  1  0.752200  0.884000  0.357850  1.0  0.0991
  C  C903  1  0.744500  0.860100  0.329000  1.0  -0.1611
  C  C904  1  0.750100  0.877700  0.297660  1.0  0.1929
  C  C905  1  0.921100  0.772400  0.063100  1.0  -0.1078
  C  C906  1  0.903400  0.768700  0.123600  1.0  -0.0501
  C  C907  1  0.882900  0.752300  0.091700  1.0  -0.1505
  C  C908  1  0.979500  0.806200  0.066700  1.0  -0.099
  C  C909  1  0.927200  0.518300  0.733330  1.0  0.7061
  C  C910  1  0.991900  0.490700  0.712450  1.0  -0.0337
  C  C911  1  0.059500  0.508800  0.691000  1.0  -0.0345
  C  C912  1  0.117500  0.485900  0.669900  1.0  -0.1132
  C  C913  1  0.107600  0.444200  0.671100  1.0  -0.1128
  C  C914  1  0.041800  0.425600  0.692120  1.0  0.072
  C  C915  1  0.029900  0.380500  0.693770  1.0  0.3512
  C  C916  1  0.000300  0.361700  0.664720  1.0  -0.087
  C  C917  1  0.984800  0.319600  0.660350  1.0  0.3956
  C  C918  1  0.960400  0.303700  0.626450  1.0  -0.0702
  C  C919  1  0.995700  0.322600  0.597800  1.0  -0.1202
  C  C920  1  0.768000  0.441000  0.820510  1.0  0.1846
  C  C921  1  0.765100  0.425400  0.852840  1.0  -0.1614
  C  C922  1  0.752200  0.384000  0.857850  1.0  0.0991
  C  C923  1  0.744500  0.360100  0.829000  1.0  -0.1611
  C  C924  1  0.750100  0.377700  0.797660  1.0  0.1929
  C  C925  1  0.921100  0.272400  0.563100  1.0  -0.1078
  C  C926  1  0.903400  0.268700  0.623600  1.0  -0.0501
  C  C927  1  0.882900  0.252300  0.591700  1.0  -0.1505
  C  C928  1  0.979500  0.306200  0.566700  1.0  -0.099
  C  C929  1  0.427200  0.231700  0.516670  1.0  0.7074
  C  C930  1  0.491900  0.259300  0.537550  1.0  -0.0341
  C  C931  1  0.559500  0.241200  0.559000  1.0  -0.0363
  C  C932  1  0.617500  0.264100  0.580100  1.0  -0.1142
  C  C933  1  0.607600  0.305800  0.578900  1.0  -0.1122
  C  C934  1  0.541800  0.324400  0.557880  1.0  0.0727
  C  C935  1  0.529900  0.369500  0.556230  1.0  0.3516
  C  C936  1  0.500300  0.388300  0.585280  1.0  -0.0877
  C  C937  1  0.484800  0.430400  0.589650  1.0  0.3964
  C  C938  1  0.460400  0.446300  0.623550  1.0  -0.0706
  C  C939  1  0.495700  0.427400  0.652200  1.0  -0.1195
  C  C940  1  0.268000  0.309000  0.429490  1.0  0.1858
  C  C941  1  0.265100  0.324600  0.397160  1.0  -0.1609
  C  C942  1  0.252200  0.366000  0.392150  1.0  0.0982
  C  C943  1  0.244500  0.389900  0.421000  1.0  -0.163
  C  C944  1  0.250100  0.372300  0.452340  1.0  0.1919
  C  C945  1  0.421100  0.477600  0.686900  1.0  -0.1082
  C  C946  1  0.403400  0.481300  0.626400  1.0  -0.0481
  C  C947  1  0.382900  0.497700  0.658300  1.0  -0.1491
  C  C948  1  0.479500  0.443800  0.683300  1.0  -0.0997
  C  C949  1  0.427200  0.731700  0.016670  1.0  0.7074
  C  C950  1  0.491900  0.759300  0.037550  1.0  -0.0341
  C  C951  1  0.559500  0.741200  0.059000  1.0  -0.0363
  C  C952  1  0.617500  0.764100  0.080100  1.0  -0.1142
  C  C953  1  0.607600  0.805800  0.078900  1.0  -0.1122
  C  C954  1  0.541800  0.824400  0.057880  1.0  0.0727
  C  C955  1  0.529900  0.869500  0.056230  1.0  0.3516
  C  C956  1  0.500300  0.888300  0.085280  1.0  -0.0877
  C  C957  1  0.484800  0.930400  0.089650  1.0  0.3964
  C  C958  1  0.460400  0.946300  0.123550  1.0  -0.0706
  C  C959  1  0.495700  0.927400  0.152200  1.0  -0.1195
  C  C960  1  0.268000  0.809000  0.929490  1.0  0.1858
  C  C961  1  0.265100  0.824600  0.897160  1.0  -0.1609
  C  C962  1  0.252200  0.866000  0.892150  1.0  0.0982
  C  C963  1  0.244500  0.889900  0.921000  1.0  -0.163
  C  C964  1  0.250100  0.872300  0.952340  1.0  0.1919
  C  C965  1  0.421100  0.977600  0.186900  1.0  -0.1082
  C  C966  1  0.403400  0.981300  0.126400  1.0  -0.0481
  C  C967  1  0.382900  0.997700  0.158300  1.0  -0.1491
  C  C968  1  0.479500  0.943800  0.183300  1.0  -0.0997
  C  C969  1  0.927200  0.231700  0.016670  1.0  0.7074
  C  C970  1  0.991900  0.259300  0.037550  1.0  -0.0341
  C  C971  1  0.059500  0.241200  0.059000  1.0  -0.0363
  C  C972  1  0.117500  0.264100  0.080100  1.0  -0.1142
  C  C973  1  0.107600  0.305800  0.078900  1.0  -0.1122
  C  C974  1  0.041800  0.324400  0.057880  1.0  0.0727
  C  C975  1  0.029900  0.369500  0.056230  1.0  0.3516
  C  C976  1  0.000300  0.388300  0.085280  1.0  -0.0877
  C  C977  1  0.984800  0.430400  0.089650  1.0  0.3964
  C  C978  1  0.960400  0.446300  0.123550  1.0  -0.0706
  C  C979  1  0.995700  0.427400  0.152200  1.0  -0.1195
  C  C980  1  0.768000  0.309000  0.929490  1.0  0.1858
  C  C981  1  0.765100  0.324600  0.897160  1.0  -0.1609
  C  C982  1  0.752200  0.366000  0.892150  1.0  0.0982
  C  C983  1  0.744500  0.389900  0.921000  1.0  -0.163
  C  C984  1  0.750100  0.372300  0.952340  1.0  0.1919
  C  C985  1  0.921100  0.477600  0.186900  1.0  -0.1082
  C  C986  1  0.903400  0.481300  0.126400  1.0  -0.0481
  C  C987  1  0.882900  0.497700  0.158300  1.0  -0.1491
  C  C988  1  0.979500  0.443800  0.183300  1.0  -0.0997
  C  C989  1  0.927200  0.731700  0.516670  1.0  0.7074
  C  C990  1  0.991900  0.759300  0.537550  1.0  -0.0341
  C  C991  1  0.059500  0.741200  0.559000  1.0  -0.0363
  C  C992  1  0.117500  0.764100  0.580100  1.0  -0.1142
  C  C993  1  0.107600  0.805800  0.578900  1.0  -0.1122
  C  C994  1  0.041800  0.824400  0.557880  1.0  0.0727
  C  C995  1  0.029900  0.869500  0.556230  1.0  0.3516
  C  C996  1  0.000300  0.888300  0.585280  1.0  -0.0877
  C  C997  1  0.984800  0.930400  0.589650  1.0  0.3964
  C  C998  1  0.960400  0.946300  0.623550  1.0  -0.0706
  C  C999  1  0.995700  0.927400  0.652200  1.0  -0.1195
  C  C1000  1  0.768000  0.809000  0.429490  1.0  0.1858
  C  C1001  1  0.765100  0.824600  0.397160  1.0  -0.1609
  C  C1002  1  0.752200  0.866000  0.392150  1.0  0.0982
  C  C1003  1  0.744500  0.889900  0.421000  1.0  -0.163
  C  C1004  1  0.750100  0.872300  0.452340  1.0  0.1919
  C  C1005  1  0.921100  0.977600  0.686900  1.0  -0.1082
  C  C1006  1  0.903400  0.981300  0.626400  1.0  -0.0481
  C  C1007  1  0.882900  0.997700  0.658300  1.0  -0.1491
  C  C1008  1  0.979500  0.943800  0.683300  1.0  -0.0997
  C  C1009  1  0.822800  0.018300  0.516670  1.0  0.7064
  C  C1010  1  0.758100  0.990700  0.537550  1.0  -0.0339
  C  C1011  1  0.690500  0.008800  0.559000  1.0  -0.0344
  C  C1012  1  0.632500  0.985900  0.580100  1.0  -0.1139
  C  C1013  1  0.642400  0.944200  0.578900  1.0  -0.1122
  C  C1014  1  0.708200  0.925600  0.557880  1.0  0.0717
  C  C1015  1  0.720100  0.880500  0.556230  1.0  0.3519
  C  C1016  1  0.749700  0.861700  0.585280  1.0  -0.0891
  C  C1017  1  0.765200  0.819600  0.589650  1.0  0.3962
  C  C1018  1  0.789600  0.803700  0.623550  1.0  -0.0707
  C  C1019  1  0.754300  0.822600  0.652200  1.0  -0.1185
  C  C1020  1  0.982000  0.941000  0.429490  1.0  0.1838
  C  C1021  1  0.984900  0.925400  0.397160  1.0  -0.1626
  C  C1022  1  0.997800  0.884000  0.392150  1.0  0.0975
  C  C1023  1  0.005500  0.860100  0.421000  1.0  -0.1619
  C  C1024  1  0.999900  0.877700  0.452340  1.0  0.1921
  C  C1025  1  0.828900  0.772400  0.686900  1.0  -0.1067
  C  C1026  1  0.846600  0.768700  0.626400  1.0  -0.0493
  C  C1027  1  0.867100  0.752300  0.658300  1.0  -0.1496
  C  C1028  1  0.770500  0.806200  0.683300  1.0  -0.0998
  C  C1029  1  0.822800  0.518300  0.016670  1.0  0.7064
  C  C1030  1  0.758100  0.490700  0.037550  1.0  -0.0339
  C  C1031  1  0.690500  0.508800  0.059000  1.0  -0.0344
  C  C1032  1  0.632500  0.485900  0.080100  1.0  -0.1139
  C  C1033  1  0.642400  0.444200  0.078900  1.0  -0.1122
  C  C1034  1  0.708200  0.425600  0.057880  1.0  0.0717
  C  C1035  1  0.720100  0.380500  0.056230  1.0  0.3519
  C  C1036  1  0.749700  0.361700  0.085280  1.0  -0.0891
  C  C1037  1  0.765200  0.319600  0.089650  1.0  0.3962
  C  C1038  1  0.789600  0.303700  0.123550  1.0  -0.0707
  C  C1039  1  0.754300  0.322600  0.152200  1.0  -0.1185
  C  C1040  1  0.982000  0.441000  0.929490  1.0  0.1838
  C  C1041  1  0.984900  0.425400  0.897160  1.0  -0.1626
  C  C1042  1  0.997800  0.384000  0.892150  1.0  0.0975
  C  C1043  1  0.005500  0.360100  0.921000  1.0  -0.1619
  C  C1044  1  0.999900  0.377700  0.952340  1.0  0.1921
  C  C1045  1  0.828900  0.272400  0.186900  1.0  -0.1067
  C  C1046  1  0.846600  0.268700  0.126400  1.0  -0.0493
  C  C1047  1  0.867100  0.252300  0.158300  1.0  -0.1496
  C  C1048  1  0.770500  0.306200  0.183300  1.0  -0.0998
  C  C1049  1  0.322800  0.018300  0.016670  1.0  0.7064
  C  C1050  1  0.258100  0.990700  0.037550  1.0  -0.0339
  C  C1051  1  0.190500  0.008800  0.059000  1.0  -0.0344
  C  C1052  1  0.132500  0.985900  0.080100  1.0  -0.1139
  C  C1053  1  0.142400  0.944200  0.078900  1.0  -0.1122
  C  C1054  1  0.208200  0.925600  0.057880  1.0  0.0717
  C  C1055  1  0.220100  0.880500  0.056230  1.0  0.3519
  C  C1056  1  0.249700  0.861700  0.085280  1.0  -0.0891
  C  C1057  1  0.265200  0.819600  0.089650  1.0  0.3962
  C  C1058  1  0.289600  0.803700  0.123550  1.0  -0.0707
  C  C1059  1  0.254300  0.822600  0.152200  1.0  -0.1185
  C  C1060  1  0.482000  0.941000  0.929490  1.0  0.1838
  C  C1061  1  0.484900  0.925400  0.897160  1.0  -0.1626
  C  C1062  1  0.497800  0.884000  0.892150  1.0  0.0975
  C  C1063  1  0.505500  0.860100  0.921000  1.0  -0.1619
  C  C1064  1  0.499900  0.877700  0.952340  1.0  0.1921
  C  C1065  1  0.328900  0.772400  0.186900  1.0  -0.1067
  C  C1066  1  0.346600  0.768700  0.126400  1.0  -0.0493
  C  C1067  1  0.367100  0.752300  0.158300  1.0  -0.1496
  C  C1068  1  0.270500  0.806200  0.183300  1.0  -0.0998
  C  C1069  1  0.322800  0.518300  0.516670  1.0  0.7064
  C  C1070  1  0.258100  0.490700  0.537550  1.0  -0.0339
  C  C1071  1  0.190500  0.508800  0.559000  1.0  -0.0344
  C  C1072  1  0.132500  0.485900  0.580100  1.0  -0.1139
  C  C1073  1  0.142400  0.444200  0.578900  1.0  -0.1122
  C  C1074  1  0.208200  0.425600  0.557880  1.0  0.0717
  C  C1075  1  0.220100  0.380500  0.556230  1.0  0.3519
  C  C1076  1  0.249700  0.361700  0.585280  1.0  -0.0891
  C  C1077  1  0.265200  0.319600  0.589650  1.0  0.3962
  C  C1078  1  0.289600  0.303700  0.623550  1.0  -0.0707
  C  C1079  1  0.254300  0.322600  0.652200  1.0  -0.1185
  C  C1080  1  0.482000  0.441000  0.429490  1.0  0.1838
  C  C1081  1  0.484900  0.425400  0.397160  1.0  -0.1626
  C  C1082  1  0.497800  0.384000  0.392150  1.0  0.0975
  C  C1083  1  0.505500  0.360100  0.421000  1.0  -0.1619
  C  C1084  1  0.499900  0.377700  0.452340  1.0  0.1921
  C  C1085  1  0.328900  0.272400  0.686900  1.0  -0.1067
  C  C1086  1  0.346600  0.268700  0.626400  1.0  -0.0493
  C  C1087  1  0.367100  0.252300  0.658300  1.0  -0.1496
  C  C1088  1  0.270500  0.306200  0.683300  1.0  -0.0998
  N  N1089  1  0.234900  0.699120  0.286520  1.0  0.0322
  N  N1090  1  0.011700  0.667650  0.206710  1.0  -0.3343
  N  N1091  1  0.234900  0.199120  0.786520  1.0  0.0322
  N  N1092  1  0.011700  0.167650  0.706710  1.0  -0.3343
  N  N1093  1  0.734900  0.699120  0.786520  1.0  0.0322
  N  N1094  1  0.511700  0.667650  0.706710  1.0  -0.3343
  N  N1095  1  0.734900  0.199120  0.286520  1.0  0.0322
  N  N1096  1  0.511700  0.167650  0.206710  1.0  -0.3343
  N  N1097  1  0.515100  0.050880  0.286520  1.0  0.0324
  N  N1098  1  0.738300  0.082350  0.206710  1.0  -0.3321
  N  N1099  1  0.515100  0.550880  0.786520  1.0  0.0324
  N  N1100  1  0.738300  0.582350  0.706710  1.0  -0.3321
  N  N1101  1  0.015100  0.050880  0.786520  1.0  0.0324
  N  N1102  1  0.238300  0.082350  0.706710  1.0  -0.3321
  N  N1103  1  0.015100  0.550880  0.286520  1.0  0.0324
  N  N1104  1  0.238300  0.582350  0.206710  1.0  -0.3321
  N  N1105  1  0.515100  0.699120  0.463480  1.0  0.031
  N  N1106  1  0.738300  0.667650  0.543290  1.0  -0.332
  N  N1107  1  0.515100  0.199120  0.963480  1.0  0.031
  N  N1108  1  0.738300  0.167650  0.043290  1.0  -0.332
  N  N1109  1  0.015100  0.699120  0.963480  1.0  0.031
  N  N1110  1  0.238300  0.667650  0.043290  1.0  -0.332
  N  N1111  1  0.015100  0.199120  0.463480  1.0  0.031
  N  N1112  1  0.238300  0.167650  0.543290  1.0  -0.332
  N  N1113  1  0.234900  0.050880  0.463480  1.0  0.0317
  N  N1114  1  0.011700  0.082350  0.543290  1.0  -0.3335
  N  N1115  1  0.234900  0.550880  0.963480  1.0  0.0317
  N  N1116  1  0.011700  0.582350  0.043290  1.0  -0.3335
  N  N1117  1  0.734900  0.050880  0.963480  1.0  0.0317
  N  N1118  1  0.511700  0.082350  0.043290  1.0  -0.3335
  N  N1119  1  0.734900  0.550880  0.463480  1.0  0.0317
  N  N1120  1  0.511700  0.582350  0.543290  1.0  -0.3335
  N  N1121  1  0.765100  0.300880  0.713480  1.0  0.0312
  N  N1122  1  0.988300  0.332350  0.793290  1.0  -0.333
  N  N1123  1  0.765100  0.800880  0.213480  1.0  0.0312
  N  N1124  1  0.988300  0.832350  0.293290  1.0  -0.333
  N  N1125  1  0.265100  0.300880  0.213480  1.0  0.0312
  N  N1126  1  0.488300  0.332350  0.293290  1.0  -0.333
  N  N1127  1  0.265100  0.800880  0.713480  1.0  0.0312
  N  N1128  1  0.488300  0.832350  0.793290  1.0  -0.333
  N  N1129  1  0.484900  0.949120  0.713480  1.0  0.0313
  N  N1130  1  0.261700  0.917650  0.793290  1.0  -0.3322
  N  N1131  1  0.484900  0.449120  0.213480  1.0  0.0313
  N  N1132  1  0.261700  0.417650  0.293290  1.0  -0.3322
  N  N1133  1  0.984900  0.949120  0.213480  1.0  0.0313
  N  N1134  1  0.761700  0.917650  0.293290  1.0  -0.3322
  N  N1135  1  0.984900  0.449120  0.713480  1.0  0.0313
  N  N1136  1  0.761700  0.417650  0.793290  1.0  -0.3322
  N  N1137  1  0.484900  0.300880  0.536520  1.0  0.0319
  N  N1138  1  0.261700  0.332350  0.456710  1.0  -0.3334
  N  N1139  1  0.484900  0.800880  0.036520  1.0  0.0319
  N  N1140  1  0.261700  0.832350  0.956710  1.0  -0.3334
  N  N1141  1  0.984900  0.300880  0.036520  1.0  0.0319
  N  N1142  1  0.761700  0.332350  0.956710  1.0  -0.3334
  N  N1143  1  0.984900  0.800880  0.536520  1.0  0.0319
  N  N1144  1  0.761700  0.832350  0.456710  1.0  -0.3334
  N  N1145  1  0.765100  0.949120  0.536520  1.0  0.0327
  N  N1146  1  0.988300  0.917650  0.456710  1.0  -0.3334
  N  N1147  1  0.765100  0.449120  0.036520  1.0  0.0327
  N  N1148  1  0.988300  0.417650  0.956710  1.0  -0.3334
  N  N1149  1  0.265100  0.949120  0.036520  1.0  0.0327
  N  N1150  1  0.488300  0.917650  0.956710  1.0  -0.3334
  N  N1151  1  0.265100  0.449120  0.536520  1.0  0.0327
  N  N1152  1  0.488300  0.417650  0.456710  1.0  -0.3334
  O  O1153  1  0.097900  0.755180  0.254210  1.0  -0.6573
  O  O1154  1  0.203100  0.803140  0.263960  1.0  -0.4375
  O  O1155  1  0.176300  0.679840  0.265540  1.0  -0.6166
  O  O1156  1  0.305000  0.614070  0.278430  1.0  -0.6059
  O  O1157  1  0.240200  0.543390  0.316630  1.0  -0.5839
  O  O1158  1  0.097900  0.255180  0.754210  1.0  -0.6573
  O  O1159  1  0.203100  0.303140  0.763960  1.0  -0.4375
  O  O1160  1  0.176300  0.179840  0.765540  1.0  -0.6166
  O  O1161  1  0.305000  0.114070  0.778430  1.0  -0.6059
  O  O1162  1  0.240200  0.043390  0.816630  1.0  -0.5839
  O  O1163  1  0.597900  0.755180  0.754210  1.0  -0.6573
  O  O1164  1  0.703100  0.803140  0.763960  1.0  -0.4375
  O  O1165  1  0.676300  0.679840  0.765540  1.0  -0.6166
  O  O1166  1  0.805000  0.614070  0.778430  1.0  -0.6059
  O  O1167  1  0.740200  0.543390  0.816630  1.0  -0.5839
  O  O1168  1  0.597900  0.255180  0.254210  1.0  -0.6573
  O  O1169  1  0.703100  0.303140  0.263960  1.0  -0.4375
  O  O1170  1  0.676300  0.179840  0.265540  1.0  -0.6166
  O  O1171  1  0.805000  0.114070  0.278430  1.0  -0.6059
  O  O1172  1  0.740200  0.043390  0.316630  1.0  -0.5839
  O  O1173  1  0.652100  0.994820  0.254210  1.0  -0.6571
  O  O1174  1  0.546900  0.946860  0.263960  1.0  -0.4378
  O  O1175  1  0.573700  0.070160  0.265540  1.0  -0.6162
  O  O1176  1  0.445000  0.135930  0.278430  1.0  -0.6065
  O  O1177  1  0.509800  0.206610  0.316630  1.0  -0.5838
  O  O1178  1  0.652100  0.494820  0.754210  1.0  -0.6571
  O  O1179  1  0.546900  0.446860  0.763960  1.0  -0.4378
  O  O1180  1  0.573700  0.570160  0.765540  1.0  -0.6162
  O  O1181  1  0.445000  0.635930  0.778430  1.0  -0.6065
  O  O1182  1  0.509800  0.706610  0.816630  1.0  -0.5838
  O  O1183  1  0.152100  0.994820  0.754210  1.0  -0.6571
  O  O1184  1  0.046900  0.946860  0.763960  1.0  -0.4378
  O  O1185  1  0.073700  0.070160  0.765540  1.0  -0.6162
  O  O1186  1  0.945000  0.135930  0.778430  1.0  -0.6065
  O  O1187  1  0.009800  0.206610  0.816630  1.0  -0.5838
  O  O1188  1  0.152100  0.494820  0.254210  1.0  -0.6571
  O  O1189  1  0.046900  0.446860  0.263960  1.0  -0.4378
  O  O1190  1  0.073700  0.570160  0.265540  1.0  -0.6162
  O  O1191  1  0.945000  0.635930  0.278430  1.0  -0.6065
  O  O1192  1  0.009800  0.706610  0.316630  1.0  -0.5838
  O  O1193  1  0.652100  0.755180  0.495790  1.0  -0.657
  O  O1194  1  0.546900  0.803140  0.486040  1.0  -0.4362
  O  O1195  1  0.573700  0.679840  0.484460  1.0  -0.6155
  O  O1196  1  0.445000  0.614070  0.471570  1.0  -0.6067
  O  O1197  1  0.509800  0.543390  0.433370  1.0  -0.5834
  O  O1198  1  0.652100  0.255180  0.995790  1.0  -0.657
  O  O1199  1  0.546900  0.303140  0.986040  1.0  -0.4362
  O  O1200  1  0.573700  0.179840  0.984460  1.0  -0.6155
  O  O1201  1  0.445000  0.114070  0.971570  1.0  -0.6067
  O  O1202  1  0.509800  0.043390  0.933370  1.0  -0.5834
  O  O1203  1  0.152100  0.755180  0.995790  1.0  -0.657
  O  O1204  1  0.046900  0.803140  0.986040  1.0  -0.4362
  O  O1205  1  0.073700  0.679840  0.984460  1.0  -0.6155
  O  O1206  1  0.945000  0.614070  0.971570  1.0  -0.6067
  O  O1207  1  0.009800  0.543390  0.933370  1.0  -0.5834
  O  O1208  1  0.152100  0.255180  0.495790  1.0  -0.657
  O  O1209  1  0.046900  0.303140  0.486040  1.0  -0.4362
  O  O1210  1  0.073700  0.179840  0.484460  1.0  -0.6155
  O  O1211  1  0.945000  0.114070  0.471570  1.0  -0.6067
  O  O1212  1  0.009800  0.043390  0.433370  1.0  -0.5834
  O  O1213  1  0.097900  0.994820  0.495790  1.0  -0.6562
  O  O1214  1  0.203100  0.946860  0.486040  1.0  -0.44
  O  O1215  1  0.176300  0.070160  0.484460  1.0  -0.6158
  O  O1216  1  0.305000  0.135930  0.471570  1.0  -0.6071
  O  O1217  1  0.240200  0.206610  0.433370  1.0  -0.5847
  O  O1218  1  0.097900  0.494820  0.995790  1.0  -0.6562
  O  O1219  1  0.203100  0.446860  0.986040  1.0  -0.44
  O  O1220  1  0.176300  0.570160  0.984460  1.0  -0.6158
  O  O1221  1  0.305000  0.635930  0.971570  1.0  -0.6071
  O  O1222  1  0.240200  0.706610  0.933370  1.0  -0.5847
  O  O1223  1  0.597900  0.994820  0.995790  1.0  -0.6562
  O  O1224  1  0.703100  0.946860  0.986040  1.0  -0.44
  O  O1225  1  0.676300  0.070160  0.984460  1.0  -0.6158
  O  O1226  1  0.805000  0.135930  0.971570  1.0  -0.6071
  O  O1227  1  0.740200  0.206610  0.933370  1.0  -0.5847
  O  O1228  1  0.597900  0.494820  0.495790  1.0  -0.6562
  O  O1229  1  0.703100  0.446860  0.486040  1.0  -0.44
  O  O1230  1  0.676300  0.570160  0.484460  1.0  -0.6158
  O  O1231  1  0.805000  0.635930  0.471570  1.0  -0.6071
  O  O1232  1  0.740200  0.706610  0.433370  1.0  -0.5847
  O  O1233  1  0.902100  0.244820  0.745790  1.0  -0.6565
  O  O1234  1  0.796900  0.196860  0.736040  1.0  -0.4376
  O  O1235  1  0.823700  0.320160  0.734460  1.0  -0.6157
  O  O1236  1  0.695000  0.385930  0.721570  1.0  -0.607
  O  O1237  1  0.759800  0.456610  0.683370  1.0  -0.5845
  O  O1238  1  0.902100  0.744820  0.245790  1.0  -0.6565
  O  O1239  1  0.796900  0.696860  0.236040  1.0  -0.4376
  O  O1240  1  0.823700  0.820160  0.234460  1.0  -0.6157
  O  O1241  1  0.695000  0.885930  0.221570  1.0  -0.607
  O  O1242  1  0.759800  0.956610  0.183370  1.0  -0.5845
  O  O1243  1  0.402100  0.244820  0.245790  1.0  -0.6565
  O  O1244  1  0.296900  0.196860  0.236040  1.0  -0.4376
  O  O1245  1  0.323700  0.320160  0.234460  1.0  -0.6157
  O  O1246  1  0.195000  0.385930  0.221570  1.0  -0.607
  O  O1247  1  0.259800  0.456610  0.183370  1.0  -0.5845
  O  O1248  1  0.402100  0.744820  0.745790  1.0  -0.6565
  O  O1249  1  0.296900  0.696860  0.736040  1.0  -0.4376
  O  O1250  1  0.323700  0.820160  0.734460  1.0  -0.6157
  O  O1251  1  0.195000  0.885930  0.721570  1.0  -0.607
  O  O1252  1  0.259800  0.956610  0.683370  1.0  -0.5845
  O  O1253  1  0.347900  0.005180  0.745790  1.0  -0.6568
  O  O1254  1  0.453100  0.053140  0.736040  1.0  -0.4375
  O  O1255  1  0.426300  0.929840  0.734460  1.0  -0.6157
  O  O1256  1  0.555000  0.864070  0.721570  1.0  -0.6071
  O  O1257  1  0.490200  0.793390  0.683370  1.0  -0.5837
  O  O1258  1  0.347900  0.505180  0.245790  1.0  -0.6568
  O  O1259  1  0.453100  0.553140  0.236040  1.0  -0.4375
  O  O1260  1  0.426300  0.429840  0.234460  1.0  -0.6157
  O  O1261  1  0.555000  0.364070  0.221570  1.0  -0.6071
  O  O1262  1  0.490200  0.293390  0.183370  1.0  -0.5837
  O  O1263  1  0.847900  0.005180  0.245790  1.0  -0.6568
  O  O1264  1  0.953100  0.053140  0.236040  1.0  -0.4375
  O  O1265  1  0.926300  0.929840  0.234460  1.0  -0.6157
  O  O1266  1  0.055000  0.864070  0.221570  1.0  -0.6071
  O  O1267  1  0.990200  0.793390  0.183370  1.0  -0.5837
  O  O1268  1  0.847900  0.505180  0.745790  1.0  -0.6568
  O  O1269  1  0.953100  0.553140  0.736040  1.0  -0.4375
  O  O1270  1  0.926300  0.429840  0.734460  1.0  -0.6157
  O  O1271  1  0.055000  0.364070  0.721570  1.0  -0.6071
  O  O1272  1  0.990200  0.293390  0.683370  1.0  -0.5837
  O  O1273  1  0.347900  0.244820  0.504210  1.0  -0.6568
  O  O1274  1  0.453100  0.196860  0.513960  1.0  -0.4399
  O  O1275  1  0.426300  0.320160  0.515540  1.0  -0.6165
  O  O1276  1  0.555000  0.385930  0.528430  1.0  -0.6058
  O  O1277  1  0.490200  0.456610  0.566630  1.0  -0.5838
  O  O1278  1  0.347900  0.744820  0.004210  1.0  -0.6568
  O  O1279  1  0.453100  0.696860  0.013960  1.0  -0.4399
  O  O1280  1  0.426300  0.820160  0.015540  1.0  -0.6165
  O  O1281  1  0.555000  0.885930  0.028430  1.0  -0.6058
  O  O1282  1  0.490200  0.956610  0.066630  1.0  -0.5838
  O  O1283  1  0.847900  0.244820  0.004210  1.0  -0.6568
  O  O1284  1  0.953100  0.196860  0.013960  1.0  -0.4399
  O  O1285  1  0.926300  0.320160  0.015540  1.0  -0.6165
  O  O1286  1  0.055000  0.385930  0.028430  1.0  -0.6058
  O  O1287  1  0.990200  0.456610  0.066630  1.0  -0.5838
  O  O1288  1  0.847900  0.744820  0.504210  1.0  -0.6568
  O  O1289  1  0.953100  0.696860  0.513960  1.0  -0.4399
  O  O1290  1  0.926300  0.820160  0.515540  1.0  -0.6165
  O  O1291  1  0.055000  0.885930  0.528430  1.0  -0.6058
  O  O1292  1  0.990200  0.956610  0.566630  1.0  -0.5838
  O  O1293  1  0.902100  0.005180  0.504210  1.0  -0.6576
  O  O1294  1  0.796900  0.053140  0.513960  1.0  -0.4365
  O  O1295  1  0.823700  0.929840  0.515540  1.0  -0.6162
  O  O1296  1  0.695000  0.864070  0.528430  1.0  -0.6068
  O  O1297  1  0.759800  0.793390  0.566630  1.0  -0.584
  O  O1298  1  0.902100  0.505180  0.004210  1.0  -0.6576
  O  O1299  1  0.796900  0.553140  0.013960  1.0  -0.4365
  O  O1300  1  0.823700  0.429840  0.015540  1.0  -0.6162
  O  O1301  1  0.695000  0.364070  0.028430  1.0  -0.6068
  O  O1302  1  0.759800  0.293390  0.066630  1.0  -0.584
  O  O1303  1  0.402100  0.005180  0.004210  1.0  -0.6576
  O  O1304  1  0.296900  0.053140  0.013960  1.0  -0.4365
  O  O1305  1  0.323700  0.929840  0.015540  1.0  -0.6162
  O  O1306  1  0.195000  0.864070  0.028430  1.0  -0.6068
  O  O1307  1  0.259800  0.793390  0.066630  1.0  -0.584
  O  O1308  1  0.402100  0.505180  0.504210  1.0  -0.6576
  O  O1309  1  0.296900  0.553140  0.513960  1.0  -0.4365
  O  O1310  1  0.323700  0.429840  0.515540  1.0  -0.6162
  O  O1311  1  0.195000  0.364070  0.528430  1.0  -0.6068
  O  O1312  1  0.259800  0.293390  0.566630  1.0  -0.584
