# generated using pymatgen
data_Zn29H342C360(N9O40)2
_symmetry_space_group_name_H-M   'P 1'
_cell_length_a   33.00300000
_cell_length_b   34.59700000
_cell_length_c   34.59700000
_cell_angle_alpha   120.00000000
_cell_angle_beta   90.00000000
_cell_angle_gamma   90.00000000
_symmetry_Int_Tables_number   1
_chemical_formula_structural   Zn29H342C360(N9O40)2
_chemical_formula_sum   'Zn58 H684 C720 N36 O160'
_cell_volume   34210.61915297
_cell_formula_units_Z   2
loop_
 _symmetry_equiv_pos_site_id
 _symmetry_equiv_pos_as_xyz
  1  'x, y, z'
loop_
 _atom_site_type_symbol
 _atom_site_label
 _atom_site_symmetry_multiplicity
 _atom_site_fract_x
 _atom_site_fract_y
 _atom_site_fract_z
 _atom_site_occupancy
 _atom_site_charge
  Zn  Zn1  1  0.822970  0.434810  0.489950  1.0  0.9419
  Zn  Zn2  1  0.730160  0.409570  0.001650  1.0  0.8947
  Zn  Zn3  1  0.769840  0.592080  0.001650  1.0  0.8962
  Zn  Zn4  1  0.269840  0.407920  0.998350  1.0  0.8967
  Zn  Zn5  1  0.170980  0.510690  0.954060  1.0  0.9335
  Zn  Zn6  1  0.985470  0.709640  0.316730  1.0  1.072
  Zn  Zn7  1  0.750000  0.499470  0.998940  1.0  0.8003
  Zn  Zn8  1  0.170980  0.443370  0.489310  1.0  0.9337
  Zn  Zn9  1  0.170980  0.045940  0.556630  1.0  0.9338
  Zn  Zn10  1  0.485470  0.392910  0.709640  1.0  1.0706
  Zn  Zn11  1  0.230160  0.001650  0.592080  1.0  0.8948
  Zn  Zn12  1  0.985470  0.607090  0.290360  1.0  1.0721
  Zn  Zn13  1  0.177030  0.944860  0.510050  1.0  0.9399
  Zn  Zn14  1  0.730160  0.592080  0.590430  1.0  0.8945
  Zn  Zn15  1  0.329020  0.510690  0.556630  1.0  0.9352
  Zn  Zn16  1  0.329020  0.443370  0.954060  1.0  0.9345
  Zn  Zn17  1  0.177030  0.489950  0.434810  1.0  0.9394
  Zn  Zn18  1  0.670980  0.954060  0.443370  1.0  0.9345
  Zn  Zn19  1  0.829020  0.489310  0.443370  1.0  0.9327
  Zn  Zn20  1  0.322970  0.944860  0.434810  1.0  0.9414
  Zn  Zn21  1  0.514530  0.683270  0.290360  1.0  1.0741
  Zn  Zn22  1  0.250000  0.500530  0.499470  1.0  0.8002
  Zn  Zn23  1  0.230160  0.407920  0.409570  1.0  0.8949
  Zn  Zn24  1  0.014530  0.290360  0.607090  1.0  1.0739
  Zn  Zn25  1  0.769840  0.409570  0.407920  1.0  0.8964
  Zn  Zn26  1  0.750000  0.001060  0.500530  1.0  0.8005
  Zn  Zn27  1  0.269840  0.590430  0.592080  1.0  0.8963
  Zn  Zn28  1  0.014530  0.392910  0.683270  1.0  1.0709
  Zn  Zn29  1  0.670980  0.489310  0.045940  1.0  0.9326
  Zn  Zn30  1  0.829020  0.556630  0.045940  1.0  0.9343
  Zn  Zn31  1  0.822970  0.510050  0.944860  1.0  0.9442
  Zn  Zn32  1  0.269840  0.001650  0.409570  1.0  0.896
  Zn  Zn33  1  0.250000  0.998940  0.499470  1.0  0.8002
  Zn  Zn34  1  0.677030  0.510050  0.565190  1.0  0.9424
  Zn  Zn35  1  0.250000  0.500530  0.001060  1.0  0.801
  Zn  Zn36  1  0.514530  0.709640  0.392910  1.0  1.0712
  Zn  Zn37  1  0.562570  0.333333  0.666667  1.0  1.1061
  Zn  Zn38  1  0.177030  0.565190  0.055140  1.0  0.9403
  Zn  Zn39  1  0.329020  0.045940  0.489310  1.0  0.935
  Zn  Zn40  1  0.322970  0.565190  0.510050  1.0  0.9436
  Zn  Zn41  1  0.677030  0.055140  0.489950  1.0  0.9397
  Zn  Zn42  1  0.485470  0.316730  0.607090  1.0  1.0704
  Zn  Zn43  1  0.062570  0.666667  0.333333  1.0  1.1061
  Zn  Zn44  1  0.437430  0.666667  0.333333  1.0  1.107
  Zn  Zn45  1  0.670980  0.556630  0.510690  1.0  0.9334
  Zn  Zn46  1  0.985470  0.683270  0.392910  1.0  1.0722
  Zn  Zn47  1  0.730160  0.998350  0.407920  1.0  0.894
  Zn  Zn48  1  0.514530  0.607090  0.316730  1.0  1.0736
  Zn  Zn49  1  0.829020  0.954060  0.510690  1.0  0.9358
  Zn  Zn50  1  0.769840  0.998350  0.590430  1.0  0.8967
  Zn  Zn51  1  0.750000  0.499470  0.500530  1.0  0.8009
  Zn  Zn52  1  0.677030  0.434810  0.944860  1.0  0.9404
  Zn  Zn53  1  0.322970  0.489950  0.055140  1.0  0.9417
  Zn  Zn54  1  0.937430  0.333333  0.666667  1.0  1.107
  Zn  Zn55  1  0.230160  0.590430  0.998350  1.0  0.8944
  Zn  Zn56  1  0.822970  0.055140  0.565190  1.0  0.9432
  Zn  Zn57  1  0.014530  0.316730  0.709640  1.0  1.0724
  Zn  Zn58  1  0.485470  0.290360  0.683270  1.0  1.0712
  H  H59  1  0.370800  0.635500  0.948100  1.0  0.1365
  H  H60  1  0.668100  0.613900  0.735200  1.0  0.1098
  H  H61  1  0.588100  0.971100  0.635700  1.0  0.1417
  H  H62  1  0.439300  0.950500  0.418300  1.0  0.1084
  H  H63  1  0.309600  0.822600  0.374900  1.0  0.1885
  H  H64  1  0.778600  0.697900  0.613000  1.0  0.1249
  H  H65  1  0.689300  0.677500  0.123500  1.0  0.1321
  H  H66  1  0.846500  0.347100  0.791000  1.0  0.1375
  H  H67  1  0.016500  0.965200  0.528900  1.0  0.0936
  H  H68  1  0.194000  0.677800  0.617000  1.0  0.1212
  H  H69  1  0.177300  0.693600  0.074400  1.0  0.1211
  H  H70  1  0.605000  0.749400  0.540700  1.0  0.1146
  H  H71  1  0.420100  0.392000  0.559700  1.0  0.1318
  H  H72  1  0.975700  0.394400  0.476300  1.0  0.0855
  H  H73  1  0.615400  0.446900  0.379700  1.0  0.1244
  H  H74  1  0.773500  0.589700  0.386500  1.0  0.1184
  H  H75  1  0.639800  0.673700  0.183800  1.0  0.1374
  H  H76  1  0.922400  0.490300  0.525700  1.0  0.098
  H  H77  1  0.815300  0.788600  0.385900  1.0  0.1251
  H  H78  1  0.897700  0.902200  0.414500  1.0  0.1213
  H  H79  1  0.016500  0.471100  0.436300  1.0  0.0882
  H  H80  1  0.750300  0.602600  0.896800  1.0  0.1156
  H  H81  1  0.194400  0.552900  0.230300  1.0  0.1358
  H  H82  1  0.135900  0.589700  0.372800  1.0  0.1272
  H  H83  1  0.815300  0.597300  0.211400  1.0  0.1261
  H  H84  1  0.822700  0.619200  0.925600  1.0  0.1176
  H  H85  1  0.139800  0.326300  0.816200  1.0  0.1375
  H  H86  1  0.032300  0.524300  0.502900  1.0  0.11
  H  H87  1  0.858500  0.728700  0.128200  1.0  0.1086
  H  H88  1  0.703700  0.722900  0.553700  1.0  0.1197
  H  H89  1  0.273500  0.410300  0.613500  1.0  0.1199
  H  H90  1  0.176900  0.492800  0.703300  1.0  0.1277
  H  H91  1  0.895000  0.749400  0.208700  1.0  0.1137
  H  H92  1  0.395000  0.208700  0.459300  1.0  0.1138
  H  H93  1  0.102300  0.487700  0.585500  1.0  0.122
  H  H94  1  0.248400  0.812500  0.455800  1.0  0.1253
  H  H95  1  0.250300  0.397400  0.103200  1.0  0.1164
  H  H96  1  0.852800  0.437200  0.230900  1.0  0.1049
  H  H97  1  0.725000  0.216800  0.961100  1.0  0.1138
  H  H98  1  0.764000  0.603100  0.853700  1.0  0.1147
  H  H99  1  0.164400  0.446700  0.662400  1.0  0.1292
  H  H100  1  0.656200  0.319100  0.408700  1.0  0.1054
  H  H101  1  0.805600  0.447100  0.677400  1.0  0.1367
  H  H102  1  0.701100  0.693800  0.501600  1.0  0.1203
  H  H103  1  0.688600  0.611100  0.436300  1.0  0.1201
  H  H104  1  0.864100  0.410300  0.783100  1.0  0.1277
  H  H105  1  0.516500  0.528900  0.563700  1.0  0.0877
  H  H106  1  0.852800  0.769100  0.206300  1.0  0.1052
  H  H107  1  0.190400  0.625100  0.177400  1.0  0.1882
  H  H108  1  0.804500  0.707600  0.899800  1.0  0.0953
  H  H109  1  0.773500  0.796800  0.410300  1.0  0.1198
  H  H110  1  0.201100  0.501600  0.807800  1.0  0.1225
  H  H111  1  0.195500  0.899800  0.707600  1.0  0.0949
  H  H112  1  0.060700  0.950500  0.532200  1.0  0.1105
  H  H113  1  0.309600  0.625100  0.447700  1.0  0.1886
  H  H114  1  0.189300  0.123500  0.446000  1.0  0.1324
  H  H115  1  0.843800  0.591300  0.680900  1.0  0.1031
  H  H116  1  0.483500  0.965200  0.436300  1.0  0.0943
  H  H117  1  0.200400  0.329200  0.469200  1.0  0.1144
  H  H118  1  0.467700  0.524300  0.021400  1.0  0.1116
  H  H119  1  0.194400  0.677400  0.447100  1.0  0.1359
  H  H120  1  0.654200  0.077700  0.343000  1.0  0.1229
  H  H121  1  0.422400  0.509700  0.474300  1.0  0.0957
  H  H122  1  0.271600  0.366000  0.248900  1.0  0.1244
  H  H123  1  0.736000  0.250600  0.853700  1.0  0.1135
  H  H124  1  0.024300  0.476300  0.394400  1.0  0.0865
  H  H125  1  0.271600  0.882900  0.634000  1.0  0.1248
  H  H126  1  0.860200  0.816200  0.326300  1.0  0.1386
  H  H127  1  0.642000  0.764400  0.253400  1.0  0.1149
  H  H128  1  0.383300  0.517300  0.377800  1.0  0.1153
  H  H129  1  0.728400  0.248900  0.366000  1.0  0.1256
  H  H130  1  0.358500  0.128200  0.399500  1.0  0.1077
  H  H131  1  0.079900  0.440300  0.608000  1.0  0.1312
  H  H132  1  0.032300  0.497100  0.021400  1.0  0.1097
  H  H133  1  0.241700  0.302500  0.191100  1.0  0.1147
  H  H134  1  0.525500  0.416200  0.836300  1.0  0.1263
  H  H135  1  0.397700  0.487700  0.902200  1.0  0.1225
  H  H136  1  0.129200  0.051900  0.364500  1.0  0.137
  H  H137  1  0.228400  0.366000  0.117100  1.0  0.1234
  H  H138  1  0.654200  0.657000  0.734700  1.0  0.1227
  H  H139  1  0.345800  0.922300  0.265300  1.0  0.1212
  H  H140  1  0.124800  0.667900  0.526400  1.0  0.1199
  H  H141  1  0.079900  0.167700  0.559700  1.0  0.1329
  H  H142  1  0.653500  0.443900  0.791000  1.0  0.1381
  H  H143  1  0.250300  0.896800  0.294200  1.0  0.114
  H  H144  1  0.721400  0.915100  0.613000  1.0  0.1261
  H  H145  1  0.911900  0.364300  0.028900  1.0  0.1388
  H  H146  1  0.641500  0.871800  0.271300  1.0  0.106
  H  H147  1  0.221400  0.084900  0.387000  1.0  0.1261
  H  H148  1  0.311400  0.174800  0.563700  1.0  0.1188
  H  H149  1  0.677300  0.306400  0.925600  1.0  0.1205
  H  H150  1  0.221400  0.613000  0.697900  1.0  0.1249
  H  H151  1  0.895000  0.459300  0.250600  1.0  0.1127
  H  H152  1  0.708900  0.190500  0.855500  1.0  0.1189
  H  H153  1  0.845800  0.265300  0.343000  1.0  0.1208
  H  H154  1  0.156200  0.910400  0.319100  1.0  0.1063
  H  H155  1  0.101600  0.576000  0.872000  1.0  0.1146
  H  H156  1  0.398600  0.308500  0.773800  1.0  0.1179
  H  H157  1  0.858500  0.399500  0.271300  1.0  0.1033
  H  H158  1  0.156200  0.680900  0.591300  1.0  0.1041
  H  H159  1  0.420100  0.167700  0.608000  1.0  0.1303
  H  H160  1  0.624800  0.332100  0.473600  1.0  0.1213
  H  H161  1  0.635900  0.216900  0.589700  1.0  0.13
  H  H162  1  0.358500  0.600500  0.728700  1.0  0.1077
  H  H163  1  0.884600  0.446900  0.067200  1.0  0.1247
  H  H164  1  0.835300  0.209000  0.512100  1.0  0.1213
  H  H165  1  0.264000  0.749400  0.603100  1.0  0.1151
  H  H166  1  0.524300  0.081900  0.476300  1.0  0.088
  H  H167  1  0.101400  0.465300  0.773800  1.0  0.119
  H  H168  1  0.142000  0.235600  0.746600  1.0  0.1143
  H  H169  1  0.550500  0.060300  0.568400  1.0  0.1102
  H  H170  1  0.804500  0.192200  0.292400  1.0  0.0927
  H  H171  1  0.651200  0.311000  0.360200  1.0  0.1193
  H  H172  1  0.739000  0.922800  0.678300  1.0  0.1299
  H  H173  1  0.684700  0.597300  0.385900  1.0  0.1261
  H  H174  1  0.898400  0.872000  0.576000  1.0  0.1112
  H  H175  1  0.305600  0.677400  0.230300  1.0  0.1372
  H  H176  1  0.974500  0.163700  0.583800  1.0  0.1256
  H  H177  1  0.315300  0.211400  0.614100  1.0  0.1261
  H  H178  1  0.615400  0.932800  0.553100  1.0  0.1247
  H  H179  1  0.601400  0.691500  0.465300  1.0  0.118
  H  H180  1  0.291100  0.335000  0.144500  1.0  0.1213
  H  H181  1  0.370800  0.051900  0.687400  1.0  0.1375
  H  H182  1  0.115400  0.379700  0.932800  1.0  0.1242
  H  H183  1  0.810700  0.876500  0.322500  1.0  0.1322
  H  H184  1  0.101400  0.308500  0.534700  1.0  0.1176
  H  H185  1  0.668100  0.264800  0.878700  1.0  0.1083
  H  H186  1  0.883300  0.139500  0.517300  1.0  0.1133
  H  H187  1  0.605000  0.791300  0.250600  1.0  0.1128
  H  H188  1  0.748400  0.187500  0.544200  1.0  0.1276
  H  H189  1  0.398400  0.296000  0.872000  1.0  0.1093
  H  H190  1  0.304500  0.899800  0.192200  1.0  0.0983
  H  H191  1  0.296300  0.277100  0.830800  1.0  0.1195
  H  H192  1  0.641500  0.728700  0.600500  1.0  0.1056
  H  H193  1  0.139400  0.100600  0.676500  1.0  0.1135
  H  H194  1  0.116700  0.622200  0.482700  1.0  0.1102
  H  H195  1  0.060700  0.581700  0.049500  1.0  0.1104
  H  H196  1  0.016500  0.563700  0.034800  1.0  0.0931
  H  H197  1  0.764000  0.146300  0.749400  1.0  0.1149
  H  H198  1  0.101600  0.128000  0.704000  1.0  0.1155
  H  H199  1  0.151200  0.950800  0.311000  1.0  0.1198
  H  H200  1  0.616700  0.139500  0.622200  1.0  0.1108
  H  H201  1  0.758300  0.111400  0.808900  1.0  0.1166
  H  H202  1  0.758300  0.697500  0.888600  1.0  0.1133
  H  H203  1  0.507100  0.890700  0.459800  1.0  0.1316
  H  H204  1  0.352800  0.230900  0.793700  1.0  0.1039
  H  H205  1  0.315300  0.402700  0.788600  1.0  0.1242
  H  H206  1  0.775000  0.038900  0.783200  1.0  0.1134
  H  H207  1  0.791100  0.665000  0.855500  1.0  0.1212
  H  H208  1  0.397700  0.414500  0.512300  1.0  0.1218
  H  H209  1  0.701100  0.807800  0.306200  1.0  0.1202
  H  H210  1  0.639400  0.676500  0.575900  1.0  0.1129
  H  H211  1  0.011600  0.413300  0.525500  1.0  0.131
  H  H212  1  0.653500  0.209000  0.652900  1.0  0.1347
  H  H213  1  0.775000  0.744300  0.961100  1.0  0.114
  H  H214  1  0.050500  0.939700  0.431600  1.0  0.109
  H  H215  1  0.194000  0.939200  0.322200  1.0  0.1222
  H  H216  1  0.798900  0.498400  0.306200  1.0  0.1228
  H  H217  1  0.264000  0.853700  0.250600  1.0  0.1142
  H  H218  1  0.101400  0.226200  0.691500  1.0  0.1182
  H  H219  1  0.323100  0.492800  0.789500  1.0  0.1273
  H  H220  1  0.164400  0.337600  0.784300  1.0  0.1251
  H  H221  1  0.151200  0.360200  0.049200  1.0  0.1231
  H  H222  1  0.395000  0.540700  0.749400  1.0  0.1123
  H  H223  1  0.684700  0.614100  0.211400  1.0  0.1257
  H  H224  1  0.694400  0.447100  0.769700  1.0  0.1363
  H  H225  1  0.156200  0.408700  0.089600  1.0  0.1054
  H  H226  1  0.616700  0.482700  0.860500  1.0  0.1133
  H  H227  1  0.154200  0.734700  0.077700  1.0  0.1218
  H  H228  1  0.105000  0.208700  0.749400  1.0  0.1149
  H  H229  1  0.378100  0.670600  0.998500  1.0  0.1101
  H  H230  1  0.798900  0.693800  0.192200  1.0  0.1202
  H  H231  1  0.976900  0.932000  0.475000  1.0  0.1147
  H  H232  1  0.228400  0.751100  0.634000  1.0  0.1249
  H  H233  1  0.653500  0.347100  0.556100  1.0  0.1369
  H  H234  1  0.751600  0.187500  0.643300  1.0  0.1263
  H  H235  1  0.668100  0.121300  0.386100  1.0  0.1076
  H  H236  1  0.124800  0.858500  0.332100  1.0  0.1205
  H  H237  1  0.296300  0.553700  0.722900  1.0  0.1181
  H  H238  1  0.378100  0.327900  0.329400  1.0  0.1098
  H  H239  1  0.761000  0.755500  0.678300  1.0  0.1309
  H  H240  1  0.860200  0.510100  0.183800  1.0  0.1391
  H  H241  1  0.629200  0.948100  0.635500  1.0  0.138
  H  H242  1  0.967700  0.021400  0.497100  1.0  0.115
  H  H243  1  0.550500  0.431600  0.491900  1.0  0.1109
  H  H244  1  0.188600  0.388900  0.563700  1.0  0.1186
  H  H245  1  0.343800  0.408700  0.319100  1.0  0.105
  H  H246  1  0.331900  0.878700  0.264800  1.0  0.1074
  H  H247  1  0.831900  0.613900  0.878700  1.0  0.1082
  H  H248  1  0.664400  0.662400  0.215700  1.0  0.1284
  H  H249  1  0.809600  0.447700  0.822600  1.0  0.1906
  H  H250  1  0.105000  0.250600  0.459300  1.0  0.1147
  H  H251  1  0.476900  0.068000  0.525000  1.0  0.1141
  H  H252  1  0.154200  0.922300  0.657000  1.0  0.1219
  H  H253  1  0.550500  0.508100  0.939700  1.0  0.1108
  H  H254  1  0.348800  0.689000  0.049200  1.0  0.1205
  H  H255  1  0.579900  0.608000  0.167700  1.0  0.1322
  H  H256  1  0.618800  0.095300  0.624300  1.0  0.1211
  H  H257  1  0.184700  0.402700  0.614100  1.0  0.1253
  H  H258  1  0.601600  0.872000  0.296000  1.0  0.1131
  H  H259  1  0.664400  0.553300  0.337600  1.0  0.1291
  H  H260  1  0.105000  0.540700  0.791300  1.0  0.1135
  H  H261  1  0.141500  0.600500  0.871800  1.0  0.1059
  H  H262  1  0.331900  0.386100  0.121300  1.0  0.1086
  H  H263  1  0.007100  0.109300  0.540200  1.0  0.1296
  H  H264  1  0.375200  0.858500  0.526400  1.0  0.1213
  H  H265  1  0.360600  0.323500  0.899400  1.0  0.1134
  H  H266  1  0.306000  0.383000  0.322200  1.0  0.1217
  H  H267  1  0.822700  0.074400  0.693600  1.0  0.1208
  H  H268  1  0.811400  0.563700  0.388900  1.0  0.1196
  H  H269  1  0.664400  0.784300  0.446700  1.0  0.126
  H  H270  1  0.860200  0.673700  0.489900  1.0  0.1386
  H  H271  1  0.798900  0.807800  0.501600  1.0  0.1193
  H  H272  1  0.411900  0.028900  0.664600  1.0  0.1378
  H  H273  1  0.476900  0.475000  0.543000  1.0  0.1131
  H  H274  1  0.153500  0.791000  0.347100  1.0  0.1366
  H  H275  1  0.799600  0.469200  0.329200  1.0  0.1133
  H  H276  1  0.474500  0.579900  0.163700  1.0  0.1263
  H  H277  1  0.208900  0.335000  0.190500  1.0  0.1202
  H  H278  1  0.695500  0.707600  0.807800  1.0  0.0992
  H  H279  1  0.577600  0.474300  0.509700  1.0  0.0991
  H  H280  1  0.331900  0.735200  0.613900  1.0  0.1097
  H  H281  1  0.398600  0.226200  0.534700  1.0  0.1193
  H  H282  1  0.335600  0.446700  0.784300  1.0  0.1269
  H  H283  1  0.345800  0.734700  0.657000  1.0  0.1219
  H  H284  1  0.639800  0.510100  0.326300  1.0  0.1359
  H  H285  1  0.007100  0.459800  0.569100  1.0  0.1288
  H  H286  1  0.360200  0.183800  0.673700  1.0  0.1368
  H  H287  1  0.690400  0.447700  0.625100  1.0  0.1895
  H  H288  1  0.352800  0.206300  0.437200  1.0  0.1037
  H  H289  1  0.771600  0.634000  0.751100  1.0  0.1242
  H  H290  1  0.226500  0.203200  0.613500  1.0  0.1197
  H  H291  1  0.870800  0.948100  0.312600  1.0  0.1374
  H  H292  1  0.805600  0.230300  0.552900  1.0  0.1364
  H  H293  1  0.025500  0.836300  0.420100  1.0  0.1258
  H  H294  1  0.278600  0.613000  0.915100  1.0  0.1249
  H  H295  1  0.761000  0.321700  0.077200  1.0  0.1287
  H  H296  1  0.194400  0.769700  0.322600  1.0  0.1372
  H  H297  1  0.335300  0.512100  0.303100  1.0  0.12
  H  H298  1  0.475700  0.918100  0.394400  1.0  0.087
  H  H299  1  0.188600  0.436300  0.825200  1.0  0.1194
  H  H300  1  0.677300  0.619200  0.693600  1.0  0.1181
  H  H301  1  0.602300  0.512300  0.414500  1.0  0.1214
  H  H302  1  0.195500  0.292400  0.192200  1.0  0.0931
  H  H303  1  0.225000  0.783200  0.038900  1.0  0.1134
  H  H304  1  0.690400  0.177400  0.552300  1.0  0.1874
  H  H305  1  0.983500  0.034800  0.563700  1.0  0.0968
  H  H306  1  0.323100  0.296700  0.507200  1.0  0.1311
  H  H307  1  0.024300  0.918100  0.523700  1.0  0.0859
  H  H308  1  0.275000  0.255700  0.038900  1.0  0.1141
  H  H309  1  0.694400  0.230300  0.677400  1.0  0.1359
  H  H310  1  0.129200  0.312600  0.948100  1.0  0.1363
  H  H311  1  0.115400  0.553100  0.620300  1.0  0.1256
  H  H312  1  0.164700  0.512100  0.209000  1.0  0.1207
  H  H313  1  0.439300  0.581700  0.532200  1.0  0.1103
  H  H314  1  0.346500  0.791000  0.443900  1.0  0.137
  H  H315  1  0.360600  0.575900  0.676500  1.0  0.113
  H  H316  1  0.360200  0.489900  0.816200  1.0  0.1396
  H  H317  1  0.898400  0.424000  0.296000  1.0  0.1124
  H  H318  1  0.135900  0.627200  0.216900  1.0  0.1291
  H  H319  1  0.988400  0.586700  0.112200  1.0  0.1303
  H  H320  1  0.249700  0.896800  0.602600  1.0  0.1153
  H  H321  1  0.751600  0.356700  0.544200  1.0  0.1262
  H  H322  1  0.251600  0.544200  0.187500  1.0  0.1267
  H  H323  1  0.249700  0.397400  0.294200  1.0  0.1159
  H  H324  1  0.708900  0.144500  0.335000  1.0  0.1199
  H  H325  1  0.525500  0.420100  0.583800  1.0  0.1266
  H  H326  1  0.248400  0.643300  0.187500  1.0  0.1262
  H  H327  1  0.602300  0.585500  0.097800  1.0  0.1226
  H  H328  1  0.860600  0.676500  0.100600  1.0  0.1139
  H  H329  1  0.299600  0.530800  0.670800  1.0  0.1141
  H  H330  1  0.121900  0.001500  0.329400  1.0  0.1047
  H  H331  1  0.694000  0.617000  0.939200  1.0  0.122
  H  H332  1  0.560700  0.418300  0.950500  1.0  0.1122
  H  H333  1  0.664700  0.487900  0.791000  1.0  0.1208
  H  H334  1  0.315300  0.385900  0.597300  1.0  0.1262
  H  H335  1  0.641500  0.399500  0.128200  1.0  0.1033
  H  H336  1  0.023100  0.068000  0.543000  1.0  0.1148
  H  H337  1  0.897700  0.585500  0.487700  1.0  0.1221
  H  H338  1  0.579900  0.832300  0.440300  1.0  0.1327
  H  H339  1  0.225000  0.255700  0.216800  1.0  0.1136
  H  H340  1  0.511600  0.887800  0.413300  1.0  0.1293
  H  H341  1  0.656200  0.089600  0.680900  1.0  0.1069
  H  H342  1  0.700400  0.469200  0.140000  1.0  0.1146
  H  H343  1  0.291100  0.809500  0.665000  1.0  0.119
  H  H344  1  0.241700  0.888600  0.697500  1.0  0.1169
  H  H345  1  0.147200  0.562800  0.793700  1.0  0.1044
  H  H346  1  0.761000  0.922800  0.244500  1.0  0.1293
  H  H347  1  0.523100  0.525000  0.068000  1.0  0.1138
  H  H348  1  0.726500  0.589700  0.203200  1.0  0.1201
  H  H349  1  0.524300  0.523700  0.605600  1.0  0.0864
  H  H350  1  0.201100  0.306200  0.498400  1.0  0.1203
  H  H351  1  0.721400  0.697900  0.084900  1.0  0.1235
  H  H352  1  0.773500  0.613500  0.203200  1.0  0.1202
  H  H353  1  0.492900  0.430900  0.540200  1.0  0.126
  H  H354  1  0.601400  0.773800  0.308500  1.0  0.1183
  H  H355  1  0.153500  0.652900  0.443900  1.0  0.1378
  H  H356  1  0.898600  0.534700  0.308500  1.0  0.1195
  H  H357  1  0.239000  0.244500  0.922800  1.0  0.1308
  H  H358  1  0.750300  0.103200  0.705800  1.0  0.116
  H  H359  1  0.060700  0.467800  0.418300  1.0  0.1105
  H  H360  1  0.024300  0.605600  0.081900  1.0  0.0849
  H  H361  1  0.806000  0.617000  0.677800  1.0  0.1229
  H  H362  1  0.384600  0.067200  0.620300  1.0  0.1241
  H  H363  1  0.654200  0.265300  0.922300  1.0  0.1231
  H  H364  1  0.226500  0.386500  0.589700  1.0  0.1222
  H  H365  1  0.920100  0.608000  0.440300  1.0  0.1314
  H  H366  1  0.878100  0.672100  0.670600  1.0  0.1054
  H  H367  1  0.976900  0.543000  0.068000  1.0  0.113
  H  H368  1  0.164700  0.696900  0.487900  1.0  0.1176
  H  H369  1  0.275000  0.961100  0.216800  1.0  0.1138
  H  H370  1  0.343800  0.910400  0.591300  1.0  0.1061
  H  H371  1  0.023100  0.475000  0.932000  1.0  0.1134
  H  H372  1  0.323100  0.210500  0.703300  1.0  0.1272
  H  H373  1  0.684700  0.788600  0.402700  1.0  0.1254
  H  H374  1  0.250300  0.705800  0.602600  1.0  0.1184
  H  H375  1  0.189300  0.322500  0.876500  1.0  0.1321
  H  H376  1  0.728400  0.634000  0.882900  1.0  0.1216
  H  H377  1  0.577600  0.035400  0.525700  1.0  0.0992
  H  H378  1  0.647200  0.437200  0.206300  1.0  0.1055
  H  H379  1  0.189300  0.554000  0.677500  1.0  0.1322
  H  H380  1  0.949500  0.431600  0.939700  1.0  0.1114
  H  H381  1  0.878100  0.998500  0.327900  1.0  0.106
  H  H382  1  0.236000  0.396900  0.250600  1.0  0.1147
  H  H383  1  0.848800  0.639800  0.689000  1.0  0.1218
  H  H384  1  0.381200  0.904700  0.529000  1.0  0.1197
  H  H385  1  0.751600  0.455800  0.812500  1.0  0.1274
  H  H386  1  0.736000  0.146300  0.396900  1.0  0.1138
  H  H387  1  0.121900  0.670600  0.672100  1.0  0.1051
  H  H388  1  0.475700  0.605600  0.523700  1.0  0.0854
  H  H389  1  0.358000  0.235600  0.489000  1.0  0.114
  H  H390  1  0.221400  0.302100  0.915100  1.0  0.1234
  H  H391  1  0.184700  0.211400  0.597300  1.0  0.1256
  H  H392  1  0.195500  0.807800  0.100200  1.0  0.0921
  H  H393  1  0.664700  0.303100  0.512100  1.0  0.1165
  H  H394  1  0.639800  0.816200  0.489900  1.0  0.1364
  H  H395  1  0.810700  0.446000  0.123500  1.0  0.1323
  H  H396  1  0.258300  0.302500  0.111400  1.0  0.114
  H  H397  1  0.101600  0.296000  0.424000  1.0  0.1132
  H  H398  1  0.739000  0.321700  0.244500  1.0  0.1292
  H  H399  1  0.398400  0.576000  0.704000  1.0  0.113
  H  H400  1  0.352800  0.562800  0.769100  1.0  0.105
  H  H401  1  0.474500  0.583800  0.420100  1.0  0.1258
  H  H402  1  0.911900  0.664600  0.635700  1.0  0.1417
  H  H403  1  0.343800  0.680900  0.089600  1.0  0.1042
  H  H404  1  0.011600  0.112200  0.586700  1.0  0.1299
  H  H405  1  0.791100  0.190500  0.335000  1.0  0.1184
  H  H406  1  0.749700  0.103200  0.397400  1.0  0.1139
  H  H407  1  0.310700  0.322500  0.446000  1.0  0.1314
  H  H408  1  0.967700  0.502900  0.524300  1.0  0.1097
  H  H409  1  0.395000  0.250600  0.791300  1.0  0.1132
  H  H410  1  0.694000  0.060800  0.677800  1.0  0.1208
  H  H411  1  0.375200  0.473600  0.332100  1.0  0.1226
  H  H412  1  0.835600  0.553300  0.215700  1.0  0.1298
  H  H413  1  0.881200  0.375700  0.904700  1.0  0.1206
  H  H414  1  0.190400  0.822600  0.447700  1.0  0.1872
  H  H415  1  0.023100  0.457000  0.525000  1.0  0.1142
  H  H416  1  0.271600  0.751100  0.117100  1.0  0.1258
  H  H417  1  0.615400  0.620300  0.067200  1.0  0.1249
  H  H418  1  0.121900  0.327900  0.998500  1.0  0.1073
  H  H419  1  0.736000  0.603100  0.749400  1.0  0.1143
  H  H420  1  0.475700  0.476300  0.081900  1.0  0.0869
  H  H421  1  0.422400  0.525700  0.035400  1.0  0.0965
  H  H422  1  0.809600  0.374900  0.552300  1.0  0.1886
  H  H423  1  0.725000  0.744300  0.783200  1.0  0.1127
  H  H424  1  0.203700  0.277100  0.446300  1.0  0.1199
  H  H425  1  0.258300  0.888600  0.191100  1.0  0.1152
  H  H426  1  0.118800  0.471000  0.095300  1.0  0.1202
  H  H427  1  0.488400  0.112200  0.525500  1.0  0.1294
  H  H428  1  0.261000  0.244500  0.321700  1.0  0.1309
  H  H429  1  0.804500  0.100200  0.807800  1.0  0.0939
  H  H430  1  0.983500  0.436300  0.471100  1.0  0.0937
  H  H431  1  0.758300  0.191100  0.302500  1.0  0.1146
  H  H432  1  0.949500  0.508100  0.568400  1.0  0.1099
  H  H433  1  0.878100  0.329400  0.001500  1.0  0.1058
  H  H434  1  0.201100  0.192200  0.693800  1.0  0.1196
  H  H435  1  0.248400  0.544200  0.356700  1.0  0.1261
  H  H436  1  0.845800  0.077700  0.734700  1.0  0.1217
  H  H437  1  0.139400  0.575900  0.899400  1.0  0.1125
  H  H438  1  0.088100  0.635700  0.664600  1.0  0.1414
  H  H439  1  0.739000  0.755500  0.077200  1.0  0.1312
  H  H440  1  0.676900  0.703300  0.210500  1.0  0.1292
  H  H441  1  0.741700  0.191100  0.888600  1.0  0.115
  H  H442  1  0.858500  0.871800  0.600500  1.0  0.1082
  H  H443  1  0.796300  0.722900  0.169200  1.0  0.121
  H  H444  1  0.370800  0.312600  0.364500  1.0  0.1353
  H  H445  1  0.304500  0.292400  0.100200  1.0  0.0981
  H  H446  1  0.700400  0.670800  0.530800  1.0  0.1153
  H  H447  1  0.079900  0.392000  0.832300  1.0  0.1323
  H  H448  1  0.011600  0.474500  0.887800  1.0  0.131
  H  H449  1  0.992900  0.569100  0.459800  1.0  0.1246
  H  H450  1  0.806000  0.060800  0.383000  1.0  0.1226
  H  H451  1  0.411900  0.635700  0.971100  1.0  0.1382
  H  H452  1  0.883300  0.482700  0.622200  1.0  0.1144
  H  H453  1  0.831900  0.121300  0.735200  1.0  0.1088
  H  H454  1  0.700400  0.860000  0.329200  1.0  0.1169
  H  H455  1  0.358000  0.253400  0.764400  1.0  0.1158
  H  H456  1  0.516500  0.436300  0.965200  1.0  0.0932
  H  H457  1  0.275000  0.783200  0.744300  1.0  0.1141
  H  H458  1  0.835300  0.303100  0.791000  1.0  0.1168
  H  H459  1  0.726500  0.796800  0.386500  1.0  0.119
  H  H460  1  0.858000  0.764400  0.511000  1.0  0.1149
  H  H461  1  0.525500  0.163700  0.579900  1.0  0.1259
  H  H462  1  0.810700  0.677500  0.554000  1.0  0.1309
  H  H463  1  0.177300  0.925600  0.619200  1.0  0.1193
  H  H464  1  0.629200  0.364500  0.312600  1.0  0.1355
  H  H465  1  0.846500  0.209000  0.556100  1.0  0.1353
  H  H466  1  0.822700  0.306400  0.380800  1.0  0.1212
  H  H467  1  0.449500  0.568400  0.060300  1.0  0.1114
  H  H468  1  0.488400  0.474500  0.586700  1.0  0.1335
  H  H469  1  0.139800  0.489900  0.673700  1.0  0.1375
  H  H470  1  0.278600  0.302100  0.387000  1.0  0.1246
  H  H471  1  0.147200  0.206300  0.769100  1.0  0.1041
  H  H472  1  0.278600  0.084900  0.697900  1.0  0.1266
  H  H473  1  0.858000  0.489000  0.253400  1.0  0.1138
  H  H474  1  0.309600  0.552300  0.177400  1.0  0.1893
  H  H475  1  0.139400  0.323500  0.424100  1.0  0.1128
  H  H476  1  0.771600  0.117100  0.366000  1.0  0.1259
  H  H477  1  0.398600  0.465300  0.691500  1.0  0.1192
  H  H478  1  0.601400  0.534700  0.226200  1.0  0.1188
  H  H479  1  0.898400  0.704000  0.128000  1.0  0.1128
  H  H480  1  0.939300  0.532200  0.950500  1.0  0.1087
  H  H481  1  0.273500  0.203200  0.589700  1.0  0.1189
  H  H482  1  0.102300  0.097800  0.512300  1.0  0.1208
  H  H483  1  0.364100  0.783100  0.372800  1.0  0.1305
  H  H484  1  0.689300  0.446000  0.322500  1.0  0.132
  H  H485  1  0.688600  0.563700  0.174800  1.0  0.1199
  H  H486  1  0.741700  0.697500  0.808900  1.0  0.1145
  H  H487  1  0.647200  0.793700  0.230900  1.0  0.1026
  H  H488  1  0.523100  0.543000  0.475000  1.0  0.1144
  H  H489  1  0.988400  0.887800  0.474500  1.0  0.1301
  H  H490  1  0.147200  0.230900  0.437200  1.0  0.1019
  H  H491  1  0.322700  0.925600  0.306400  1.0  0.1203
  H  H492  1  0.560700  0.049500  0.467800  1.0  0.1094
  H  H493  1  0.467700  0.497100  0.475700  1.0  0.1093
  H  H494  1  0.852800  0.793700  0.562800  1.0  0.105
  H  H495  1  0.775000  0.216800  0.255700  1.0  0.114
  H  H496  1  0.077600  0.964600  0.474300  1.0  0.0998
  H  H497  1  0.422400  0.964600  0.490300  1.0  0.0972
  H  H498  1  0.911900  0.971100  0.335400  1.0  0.1407
  H  H499  1  0.304500  0.807800  0.707600  1.0  0.0983
  H  H500  1  0.164700  0.791000  0.303100  1.0  0.1205
  H  H501  1  0.151200  0.689000  0.639800  1.0  0.1201
  H  H502  1  0.823100  0.789500  0.296700  1.0  0.1274
  H  H503  1  0.311400  0.436300  0.611100  1.0  0.1203
  H  H504  1  0.524300  0.394400  0.918100  1.0  0.0846
  H  H505  1  0.364100  0.589700  0.216900  1.0  0.1288
  H  H506  1  0.577600  0.490300  0.964600  1.0  0.0986
  H  H507  1  0.726500  0.613500  0.410300  1.0  0.1209
  H  H508  1  0.184700  0.385900  0.788600  1.0  0.1253
  H  H509  1  0.621900  0.998500  0.670600  1.0  0.113
  H  H510  1  0.305600  0.769700  0.447100  1.0  0.1362
  H  H511  1  0.835600  0.784300  0.337600  1.0  0.1277
  H  H512  1  0.168100  0.735200  0.121300  1.0  0.1099
  H  H513  1  0.983500  0.528900  0.965200  1.0  0.0897
  H  H514  1  0.115400  0.067200  0.446900  1.0  0.1253
  H  H515  1  0.088100  0.335400  0.971100  1.0  0.1433
  H  H516  1  0.898600  0.691500  0.226200  1.0  0.1172
  H  H517  1  0.200400  0.140000  0.670800  1.0  0.1167
  H  H518  1  0.920100  0.832300  0.392000  1.0  0.1332
  H  H519  1  0.311400  0.388900  0.825200  1.0  0.1209
  H  H520  1  0.176900  0.296700  0.789500  1.0  0.1302
  H  H521  1  0.239000  0.077200  0.321700  1.0  0.1292
  H  H522  1  0.796300  0.830800  0.553700  1.0  0.1211
  H  H523  1  0.741700  0.111400  0.302500  1.0  0.1168
  H  H524  1  0.642000  0.746600  0.511000  1.0  0.115
  H  H525  1  0.579900  0.559700  0.392000  1.0  0.1298
  H  H526  1  0.799600  0.670800  0.140000  1.0  0.1164
  H  H527  1  0.507100  0.540200  0.430900  1.0  0.1284
  H  H528  1  0.688600  0.825200  0.388900  1.0  0.1181
  H  H529  1  0.639400  0.424100  0.100600  1.0  0.1125
  H  H530  1  0.305600  0.552900  0.322600  1.0  0.1359
  H  H531  1  0.335300  0.791000  0.487900  1.0  0.1198
  H  H532  1  0.884600  0.620300  0.553100  1.0  0.1241
  H  H533  1  0.639400  0.899400  0.323500  1.0  0.1139
  H  H534  1  0.208900  0.855500  0.665000  1.0  0.1177
  H  H535  1  0.511600  0.586700  0.474500  1.0  0.1288
  H  H536  1  0.208900  0.809500  0.144500  1.0  0.1202
  H  H537  1  0.249700  0.705800  0.103200  1.0  0.1188
  H  H538  1  0.846500  0.443900  0.652900  1.0  0.138
  H  H539  1  0.897700  0.512300  0.097800  1.0  0.1222
  H  H540  1  0.299600  0.329200  0.860000  1.0  0.1141
  H  H541  1  0.616700  0.377800  0.517300  1.0  0.1112
  H  H542  1  0.823100  0.703300  0.492800  1.0  0.1295
  H  H543  1  0.975700  0.523700  0.918100  1.0  0.0873
  H  H544  1  0.805600  0.322600  0.769700  1.0  0.1347
  H  H545  1  0.261000  0.077200  0.755500  1.0  0.1285
  H  H546  1  0.516500  0.034800  0.471100  1.0  0.0936
  H  H547  1  0.728400  0.117100  0.751100  1.0  0.1246
  H  H548  1  0.843800  0.319100  0.910400  1.0  0.1047
  H  H549  1  0.124800  0.473600  0.141500  1.0  0.1214
  H  H550  1  0.621900  0.672100  0.001500  1.0  0.1102
  H  H551  1  0.651200  0.639800  0.950800  1.0  0.1205
  H  H552  1  0.239000  0.678300  0.755500  1.0  0.1287
  H  H553  1  0.939300  0.049500  0.581700  1.0  0.1118
  H  H554  1  0.102300  0.414500  0.902200  1.0  0.122
  H  H555  1  0.142000  0.511000  0.764400  1.0  0.1136
  H  H556  1  0.689300  0.876500  0.554000  1.0  0.1329
  H  H557  1  0.642000  0.489000  0.235600  1.0  0.114
  H  H558  1  0.142000  0.253400  0.489000  1.0  0.1152
  H  H559  1  0.601600  0.424000  0.128000  1.0  0.1153
  H  H560  1  0.226500  0.410300  0.796800  1.0  0.119
  H  H561  1  0.601600  0.704000  0.576000  1.0  0.1145
  H  H562  1  0.375200  0.667900  0.141500  1.0  0.1203
  H  H563  1  0.806000  0.322200  0.939200  1.0  0.1225
  H  H564  1  0.492900  0.109300  0.569100  1.0  0.1321
  H  H565  1  0.346500  0.556100  0.347100  1.0  0.1409
  H  H566  1  0.976900  0.525000  0.457000  1.0  0.1126
  H  H567  1  0.397700  0.097800  0.585500  1.0  0.1222
  H  H568  1  0.875200  0.332100  0.858500  1.0  0.1216
  H  H569  1  0.088100  0.028900  0.364300  1.0  0.1415
  H  H570  1  0.694400  0.322600  0.552900  1.0  0.1366
  H  H571  1  0.050500  0.491900  0.060300  1.0  0.1097
  H  H572  1  0.695500  0.100200  0.292400  1.0  0.0976
  H  H573  1  0.141500  0.271300  0.399500  1.0  0.1067
  H  H574  1  0.236000  0.749400  0.146300  1.0  0.1139
  H  H575  1  0.621900  0.329400  0.327900  1.0  0.1115
  H  H576  1  0.708900  0.665000  0.809500  1.0  0.1227
  H  H577  1  0.467700  0.978600  0.502900  1.0  0.1124
  H  H578  1  0.811400  0.611100  0.174800  1.0  0.1193
  H  H579  1  0.310700  0.123500  0.677500  1.0  0.1323
  H  H580  1  0.843800  0.089600  0.408700  1.0  0.1072
  H  H581  1  0.764000  0.250600  0.396900  1.0  0.1143
  H  H582  1  0.629200  0.687400  0.051900  1.0  0.1356
  H  H583  1  0.656200  0.591300  0.910400  1.0  0.1037
  H  H584  1  0.523100  0.932000  0.457000  1.0  0.116
  H  H585  1  0.975700  0.081900  0.605600  1.0  0.0875
  H  H586  1  0.974500  0.420100  0.836300  1.0  0.1261
  H  H587  1  0.588100  0.664600  0.028900  1.0  0.1393
  H  H588  1  0.778600  0.387000  0.084900  1.0  0.1258
  H  H589  1  0.168100  0.386100  0.264800  1.0  0.1083
  H  H590  1  0.335600  0.337600  0.553300  1.0  0.128
  H  H591  1  0.398400  0.128000  0.424000  1.0  0.1114
  H  H592  1  0.690400  0.374900  0.822600  1.0  0.1866
  H  H593  1  0.560700  0.532200  0.581700  1.0  0.109
  H  H594  1  0.860600  0.424100  0.323500  1.0  0.1134
  H  H595  1  0.835600  0.662400  0.446700  1.0  0.126
  H  H596  1  0.346500  0.652900  0.209000  1.0  0.1378
  H  H597  1  0.677300  0.074400  0.380800  1.0  0.1194
  H  H598  1  0.291100  0.855500  0.190500  1.0  0.1195
  H  H599  1  0.483500  0.563700  0.528900  1.0  0.0946
  H  H600  1  0.635900  0.372800  0.783100  1.0  0.1289
  H  H601  1  0.383300  0.622200  0.139500  1.0  0.1111
  H  H602  1  0.532300  0.475700  0.497100  1.0  0.1105
  H  H603  1  0.176900  0.210500  0.507200  1.0  0.1273
  H  H604  1  0.922400  0.035400  0.509700  1.0  0.0961
  H  H605  1  0.378100  0.001500  0.672100  1.0  0.1114
  H  H606  1  0.967700  0.475700  0.978600  1.0  0.1124
  H  H607  1  0.949500  0.060300  0.491900  1.0  0.11
  H  H608  1  0.383300  0.860500  0.482700  1.0  0.1108
  H  H609  1  0.881200  0.095300  0.471000  1.0  0.1216
  H  H610  1  0.298900  0.306200  0.807800  1.0  0.1197
  H  H611  1  0.664700  0.209000  0.696900  1.0  0.1205
  H  H612  1  0.703700  0.830800  0.277100  1.0  0.1205
  H  H613  1  0.701100  0.498400  0.192200  1.0  0.1211
  H  H614  1  0.139800  0.183800  0.510100  1.0  0.1343
  H  H615  1  0.860600  0.899400  0.575900  1.0  0.1137
  H  H616  1  0.694000  0.322200  0.383000  1.0  0.1219
  H  H617  1  0.703700  0.446300  0.169200  1.0  0.1191
  H  H618  1  0.721400  0.387000  0.302100  1.0  0.1241
  H  H619  1  0.870800  0.687400  0.635500  1.0  0.1364
  H  H620  1  0.476900  0.457000  0.932000  1.0  0.1131
  H  H621  1  0.858000  0.746600  0.235600  1.0  0.1138
  H  H622  1  0.895000  0.791300  0.540700  1.0  0.1119
  H  H623  1  0.358000  0.511000  0.746600  1.0  0.1143
  H  H624  1  0.025500  0.583800  0.163700  1.0  0.1267
  H  H625  1  0.624800  0.526400  0.858500  1.0  0.1207
  H  H626  1  0.360600  0.100600  0.424100  1.0  0.1145
  H  H627  1  0.306000  0.677800  0.060800  1.0  0.1229
  H  H628  1  0.118800  0.904700  0.375700  1.0  0.1205
  H  H629  1  0.129200  0.635500  0.687400  1.0  0.137
  H  H630  1  0.310700  0.554000  0.876500  1.0  0.1318
  H  H631  1  0.749700  0.602600  0.705800  1.0  0.1162
  H  H632  1  0.177300  0.380800  0.306400  1.0  0.1181
  H  H633  1  0.835300  0.487900  0.696900  1.0  0.1197
  H  H634  1  0.261000  0.678300  0.922800  1.0  0.1296
  H  H635  1  0.602300  0.902200  0.487700  1.0  0.122
  H  H636  1  0.809600  0.177400  0.625100  1.0  0.1871
  H  H637  1  0.273500  0.386500  0.796800  1.0  0.12
  H  H638  1  0.864100  0.372800  0.589700  1.0  0.1308
  H  H639  1  0.823100  0.507200  0.210500  1.0  0.1279
  H  H640  1  0.298900  0.192200  0.498400  1.0  0.1195
  H  H641  1  0.511600  0.525500  0.112200  1.0  0.1325
  H  H642  1  0.939300  0.418300  0.467800  1.0  0.1086
  H  H643  1  0.811400  0.825200  0.436300  1.0  0.1192
  H  H644  1  0.335600  0.215700  0.662400  1.0  0.126
  H  H645  1  0.605000  0.459300  0.208700  1.0  0.1149
  H  H646  1  0.771600  0.248900  0.882900  1.0  0.1262
  H  H647  1  0.725000  0.038900  0.255700  1.0  0.1136
  H  H648  1  0.439300  0.467800  0.049500  1.0  0.109
  H  H649  1  0.875200  0.526400  0.667900  1.0  0.1212
  H  H650  1  0.676900  0.507200  0.296700  1.0  0.1269
  H  H651  1  0.296300  0.169200  0.446300  1.0  0.1188
  H  H652  1  0.298900  0.501600  0.693800  1.0  0.1223
  H  H653  1  0.322700  0.380800  0.074400  1.0  0.1198
  H  H654  1  0.153500  0.556100  0.209000  1.0  0.1366
  H  H655  1  0.618800  0.529000  0.904700  1.0  0.119
  H  H656  1  0.228400  0.882900  0.248900  1.0  0.1246
  H  H657  1  0.360200  0.326300  0.510100  1.0  0.139
  H  H658  1  0.116700  0.517300  0.139500  1.0  0.1157
  H  H659  1  0.532300  0.021400  0.524300  1.0  0.1161
  H  H660  1  0.992900  0.540200  0.109300  1.0  0.1312
  H  H661  1  0.791100  0.144500  0.809500  1.0  0.1186
  H  H662  1  0.188600  0.174800  0.611100  1.0  0.118
  H  H663  1  0.381200  0.471000  0.375700  1.0  0.1198
  H  H664  1  0.449500  0.491900  0.431600  1.0  0.109
  H  H665  1  0.796300  0.446300  0.277100  1.0  0.1186
  H  H666  1  0.236000  0.853700  0.603100  1.0  0.1142
  H  H667  1  0.322700  0.693600  0.619200  1.0  0.1198
  H  H668  1  0.974500  0.416200  0.579900  1.0  0.1268
  H  H669  1  0.384600  0.379700  0.446900  1.0  0.1247
  H  H670  1  0.007100  0.430900  0.890700  1.0  0.1259
  H  H671  1  0.624800  0.141500  0.667900  1.0  0.1208
  H  H672  1  0.077600  0.525700  0.490300  1.0  0.1003
  H  H673  1  0.032300  0.978600  0.475700  1.0  0.1146
  H  H674  1  0.306000  0.939200  0.617000  1.0  0.1216
  H  H675  1  0.345800  0.343000  0.077700  1.0  0.1211
  H  H676  1  0.364100  0.627200  0.410300  1.0  0.1286
  H  H677  1  0.118800  0.624300  0.529000  1.0  0.1219
  H  H678  1  0.190400  0.552300  0.374900  1.0  0.1897
  H  H679  1  0.647200  0.769100  0.562800  1.0  0.1045
  H  H680  1  0.618800  0.375700  0.471000  1.0  0.1205
  H  H681  1  0.695500  0.192200  0.899800  1.0  0.0996
  H  H682  1  0.449500  0.939700  0.508100  1.0  0.1097
  H  H683  1  0.884600  0.932800  0.379700  1.0  0.1241
  H  H684  1  0.116700  0.860500  0.377800  1.0  0.1111
  H  H685  1  0.135900  0.783100  0.410300  1.0  0.1304
  H  H686  1  0.488400  0.413300  0.887800  1.0  0.1308
  H  H687  1  0.845800  0.657000  0.922300  1.0  0.1217
  H  H688  1  0.077600  0.509700  0.035400  1.0  0.0996
  H  H689  1  0.750300  0.294200  0.397400  1.0  0.1174
  H  H690  1  0.881200  0.529000  0.624300  1.0  0.1203
  H  H691  1  0.651200  0.049200  0.689000  1.0  0.1223
  H  H692  1  0.815300  0.614100  0.402700  1.0  0.1259
  H  H693  1  0.920100  0.559700  0.167700  1.0  0.1303
  H  H694  1  0.922400  0.474300  0.964600  1.0  0.0968
  H  H695  1  0.358500  0.271300  0.871800  1.0  0.1074
  H  H696  1  0.141500  0.128200  0.728700  1.0  0.1082
  H  H697  1  0.988400  0.525500  0.413300  1.0  0.13
  H  H698  1  0.299600  0.140000  0.469200  1.0  0.1161
  H  H699  1  0.168100  0.878700  0.613900  1.0  0.1057
  H  H700  1  0.348800  0.950800  0.639800  1.0  0.1213
  H  H701  1  0.251600  0.812500  0.356700  1.0  0.1278
  H  H702  1  0.778600  0.915100  0.302100  1.0  0.1256
  H  H703  1  0.992900  0.890700  0.430900  1.0  0.1306
  H  H704  1  0.870800  0.364500  0.051900  1.0  0.1362
  H  H705  1  0.492900  0.459800  0.890700  1.0  0.1287
  H  H706  1  0.154200  0.343000  0.265300  1.0  0.1221
  H  H707  1  0.748400  0.356700  0.812500  1.0  0.1267
  H  H708  1  0.507100  0.569100  0.109300  1.0  0.1236
  H  H709  1  0.848800  0.049200  0.360200  1.0  0.1204
  H  H710  1  0.748400  0.455800  0.643300  1.0  0.125
  H  H711  1  0.799600  0.860000  0.530800  1.0  0.1169
  H  H712  1  0.203700  0.169200  0.722900  1.0  0.1208
  H  H713  1  0.164400  0.215700  0.553300  1.0  0.128
  H  H714  1  0.258300  0.808900  0.697500  1.0  0.1131
  H  H715  1  0.251600  0.643300  0.455800  1.0  0.1284
  H  H716  1  0.831900  0.264800  0.386100  1.0  0.109
  H  H717  1  0.635900  0.410300  0.627200  1.0  0.1284
  H  H718  1  0.875200  0.141500  0.473600  1.0  0.123
  H  H719  1  0.050500  0.568400  0.508100  1.0  0.1108
  H  H720  1  0.588100  0.364300  0.335400  1.0  0.1405
  H  H721  1  0.483500  0.471100  0.034800  1.0  0.0864
  H  H722  1  0.335300  0.696900  0.209000  1.0  0.1183
  H  H723  1  0.384600  0.553100  0.932800  1.0  0.1245
  H  H724  1  0.898600  0.773800  0.465300  1.0  0.1186
  H  H725  1  0.225000  0.961100  0.744300  1.0  0.1134
  H  H726  1  0.241700  0.808900  0.111400  1.0  0.1153
  H  H727  1  0.381200  0.624300  0.095300  1.0  0.1211
  H  H728  1  0.200400  0.530800  0.860000  1.0  0.1138
  H  H729  1  0.848800  0.311000  0.950800  1.0  0.1208
  H  H730  1  0.883300  0.377800  0.860500  1.0  0.1104
  H  H731  1  0.676900  0.789500  0.492800  1.0  0.1274
  H  H732  1  0.203700  0.553700  0.830800  1.0  0.1198
  H  H733  1  0.864100  0.216900  0.627200  1.0  0.1311
  H  H734  1  0.411900  0.335400  0.364300  1.0  0.138
  H  H735  1  0.025500  0.579900  0.416200  1.0  0.127
  H  H736  1  0.474500  0.836300  0.416200  1.0  0.1259
  H  H737  1  0.194000  0.383000  0.060800  1.0  0.1221
  H  H738  1  0.420100  0.440300  0.832300  1.0  0.1313
  H  H739  1  0.749700  0.294200  0.896800  1.0  0.1174
  H  H740  1  0.348800  0.360200  0.311000  1.0  0.1207
  H  H741  1  0.264000  0.396900  0.146300  1.0  0.1135
  H  H742  1  0.532300  0.502900  0.978600  1.0  0.1073
  C  C743  1  0.713140  0.845970  0.451670  1.0  0.0601
  C  C744  1  0.064300  0.757500  0.376400  1.0  0.7245
  C  C745  1  0.460600  0.523800  0.076000  1.0  0.3061
  C  C746  1  0.192100  0.303400  0.470700  1.0  -0.3715
  C  C747  1  0.633900  0.791500  0.254400  1.0  -0.3709
  C  C748  1  0.286860  0.154030  0.605700  1.0  0.0602
  C  C749  1  0.870400  0.363700  0.875100  1.0  -0.3593
  C  C750  1  0.770000  0.041100  0.726100  1.0  0.0321
  C  C751  1  0.739900  0.665300  0.681100  1.0  0.3809
  C  C752  1  0.833800  0.804800  0.326500  1.0  -0.3714
  C  C753  1  0.657080  0.592520  0.971770  1.0  0.0652
  C  C754  1  0.253200  0.262200  0.309800  1.0  -0.1015
  C  C755  1  0.694800  0.513140  0.357190  1.0  0.0346
  C  C756  1  0.634350  0.451100  0.601100  1.0  -0.0267
  C  C757  1  0.354200  0.168300  0.468100  1.0  0.1376
  C  C758  1  0.715500  0.113700  0.315600  1.0  -0.3219
  C  C759  1  0.716200  0.089300  0.342500  1.0  0.2001
  C  C760  1  0.764020  0.080600  0.487550  1.0  0.2898
  C  C761  1  0.949200  0.463600  0.954000  1.0  -0.3924
  C  C762  1  0.421830  0.607700  0.410380  1.0  -0.1715
  C  C763  1  0.369950  0.396840  0.437900  1.0  -0.1015
  C  C764  1  0.325000  0.725500  0.634700  1.0  -0.3597
  C  C765  1  0.175300  0.670000  0.463300  1.0  -0.3781
  C  C766  1  0.735980  0.406950  0.487550  1.0  0.2902
  C  C767  1  0.753900  0.262600  0.379000  1.0  -0.3717
  C  C768  1  0.369950  0.041060  0.603160  1.0  -0.1024
  C  C769  1  0.630600  0.424800  0.127400  1.0  -0.3624
  C  C770  1  0.248500  0.663200  0.691700  1.0  -0.0447
  C  C771  1  0.305030  0.918500  0.521110  1.0  -0.0166
  C  C772  1  0.870400  0.124900  0.488600  1.0  -0.3596
  C  C773  1  0.626100  0.656000  0.491300  1.0  0.0175
  C  C774  1  0.675180  0.122120  0.627420  1.0  0.0563
  C  C775  1  0.618200  0.562300  0.095500  1.0  0.0854
  C  C776  1  0.353310  0.437360  0.469610  1.0  0.031
  C  C777  1  0.039400  0.924000  0.476200  1.0  0.3081
  C  C778  1  0.215500  0.798100  0.113700  1.0  -0.322
  C  C779  1  0.805030  0.081500  0.478890  1.0  -0.0166
  C  C780  1  0.449200  0.954000  0.490400  1.0  -0.3926
  C  C781  1  0.886750  0.552630  0.423000  1.0  0.0122
  C  C782  1  0.912980  0.576400  0.373300  1.0  -0.148
  C  C783  1  0.805030  0.397390  0.918500  1.0  -0.0168
  C  C784  1  0.666200  0.673500  0.195200  1.0  -0.3692
  C  C785  1  0.238220  0.118350  0.539800  1.0  -0.0284
  C  C786  1  0.618200  0.904500  0.466800  1.0  0.0849
  C  C787  1  0.826280  0.037040  0.447990  1.0  -0.0087
  C  C788  1  0.865650  0.398900  0.548900  1.0  -0.0243
  C  C789  1  0.202200  0.402800  0.592000  1.0  -0.362
  C  C790  1  0.262600  0.633100  0.160940  1.0  -0.0904
  C  C791  1  0.235980  0.487550  0.080600  1.0  0.2887
  C  C792  1  0.004800  0.444100  0.537100  1.0  -0.3377
  C  C793  1  0.760100  0.318900  0.334700  1.0  0.3774
  C  C794  1  0.908530  0.833100  0.417000  1.0  -0.1353
  C  C795  1  0.108990  0.581600  0.112980  1.0  0.371
  C  C796  1  0.202200  0.189200  0.597200  1.0  -0.3648
  C  C797  1  0.145800  0.168300  0.700200  1.0  0.1342
  C  C798  1  0.435700  0.757500  0.381100  1.0  0.7237
  C  C799  1  0.539400  0.076000  0.523800  1.0  0.3059
  C  C800  1  0.439000  0.242900  0.612900  1.0  0.6511
  C  C801  1  0.381060  0.577970  0.192170  1.0  -0.153
  C  C802  1  0.744950  0.915410  0.503880  1.0  0.287
  C  C803  1  0.449200  0.536400  0.046000  1.0  -0.3924
  C  C804  1  0.331470  0.543860  0.006800  1.0  0.2261
  C  C805  1  0.145800  0.299800  0.468100  1.0  0.1369
  C  C806  1  0.246100  0.737400  0.116400  1.0  -0.369
  C  C807  1  0.364750  0.010820  0.618090  1.0  0.0336
  C  C808  1  0.118200  0.095500  0.533200  1.0  0.0864
  C  C809  1  0.134350  0.548900  0.398900  1.0  -0.0265
  C  C810  1  0.895600  0.662800  0.202000  1.0  -0.0982
  C  C811  1  0.194800  0.486860  0.642810  1.0  0.0343
  C  C812  1  0.760100  0.665300  0.984200  1.0  0.3782
  C  C813  1  0.834600  0.060100  0.387900  1.0  -0.3543
  C  C814  1  0.696390  0.161840  0.642660  1.0  0.0544
  C  C815  1  0.035000  0.940500  0.517800  1.0  -0.3752
  C  C816  1  0.242800  0.512040  0.391710  1.0  -0.0065
  C  C817  1  0.822400  0.149800  0.609600  1.0  0.1033
  C  C818  1  0.751500  0.336800  0.028500  1.0  -0.0463
  C  C819  1  0.254800  0.193000  0.956500  1.0  0.5281
  C  C820  1  0.738220  0.881650  0.460200  1.0  -0.0274
  C  C821  1  0.921830  0.197320  0.607700  1.0  -0.1702
  C  C822  1  0.226610  0.374450  0.913490  1.0  0.1502
  C  C823  1  0.668530  0.537060  0.993200  1.0  0.2278
  C  C824  1  0.591470  0.833100  0.416100  1.0  -0.1345
  C  C825  1  0.738220  0.578550  0.118350  1.0  -0.0279
  C  C826  1  0.234600  0.059100  0.382200  1.0  0.1712
  C  C827  1  0.194970  0.918500  0.397390  1.0  -0.016
  C  C828  1  0.866100  0.791500  0.537100  1.0  -0.372
  C  C829  1  0.305030  0.478890  0.397390  1.0  -0.0165
  C  C830  1  0.761780  0.539800  0.118350  1.0  -0.0267
  C  C831  1  0.255050  0.503880  0.915410  1.0  0.2929
  C  C832  1  0.735980  0.080600  0.593050  1.0  0.2893
  C  C833  1  0.175300  0.793300  0.330000  1.0  -0.3759
  C  C834  1  0.245200  0.193000  0.236500  1.0  0.5276
  C  C835  1  0.050800  0.509600  0.046000  1.0  -0.3912
  C  C836  1  0.177600  0.540200  0.390400  1.0  0.1058
  C  C837  1  0.645800  0.468100  0.168300  1.0  0.1371
  C  C838  1  0.504800  0.537100  0.093000  1.0  -0.3367
  C  C839  1  0.921830  0.392300  0.589620  1.0  -0.1721
  C  C840  1  0.657080  0.379250  0.407480  1.0  0.0658
  C  C841  1  0.935700  0.242500  0.618900  1.0  0.7245
  C  C842  1  0.753900  0.621000  0.883600  1.0  -0.3724
  C  C843  1  0.798470  0.877810  0.347270  1.0  -0.0651
  C  C844  1  0.134350  0.601100  0.150000  1.0  -0.0241
  C  C845  1  0.175000  0.725500  0.090800  1.0  -0.3607
  C  C846  1  0.391010  0.531380  0.112980  1.0  0.3677
  C  C847  1  0.116800  0.334900  0.975400  1.0  -0.3763
  C  C848  1  0.052810  0.839700  0.427900  1.0  -0.1062
  C  C849  1  0.743300  0.264800  0.022300  1.0  -0.0714
  C  C850  1  0.353310  0.530390  0.967750  1.0  0.0313
  C  C851  1  0.175180  0.494700  0.122120  1.0  0.0607
  C  C852  1  0.675180  0.505300  0.877880  1.0  0.0599
  C  C853  1  0.465000  0.577300  0.517800  1.0  -0.3748
  C  C854  1  0.873900  0.835300  0.491300  1.0  0.0174
  C  C855  1  0.630580  0.871500  0.386900  1.0  0.2912
  C  C856  1  0.666200  0.521700  0.326500  1.0  -0.3702
  C  C857  1  0.831470  0.456140  0.993200  1.0  0.2251
  C  C858  1  0.748500  0.691700  0.028500  1.0  -0.0427
  C  C859  1  0.949200  0.046000  0.509600  1.0  -0.3911
  C  C860  1  0.196390  0.838160  0.357340  1.0  0.0543
  C  C861  1  0.286860  0.394300  0.548330  1.0  0.0627
  C  C862  1  0.264020  0.919400  0.512450  1.0  0.2877
  C  C863  1  0.854200  0.831700  0.531900  1.0  0.1349
  C  C864  1  0.826280  0.410950  0.962960  1.0  -0.0084
  C  C865  1  0.166200  0.326500  0.804800  1.0  -0.368
  C  C866  1  0.891010  0.418400  0.531380  1.0  0.3703
  C  C867  1  0.261780  0.460200  0.881650  1.0  -0.0278
  C  C868  1  0.965000  0.059500  0.577300  1.0  -0.3748
  C  C869  1  0.745200  0.236500  0.043500  1.0  0.5252
  C  C870  1  0.668530  0.456140  0.462940  1.0  0.2288
  C  C871  1  0.421830  0.802680  0.392300  1.0  -0.1727
  C  C872  1  0.146690  0.437360  0.967750  1.0  0.031
  C  C873  1  0.246100  0.883600  0.621000  1.0  -0.373
  C  C874  1  0.908530  0.583000  0.416100  1.0  -0.1365
  C  C875  1  0.381060  0.807830  0.385800  1.0  -0.1518
  C  C876  1  0.743300  0.977700  0.242500  1.0  -0.0766
  C  C877  1  0.786860  0.605700  0.451670  1.0  0.0622
  C  C878  1  0.716200  0.253200  0.910700  1.0  0.2002
  C  C879  1  0.322400  0.850200  0.390400  1.0  0.1043
  C  C880  1  0.734600  0.382200  0.323100  1.0  0.1702
  C  C881  1  0.334600  0.672200  0.060100  1.0  -0.3558
  C  C882  1  0.157080  0.407480  0.028230  1.0  0.0659
  C  C883  1  0.412980  0.423600  0.626700  1.0  -0.147
  C  C884  1  0.753200  0.309800  0.047600  1.0  -0.0987
  C  C885  1  0.824820  0.372580  0.877880  1.0  0.0577
  C  C886  1  0.701530  0.469460  0.347270  1.0  -0.0682
  C  C887  1  0.881060  0.192170  0.614200  1.0  -0.1515
  C  C888  1  0.630600  0.872600  0.297400  1.0  -0.3623
  C  C889  1  0.834600  0.612100  0.672200  1.0  -0.3599
  C  C890  1  0.630050  0.437900  0.396840  1.0  -0.0999
  C  C891  1  0.762600  0.366900  0.839060  1.0  -0.0863
  C  C892  1  0.383200  0.024600  0.665100  1.0  -0.3728
  C  C893  1  0.260100  0.681100  0.665300  1.0  0.3781
  C  C894  1  0.673720  0.410950  0.447990  1.0  -0.0088
  C  C895  1  0.824700  0.330000  0.793300  1.0  -0.372
  C  C896  1  0.354200  0.299800  0.831700  1.0  0.1369
  C  C897  1  0.130600  0.575200  0.872600  1.0  -0.364
  C  C898  1  0.947190  0.427900  0.839700  1.0  -0.1064
  C  C899  1  0.248500  0.028500  0.336800  1.0  -0.0452
  C  C900  1  0.324700  0.793300  0.463300  1.0  -0.3779
  C  C901  1  0.242800  0.608290  0.120330  1.0  -0.0079
  C  C902  1  0.129600  0.875100  0.363700  1.0  -0.3594
  C  C903  1  0.324700  0.536700  0.330000  1.0  -0.3762
  C  C904  1  0.238220  0.460200  0.578550  1.0  -0.0263
  C  C905  1  0.307900  0.167300  0.470700  1.0  -0.3723
  C  C906  1  0.129600  0.636300  0.511400  1.0  -0.3578
  C  C907  1  0.061000  0.370000  0.612900  1.0  0.6526
  C  C908  1  0.364750  0.607270  0.989180  1.0  0.034
  C  C909  1  0.568220  0.456970  0.575100  1.0  0.0022
  C  C910  1  0.755050  0.915410  0.411530  1.0  0.2862
  C  C911  1  0.257200  0.879670  0.391710  1.0  -0.0076
  C  C912  1  0.807900  0.696600  0.167300  1.0  -0.3737
  C  C913  1  0.262600  0.839060  0.472160  1.0  -0.0881
  C  C914  1  0.383200  0.640500  0.975400  1.0  -0.3761
  C  C915  1  0.322400  0.609600  0.459800  1.0  0.1058
  C  C916  1  0.370400  0.636300  0.124900  1.0  -0.3579
  C  C917  1  0.805200  0.513140  0.155950  1.0  0.0355
  C  C918  1  0.604400  0.798000  0.337200  1.0  -0.0985
  C  C919  1  0.298470  0.347270  0.469460  1.0  -0.0615
  C  C920  1  0.305030  0.602610  0.081500  1.0  -0.0167
  C  C921  1  0.692100  0.832700  0.303400  1.0  -0.369
  C  C922  1  0.130050  0.396840  0.958940  1.0  -0.0999
  C  C923  1  0.173720  0.447990  0.037040  1.0  -0.0079
  C  C924  1  0.504800  0.555900  0.462900  1.0  -0.3383
  C  C925  1  0.591470  0.583900  0.417000  1.0  -0.1308
  C  C926  1  0.130050  0.562100  0.603160  1.0  -0.0999
  C  C927  1  0.324820  0.627420  0.122120  1.0  0.0581
  C  C928  1  0.246100  0.379000  0.262600  1.0  -0.3732
  C  C929  1  0.251500  0.663200  0.971500  1.0  -0.0462
  C  C930  1  0.257200  0.512040  0.120330  1.0  -0.0067
  C  C931  1  0.675300  0.463300  0.793300  1.0  -0.3731
  C  C932  1  0.421830  0.589620  0.197320  1.0  -0.171
  C  C933  1  0.696390  0.357340  0.519180  1.0  0.0563
  C  C934  1  0.283800  0.910700  0.253200  1.0  0.2006
  C  C935  1  0.824700  0.206700  0.536700  1.0  -0.3773
  C  C936  1  0.960600  0.476200  0.924000  1.0  0.3057
  C  C937  1  0.629600  0.363700  0.488600  1.0  -0.3605
  C  C938  1  0.283800  0.746800  0.657500  1.0  0.1993
  C  C939  1  0.243300  0.735200  0.977700  1.0  -0.0727
  C  C940  1  0.260100  0.984200  0.318900  1.0  0.3804
  C  C941  1  0.243300  0.242500  0.264800  1.0  -0.0748
  C  C942  1  0.604400  0.539200  0.202000  1.0  -0.0955
  C  C943  1  0.550800  0.463600  0.509600  1.0  -0.3941
  C  C944  1  0.535000  0.059500  0.482200  1.0  -0.3745
  C  C945  1  0.748500  0.336800  0.308300  1.0  -0.0461
  C  C946  1  0.261780  0.118350  0.578550  1.0  -0.0288
  C  C947  1  0.495200  0.462900  0.555900  1.0  -0.3386
  C  C948  1  0.739900  0.015800  0.334700  1.0  0.3814
  C  C949  1  0.783800  0.253200  0.342500  1.0  0.2005
  C  C950  1  0.213140  0.154030  0.548330  1.0  0.0596
  C  C951  1  0.270000  0.726100  0.685000  1.0  0.0357
  C  C952  1  0.694970  0.081500  0.602610  1.0  -0.0162
  C  C953  1  0.325000  0.909200  0.274500  1.0  -0.3582
  C  C954  1  0.173720  0.962960  0.410950  1.0  -0.0082
  C  C955  1  0.881800  0.904500  0.437700  1.0  0.0844
  C  C956  1  0.746100  0.621000  0.737400  1.0  -0.3721
  C  C957  1  0.391010  0.887020  0.418400  1.0  0.3706
  C  C958  1  0.365650  0.601100  0.451100  1.0  -0.0255
  C  C959  1  0.833800  0.673500  0.478300  1.0  -0.3694
  C  C960  1  0.226610  0.086510  0.460960  1.0  0.1521
  C  C961  1  0.535000  0.517800  0.577300  1.0  -0.3759
  C  C962  1  0.742800  0.487960  0.608290  1.0  -0.0085
  C  C963  1  0.246800  0.047600  0.309800  1.0  -0.0988
  C  C964  1  0.568220  0.118130  0.543030  1.0  -0.0027
  C  C965  1  0.091470  0.166900  0.583900  1.0  -0.1321
  C  C966  1  0.866100  0.462900  0.254400  1.0  -0.3719
  C  C967  1  0.255050  0.411530  0.496120  1.0  0.2858
  C  C968  1  0.675000  0.274500  0.909200  1.0  -0.3606
  C  C969  1  0.265400  0.617800  0.940900  1.0  0.1702
  C  C970  1  0.369420  0.484600  0.613100  1.0  0.2922
  C  C971  1  0.630050  0.603160  0.041060  1.0  -0.1002
  C  C972  1  0.807900  0.470700  0.303400  1.0  -0.3739
  C  C973  1  0.078170  0.589620  0.392300  1.0  -0.1715
  C  C974  1  0.786860  0.845970  0.394300  1.0  0.06
  C  C975  1  0.730000  0.041100  0.315000  1.0  0.0319
  C  C976  1  0.853310  0.469610  0.032250  1.0  0.0332
  C  C977  1  0.238220  0.421450  0.881650  1.0  -0.0272
  C  C978  1  0.435700  0.618900  0.376400  1.0  0.7259
  C  C979  1  0.370400  0.488600  0.363700  1.0  -0.359
  C  C980  1  0.635250  0.618090  0.010820  1.0  0.0312
  C  C981  1  0.865650  0.451100  0.850000  1.0  -0.0227
  C  C982  1  0.231700  0.753100  0.022000  1.0  -0.1287
  C  C983  1  0.762600  0.472160  0.633100  1.0  -0.0894
  C  C984  1  0.694800  0.844050  0.486860  1.0  0.0361
  C  C985  1  0.004800  0.462900  0.907000  1.0  -0.3366
  C  C986  1  0.126100  0.491300  0.835300  1.0  0.0177
  C  C987  1  0.842920  0.379250  0.971770  1.0  0.0657
  C  C988  1  0.386750  0.447370  0.577000  1.0  0.011
  C  C989  1  0.765400  0.676900  0.617800  1.0  0.172
  C  C990  1  0.004800  0.093000  0.555900  1.0  -0.3372
  C  C991  1  0.253900  0.379000  0.116400  1.0  -0.3729
  C  C992  1  0.130600  0.127400  0.702600  1.0  -0.3614
  C  C993  1  0.133900  0.254400  0.462900  1.0  -0.3758
  C  C994  1  0.965000  0.422700  0.482200  1.0  -0.3754
  C  C995  1  0.246800  0.690200  0.737800  1.0  -0.0988
  C  C996  1  0.230000  0.958900  0.685000  1.0  0.0304
  C  C997  1  0.116800  0.024600  0.359500  1.0  -0.3729
  C  C998  1  0.564300  0.376400  0.618900  1.0  0.7249
  C  C999  1  0.701530  0.652730  0.122190  1.0  -0.0629
  C  C1000  1  0.273390  0.086510  0.625550  1.0  0.152
  C  C1001  1  0.165400  0.939900  0.327800  1.0  -0.3553
  C  C1002  1  0.803610  0.161840  0.519180  1.0  0.0548
  C  C1003  1  0.157080  0.620750  0.592520  1.0  0.0637
  C  C1004  1  0.737400  0.366900  0.527840  1.0  -0.0871
  C  C1005  1  0.675300  0.206700  0.670000  1.0  -0.3764
  C  C1006  1  0.113250  0.129630  0.577000  1.0  0.0109
  C  C1007  1  0.831470  0.006800  0.462940  1.0  0.229
  C  C1008  1  0.869950  0.437900  0.041060  1.0  -0.1018
  C  C1009  1  0.460600  0.552200  0.476200  1.0  0.2988
  C  C1010  1  0.064300  0.618900  0.242500  1.0  0.7268
  C  C1011  1  0.342920  0.620750  0.028230  1.0  0.0656
  C  C1012  1  0.381060  0.614200  0.422030  1.0  -0.15
  C  C1013  1  0.746800  0.737800  0.047600  1.0  -0.0996
  C  C1014  1  0.255050  0.084590  0.588470  1.0  0.2866
  C  C1015  1  0.284500  0.315600  0.113700  1.0  -0.3239
  C  C1016  1  0.797800  0.810800  0.408000  1.0  -0.3632
  C  C1017  1  0.535000  0.422700  0.940500  1.0  -0.3773
  C  C1018  1  0.175300  0.536700  0.206700  1.0  -0.3712
  C  C1019  1  0.431780  0.543030  0.118130  1.0  -0.0005
  C  C1020  1  0.297800  0.189200  0.592000  1.0  -0.3647
  C  C1021  1  0.333800  0.326500  0.521700  1.0  -0.3696
  C  C1022  1  0.731700  0.246900  0.978000  1.0  -0.1306
  C  C1023  1  0.108990  0.531380  0.418400  1.0  0.3668
  C  C1024  1  0.646690  0.562640  0.032250  1.0  0.0313
  C  C1025  1  0.175180  0.877880  0.372580  1.0  0.0569
  C  C1026  1  0.447190  0.839700  0.411800  1.0  -0.1051
  C  C1027  1  0.578170  0.410380  0.607700  1.0  -0.17
  C  C1028  1  0.633900  0.462900  0.208500  1.0  -0.3728
  C  C1029  1  0.196390  0.519180  0.161840  1.0  0.054
  C  C1030  1  0.734600  0.940900  0.617800  1.0  0.1689
  C  C1031  1  0.587020  0.626700  0.423600  1.0  -0.1471
  C  C1032  1  0.716200  0.657500  0.746800  1.0  0.2012
  C  C1033  1  0.068220  0.881870  0.456970  1.0  -0.0033
  C  C1034  1  0.175000  0.909200  0.634700  1.0  -0.3626
  C  C1035  1  0.196390  0.642660  0.480820  1.0  0.0573
  C  C1036  1  0.283800  0.342500  0.089300  1.0  0.2013
  C  C1037  1  0.713140  0.548330  0.394300  1.0  0.0599
  C  C1038  1  0.145800  0.531900  0.831700  1.0  0.1355
  C  C1039  1  0.765400  0.382200  0.059100  1.0  0.1681
  C  C1040  1  0.864750  0.618090  0.607270  1.0  0.0316
  C  C1041  1  0.342920  0.971770  0.592520  1.0  0.0645
  C  C1042  1  0.087020  0.373300  0.576400  1.0  -0.1445
  C  C1043  1  0.783800  0.657500  0.910700  1.0  0.1996
  C  C1044  1  0.213140  0.394300  0.845970  1.0  0.0604
  C  C1045  1  0.783800  0.089300  0.746800  1.0  0.2009
  C  C1046  1  0.261780  0.421450  0.539800  1.0  -0.0272
  C  C1047  1  0.803610  0.357340  0.838160  1.0  0.0561
  C  C1048  1  0.118200  0.466800  0.562300  1.0  0.0838
  C  C1049  1  0.784500  0.113700  0.798100  1.0  -0.3225
  C  C1050  1  0.744950  0.588470  0.084590  1.0  0.2918
  C  C1051  1  0.465000  0.940500  0.422700  1.0  -0.3728
  C  C1052  1  0.231700  0.978000  0.731100  1.0  -0.1279
  C  C1053  1  0.842920  0.028230  0.407480  1.0  0.0663
  C  C1054  1  0.539400  0.447800  0.924000  1.0  0.2994
  C  C1055  1  0.881060  0.422030  0.807830  1.0  -0.1554
  C  C1056  1  0.175000  0.365300  0.274500  1.0  -0.3601
  C  C1057  1  0.194800  0.357190  0.844050  1.0  0.0363
  C  C1058  1  0.608990  0.468620  0.581600  1.0  0.364
  C  C1059  1  0.460600  0.924000  0.447800  1.0  0.3052
  C  C1060  1  0.869400  0.424800  0.297400  1.0  -0.3633
  C  C1061  1  0.773390  0.460960  0.086510  1.0  0.1533
  C  C1062  1  0.773390  0.913490  0.374450  1.0  0.1522
  C  C1063  1  0.635250  0.392730  0.381910  1.0  0.0334
  C  C1064  1  0.166200  0.478300  0.673500  1.0  -0.3723
  C  C1065  1  0.168530  0.993200  0.456140  1.0  0.2295
  C  C1066  1  0.737400  0.472160  0.839060  1.0  -0.0882
  C  C1067  1  0.853310  0.562640  0.530390  1.0  0.0314
  C  C1068  1  0.168530  0.462940  0.006800  1.0  0.2243
  C  C1069  1  0.173720  0.589050  0.552010  1.0  -0.0086
  C  C1070  1  0.891010  0.112980  0.581600  1.0  0.3764
  C  C1071  1  0.824820  0.505300  0.627420  1.0  0.0594
  C  C1072  1  0.326280  0.962960  0.552010  1.0  -0.0086
  C  C1073  1  0.768300  0.246900  0.268900  1.0  -0.1282
  C  C1074  1  0.104400  0.202000  0.662800  1.0  -0.0993
  C  C1075  1  0.630580  0.613100  0.484600  1.0  0.2943
  C  C1076  1  0.912980  0.626700  0.203100  1.0  -0.1467
  C  C1077  1  0.745200  0.956500  0.193000  1.0  0.5278
  C  C1078  1  0.825000  0.274500  0.365300  1.0  -0.3583
  C  C1079  1  0.231700  0.268900  0.246900  1.0  -0.1277
  C  C1080  1  0.873900  0.508700  0.344000  1.0  0.0183
  C  C1081  1  0.675300  0.330000  0.536700  1.0  -0.3728
  C  C1082  1  0.108990  0.887020  0.468620  1.0  0.3769
  C  C1083  1  0.239900  0.681100  0.015800  1.0  0.3795
  C  C1084  1  0.334600  0.387900  0.327800  1.0  -0.3592
  C  C1085  1  0.550800  0.046000  0.536400  1.0  -0.3924
  C  C1086  1  0.869400  0.872600  0.575200  1.0  -0.3624
  C  C1087  1  0.305200  0.155950  0.642810  1.0  0.0342
  C  C1088  1  0.949200  0.490400  0.536400  1.0  -0.3903
  C  C1089  1  0.784500  0.201900  0.315600  1.0  -0.3228
  C  C1090  1  0.215500  0.315600  0.201900  1.0  -0.3238
  C  C1091  1  0.284500  0.886300  0.201900  1.0  -0.3221
  C  C1092  1  0.629600  0.511400  0.875100  1.0  -0.3591
  C  C1093  1  0.113250  0.447370  0.870370  1.0  0.0109
  C  C1094  1  0.324820  0.494700  0.372580  1.0  0.0598
  C  C1095  1  0.797800  0.592000  0.402800  1.0  -0.3612
  C  C1096  1  0.798470  0.652730  0.530540  1.0  -0.0623
  C  C1097  1  0.216200  0.910700  0.657500  1.0  0.2015
  C  C1098  1  0.730000  0.685000  0.726100  1.0  0.0311
  C  C1099  1  0.194970  0.478890  0.081500  1.0  -0.0158
  C  C1100  1  0.395600  0.202000  0.539200  1.0  -0.1012
  C  C1101  1  0.168530  0.543860  0.537060  1.0  0.229
  C  C1102  1  0.633900  0.745600  0.537100  1.0  -0.3763
  C  C1103  1  0.408530  0.166900  0.583000  1.0  -0.1375
  C  C1104  1  0.333800  0.478300  0.804800  1.0  -0.372
  C  C1105  1  0.194800  0.155950  0.513140  1.0  0.0354
  C  C1106  1  0.126100  0.344000  0.508700  1.0  0.0184
  C  C1107  1  0.731700  0.022000  0.268900  1.0  -0.1277
  C  C1108  1  0.331470  0.462940  0.456140  1.0  0.2238
  C  C1109  1  0.104400  0.337200  0.539200  1.0  -0.0951
  C  C1110  1  0.702200  0.592000  0.189200  1.0  -0.3664
  C  C1111  1  0.886750  0.870370  0.447370  1.0  0.0112
  C  C1112  1  0.578170  0.197320  0.589620  1.0  -0.17
  C  C1113  1  0.618940  0.385800  0.807830  1.0  -0.1544
  C  C1114  1  0.737400  0.160940  0.633100  1.0  -0.0879
  C  C1115  1  0.935700  0.376400  0.757500  1.0  0.7257
  C  C1116  1  0.891010  0.468620  0.887020  1.0  0.3628
  C  C1117  1  0.175180  0.627420  0.505300  1.0  0.0568
  C  C1118  1  0.770000  0.685000  0.958900  1.0  0.0308
  C  C1119  1  0.634350  0.398900  0.850000  1.0  -0.0249
  C  C1120  1  0.692100  0.470700  0.167300  1.0  -0.3718
  C  C1121  1  0.412980  0.203100  0.576400  1.0  -0.1462
  C  C1122  1  0.353310  0.032250  0.562640  1.0  0.0314
  C  C1123  1  0.260100  0.334700  0.015800  1.0  0.3795
  C  C1124  1  0.235980  0.593050  0.512450  1.0  0.2904
  C  C1125  1  0.931780  0.424900  0.543030  1.0  -0.0032
  C  C1126  1  0.386750  0.423000  0.870370  1.0  0.0119
  C  C1127  1  0.608990  0.112980  0.531380  1.0  0.3743
  C  C1128  1  0.757200  0.120330  0.608290  1.0  -0.0076
  C  C1129  1  0.939000  0.757100  0.387100  1.0  0.6519
  C  C1130  1  0.118200  0.437700  0.904500  1.0  0.0858
  C  C1131  1  0.616800  0.975400  0.640500  1.0  -0.3761
  C  C1132  1  0.201530  0.530540  0.652730  1.0  -0.066
  C  C1133  1  0.177600  0.609600  0.149800  1.0  0.1063
  C  C1134  1  0.061000  0.387100  0.757100  1.0  0.6521
  C  C1135  1  0.305200  0.357190  0.513140  1.0  0.0358
  C  C1136  1  0.447190  0.588200  0.427900  1.0  -0.1071
  C  C1137  1  0.673720  0.552010  0.962960  1.0  -0.0088
  C  C1138  1  0.770000  0.273900  0.315000  1.0  0.0353
  C  C1139  1  0.886750  0.577000  0.129630  1.0  0.0096
  C  C1140  1  0.366100  0.537100  0.745600  1.0  -0.3731
  C  C1141  1  0.822400  0.459800  0.850200  1.0  0.107
  C  C1142  1  0.449200  0.509600  0.463600  1.0  -0.3902
  C  C1143  1  0.078170  0.802680  0.410380  1.0  -0.1704
  C  C1144  1  0.126100  0.164700  0.656000  1.0  0.0159
  C  C1145  1  0.039400  0.552200  0.076000  1.0  0.3033
  C  C1146  1  0.665400  0.060100  0.672200  1.0  -0.3536
  C  C1147  1  0.616800  0.359500  0.334900  1.0  -0.3756
  C  C1148  1  0.235980  0.919400  0.406950  1.0  0.2875
  C  C1149  1  0.673720  0.037040  0.589050  1.0  -0.0089
  C  C1150  1  0.677600  0.149800  0.540200  1.0  0.1037
  C  C1151  1  0.864750  0.989180  0.381910  1.0  0.0357
  C  C1152  1  0.307900  0.529300  0.696600  1.0  -0.3734
  C  C1153  1  0.873900  0.656000  0.164700  1.0  0.0177
  C  C1154  1  0.061000  0.242900  0.630000  1.0  0.6516
  C  C1155  1  0.104400  0.460800  0.798000  1.0  -0.0935
  C  C1156  1  0.435700  0.623600  0.242500  1.0  0.7259
  C  C1157  1  0.234600  0.323100  0.940900  1.0  0.1726
  C  C1158  1  0.331470  0.993200  0.537060  1.0  0.2289
  C  C1159  1  0.744950  0.496120  0.411530  1.0  0.2862
  C  C1160  1  0.050800  0.954000  0.463600  1.0  -0.3928
  C  C1161  1  0.134350  0.850000  0.451100  1.0  -0.0239
  C  C1162  1  0.373900  0.344000  0.835300  1.0  0.0184
  C  C1163  1  0.243300  0.022300  0.757500  1.0  -0.0739
  C  C1164  1  0.268300  0.753100  0.731100  1.0  -0.1268
  C  C1165  1  0.834600  0.327800  0.939900  1.0  -0.3544
  C  C1166  1  0.412980  0.373300  0.796900  1.0  -0.149
  C  C1167  1  0.091470  0.417000  0.833100  1.0  -0.1326
  C  C1168  1  0.130580  0.128500  0.613100  1.0  0.2913
  C  C1169  1  0.244950  0.084590  0.496120  1.0  0.2879
  C  C1170  1  0.273390  0.539040  0.913490  1.0  0.1523
  C  C1171  1  0.253900  0.883600  0.262600  1.0  -0.3733
  C  C1172  1  0.756700  0.977700  0.735200  1.0  -0.0732
  C  C1173  1  0.395600  0.460800  0.662800  1.0  -0.0961
  C  C1174  1  0.129600  0.488600  0.124900  1.0  -0.3591
  C  C1175  1  0.270000  0.315000  0.041100  1.0  0.0338
  C  C1176  1  0.326280  0.447990  0.410950  1.0  -0.0085
  C  C1177  1  0.635250  0.989180  0.607270  1.0  0.0332
  C  C1178  1  0.165400  0.672200  0.612100  1.0  -0.3534
  C  C1179  1  0.237400  0.839060  0.366900  1.0  -0.0876
  C  C1180  1  0.765400  0.940900  0.323100  1.0  0.171
  C  C1181  1  0.995200  0.537100  0.444100  1.0  -0.3387
  C  C1182  1  0.091470  0.416100  0.583000  1.0  -0.1322
  C  C1183  1  0.881800  0.562300  0.466800  1.0  0.0851
  C  C1184  1  0.746100  0.262600  0.883600  1.0  -0.3703
  C  C1185  1  0.552810  0.427900  0.588200  1.0  -0.1067
  C  C1186  1  0.757200  0.391710  0.512040  1.0  -0.0074
  C  C1187  1  0.381800  0.437700  0.533200  1.0  0.0844
  C  C1188  1  0.753200  0.952400  0.262200  1.0  -0.0953
  C  C1189  1  0.381800  0.466800  0.904500  1.0  0.0828
  C  C1190  1  0.657080  0.028230  0.620750  1.0  0.0651
  C  C1191  1  0.715500  0.684400  0.798100  1.0  -0.324
  C  C1192  1  0.369420  0.128500  0.515400  1.0  0.2915
  C  C1193  1  0.068220  0.575100  0.118130  1.0  -0.0032
  C  C1194  1  0.264020  0.593050  0.080600  1.0  0.2894
  C  C1195  1  0.618200  0.533200  0.437700  1.0  0.0848
  C  C1196  1  0.286860  0.451670  0.845970  1.0  0.0613
  C  C1197  1  0.239900  0.984200  0.665300  1.0  0.3809
  C  C1198  1  0.675180  0.372580  0.494700  1.0  0.057
  C  C1199  1  0.248500  0.308300  0.971500  1.0  -0.0433
  C  C1200  1  0.715500  0.201900  0.886300  1.0  -0.3237
  C  C1201  1  0.730000  0.273900  0.958900  1.0  0.0361
  C  C1202  1  0.052810  0.588200  0.160300  1.0  -0.1084
  C  C1203  1  0.762600  0.160940  0.527840  1.0  -0.0879
  C  C1204  1  0.133900  0.208500  0.745600  1.0  -0.3731
  C  C1205  1  0.226610  0.539040  0.625550  1.0  0.1506
  C  C1206  1  0.869420  0.613100  0.128500  1.0  0.2949
  C  C1207  1  0.869420  0.871500  0.484600  1.0  0.2906
  C  C1208  1  0.883200  0.975400  0.334900  1.0  -0.3753
  C  C1209  1  0.881060  0.385800  0.577970  1.0  -0.1531
  C  C1210  1  0.035000  0.577300  0.059500  1.0  -0.3728
  C  C1211  1  0.245200  0.043500  0.807000  1.0  0.5267
  C  C1212  1  0.960600  0.447800  0.523800  1.0  0.302
  C  C1213  1  0.135250  0.607270  0.618090  1.0  0.0324
  C  C1214  1  0.366100  0.254400  0.791500  1.0  -0.3772
  C  C1215  1  0.039400  0.523800  0.447800  1.0  0.3066
  C  C1216  1  0.935700  0.381100  0.623600  1.0  0.7261
  C  C1217  1  0.869950  0.603160  0.562100  1.0  -0.1027
  C  C1218  1  0.539400  0.476200  0.552200  1.0  0.3076
  C  C1219  1  0.745200  0.807000  0.763500  1.0  0.5239
  C  C1220  1  0.587020  0.576400  0.203100  1.0  -0.1441
  C  C1221  1  0.064300  0.623600  0.381100  1.0  0.7248
  C  C1222  1  0.303610  0.642660  0.161840  1.0  0.0566
  C  C1223  1  0.753900  0.116400  0.737400  1.0  -0.3733
  C  C1224  1  0.369950  0.562100  0.958940  1.0  -0.1016
  C  C1225  1  0.268300  0.978000  0.246900  1.0  -0.1258
  C  C1226  1  0.754800  0.807000  0.043500  1.0  0.5244
  C  C1227  1  0.369400  0.575200  0.702600  1.0  -0.3636
  C  C1228  1  0.202200  0.408000  0.810800  1.0  -0.3654
  C  C1229  1  0.322400  0.540200  0.149800  1.0  0.1045
  C  C1230  1  0.755050  0.588470  0.503880  1.0  0.2861
  C  C1231  1  0.550800  0.490400  0.954000  1.0  -0.3913
  C  C1232  1  0.342920  0.407480  0.379250  1.0  0.0665
  C  C1233  1  0.939000  0.630000  0.242900  1.0  0.653
  C  C1234  1  0.696390  0.480820  0.838160  1.0  0.0536
  C  C1235  1  0.805200  0.642810  0.486860  1.0  0.0344
  C  C1236  1  0.825000  0.090800  0.725500  1.0  -0.3603
  C  C1237  1  0.265400  0.059100  0.676900  1.0  0.1726
  C  C1238  1  0.078170  0.607700  0.197320  1.0  -0.1712
  C  C1239  1  0.270000  0.958900  0.273900  1.0  0.0307
  C  C1240  1  0.157080  0.971770  0.379250  1.0  0.0669
  C  C1241  1  0.842920  0.592520  0.620750  1.0  0.0643
  C  C1242  1  0.146690  0.530390  0.562640  1.0  0.0312
  C  C1243  1  0.626100  0.508700  0.164700  1.0  0.0179
  C  C1244  1  0.995200  0.907000  0.462900  1.0  -0.3384
  C  C1245  1  0.251500  0.028500  0.691700  1.0  -0.0455
  C  C1246  1  0.965000  0.517800  0.940500  1.0  -0.3741
  C  C1247  1  0.869950  0.958940  0.396840  1.0  -0.103
  C  C1248  1  0.895600  0.539200  0.337200  1.0  -0.1004
  C  C1249  1  0.087020  0.203100  0.626700  1.0  -0.1448
  C  C1250  1  0.253200  0.047600  0.737800  1.0  -0.0958
  C  C1251  1  0.165400  0.387900  0.060100  1.0  -0.3611
  C  C1252  1  0.869420  0.515400  0.386900  1.0  0.2916
  C  C1253  1  0.230000  0.726100  0.041100  1.0  0.0342
  C  C1254  1  0.052810  0.572100  0.411800  1.0  -0.1047
  C  C1255  1  0.960600  0.076000  0.552200  1.0  0.3065
  C  C1256  1  0.754800  0.236500  0.193000  1.0  0.5278
  C  C1257  1  0.325000  0.365300  0.090800  1.0  -0.3587
  C  C1258  1  0.702200  0.597200  0.408000  1.0  -0.3622
  C  C1259  1  0.495200  0.093000  0.537100  1.0  -0.339
  C  C1260  1  0.634350  0.150000  0.548900  1.0  -0.0226
  C  C1261  1  0.854200  0.468100  0.299800  1.0  0.1373
  C  C1262  1  0.755050  0.496120  0.084590  1.0  0.2913
  C  C1263  1  0.373900  0.164700  0.508700  1.0  0.0171
  C  C1264  1  0.324700  0.670000  0.206700  1.0  -0.3738
  C  C1265  1  0.439000  0.387100  0.630000  1.0  0.6507
  C  C1266  1  0.244950  0.411530  0.915410  1.0  0.2905
  C  C1267  1  0.675000  0.090800  0.365300  1.0  -0.3606
  C  C1268  1  0.608990  0.418400  0.887020  1.0  0.369
  C  C1269  1  0.677600  0.459800  0.609600  1.0  0.1034
  C  C1270  1  0.630600  0.702600  0.575200  1.0  -0.3585
  C  C1271  1  0.645800  0.831700  0.299800  1.0  0.1377
  C  C1272  1  0.256700  0.242500  0.977700  1.0  -0.0746
  C  C1273  1  0.245200  0.763500  0.956500  1.0  0.5265
  C  C1274  1  0.194970  0.602610  0.521110  1.0  -0.0165
  C  C1275  1  0.761780  0.578550  0.460200  1.0  -0.0287
  C  C1276  1  0.613250  0.552630  0.129630  1.0  0.0111
  C  C1277  1  0.773390  0.625550  0.539040  1.0  0.1495
  C  C1278  1  0.895600  0.798000  0.460800  1.0  -0.0999
  C  C1279  1  0.613250  0.870370  0.423000  1.0  0.0119
  C  C1280  1  0.242800  0.879670  0.487960  1.0  -0.0088
  C  C1281  1  0.746100  0.116400  0.379000  1.0  -0.3724
  C  C1282  1  0.373900  0.491300  0.656000  1.0  0.0182
  C  C1283  1  0.257200  0.608290  0.487960  1.0  -0.0065
  C  C1284  1  0.908530  0.583900  0.166900  1.0  -0.1355
  C  C1285  1  0.354200  0.531900  0.700200  1.0  0.1368
  C  C1286  1  0.068220  0.543030  0.424900  1.0  -0.002
  C  C1287  1  0.677600  0.390400  0.850200  1.0  0.1046
  C  C1288  1  0.391010  0.581600  0.468620  1.0  0.3686
  C  C1289  1  0.254800  0.043500  0.236500  1.0  0.527
  C  C1290  1  0.578170  0.392300  0.802680  1.0  -0.1728
  C  C1291  1  0.369420  0.386900  0.871500  1.0  0.2945
  C  C1292  1  0.135250  0.381910  0.989180  1.0  0.0314
  C  C1293  1  0.383200  0.334900  0.359500  1.0  -0.3724
  C  C1294  1  0.564300  0.242500  0.623600  1.0  0.7245
  C  C1295  1  0.626100  0.835300  0.344000  1.0  0.0182
  C  C1296  1  0.213140  0.451670  0.605700  1.0  0.059
  C  C1297  1  0.133900  0.537100  0.791500  1.0  -0.3703
  C  C1298  1  0.742800  0.391710  0.879670  1.0  -0.0075
  C  C1299  1  0.995200  0.555900  0.093000  1.0  -0.3408
  C  C1300  1  0.366100  0.208500  0.462900  1.0  -0.373
  C  C1301  1  0.831470  0.537060  0.543860  1.0  0.2235
  C  C1302  1  0.805200  0.844050  0.357190  1.0  0.0358
  C  C1303  1  0.613250  0.577000  0.447370  1.0  0.0111
  C  C1304  1  0.370400  0.875100  0.511400  1.0  -0.3581
  C  C1305  1  0.618940  0.422030  0.614200  1.0  -0.1517
  C  C1306  1  0.931780  0.118130  0.575100  1.0  -0.0023
  C  C1307  1  0.616800  0.665100  0.024600  1.0  -0.3747
  C  C1308  1  0.215500  0.886300  0.684400  1.0  -0.3231
  C  C1309  1  0.262600  0.527840  0.366900  1.0  -0.0868
  C  C1310  1  0.870400  0.511400  0.636300  1.0  -0.3595
  C  C1311  1  0.431780  0.575100  0.456970  1.0  -0.0022
  C  C1312  1  0.713140  0.605700  0.154030  1.0  0.0619
  C  C1313  1  0.751500  0.971500  0.308300  1.0  -0.0463
  C  C1314  1  0.734600  0.676900  0.059100  1.0  0.1717
  C  C1315  1  0.881800  0.533200  0.095500  1.0  0.0837
  C  C1316  1  0.748500  0.971500  0.663200  1.0  -0.0456
  C  C1317  1  0.864750  0.392730  0.010820  1.0  0.0333
  C  C1318  1  0.931780  0.456970  0.881870  1.0  0.0018
  C  C1319  1  0.273390  0.374450  0.460960  1.0  0.1506
  C  C1320  1  0.618940  0.192170  0.577970  1.0  -0.1515
  C  C1321  1  0.630050  0.958940  0.562100  1.0  -0.1005
  C  C1322  1  0.166200  0.195200  0.521700  1.0  -0.3694
  C  C1323  1  0.561000  0.757100  0.370000  1.0  0.6524
  C  C1324  1  0.369400  0.297400  0.872600  1.0  -0.3578
  C  C1325  1  0.118940  0.614200  0.192170  1.0  -0.1528
  C  C1326  1  0.853310  0.967750  0.437360  1.0  0.0338
  C  C1327  1  0.303610  0.519180  0.357340  1.0  0.0533
  C  C1328  1  0.738220  0.539800  0.421450  1.0  -0.0278
  C  C1329  1  0.833800  0.521700  0.195200  1.0  -0.3725
  C  C1330  1  0.768300  0.731100  0.978000  1.0  -0.1262
  C  C1331  1  0.298470  0.122190  0.652730  1.0  -0.0626
  C  C1332  1  0.694800  0.642810  0.155950  1.0  0.0355
  C  C1333  1  0.666200  0.804800  0.478300  1.0  -0.3716
  C  C1334  1  0.369400  0.127400  0.424800  1.0  -0.3616
  C  C1335  1  0.333800  0.195200  0.673500  1.0  -0.3717
  C  C1336  1  0.439000  0.370000  0.757100  1.0  0.6532
  C  C1337  1  0.746800  0.952400  0.690200  1.0  -0.1013
  C  C1338  1  0.254800  0.763500  0.807000  1.0  0.5254
  C  C1339  1  0.675000  0.634700  0.725500  1.0  -0.3605
  C  C1340  1  0.826280  0.552010  0.589050  1.0  -0.0084
  C  C1341  1  0.256700  0.022300  0.264800  1.0  -0.0757
  C  C1342  1  0.246800  0.262200  0.952400  1.0  -0.0992
  C  C1343  1  0.561000  0.630000  0.387100  1.0  0.6532
  C  C1344  1  0.395600  0.337200  0.798000  1.0  -0.0957
  C  C1345  1  0.646690  0.469610  0.437360  1.0  0.0314
  C  C1346  1  0.604400  0.662800  0.460800  1.0  -0.0987
  C  C1347  1  0.284500  0.798100  0.684400  1.0  -0.3229
  C  C1348  1  0.764020  0.406950  0.919400  1.0  0.2959
  C  C1349  1  0.237400  0.527840  0.160940  1.0  -0.0859
  C  C1350  1  0.692100  0.696600  0.529300  1.0  -0.3693
  C  C1351  1  0.629600  0.124900  0.636300  1.0  -0.3598
  C  C1352  1  0.253900  0.737400  0.621000  1.0  -0.3702
  C  C1353  1  0.665400  0.612100  0.939900  1.0  -0.3594
  C  C1354  1  0.665400  0.327800  0.387900  1.0  -0.3554
  C  C1355  1  0.297800  0.408000  0.597200  1.0  -0.3657
  C  C1356  1  0.921830  0.410380  0.802680  1.0  -0.173
  C  C1357  1  0.297800  0.402800  0.810800  1.0  -0.3644
  C  C1358  1  0.726610  0.460960  0.374450  1.0  0.1523
  C  C1359  1  0.753200  0.737800  0.690200  1.0  -0.0981
  C  C1360  1  0.365650  0.548900  0.150000  1.0  -0.0264
  C  C1361  1  0.756700  0.757500  0.022300  1.0  -0.074
  C  C1362  1  0.646690  0.967750  0.530390  1.0  0.0357
  C  C1363  1  0.645800  0.700200  0.531900  1.0  0.1355
  C  C1364  1  0.824700  0.463300  0.670000  1.0  -0.3718
  C  C1365  1  0.797800  0.597200  0.189200  1.0  -0.3663
  C  C1366  1  0.298470  0.530540  0.877810  1.0  -0.0664
  C  C1367  1  0.883200  0.665100  0.640500  1.0  -0.3756
  C  C1368  1  0.869400  0.702600  0.127400  1.0  -0.3604
  C  C1369  1  0.365650  0.850000  0.398900  1.0  -0.0234
  C  C1370  1  0.447190  0.572100  0.160300  1.0  -0.1049
  C  C1371  1  0.731700  0.731100  0.753100  1.0  -0.1279
  C  C1372  1  0.751500  0.691700  0.663200  1.0  -0.0427
  C  C1373  1  0.265400  0.323100  0.382200  1.0  0.1696
  C  C1374  1  0.726610  0.913490  0.539040  1.0  0.1522
  C  C1375  1  0.784500  0.684400  0.886300  1.0  -0.3225
  C  C1376  1  0.939000  0.612900  0.370000  1.0  0.6528
  C  C1377  1  0.264020  0.487550  0.406950  1.0  0.2887
  C  C1378  1  0.465000  0.482200  0.059500  1.0  -0.3769
  C  C1379  1  0.743300  0.757500  0.735200  1.0  -0.074
  C  C1380  1  0.702200  0.810800  0.402800  1.0  -0.3632
  C  C1381  1  0.694970  0.521110  0.918500  1.0  -0.0168
  C  C1382  1  0.726610  0.625550  0.086510  1.0  0.1503
  C  C1383  1  0.495200  0.444100  0.907000  1.0  -0.3397
  C  C1384  1  0.912980  0.796900  0.423600  1.0  -0.1464
  C  C1385  1  0.408530  0.417000  0.583900  1.0  -0.1355
  C  C1386  1  0.253200  0.690200  0.952400  1.0  -0.0912
  C  C1387  1  0.739900  0.318900  0.984200  1.0  0.3774
  C  C1388  1  0.326280  0.589050  0.037040  1.0  -0.0089
  C  C1389  1  0.130600  0.297400  0.424800  1.0  -0.3605
  C  C1390  1  0.116800  0.640500  0.665100  1.0  -0.3749
  C  C1391  1  0.386750  0.129630  0.552630  1.0  0.0113
  C  C1392  1  0.118940  0.807830  0.422030  1.0  -0.1558
  C  C1393  1  0.552810  0.411800  0.839700  1.0  -0.1084
  C  C1394  1  0.591470  0.583000  0.166900  1.0  -0.132
  C  C1395  1  0.866100  0.745600  0.208500  1.0  -0.3783
  C  C1396  1  0.630580  0.515400  0.128500  1.0  0.2926
  C  C1397  1  0.334600  0.939900  0.612100  1.0  -0.3541
  C  C1398  1  0.822400  0.390400  0.540200  1.0  0.1039
  C  C1399  1  0.504800  0.907000  0.444100  1.0  -0.3379
  C  C1400  1  0.865650  0.150000  0.601100  1.0  -0.0244
  C  C1401  1  0.192100  0.167300  0.696600  1.0  -0.3712
  C  C1402  1  0.805030  0.521110  0.602610  1.0  -0.0163
  C  C1403  1  0.118940  0.577970  0.385800  1.0  -0.1542
  C  C1404  1  0.305200  0.486860  0.844050  1.0  0.0338
  C  C1405  1  0.307900  0.303400  0.832700  1.0  -0.3744
  C  C1406  1  0.824820  0.122120  0.494700  1.0  0.0599
  C  C1407  1  0.564300  0.381100  0.757500  1.0  0.7263
  C  C1408  1  0.431780  0.881870  0.424900  1.0  -0.0035
  C  C1409  1  0.756700  0.264800  0.242500  1.0  -0.0726
  C  C1410  1  0.324820  0.877880  0.505300  1.0  0.058
  C  C1411  1  0.764020  0.512450  0.593050  1.0  0.2887
  C  C1412  1  0.237400  0.633100  0.472160  1.0  -0.0872
  C  C1413  1  0.234600  0.617800  0.676900  1.0  0.1709
  C  C1414  1  0.146690  0.032250  0.469610  1.0  0.0318
  C  C1415  1  0.552810  0.160300  0.572100  1.0  -0.1061
  C  C1416  1  0.947190  0.160300  0.588200  1.0  -0.1042
  C  C1417  1  0.561000  0.612900  0.242900  1.0  0.6523
  C  C1418  1  0.087020  0.423600  0.796900  1.0  -0.1479
  C  C1419  1  0.803610  0.480820  0.642660  1.0  0.0522
  C  C1420  1  0.130580  0.484600  0.871500  1.0  0.2912
  C  C1421  1  0.825000  0.634700  0.909200  1.0  -0.3578
  C  C1422  1  0.201530  0.347270  0.877810  1.0  -0.0625
  C  C1423  1  0.883200  0.359500  0.024600  1.0  -0.3761
  C  C1424  1  0.668530  0.006800  0.543860  1.0  0.2268
  C  C1425  1  0.746800  0.309800  0.262200  1.0  -0.0908
  C  C1426  1  0.230000  0.315000  0.273900  1.0  0.0322
  C  C1427  1  0.113250  0.423000  0.552630  1.0  0.0103
  C  C1428  1  0.768300  0.022000  0.753100  1.0  -0.1253
  C  C1429  1  0.251500  0.308300  0.336800  1.0  -0.0435
  C  C1430  1  0.694970  0.397390  0.478890  1.0  -0.0166
  C  C1431  1  0.408530  0.416100  0.833100  1.0  -0.1347
  C  C1432  1  0.303610  0.838160  0.480820  1.0  0.0536
  C  C1433  1  0.761780  0.881650  0.421450  1.0  -0.028
  C  C1434  1  0.735980  0.512450  0.919400  1.0  0.2956
  C  C1435  1  0.177600  0.850200  0.459800  1.0  0.1011
  C  C1436  1  0.568220  0.424900  0.881870  1.0  -0.0037
  C  C1437  1  0.239900  0.334700  0.318900  1.0  0.3789
  C  C1438  1  0.798470  0.469460  0.122190  1.0  -0.0651
  C  C1439  1  0.130050  0.041060  0.437900  1.0  -0.1012
  C  C1440  1  0.786860  0.548330  0.154030  1.0  0.0604
  C  C1441  1  0.216200  0.342500  0.253200  1.0  0.1998
  C  C1442  1  0.587020  0.796900  0.373300  1.0  -0.1462
  C  C1443  1  0.050800  0.536400  0.490400  1.0  -0.3941
  C  C1444  1  0.216200  0.746800  0.089300  1.0  0.1997
  C  C1445  1  0.035000  0.482200  0.422700  1.0  -0.3767
  C  C1446  1  0.854200  0.700200  0.168300  1.0  0.1362
  C  C1447  1  0.760100  0.015800  0.681100  1.0  0.3798
  C  C1448  1  0.947190  0.411800  0.572100  1.0  -0.1067
  C  C1449  1  0.244950  0.503880  0.588470  1.0  0.2935
  C  C1450  1  0.754800  0.956500  0.763500  1.0  0.5295
  C  C1451  1  0.807900  0.832700  0.529300  1.0  -0.3745
  C  C1452  1  0.192100  0.529300  0.832700  1.0  -0.3734
  C  C1453  1  0.130580  0.386900  0.515400  1.0  0.2952
  C  C1454  1  0.135250  0.010820  0.392730  1.0  0.0353
  C  C1455  1  0.268300  0.268900  0.022000  1.0  -0.126
  C  C1456  1  0.757200  0.487960  0.879670  1.0  -0.0081
  C  C1457  1  0.701530  0.877810  0.530540  1.0  -0.0642
  C  C1458  1  0.364750  0.381910  0.392730  1.0  0.031
  C  C1459  1  0.381800  0.095500  0.562300  1.0  0.0848
  C  C1460  1  0.256700  0.735200  0.757500  1.0  -0.0728
  C  C1461  1  0.201530  0.122190  0.469460  1.0  -0.0649
  C  C1462  1  0.742800  0.120330  0.512040  1.0  -0.0062
  N  N1463  1  0.359170  0.455600  0.517600  1.0  -0.3484
  N  N1464  1  0.140830  0.062000  0.517600  1.0  -0.3457
  N  N1465  1  0.699230  0.402100  0.884320  1.0  -0.3656
  N  N1466  1  0.859170  0.938000  0.455600  1.0  -0.3482
  N  N1467  1  0.800770  0.115680  0.597900  1.0  -0.3633
  N  N1468  1  0.199230  0.884320  0.482220  1.0  -0.3628
  N  N1469  1  0.859170  0.517600  0.062000  1.0  -0.3484
  N  N1470  1  0.859170  0.544400  0.482400  1.0  -0.3487
  N  N1471  1  0.199230  0.517780  0.402100  1.0  -0.3675
  N  N1472  1  0.140830  0.482400  0.544400  1.0  -0.3477
  N  N1473  1  0.739200  0.946500  0.582800  1.0  -0.3487
  N  N1474  1  0.739200  0.636300  0.053500  1.0  -0.3496
  N  N1475  1  0.239200  0.053500  0.417200  1.0  -0.349
  N  N1476  1  0.239200  0.582800  0.636300  1.0  -0.3499
  N  N1477  1  0.699230  0.482220  0.597900  1.0  -0.3662
  N  N1478  1  0.140830  0.455600  0.938000  1.0  -0.3477
  N  N1479  1  0.640830  0.938000  0.482400  1.0  -0.3474
  N  N1480  1  0.699230  0.115680  0.517780  1.0  -0.3638
  N  N1481  1  0.800770  0.482220  0.884320  1.0  -0.3687
  N  N1482  1  0.760800  0.636300  0.582800  1.0  -0.3489
  N  N1483  1  0.359170  0.482400  0.938000  1.0  -0.3478
  N  N1484  1  0.359170  0.062000  0.544400  1.0  -0.3481
  N  N1485  1  0.300770  0.597900  0.482220  1.0  -0.3664
  N  N1486  1  0.300770  0.517780  0.115680  1.0  -0.3672
  N  N1487  1  0.640830  0.544400  0.062000  1.0  -0.3467
  N  N1488  1  0.260800  0.053500  0.636300  1.0  -0.3494
  N  N1489  1  0.739200  0.417200  0.363700  1.0  -0.3485
  N  N1490  1  0.199230  0.597900  0.115680  1.0  -0.366
  N  N1491  1  0.640830  0.517600  0.455600  1.0  -0.3468
  N  N1492  1  0.800770  0.402100  0.517780  1.0  -0.3668
  N  N1493  1  0.260800  0.363700  0.417200  1.0  -0.3483
  N  N1494  1  0.300770  0.884320  0.402100  1.0  -0.3651
  N  N1495  1  0.239200  0.363700  0.946500  1.0  -0.3481
  N  N1496  1  0.260800  0.582800  0.946500  1.0  -0.3488
  N  N1497  1  0.760800  0.417200  0.053500  1.0  -0.3495
  N  N1498  1  0.760800  0.946500  0.363700  1.0  -0.3483
  O  O1499  1  0.311990  0.499640  0.488960  1.0  -0.7856
  O  O1500  1  0.031900  0.644000  0.399300  1.0  -0.6749
  O  O1501  1  0.234800  0.183400  0.980800  1.0  -0.4827
  O  O1502  1  0.651800  0.904480  0.387700  1.0  -0.5835
  O  O1503  1  0.743120  0.431010  0.957760  1.0  -0.8016
  O  O1504  1  0.266100  0.747000  0.830600  1.0  -0.493
  O  O1505  1  0.328100  0.426360  0.003160  1.0  -0.7778
  O  O1506  1  0.151800  0.516780  0.904480  1.0  -0.5862
  O  O1507  1  0.968100  0.356000  0.755300  1.0  -0.6751
  O  O1508  1  0.938800  0.669200  0.271200  1.0  -0.6592
  O  O1509  1  0.265200  0.797400  0.980800  1.0  -0.4763
  O  O1510  1  0.731680  0.951730  0.437880  1.0  -0.7749
  O  O1511  1  0.945800  0.646700  0.401300  1.0  -0.5507
  O  O1512  1  0.084650  0.632030  0.357800  1.0  -0.5523
  O  O1513  1  0.554200  0.646700  0.245400  1.0  -0.5515
  O  O1514  1  0.671900  0.423200  0.996840  1.0  -0.7786
  O  O1515  1  0.231680  0.048270  0.562120  1.0  -0.7766
  O  O1516  1  0.915350  0.274230  0.642200  1.0  -0.5533
  O  O1517  1  0.031900  0.600700  0.244700  1.0  -0.675
  O  O1518  1  0.378500  0.506500  0.072600  1.0  -0.5956
  O  O1519  1  0.268320  0.513850  0.562120  1.0  -0.7751
  O  O1520  1  0.415350  0.642200  0.367970  1.0  -0.5525
  O  O1521  1  0.233900  0.169400  0.253000  1.0  -0.5021
  O  O1522  1  0.621500  0.072600  0.506500  1.0  -0.5939
  O  O1523  1  0.061200  0.330800  0.602000  1.0  -0.6584
  O  O1524  1  0.554200  0.598700  0.353300  1.0  -0.5503
  O  O1525  1  0.256880  0.957760  0.431010  1.0  -0.8005
  O  O1526  1  0.188010  0.499640  0.010680  1.0  -0.7866
  O  O1527  1  0.348200  0.095520  0.483220  1.0  -0.5802
  O  O1528  1  0.828100  0.573640  0.996840  1.0  -0.7773
  O  O1529  1  0.256880  0.568990  0.526750  1.0  -0.8016
  O  O1530  1  0.445800  0.401300  0.754600  1.0  -0.5498
  O  O1531  1  0.121500  0.927400  0.493500  1.0  -0.5966
  O  O1532  1  0.121500  0.566100  0.072600  1.0  -0.6001
  O  O1533  1  0.243120  0.568990  0.042240  1.0  -0.8023
  O  O1534  1  0.268320  0.048270  0.486150  1.0  -0.7764
  O  O1535  1  0.584650  0.367970  0.642200  1.0  -0.5523
  O  O1536  1  0.531900  0.244700  0.644000  1.0  -0.6753
  O  O1537  1  0.445800  0.245400  0.646700  1.0  -0.5513
  O  O1538  1  0.531900  0.356000  0.600700  1.0  -0.6746
  O  O1539  1  0.438800  0.271200  0.602000  1.0  -0.6591
  O  O1540  1  0.188010  0.989320  0.488960  1.0  -0.7875
  O  O1541  1  0.468100  0.755300  0.399300  1.0  -0.6746
  O  O1542  1  0.151800  0.095520  0.612300  1.0  -0.5829
  O  O1543  1  0.054200  0.353300  0.754600  1.0  -0.5509
  O  O1544  1  0.171900  0.576800  0.003160  1.0  -0.7798
  O  O1545  1  0.848200  0.612300  0.095520  1.0  -0.5879
  O  O1546  1  0.415350  0.632030  0.274230  1.0  -0.552
  O  O1547  1  0.828100  0.003160  0.576800  1.0  -0.7799
  O  O1548  1  0.256880  0.473250  0.042240  1.0  -0.8015
  O  O1549  1  0.848200  0.483220  0.387700  1.0  -0.585
  O  O1550  1  0.054200  0.401300  0.646700  1.0  -0.5518
  O  O1551  1  0.766100  0.253000  0.169400  1.0  -0.4923
  O  O1552  1  0.188010  0.511040  0.500360  1.0  -0.7885
  O  O1553  1  0.231660  0.655620  0.031420  1.0  -0.5916
  O  O1554  1  0.915350  0.367970  0.725770  1.0  -0.5514
  O  O1555  1  0.084650  0.725770  0.367970  1.0  -0.5538
  O  O1556  1  0.756880  0.526750  0.957760  1.0  -0.8014
  O  O1557  1  0.731660  0.344380  0.968580  1.0  -0.5922
  O  O1558  1  0.878500  0.493500  0.927400  1.0  -0.595
  O  O1559  1  0.234800  0.019200  0.202600  1.0  -0.4868
  O  O1560  1  0.328100  0.996840  0.423200  1.0  -0.779
  O  O1561  1  0.968100  0.399300  0.644000  1.0  -0.6751
  O  O1562  1  0.268340  0.375800  0.031420  1.0  -0.5944
  O  O1563  1  0.054200  0.245400  0.598700  1.0  -0.5495
  O  O1564  1  0.234800  0.797400  0.816600  1.0  -0.4884
  O  O1565  1  0.378500  0.566100  0.493500  1.0  -0.5992
  O  O1566  1  0.243120  0.473250  0.431010  1.0  -0.8019
  O  O1567  1  0.554200  0.754600  0.401300  1.0  -0.5523
  O  O1568  1  0.348200  0.516780  0.612300  1.0  -0.5853
  O  O1569  1  0.968100  0.244700  0.600700  1.0  -0.6746
  O  O1570  1  0.561200  0.728800  0.330800  1.0  -0.6596
  O  O1571  1  0.121500  0.506500  0.433900  1.0  -0.5949
  O  O1572  1  0.915350  0.357800  0.632030  1.0  -0.5519
  O  O1573  1  0.731680  0.486150  0.048270  1.0  -0.7746
  O  O1574  1  0.651800  0.612300  0.516780  1.0  -0.5882
  O  O1575  1  0.765200  0.202600  0.019200  1.0  -0.4844
  O  O1576  1  0.768320  0.562120  0.048270  1.0  -0.7764
  O  O1577  1  0.265200  0.019200  0.816600  1.0  -0.483
  O  O1578  1  0.731660  0.031420  0.375800  1.0  -0.5906
  O  O1579  1  0.468100  0.600700  0.356000  1.0  -0.6747
  O  O1580  1  0.438800  0.330800  0.728800  1.0  -0.6599
  O  O1581  1  0.734800  0.816600  0.019200  1.0  -0.4834
  O  O1582  1  0.688010  0.500360  0.989320  1.0  -0.7871
  O  O1583  1  0.231680  0.513850  0.951730  1.0  -0.7753
  O  O1584  1  0.415350  0.725770  0.357800  1.0  -0.5526
  O  O1585  1  0.031900  0.755300  0.356000  1.0  -0.6738
  O  O1586  1  0.378500  0.927400  0.433900  1.0  -0.5933
  O  O1587  1  0.811990  0.500360  0.511040  1.0  -0.7874
  O  O1588  1  0.828100  0.423200  0.426360  1.0  -0.7781
  O  O1589  1  0.266100  0.169400  0.916400  1.0  -0.5
  O  O1590  1  0.945800  0.598700  0.245400  1.0  -0.5496
  O  O1591  1  0.733900  0.916400  0.169400  1.0  -0.498
  O  O1592  1  0.878500  0.433900  0.506500  1.0  -0.5986
  O  O1593  1  0.734800  0.980800  0.797400  1.0  -0.4821
  O  O1594  1  0.311990  0.511040  0.010680  1.0  -0.7878
  O  O1595  1  0.756880  0.431010  0.473250  1.0  -0.8013
  O  O1596  1  0.756880  0.042240  0.568990  1.0  -0.8003
  O  O1597  1  0.848200  0.904480  0.516780  1.0  -0.5815
  O  O1598  1  0.768320  0.951730  0.513850  1.0  -0.7759
  O  O1599  1  0.995400  0.333333  0.666667  1.0  -1.2099
  O  O1600  1  0.268320  0.437880  0.951730  1.0  -0.7772
  O  O1601  1  0.531900  0.399300  0.755300  1.0  -0.6743
  O  O1602  1  0.328100  0.576800  0.573640  1.0  -0.7784
  O  O1603  1  0.495400  0.666667  0.333333  1.0  -1.2099
  O  O1604  1  0.268340  0.968580  0.344380  1.0  -0.5922
  O  O1605  1  0.621500  0.493500  0.566100  1.0  -0.5957
  O  O1606  1  0.621500  0.433900  0.927400  1.0  -0.598
  O  O1607  1  0.171900  0.996840  0.573640  1.0  -0.7813
  O  O1608  1  0.811990  0.488960  0.989320  1.0  -0.7866
  O  O1609  1  0.766100  0.830600  0.083600  1.0  -0.502
  O  O1610  1  0.733900  0.830600  0.747000  1.0  -0.5014
  O  O1611  1  0.233900  0.083600  0.830600  1.0  -0.4991
  O  O1612  1  0.688010  0.488960  0.499640  1.0  -0.7872
  O  O1613  1  0.445800  0.353300  0.598700  1.0  -0.5498
  O  O1614  1  0.311990  0.989320  0.500360  1.0  -0.7867
  O  O1615  1  0.768340  0.624200  0.968580  1.0  -0.5951
  O  O1616  1  0.438800  0.398000  0.669200  1.0  -0.6594
  O  O1617  1  0.878500  0.072600  0.566100  1.0  -0.5969
  O  O1618  1  0.938800  0.728800  0.398000  1.0  -0.6576
  O  O1619  1  0.061200  0.271200  0.669200  1.0  -0.6579
  O  O1620  1  0.171900  0.426360  0.423200  1.0  -0.7787
  O  O1621  1  0.268340  0.655620  0.624200  1.0  -0.592
  O  O1622  1  0.688010  0.010680  0.511040  1.0  -0.7869
  O  O1623  1  0.671900  0.003160  0.426360  1.0  -0.7816
  O  O1624  1  0.671900  0.573640  0.576800  1.0  -0.7795
  O  O1625  1  0.504600  0.333333  0.666667  1.0  -1.21
  O  O1626  1  0.765200  0.980800  0.183400  1.0  -0.4836
  O  O1627  1  0.743120  0.042240  0.473250  1.0  -0.8009
  O  O1628  1  0.231660  0.375800  0.344380  1.0  -0.5947
  O  O1629  1  0.231680  0.437880  0.486150  1.0  -0.7751
  O  O1630  1  0.766100  0.916400  0.747000  1.0  -0.4996
  O  O1631  1  0.811990  0.010680  0.499640  1.0  -0.7868
  O  O1632  1  0.084650  0.642200  0.274230  1.0  -0.5529
  O  O1633  1  0.938800  0.602000  0.330800  1.0  -0.6596
  O  O1634  1  0.231660  0.968580  0.624200  1.0  -0.5903
  O  O1635  1  0.743120  0.526750  0.568990  1.0  -0.8017
  O  O1636  1  0.561200  0.669200  0.398000  1.0  -0.658
  O  O1637  1  0.061200  0.398000  0.728800  1.0  -0.6584
  O  O1638  1  0.733900  0.253000  0.083600  1.0  -0.4924
  O  O1639  1  0.731660  0.624200  0.655620  1.0  -0.5932
  O  O1640  1  0.731680  0.562120  0.513850  1.0  -0.7771
  O  O1641  1  0.734800  0.202600  0.183400  1.0  -0.4831
  O  O1642  1  0.233900  0.747000  0.916400  1.0  -0.4945
  O  O1643  1  0.243120  0.957760  0.526750  1.0  -0.8008
  O  O1644  1  0.768340  0.031420  0.655620  1.0  -0.5922
  O  O1645  1  0.768320  0.486150  0.437880  1.0  -0.7757
  O  O1646  1  0.584650  0.274230  0.632030  1.0  -0.554
  O  O1647  1  0.768340  0.344380  0.375800  1.0  -0.5937
  O  O1648  1  0.265200  0.183400  0.202600  1.0  -0.4851
  O  O1649  1  0.561200  0.602000  0.271200  1.0  -0.6591
  O  O1650  1  0.348200  0.387700  0.904480  1.0  -0.5881
  O  O1651  1  0.266100  0.083600  0.253000  1.0  -0.4969
  O  O1652  1  0.151800  0.387700  0.483220  1.0  -0.5889
  O  O1653  1  0.765200  0.816600  0.797400  1.0  -0.493
  O  O1654  1  0.004600  0.666667  0.333333  1.0  -1.21
  O  O1655  1  0.584650  0.357800  0.725770  1.0  -0.5535
  O  O1656  1  0.945800  0.754600  0.353300  1.0  -0.5483
  O  O1657  1  0.651800  0.483220  0.095520  1.0  -0.5855
  O  O1658  1  0.468100  0.644000  0.244700  1.0  -0.6745
