# generated using pymatgen
data_InH20(C9O2)4
_symmetry_space_group_name_H-M   'P 1'
_cell_length_a   44.12520000
_cell_length_b   44.12520000
_cell_length_c   42.29610000
_cell_angle_alpha   90.00000000
_cell_angle_beta   90.00000000
_cell_angle_gamma   120.00000000
_symmetry_Int_Tables_number   1
_chemical_formula_structural   InH20(C9O2)4
_chemical_formula_sum   'In36 H720 C1296 O288'
_cell_volume   71318.84966470
_cell_formula_units_Z   36
loop_
 _symmetry_equiv_pos_site_id
 _symmetry_equiv_pos_as_xyz
  1  'x, y, z'
loop_
 _atom_site_type_symbol
 _atom_site_label
 _atom_site_symmetry_multiplicity
 _atom_site_fract_x
 _atom_site_fract_y
 _atom_site_fract_z
 _atom_site_occupancy
 _atom_site_charge
  In  In1  1  0.801380  0.040430  0.959050  1.0  1.4506
  In  In2  1  0.859980  0.288260  0.637820  1.0  1.4844
  In  In3  1  0.468050  0.373760  0.292390  1.0  1.4504
  In  In4  1  0.526640  0.621590  0.971160  1.0  1.4837
  In  In5  1  0.134710  0.707100  0.625720  1.0  1.4506
  In  In6  1  0.193310  0.954920  0.304490  1.0  1.4845
  In  In7  1  0.959570  0.760950  0.959050  1.0  1.451
  In  In8  1  0.711740  0.571720  0.637820  1.0  1.4824
  In  In9  1  0.626240  0.094280  0.292390  1.0  1.4508
  In  In10  1  0.378410  0.905050  0.971160  1.0  1.4824
  In  In11  1  0.292900  0.427620  0.625720  1.0  1.4511
  In  In12  1  0.045080  0.238390  0.304490  1.0  1.4905
  In  In13  1  0.239050  0.198620  0.959050  1.0  1.4508
  In  In14  1  0.428280  0.140020  0.637820  1.0  1.4773
  In  In15  1  0.905720  0.531950  0.292390  1.0  1.4505
  In  In16  1  0.094950  0.473360  0.971160  1.0  1.483
  In  In17  1  0.572380  0.865290  0.625720  1.0  1.4508
  In  In18  1  0.761610  0.806690  0.304490  1.0  1.4829
  In  In19  1  0.198620  0.959570  0.040950  1.0  1.4514
  In  In20  1  0.140020  0.711740  0.362180  1.0  1.4865
  In  In21  1  0.865290  0.292900  0.374280  1.0  1.4513
  In  In22  1  0.806690  0.045080  0.695510  1.0  1.4866
  In  In23  1  0.531950  0.626240  0.707610  1.0  1.4511
  In  In24  1  0.473360  0.378410  0.028840  1.0  1.4857
  In  In25  1  0.040430  0.239050  0.040950  1.0  1.4518
  In  In26  1  0.288260  0.428280  0.362180  1.0  1.4808
  In  In27  1  0.707100  0.572380  0.374280  1.0  1.4519
  In  In28  1  0.954920  0.761610  0.695510  1.0  1.489
  In  In29  1  0.373760  0.905720  0.707610  1.0  1.4516
  In  In30  1  0.621590  0.094950  0.028840  1.0  1.4809
  In  In31  1  0.760950  0.801380  0.040950  1.0  1.4511
  In  In32  1  0.571720  0.859980  0.362180  1.0  1.478
  In  In33  1  0.427620  0.134710  0.374280  1.0  1.4512
  In  In34  1  0.238390  0.193310  0.695510  1.0  1.4848
  In  In35  1  0.094280  0.468050  0.707610  1.0  1.4509
  In  In36  1  0.905050  0.526640  0.028840  1.0  1.4848
  H  H37  1  0.856900  0.163300  0.954200  1.0  0.1149
  H  H38  1  0.847100  0.119600  0.868700  1.0  0.1126
  H  H39  1  0.758700  0.961900  0.048200  1.0  0.111
  H  H40  1  0.783900  0.061100  0.066200  1.0  0.1215
  H  H41  1  0.861200  0.978700  0.933400  1.0  0.1234
  H  H42  1  0.918100  0.065600  0.985800  1.0  0.1243
  H  H43  1  0.883700  0.218400  0.931100  1.0  0.1246
  H  H44  1  0.873900  0.174600  0.845600  1.0  0.119
  H  H45  1  0.742700  0.946900  0.100000  1.0  0.1233
  H  H46  1  0.768700  0.046100  0.118300  1.0  0.1164
  H  H47  1  0.906700  0.968500  0.934200  1.0  0.1206
  H  H48  1  0.964300  0.056200  0.983600  1.0  0.1074
  H  H49  1  0.873900  0.223800  0.829900  1.0  0.1178
  H  H50  1  0.932400  0.262700  0.908100  1.0  0.1145
  H  H51  1  0.760900  0.952000  0.153800  1.0  0.1186
  H  H52  1  0.725700  0.019600  0.153700  1.0  0.116
  H  H53  1  0.009600  0.056100  0.958200  1.0  0.1147
  H  H54  1  0.948600  0.325100  0.833200  1.0  0.1197
  H  H55  1  0.716700  0.964800  0.232100  1.0  0.1301
  H  H56  1  0.918200  0.330700  0.794300  1.0  0.1107
  H  H57  1  0.884900  0.230000  0.780000  1.0  0.1178
  H  H58  1  0.999300  0.306500  0.908700  1.0  0.0975
  H  H59  1  0.953800  0.361000  0.879600  1.0  0.1174
  H  H60  1  0.729300  0.936300  0.255600  1.0  0.1196
  H  H61  1  0.764600  0.913000  0.177000  1.0  0.1241
  H  H62  1  0.667600  0.970000  0.238300  1.0  0.1092
  H  H63  1  0.729400  0.059100  0.192700  1.0  0.1175
  H  H64  1  0.905100  0.336600  0.742900  1.0  0.1249
  H  H65  1  0.878500  0.237000  0.728100  1.0  0.1051
  H  H66  1  0.041200  0.355300  0.935700  1.0  0.1205
  H  H67  1  0.995700  0.409800  0.906600  1.0  0.1154
  H  H68  1  0.735700  0.894600  0.283500  1.0  0.1139
  H  H69  1  0.771100  0.871300  0.204800  1.0  0.1114
  H  H70  1  0.641600  0.996900  0.264800  1.0  0.1079
  H  H71  1  0.704800  0.086500  0.220300  1.0  0.111
  H  H72  1  0.753900  0.275700  0.672800  1.0  0.1135
  H  H73  1  0.808900  0.359900  0.617400  1.0  0.1136
  H  H74  1  0.705600  0.283300  0.668900  1.0  0.1283
  H  H75  1  0.760600  0.367400  0.613500  1.0  0.1226
  H  H76  1  0.661000  0.278800  0.638100  1.0  0.1138
  H  H77  1  0.523570  0.496630  0.287530  1.0  0.1149
  H  H78  1  0.513770  0.452930  0.202030  1.0  0.1126
  H  H79  1  0.425370  0.295230  0.381530  1.0  0.111
  H  H80  1  0.450570  0.394430  0.399530  1.0  0.1215
  H  H81  1  0.527870  0.312030  0.266730  1.0  0.1234
  H  H82  1  0.584770  0.398930  0.319130  1.0  0.1243
  H  H83  1  0.550370  0.551730  0.264430  1.0  0.1246
  H  H84  1  0.540570  0.507930  0.178930  1.0  0.119
  H  H85  1  0.409370  0.280230  0.433330  1.0  0.1233
  H  H86  1  0.435370  0.379430  0.451630  1.0  0.1164
  H  H87  1  0.573370  0.301830  0.267530  1.0  0.1205
  H  H88  1  0.630970  0.389530  0.316930  1.0  0.1074
  H  H89  1  0.540570  0.557130  0.163230  1.0  0.1178
  H  H90  1  0.599070  0.596030  0.241430  1.0  0.1145
  H  H91  1  0.427570  0.285330  0.487130  1.0  0.1186
  H  H92  1  0.392370  0.352930  0.487030  1.0  0.116
  H  H93  1  0.676270  0.389430  0.291530  1.0  0.1147
  H  H94  1  0.615270  0.658430  0.166530  1.0  0.1197
  H  H95  1  0.383370  0.298130  0.565430  1.0  0.1301
  H  H96  1  0.584870  0.664030  0.127630  1.0  0.1107
  H  H97  1  0.551570  0.563330  0.113330  1.0  0.1178
  H  H98  1  0.665970  0.639830  0.242030  1.0  0.0975
  H  H99  1  0.620470  0.694330  0.212930  1.0  0.1174
  H  H100  1  0.395970  0.269630  0.588930  1.0  0.1193
  H  H101  1  0.431270  0.246330  0.510330  1.0  0.1241
  H  H102  1  0.334270  0.303330  0.571630  1.0  0.1092
  H  H103  1  0.396070  0.392430  0.526030  1.0  0.1175
  H  H104  1  0.571770  0.669930  0.076230  1.0  0.1249
  H  H105  1  0.545170  0.570330  0.061430  1.0  0.1051
  H  H106  1  0.707870  0.688630  0.269030  1.0  0.1205
  H  H107  1  0.662370  0.743130  0.239930  1.0  0.1154
  H  H108  1  0.402370  0.227930  0.616830  1.0  0.1139
  H  H109  1  0.437770  0.204630  0.538130  1.0  0.1113
  H  H110  1  0.308270  0.330230  0.598130  1.0  0.1079
  H  H111  1  0.371470  0.419830  0.553630  1.0  0.1109
  H  H112  1  0.420570  0.609030  0.006130  1.0  0.1135
  H  H113  1  0.475570  0.693230  0.950730  1.0  0.1136
  H  H114  1  0.372270  0.616630  0.002230  1.0  0.1283
  H  H115  1  0.427270  0.700730  0.946830  1.0  0.1226
  H  H116  1  0.327670  0.612130  0.971430  1.0  0.1138
  H  H117  1  0.190230  0.829970  0.620870  1.0  0.1149
  H  H118  1  0.180430  0.786270  0.535370  1.0  0.1126
  H  H119  1  0.092030  0.628570  0.714870  1.0  0.111
  H  H120  1  0.117230  0.727770  0.732870  1.0  0.1215
  H  H121  1  0.194530  0.645370  0.600070  1.0  0.1234
  H  H122  1  0.251430  0.732270  0.652470  1.0  0.1243
  H  H123  1  0.217030  0.885070  0.597770  1.0  0.1246
  H  H124  1  0.207230  0.841270  0.512270  1.0  0.119
  H  H125  1  0.076030  0.613570  0.766670  1.0  0.1233
  H  H126  1  0.102030  0.712770  0.784970  1.0  0.1164
  H  H127  1  0.240030  0.635170  0.600870  1.0  0.1206
  H  H128  1  0.297630  0.722870  0.650270  1.0  0.1074
  H  H129  1  0.207230  0.890470  0.496570  1.0  0.1178
  H  H130  1  0.265730  0.929370  0.574770  1.0  0.1145
  H  H131  1  0.094230  0.618670  0.820470  1.0  0.1186
  H  H132  1  0.059030  0.686270  0.820370  1.0  0.116
  H  H133  1  0.342930  0.722770  0.624870  1.0  0.1147
  H  H134  1  0.281930  0.991770  0.499870  1.0  0.1197
  H  H135  1  0.050030  0.631470  0.898770  1.0  0.1301
  H  H136  1  0.251530  0.997370  0.460970  1.0  0.1108
  H  H137  1  0.218230  0.896670  0.446670  1.0  0.1178
  H  H138  1  0.332630  0.973170  0.575370  1.0  0.0975
  H  H139  1  0.287130  0.027670  0.546270  1.0  0.1174
  H  H140  1  0.062630  0.602970  0.922270  1.0  0.1193
  H  H141  1  0.097930  0.579670  0.843670  1.0  0.1241
  H  H142  1  0.000930  0.636670  0.904970  1.0  0.1092
  H  H143  1  0.062730  0.725770  0.859370  1.0  0.1175
  H  H144  1  0.238430  0.003270  0.409570  1.0  0.1251
  H  H145  1  0.211830  0.903670  0.394770  1.0  0.1052
  H  H146  1  0.374530  0.021970  0.602370  1.0  0.1205
  H  H147  1  0.329030  0.076470  0.573270  1.0  0.1154
  H  H148  1  0.069030  0.561270  0.950170  1.0  0.1139
  H  H149  1  0.104430  0.537970  0.871470  1.0  0.1114
  H  H150  1  0.974930  0.663570  0.931470  1.0  0.1079
  H  H151  1  0.038130  0.753170  0.886970  1.0  0.111
  H  H152  1  0.087230  0.942370  0.339470  1.0  0.1135
  H  H153  1  0.142230  0.026570  0.284070  1.0  0.1136
  H  H154  1  0.038930  0.949970  0.335570  1.0  0.1276
  H  H155  1  0.093930  0.034070  0.280170  1.0  0.1226
  H  H156  1  0.994330  0.945470  0.304770  1.0  0.1138
  H  H157  1  0.836700  0.693600  0.954200  1.0  0.1151
  H  H158  1  0.880400  0.727500  0.868700  1.0  0.1133
  H  H159  1  0.038100  0.796800  0.048200  1.0  0.1113
  H  H160  1  0.938900  0.722800  0.066200  1.0  0.122
  H  H161  1  0.021300  0.882500  0.933400  1.0  0.1234
  H  H162  1  0.934400  0.852500  0.985800  1.0  0.1241
  H  H163  1  0.781600  0.665300  0.931100  1.0  0.1256
  H  H164  1  0.825400  0.699300  0.845600  1.0  0.1187
  H  H165  1  0.053100  0.795800  0.100000  1.0  0.1208
  H  H166  1  0.953900  0.722600  0.118300  1.0  0.1175
  H  H167  1  0.031500  0.938200  0.934200  1.0  0.1213
  H  H168  1  0.943800  0.908100  0.983600  1.0  0.1089
  H  H169  1  0.776200  0.650100  0.829900  1.0  0.12
  H  H170  1  0.737300  0.669700  0.908100  1.0  0.1137
  H  H171  1  0.048000  0.808900  0.153800  1.0  0.1193
  H  H172  1  0.980400  0.706100  0.153700  1.0  0.1161
  H  H173  1  0.943900  0.953500  0.958200  1.0  0.1144
  H  H174  1  0.674900  0.623500  0.833200  1.0  0.121
  H  H175  1  0.035200  0.751900  0.232100  1.0  0.1314
  H  H176  1  0.669300  0.587500  0.794300  1.0  0.1108
  H  H177  1  0.770000  0.654900  0.780000  1.0  0.1167
  H  H178  1  0.693500  0.692800  0.908700  1.0  0.0972
  H  H179  1  0.639000  0.592800  0.879600  1.0  0.1159
  H  H180  1  0.063700  0.793000  0.255600  1.0  0.1192
  H  H181  1  0.087000  0.851600  0.177000  1.0  0.1243
  H  H182  1  0.030000  0.697600  0.238300  1.0  0.1089
  H  H183  1  0.940900  0.670300  0.192700  1.0  0.1159
  H  H184  1  0.663400  0.568500  0.742900  1.0  0.1238
  H  H185  1  0.763000  0.641500  0.728100  1.0  0.107
  H  H186  1  0.644700  0.685900  0.935700  1.0  0.1206
  H  H187  1  0.590200  0.585900  0.906600  1.0  0.1154
  H  H188  1  0.105400  0.841100  0.283500  1.0  0.1146
  H  H189  1  0.128700  0.899800  0.204800  1.0  0.1118
  H  H190  1  0.003100  0.644700  0.264800  1.0  0.108
  H  H191  1  0.913500  0.618300  0.220300  1.0  0.1107
  H  H192  1  0.724300  0.478200  0.672800  1.0  0.1124
  H  H193  1  0.640100  0.449000  0.617400  1.0  0.1135
  H  H194  1  0.716700  0.422300  0.668900  1.0  0.1273
  H  H195  1  0.632600  0.393200  0.613500  1.0  0.1221
  H  H196  1  0.721200  0.382200  0.638100  1.0  0.1135
  H  H197  1  0.503370  0.026930  0.287530  1.0  0.1151
  H  H198  1  0.547070  0.060830  0.202030  1.0  0.1133
  H  H199  1  0.704770  0.130130  0.381530  1.0  0.1113
  H  H200  1  0.605570  0.056130  0.399530  1.0  0.122
  H  H201  1  0.687970  0.215830  0.266730  1.0  0.1234
  H  H202  1  0.601070  0.185830  0.319130  1.0  0.1241
  H  H203  1  0.448270  0.998630  0.264430  1.0  0.1256
  H  H204  1  0.492070  0.032630  0.178930  1.0  0.1187
  H  H205  1  0.719770  0.129130  0.433330  1.0  0.1208
  H  H206  1  0.620570  0.055930  0.451630  1.0  0.1175
  H  H207  1  0.698170  0.271530  0.267530  1.0  0.1213
  H  H208  1  0.610470  0.241430  0.316930  1.0  0.1089
  H  H209  1  0.442870  0.983430  0.163230  1.0  0.12
  H  H210  1  0.403970  0.003030  0.241430  1.0  0.1137
  H  H211  1  0.714670  0.142230  0.487130  1.0  0.1193
  H  H212  1  0.647070  0.039430  0.487030  1.0  0.1161
  H  H213  1  0.610570  0.286830  0.291530  1.0  0.1144
  H  H214  1  0.341570  0.956830  0.166530  1.0  0.121
  H  H215  1  0.701870  0.085230  0.565430  1.0  0.1314
  H  H216  1  0.335970  0.920830  0.127630  1.0  0.1108
  H  H217  1  0.436670  0.988230  0.113330  1.0  0.1167
  H  H218  1  0.360170  0.026130  0.242030  1.0  0.0972
  H  H219  1  0.305670  0.926130  0.212930  1.0  0.1159
  H  H220  1  0.730370  0.126330  0.588930  1.0  0.1192
  H  H221  1  0.753670  0.184930  0.510330  1.0  0.1243
  H  H222  1  0.696670  0.030930  0.571630  1.0  0.1089
  H  H223  1  0.607570  0.003630  0.526030  1.0  0.1159
  H  H224  1  0.330070  0.901830  0.076230  1.0  0.1238
  H  H225  1  0.429670  0.974830  0.061430  1.0  0.107
  H  H226  1  0.311370  0.019230  0.269030  1.0  0.1206
  H  H227  1  0.256870  0.919230  0.239930  1.0  0.1154
  H  H228  1  0.772070  0.174430  0.616830  1.0  0.1146
  H  H229  1  0.795370  0.233130  0.538130  1.0  0.1117
  H  H230  1  0.669770  0.978030  0.598130  1.0  0.1081
  H  H231  1  0.580170  0.951630  0.553630  1.0  0.1107
  H  H232  1  0.390970  0.811530  0.006130  1.0  0.1124
  H  H233  1  0.306770  0.782330  0.950730  1.0  0.1135
  H  H234  1  0.383370  0.755630  0.002230  1.0  0.1273
  H  H235  1  0.299270  0.726530  0.946830  1.0  0.1221
  H  H236  1  0.387870  0.715530  0.971430  1.0  0.1119
  H  H237  1  0.170030  0.360270  0.620870  1.0  0.1151
  H  H238  1  0.213730  0.394170  0.535370  1.0  0.1133
  H  H239  1  0.371430  0.463470  0.714870  1.0  0.1113
  H  H240  1  0.272230  0.389470  0.732870  1.0  0.122
  H  H241  1  0.354630  0.549170  0.600070  1.0  0.1234
  H  H242  1  0.267730  0.519170  0.652470  1.0  0.1241
  H  H243  1  0.114930  0.331970  0.597770  1.0  0.1256
  H  H244  1  0.158730  0.365970  0.512270  1.0  0.1187
  H  H245  1  0.386430  0.462470  0.766670  1.0  0.1208
  H  H246  1  0.287230  0.389270  0.784970  1.0  0.1175
  H  H247  1  0.364830  0.604870  0.600870  1.0  0.1213
  H  H248  1  0.277130  0.574770  0.650270  1.0  0.1089
  H  H249  1  0.109530  0.316770  0.496570  1.0  0.12
  H  H250  1  0.070630  0.336370  0.574770  1.0  0.1137
  H  H251  1  0.381330  0.475570  0.820470  1.0  0.1193
  H  H252  1  0.313730  0.372770  0.820370  1.0  0.1161
  H  H253  1  0.277230  0.620170  0.624870  1.0  0.1144
  H  H254  1  0.008230  0.290170  0.499870  1.0  0.121
  H  H255  1  0.368530  0.418570  0.898770  1.0  0.1314
  H  H256  1  0.002630  0.254170  0.460970  1.0  0.1109
  H  H257  1  0.103330  0.321570  0.446670  1.0  0.1167
  H  H258  1  0.026830  0.359470  0.575370  1.0  0.0972
  H  H259  1  0.972330  0.259470  0.546270  1.0  0.1159
  H  H260  1  0.397030  0.459670  0.922270  1.0  0.1194
  H  H261  1  0.420330  0.518270  0.843670  1.0  0.1243
  H  H262  1  0.363330  0.364270  0.904970  1.0  0.1089
  H  H263  1  0.274230  0.336970  0.859370  1.0  0.1159
  H  H264  1  0.996730  0.235170  0.409570  1.0  0.1237
  H  H265  1  0.096330  0.308170  0.394770  1.0  0.107
  H  H266  1  0.978030  0.352570  0.602370  1.0  0.1206
  H  H267  1  0.923530  0.252570  0.573270  1.0  0.1154
  H  H268  1  0.438730  0.507770  0.950170  1.0  0.1146
  H  H269  1  0.462030  0.566470  0.871470  1.0  0.1118
  H  H270  1  0.336430  0.311370  0.931470  1.0  0.108
  H  H271  1  0.246830  0.284970  0.886970  1.0  0.1107
  H  H272  1  0.057630  0.144870  0.339470  1.0  0.1124
  H  H273  1  0.973430  0.115670  0.284070  1.0  0.1135
  H  H274  1  0.050030  0.088970  0.335570  1.0  0.1273
  H  H275  1  0.965930  0.059870  0.280170  1.0  0.1221
  H  H276  1  0.054530  0.048870  0.304770  1.0  0.1135
  H  H277  1  0.306400  0.143100  0.954200  1.0  0.1148
  H  H278  1  0.272500  0.152900  0.868700  1.0  0.1128
  H  H279  1  0.203200  0.241300  0.048200  1.0  0.1109
  H  H280  1  0.277200  0.216100  0.066200  1.0  0.1225
  H  H281  1  0.117500  0.138800  0.933400  1.0  0.1244
  H  H282  1  0.147500  0.081900  0.985800  1.0  0.1235
  H  H283  1  0.334700  0.116300  0.931100  1.0  0.1243
  H  H284  1  0.300700  0.126100  0.845600  1.0  0.1193
  H  H285  1  0.204200  0.257300  0.100000  1.0  0.1234
  H  H286  1  0.277400  0.231300  0.118300  1.0  0.1175
  H  H287  1  0.061800  0.093300  0.934200  1.0  0.1212
  H  H288  1  0.091900  0.035700  0.983600  1.0  0.1081
  H  H289  1  0.349900  0.126100  0.829900  1.0  0.118
  H  H290  1  0.330300  0.067600  0.908100  1.0  0.115
  H  H291  1  0.191100  0.239100  0.153800  1.0  0.1188
  H  H292  1  0.293900  0.274300  0.153700  1.0  0.1158
  H  H293  1  0.046500  0.990400  0.958200  1.0  0.1162
  H  H294  1  0.376500  0.051400  0.833200  1.0  0.1203
  H  H295  1  0.248100  0.283300  0.232100  1.0  0.1298
  H  H296  1  0.412500  0.081800  0.794300  1.0  0.1099
  H  H297  1  0.345100  0.115100  0.780000  1.0  0.1174
  H  H298  1  0.307200  0.000700  0.908700  1.0  0.0969
  H  H299  1  0.407200  0.046200  0.879600  1.0  0.1165
  H  H300  1  0.207000  0.270700  0.255600  1.0  0.1195
  H  H301  1  0.148400  0.235400  0.177000  1.0  0.1245
  H  H302  1  0.302400  0.332400  0.238300  1.0  0.1088
  H  H303  1  0.329700  0.270600  0.192700  1.0  0.1156
  H  H304  1  0.431500  0.094900  0.742900  1.0  0.1238
  H  H305  1  0.358500  0.121500  0.728100  1.0  0.1067
  H  H306  1  0.314100  0.958800  0.935700  1.0  0.1211
  H  H307  1  0.414100  0.004300  0.906600  1.0  0.1143
  H  H308  1  0.158900  0.264300  0.283500  1.0  0.1137
  H  H309  1  0.100200  0.228900  0.204800  1.0  0.1114
  H  H310  1  0.355300  0.358400  0.264800  1.0  0.1077
  H  H311  1  0.381700  0.295200  0.220300  1.0  0.1098
  H  H312  1  0.521800  0.246100  0.672800  1.0  0.1134
  H  H313  1  0.551000  0.191100  0.617400  1.0  0.1128
  H  H314  1  0.577700  0.294400  0.668900  1.0  0.1264
  H  H315  1  0.606800  0.239400  0.613500  1.0  0.1226
  H  H316  1  0.617800  0.339000  0.638100  1.0  0.118
  H  H317  1  0.973070  0.476430  0.287530  1.0  0.1148
  H  H318  1  0.939170  0.486230  0.202030  1.0  0.1128
  H  H319  1  0.869870  0.574630  0.381530  1.0  0.1109
  H  H320  1  0.943870  0.549430  0.399530  1.0  0.1225
  H  H321  1  0.784170  0.472130  0.266730  1.0  0.1244
  H  H322  1  0.814170  0.415230  0.319130  1.0  0.1235
  H  H323  1  0.001370  0.449630  0.264430  1.0  0.1243
  H  H324  1  0.967370  0.459430  0.178930  1.0  0.1193
  H  H325  1  0.870870  0.590630  0.433330  1.0  0.1234
  H  H326  1  0.944070  0.564630  0.451630  1.0  0.1175
  H  H327  1  0.728470  0.426630  0.267530  1.0  0.1212
  H  H328  1  0.758570  0.369030  0.316930  1.0  0.1081
  H  H329  1  0.016570  0.459430  0.163230  1.0  0.118
  H  H330  1  0.996970  0.400930  0.241430  1.0  0.115
  H  H331  1  0.857770  0.572430  0.487130  1.0  0.1188
  H  H332  1  0.960570  0.607630  0.487030  1.0  0.1158
  H  H333  1  0.713170  0.323730  0.291530  1.0  0.1162
  H  H334  1  0.043170  0.384730  0.166530  1.0  0.1203
  H  H335  1  0.914770  0.616630  0.565430  1.0  0.1298
  H  H336  1  0.079170  0.415130  0.127630  1.0  0.1099
  H  H337  1  0.011770  0.448430  0.113330  1.0  0.1174
  H  H338  1  0.973870  0.334030  0.242030  1.0  0.0969
  H  H339  1  0.073870  0.379530  0.212930  1.0  0.1165
  H  H340  1  0.873670  0.604030  0.588930  1.0  0.1193
  H  H341  1  0.815070  0.568730  0.510330  1.0  0.1245
  H  H342  1  0.969070  0.665730  0.571630  1.0  0.1088
  H  H343  1  0.996370  0.603930  0.526030  1.0  0.1156
  H  H344  1  0.098170  0.428230  0.076230  1.0  0.1238
  H  H345  1  0.025170  0.454830  0.061430  1.0  0.1067
  H  H346  1  0.980770  0.292130  0.269030  1.0  0.1211
  H  H347  1  0.080770  0.337630  0.239930  1.0  0.1143
  H  H348  1  0.825570  0.597630  0.616830  1.0  0.1137
  H  H349  1  0.766870  0.562230  0.538130  1.0  0.1115
  H  H350  1  0.021970  0.691730  0.598130  1.0  0.1077
  H  H351  1  0.048370  0.628530  0.553630  1.0  0.1098
  H  H352  1  0.188470  0.579430  0.006130  1.0  0.1134
  H  H353  1  0.217670  0.524430  0.950730  1.0  0.1128
  H  H354  1  0.244370  0.627730  0.002230  1.0  0.1264
  H  H355  1  0.273470  0.572730  0.946830  1.0  0.1226
  H  H356  1  0.284470  0.672330  0.971430  1.0  0.1178
  H  H357  1  0.639730  0.809770  0.620870  1.0  0.1148
  H  H358  1  0.605830  0.819570  0.535370  1.0  0.1128
  H  H359  1  0.536530  0.907970  0.714870  1.0  0.1109
  H  H360  1  0.610530  0.882770  0.732870  1.0  0.1225
  H  H361  1  0.450830  0.805470  0.600070  1.0  0.1244
  H  H362  1  0.480830  0.748570  0.652470  1.0  0.1235
  H  H363  1  0.668030  0.782970  0.597770  1.0  0.1243
  H  H364  1  0.634030  0.792770  0.512270  1.0  0.1193
  H  H365  1  0.537530  0.923970  0.766670  1.0  0.1234
  H  H366  1  0.610730  0.897970  0.784970  1.0  0.1175
  H  H367  1  0.395130  0.759970  0.600870  1.0  0.1212
  H  H368  1  0.425230  0.702370  0.650270  1.0  0.1081
  H  H369  1  0.683230  0.792770  0.496570  1.0  0.118
  H  H370  1  0.663630  0.734270  0.574770  1.0  0.115
  H  H371  1  0.524430  0.905770  0.820470  1.0  0.1188
  H  H372  1  0.627230  0.940970  0.820370  1.0  0.1158
  H  H373  1  0.379830  0.657070  0.624870  1.0  0.1162
  H  H374  1  0.709830  0.718070  0.499870  1.0  0.1203
  H  H375  1  0.581430  0.949970  0.898770  1.0  0.1298
  H  H376  1  0.745830  0.748470  0.460970  1.0  0.1099
  H  H377  1  0.678430  0.781770  0.446670  1.0  0.1174
  H  H378  1  0.640530  0.667370  0.575370  1.0  0.0969
  H  H379  1  0.740530  0.712870  0.546270  1.0  0.1165
  H  H380  1  0.540330  0.937370  0.922270  1.0  0.1196
  H  H381  1  0.481730  0.902070  0.843670  1.0  0.1245
  H  H382  1  0.635730  0.999070  0.904970  1.0  0.1088
  H  H383  1  0.663030  0.937270  0.859370  1.0  0.1156
  H  H384  1  0.764830  0.761570  0.409570  1.0  0.1238
  H  H385  1  0.691830  0.788170  0.394770  1.0  0.1067
  H  H386  1  0.647430  0.625470  0.602370  1.0  0.1211
  H  H387  1  0.747430  0.670970  0.573270  1.0  0.1143
  H  H388  1  0.492230  0.930970  0.950170  1.0  0.1137
  H  H389  1  0.433530  0.895570  0.871470  1.0  0.1114
  H  H390  1  0.688630  0.025070  0.931470  1.0  0.1077
  H  H391  1  0.715030  0.961870  0.886970  1.0  0.1098
  H  H392  1  0.855130  0.912770  0.339470  1.0  0.1134
  H  H393  1  0.884330  0.857770  0.284070  1.0  0.1128
  H  H394  1  0.911030  0.961070  0.335570  1.0  0.127
  H  H395  1  0.940130  0.906070  0.280170  1.0  0.1226
  H  H396  1  0.951130  0.005670  0.304770  1.0  0.118
  H  H397  1  0.143100  0.836700  0.045800  1.0  0.1155
  H  H398  1  0.152900  0.880400  0.131300  1.0  0.1128
  H  H399  1  0.241300  0.038100  0.951800  1.0  0.1111
  H  H400  1  0.216100  0.938900  0.933800  1.0  0.1215
  H  H401  1  0.138800  0.021300  0.066600  1.0  0.1244
  H  H402  1  0.081900  0.934400  0.014200  1.0  0.125
  H  H403  1  0.116300  0.781600  0.068900  1.0  0.1231
  H  H404  1  0.126100  0.825400  0.154400  1.0  0.1193
  H  H405  1  0.257300  0.053100  0.900000  1.0  0.124
  H  H406  1  0.231300  0.953900  0.881700  1.0  0.1164
  H  H407  1  0.093300  0.031500  0.065800  1.0  0.1207
  H  H408  1  0.035700  0.943800  0.016400  1.0  0.1071
  H  H409  1  0.126100  0.776200  0.170100  1.0  0.1175
  H  H410  1  0.067600  0.737300  0.091900  1.0  0.1161
  H  H411  1  0.239100  0.048000  0.846200  1.0  0.118
  H  H412  1  0.274300  0.980400  0.846300  1.0  0.1158
  H  H413  1  0.990400  0.943900  0.041800  1.0  0.1152
  H  H414  1  0.051400  0.674900  0.166800  1.0  0.1192
  H  H415  1  0.283300  0.035200  0.767900  1.0  0.1287
  H  H416  1  0.081800  0.669300  0.205700  1.0  0.1103
  H  H417  1  0.115100  0.770000  0.220000  1.0  0.1182
  H  H418  1  0.000700  0.693500  0.091300  1.0  0.0974
  H  H419  1  0.046200  0.639000  0.120400  1.0  0.1169
  H  H420  1  0.270700  0.063700  0.744400  1.0  0.1198
  H  H421  1  0.235400  0.087000  0.823000  1.0  0.1238
  H  H422  1  0.332400  0.030000  0.761700  1.0  0.1085
  H  H423  1  0.270600  0.940900  0.807300  1.0  0.1167
  H  H424  1  0.094900  0.663400  0.257100  1.0  0.1241
  H  H425  1  0.121500  0.763000  0.271900  1.0  0.1062
  H  H426  1  0.958800  0.644700  0.064300  1.0  0.1207
  H  H427  1  0.004300  0.590200  0.093400  1.0  0.1149
  H  H428  1  0.264300  0.105400  0.716500  1.0  0.1136
  H  H429  1  0.228900  0.128700  0.795200  1.0  0.1122
  H  H430  1  0.358400  0.003100  0.735200  1.0  0.1082
  H  H431  1  0.295200  0.913500  0.779700  1.0  0.1114
  H  H432  1  0.246100  0.724300  0.327200  1.0  0.1135
  H  H433  1  0.191100  0.640100  0.382600  1.0  0.1137
  H  H434  1  0.294400  0.716700  0.331100  1.0  0.1281
  H  H435  1  0.239400  0.632600  0.386500  1.0  0.1227
  H  H436  1  0.339000  0.721200  0.361900  1.0  0.1143
  H  H437  1  0.809770  0.170030  0.379130  1.0  0.1155
  H  H438  1  0.819570  0.213730  0.464630  1.0  0.1128
  H  H439  1  0.907970  0.371430  0.285130  1.0  0.1111
  H  H440  1  0.882770  0.272230  0.267130  1.0  0.1215
  H  H441  1  0.805470  0.354630  0.399930  1.0  0.1244
  H  H442  1  0.748570  0.267730  0.347530  1.0  0.125
  H  H443  1  0.782970  0.114930  0.402230  1.0  0.1231
  H  H444  1  0.792770  0.158730  0.487730  1.0  0.1193
  H  H445  1  0.923970  0.386430  0.233330  1.0  0.124
  H  H446  1  0.897970  0.287230  0.215030  1.0  0.1164
  H  H447  1  0.759970  0.364830  0.399130  1.0  0.1207
  H  H448  1  0.702370  0.277130  0.349730  1.0  0.1071
  H  H449  1  0.792770  0.109530  0.503430  1.0  0.1175
  H  H450  1  0.734270  0.070630  0.425230  1.0  0.1161
  H  H451  1  0.905770  0.381330  0.179530  1.0  0.118
  H  H452  1  0.940970  0.313730  0.179630  1.0  0.1158
  H  H453  1  0.657070  0.277230  0.375130  1.0  0.1152
  H  H454  1  0.718070  0.008230  0.500130  1.0  0.1192
  H  H455  1  0.949970  0.368530  0.101230  1.0  0.1287
  H  H456  1  0.748470  0.002630  0.539030  1.0  0.1105
  H  H457  1  0.781770  0.103330  0.553330  1.0  0.1182
  H  H458  1  0.667370  0.026830  0.424630  1.0  0.0974
  H  H459  1  0.712870  0.972330  0.453730  1.0  0.1169
  H  H460  1  0.937370  0.397030  0.077730  1.0  0.1196
  H  H461  1  0.902070  0.420330  0.156330  1.0  0.1238
  H  H462  1  0.999070  0.363330  0.095030  1.0  0.1085
  H  H463  1  0.937270  0.274230  0.140630  1.0  0.1167
  H  H464  1  0.761570  0.996730  0.590430  1.0  0.1242
  H  H465  1  0.788170  0.096330  0.605230  1.0  0.1063
  H  H466  1  0.625470  0.978030  0.397630  1.0  0.1207
  H  H467  1  0.670970  0.923530  0.426730  1.0  0.1149
  H  H468  1  0.930970  0.438730  0.049830  1.0  0.1136
  H  H469  1  0.895570  0.462030  0.128530  1.0  0.1122
  H  H470  1  0.025070  0.336430  0.068530  1.0  0.1082
  H  H471  1  0.961870  0.246830  0.113030  1.0  0.1114
  H  H472  1  0.912770  0.057630  0.660530  1.0  0.1135
  H  H473  1  0.857770  0.973430  0.715930  1.0  0.1137
  H  H474  1  0.961070  0.050030  0.664430  1.0  0.1276
  H  H475  1  0.906070  0.965930  0.719830  1.0  0.1227
  H  H476  1  0.005670  0.054530  0.695230  1.0  0.1143
  H  H477  1  0.476430  0.503370  0.712470  1.0  0.1155
  H  H478  1  0.486230  0.547070  0.797970  1.0  0.1128
  H  H479  1  0.574630  0.704770  0.618470  1.0  0.1111
  H  H480  1  0.549430  0.605570  0.600470  1.0  0.1215
  H  H481  1  0.472130  0.687970  0.733270  1.0  0.1244
  H  H482  1  0.415230  0.601070  0.680870  1.0  0.125
  H  H483  1  0.449630  0.448270  0.735570  1.0  0.1231
  H  H484  1  0.459430  0.492070  0.821070  1.0  0.1193
  H  H485  1  0.590630  0.719770  0.566670  1.0  0.124
  H  H486  1  0.564630  0.620570  0.548370  1.0  0.1164
  H  H487  1  0.426630  0.698170  0.732470  1.0  0.1207
  H  H488  1  0.369030  0.610470  0.683070  1.0  0.1071
  H  H489  1  0.459430  0.442870  0.836770  1.0  0.1175
  H  H490  1  0.400930  0.403970  0.758570  1.0  0.1161
  H  H491  1  0.572430  0.714670  0.512870  1.0  0.118
  H  H492  1  0.607630  0.647070  0.512970  1.0  0.1158
  H  H493  1  0.323730  0.610570  0.708470  1.0  0.1152
  H  H494  1  0.384730  0.341570  0.833470  1.0  0.1192
  H  H495  1  0.616630  0.701870  0.434570  1.0  0.1287
  H  H496  1  0.415130  0.335970  0.872370  1.0  0.1103
  H  H497  1  0.448430  0.436670  0.886670  1.0  0.1182
  H  H498  1  0.334030  0.360170  0.757970  1.0  0.0974
  H  H499  1  0.379530  0.305670  0.787070  1.0  0.1169
  H  H500  1  0.604030  0.730370  0.411070  1.0  0.1196
  H  H501  1  0.568730  0.753670  0.489670  1.0  0.1238
  H  H502  1  0.665730  0.696670  0.428370  1.0  0.1085
  H  H503  1  0.603930  0.607570  0.473970  1.0  0.1167
  H  H504  1  0.428230  0.330070  0.923770  1.0  0.1241
  H  H505  1  0.454830  0.429670  0.938570  1.0  0.1062
  H  H506  1  0.292130  0.311370  0.730970  1.0  0.1207
  H  H507  1  0.337630  0.256870  0.760070  1.0  0.1149
  H  H508  1  0.597630  0.772070  0.383170  1.0  0.1136
  H  H509  1  0.562230  0.795370  0.461870  1.0  0.1121
  H  H510  1  0.691730  0.669770  0.401870  1.0  0.1082
  H  H511  1  0.628530  0.580170  0.446370  1.0  0.1113
  H  H512  1  0.579430  0.390970  0.993870  1.0  0.1135
  H  H513  1  0.524430  0.306770  0.049270  1.0  0.1137
  H  H514  1  0.627730  0.383370  0.997770  1.0  0.1281
  H  H515  1  0.572730  0.299270  0.053170  1.0  0.1227
  H  H516  1  0.672330  0.387870  0.028570  1.0  0.1144
  H  H517  1  0.163300  0.306400  0.045800  1.0  0.1152
  H  H518  1  0.119600  0.272500  0.131300  1.0  0.1127
  H  H519  1  0.961900  0.203200  0.951800  1.0  0.1112
  H  H520  1  0.061100  0.277200  0.933800  1.0  0.1229
  H  H521  1  0.978700  0.117500  0.066600  1.0  0.1241
  H  H522  1  0.065600  0.147500  0.014200  1.0  0.1248
  H  H523  1  0.218400  0.334700  0.068900  1.0  0.1248
  H  H524  1  0.174600  0.300700  0.154400  1.0  0.1198
  H  H525  1  0.946900  0.204200  0.900000  1.0  0.1218
  H  H526  1  0.046100  0.277400  0.881700  1.0  0.1177
  H  H527  1  0.968500  0.061800  0.065800  1.0  0.1213
  H  H528  1  0.056200  0.091900  0.016400  1.0  0.1095
  H  H529  1  0.223800  0.349900  0.170100  1.0  0.1189
  H  H530  1  0.262700  0.330300  0.091900  1.0  0.114
  H  H531  1  0.952000  0.191100  0.846200  1.0  0.1197
  H  H532  1  0.019600  0.293900  0.846300  1.0  0.1163
  H  H533  1  0.056100  0.046500  0.041800  1.0  0.1147
  H  H534  1  0.325100  0.376500  0.166800  1.0  0.1208
  H  H535  1  0.964800  0.248100  0.767900  1.0  0.1299
  H  H536  1  0.330700  0.412500  0.205700  1.0  0.1119
  H  H537  1  0.230000  0.345100  0.220000  1.0  0.1161
  H  H538  1  0.306500  0.307200  0.091300  1.0  0.0973
  H  H539  1  0.361000  0.407200  0.120400  1.0  0.117
  H  H540  1  0.936300  0.207000  0.744400  1.0  0.1204
  H  H541  1  0.913000  0.148400  0.823000  1.0  0.1244
  H  H542  1  0.970000  0.302400  0.761700  1.0  0.1077
  H  H543  1  0.059100  0.329700  0.807300  1.0  0.1151
  H  H544  1  0.336600  0.431500  0.257100  1.0  0.1243
  H  H545  1  0.237000  0.358500  0.271900  1.0  0.1069
  H  H546  1  0.355300  0.314100  0.064300  1.0  0.12
  H  H547  1  0.409800  0.414100  0.093400  1.0  0.1154
  H  H548  1  0.894600  0.158900  0.716500  1.0  0.1138
  H  H549  1  0.871300  0.100200  0.795200  1.0  0.1117
  H  H550  1  0.996900  0.355300  0.735200  1.0  0.1083
  H  H551  1  0.086500  0.381700  0.779700  1.0  0.111
  H  H552  1  0.275700  0.521800  0.327200  1.0  0.1126
  H  H553  1  0.359900  0.551000  0.382600  1.0  0.1134
  H  H554  1  0.283300  0.577700  0.331100  1.0  0.1275
  H  H555  1  0.367400  0.606800  0.386500  1.0  0.1218
  H  H556  1  0.278800  0.617800  0.361900  1.0  0.1139
  H  H557  1  0.829970  0.639730  0.379130  1.0  0.1152
  H  H558  1  0.786270  0.605830  0.464630  1.0  0.1127
  H  H559  1  0.628570  0.536530  0.285130  1.0  0.1112
  H  H560  1  0.727770  0.610530  0.267130  1.0  0.1229
  H  H561  1  0.645370  0.450830  0.399930  1.0  0.1241
  H  H562  1  0.732270  0.480830  0.347530  1.0  0.1248
  H  H563  1  0.885070  0.668030  0.402230  1.0  0.1248
  H  H564  1  0.841270  0.634030  0.487730  1.0  0.1198
  H  H565  1  0.613570  0.537530  0.233330  1.0  0.1218
  H  H566  1  0.712770  0.610730  0.215030  1.0  0.1177
  H  H567  1  0.635170  0.395130  0.399130  1.0  0.1213
  H  H568  1  0.722870  0.425230  0.349730  1.0  0.1095
  H  H569  1  0.890470  0.683230  0.503430  1.0  0.1189
  H  H570  1  0.929370  0.663630  0.425230  1.0  0.114
  H  H571  1  0.618670  0.524430  0.179530  1.0  0.1197
  H  H572  1  0.686270  0.627230  0.179630  1.0  0.1163
  H  H573  1  0.722770  0.379830  0.375130  1.0  0.1147
  H  H574  1  0.991770  0.709830  0.500130  1.0  0.1208
  H  H575  1  0.631470  0.581430  0.101230  1.0  0.1299
  H  H576  1  0.997370  0.745830  0.539030  1.0  0.112
  H  H577  1  0.896670  0.678430  0.553330  1.0  0.1161
  H  H578  1  0.973170  0.640530  0.424630  1.0  0.0973
  H  H579  1  0.027670  0.740530  0.453730  1.0  0.117
  H  H580  1  0.602970  0.540330  0.077730  1.0  0.1206
  H  H581  1  0.579670  0.481730  0.156330  1.0  0.1245
  H  H582  1  0.636670  0.635730  0.095030  1.0  0.1077
  H  H583  1  0.725770  0.663030  0.140630  1.0  0.1151
  H  H584  1  0.003270  0.764830  0.590430  1.0  0.1243
  H  H585  1  0.903670  0.691830  0.605230  1.0  0.1069
  H  H586  1  0.021970  0.647430  0.397630  1.0  0.12
  H  H587  1  0.076470  0.747430  0.426730  1.0  0.1154
  H  H588  1  0.561270  0.492230  0.049830  1.0  0.1138
  H  H589  1  0.537970  0.433530  0.128530  1.0  0.1117
  H  H590  1  0.663570  0.688630  0.068530  1.0  0.1083
  H  H591  1  0.753170  0.715030  0.113030  1.0  0.111
  H  H592  1  0.942370  0.855130  0.660530  1.0  0.1126
  H  H593  1  0.026570  0.884330  0.715930  1.0  0.1134
  H  H594  1  0.949970  0.911030  0.664430  1.0  0.1275
  H  H595  1  0.034070  0.940130  0.719830  1.0  0.1218
  H  H596  1  0.945470  0.951130  0.695230  1.0  0.1139
  H  H597  1  0.496630  0.973070  0.712470  1.0  0.1152
  H  H598  1  0.452930  0.939170  0.797970  1.0  0.1127
  H  H599  1  0.295230  0.869870  0.618470  1.0  0.1112
  H  H600  1  0.394430  0.943870  0.600470  1.0  0.1229
  H  H601  1  0.312030  0.784170  0.733270  1.0  0.1241
  H  H602  1  0.398930  0.814170  0.680870  1.0  0.1248
  H  H603  1  0.551730  0.001370  0.735570  1.0  0.1248
  H  H604  1  0.507930  0.967370  0.821070  1.0  0.1198
  H  H605  1  0.280230  0.870870  0.566670  1.0  0.1218
  H  H606  1  0.379430  0.944070  0.548370  1.0  0.1177
  H  H607  1  0.301830  0.728470  0.732470  1.0  0.1213
  H  H608  1  0.389530  0.758570  0.683070  1.0  0.1095
  H  H609  1  0.557130  0.016570  0.836770  1.0  0.1189
  H  H610  1  0.596030  0.996970  0.758570  1.0  0.114
  H  H611  1  0.285330  0.857770  0.512870  1.0  0.1197
  H  H612  1  0.352930  0.960570  0.512970  1.0  0.1163
  H  H613  1  0.389430  0.713170  0.708470  1.0  0.1147
  H  H614  1  0.658430  0.043170  0.833470  1.0  0.1208
  H  H615  1  0.298130  0.914770  0.434570  1.0  0.1299
  H  H616  1  0.664030  0.079170  0.872370  1.0  0.1119
  H  H617  1  0.563330  0.011770  0.886670  1.0  0.1161
  H  H618  1  0.639830  0.973870  0.757970  1.0  0.0973
  H  H619  1  0.694330  0.073870  0.787070  1.0  0.117
  H  H620  1  0.269630  0.873670  0.411070  1.0  0.1204
  H  H621  1  0.246330  0.815070  0.489670  1.0  0.1244
  H  H622  1  0.303330  0.969070  0.428370  1.0  0.1077
  H  H623  1  0.392430  0.996370  0.473970  1.0  0.1151
  H  H624  1  0.669930  0.098170  0.923770  1.0  0.1243
  H  H625  1  0.570330  0.025170  0.938570  1.0  0.1069
  H  H626  1  0.688630  0.980770  0.730970  1.0  0.12
  H  H627  1  0.743130  0.080770  0.760070  1.0  0.1154
  H  H628  1  0.227930  0.825570  0.383170  1.0  0.1138
  H  H629  1  0.204630  0.766870  0.461870  1.0  0.1116
  H  H630  1  0.330230  0.021970  0.401870  1.0  0.1084
  H  H631  1  0.419830  0.048370  0.446370  1.0  0.111
  H  H632  1  0.609030  0.188470  0.993870  1.0  0.1126
  H  H633  1  0.693230  0.217670  0.049270  1.0  0.1134
  H  H634  1  0.616630  0.244370  0.997770  1.0  0.1275
  H  H635  1  0.700730  0.273470  0.053170  1.0  0.1218
  H  H636  1  0.612130  0.284470  0.028570  1.0  0.1123
  H  H637  1  0.693600  0.856900  0.045800  1.0  0.1147
  H  H638  1  0.727500  0.847100  0.131300  1.0  0.1131
  H  H639  1  0.796800  0.758700  0.951800  1.0  0.1114
  H  H640  1  0.722800  0.783900  0.933800  1.0  0.1226
  H  H641  1  0.882500  0.861200  0.066600  1.0  0.1244
  H  H642  1  0.852500  0.918100  0.014200  1.0  0.1246
  H  H643  1  0.665300  0.883700  0.068900  1.0  0.1237
  H  H644  1  0.699300  0.873900  0.154400  1.0  0.1201
  H  H645  1  0.795800  0.742700  0.900000  1.0  0.1235
  H  H646  1  0.722600  0.768700  0.881700  1.0  0.118
  H  H647  1  0.938200  0.906700  0.065800  1.0  0.1216
  H  H648  1  0.908100  0.964300  0.016400  1.0  0.1092
  H  H649  1  0.650100  0.873900  0.170100  1.0  0.1182
  H  H650  1  0.669700  0.932400  0.091900  1.0  0.116
  H  H651  1  0.808900  0.760900  0.846200  1.0  0.1183
  H  H652  1  0.706100  0.725700  0.846300  1.0  0.1147
  H  H653  1  0.953500  0.009600  0.041800  1.0  0.1169
  H  H654  1  0.623500  0.948600  0.166800  1.0  0.1198
  H  H655  1  0.751900  0.716700  0.767900  1.0  0.127
  H  H656  1  0.587500  0.918200  0.205700  1.0  0.1106
  H  H657  1  0.654900  0.884900  0.220000  1.0  0.1175
  H  H658  1  0.692800  0.999300  0.091300  1.0  0.0977
  H  H659  1  0.592800  0.953800  0.120400  1.0  0.1167
  H  H660  1  0.793000  0.729300  0.744400  1.0  0.1202
  H  H661  1  0.851600  0.764600  0.823000  1.0  0.1237
  H  H662  1  0.697600  0.667600  0.761700  1.0  0.1079
  H  H663  1  0.670300  0.729400  0.807300  1.0  0.1152
  H  H664  1  0.568500  0.905100  0.257100  1.0  0.1243
  H  H665  1  0.641500  0.878500  0.271900  1.0  0.1065
  H  H666  1  0.685900  0.041200  0.064300  1.0  0.1209
  H  H667  1  0.585900  0.995700  0.093400  1.0  0.1155
  H  H668  1  0.841100  0.735700  0.716500  1.0  0.1138
  H  H669  1  0.899800  0.771100  0.795200  1.0  0.1115
  H  H670  1  0.644700  0.641600  0.735200  1.0  0.1077
  H  H671  1  0.618300  0.704800  0.779700  1.0  0.1102
  H  H672  1  0.478200  0.753900  0.327200  1.0  0.1133
  H  H673  1  0.449000  0.808900  0.382600  1.0  0.1137
  H  H674  1  0.422300  0.705600  0.331100  1.0  0.126
  H  H675  1  0.393200  0.760600  0.386500  1.0  0.123
  H  H676  1  0.382200  0.661000  0.361900  1.0  0.1165
  H  H677  1  0.360270  0.190230  0.379130  1.0  0.1147
  H  H678  1  0.394170  0.180430  0.464630  1.0  0.1131
  H  H679  1  0.463470  0.092030  0.285130  1.0  0.1114
  H  H680  1  0.389470  0.117230  0.267130  1.0  0.1226
  H  H681  1  0.549170  0.194530  0.399930  1.0  0.1244
  H  H682  1  0.519170  0.251430  0.347530  1.0  0.1246
  H  H683  1  0.331970  0.217030  0.402230  1.0  0.1237
  H  H684  1  0.365970  0.207230  0.487730  1.0  0.1201
  H  H685  1  0.462470  0.076030  0.233330  1.0  0.1235
  H  H686  1  0.389270  0.102030  0.215030  1.0  0.118
  H  H687  1  0.604870  0.240030  0.399130  1.0  0.1216
  H  H688  1  0.574770  0.297630  0.349730  1.0  0.1092
  H  H689  1  0.316770  0.207230  0.503430  1.0  0.1182
  H  H690  1  0.336370  0.265730  0.425230  1.0  0.116
  H  H691  1  0.475570  0.094230  0.179530  1.0  0.1183
  H  H692  1  0.372770  0.059030  0.179630  1.0  0.1147
  H  H693  1  0.620170  0.342930  0.375130  1.0  0.1169
  H  H694  1  0.290170  0.281930  0.500130  1.0  0.1198
  H  H695  1  0.418570  0.050030  0.101230  1.0  0.127
  H  H696  1  0.254170  0.251530  0.539030  1.0  0.1107
  H  H697  1  0.321570  0.218230  0.553330  1.0  0.1175
  H  H698  1  0.359470  0.332630  0.424630  1.0  0.0977
  H  H699  1  0.259470  0.287130  0.453730  1.0  0.1167
  H  H700  1  0.459670  0.062630  0.077730  1.0  0.1202
  H  H701  1  0.518270  0.097930  0.156330  1.0  0.1237
  H  H702  1  0.364270  0.000930  0.095030  1.0  0.1079
  H  H703  1  0.336970  0.062730  0.140630  1.0  0.1152
  H  H704  1  0.235170  0.238430  0.590430  1.0  0.1243
  H  H705  1  0.308170  0.211830  0.605230  1.0  0.1064
  H  H706  1  0.352570  0.374530  0.397630  1.0  0.1209
  H  H707  1  0.252570  0.329030  0.426730  1.0  0.1155
  H  H708  1  0.507770  0.069030  0.049830  1.0  0.1138
  H  H709  1  0.566470  0.104430  0.128530  1.0  0.1115
  H  H710  1  0.311370  0.974930  0.068530  1.0  0.1077
  H  H711  1  0.284970  0.038130  0.113030  1.0  0.1102
  H  H712  1  0.144870  0.087230  0.660530  1.0  0.1133
  H  H713  1  0.115670  0.142230  0.715930  1.0  0.1137
  H  H714  1  0.088970  0.038930  0.664430  1.0  0.1268
  H  H715  1  0.059870  0.093930  0.719830  1.0  0.123
  H  H716  1  0.048870  0.994330  0.695230  1.0  0.1165
  H  H717  1  0.026930  0.523570  0.712470  1.0  0.1147
  H  H718  1  0.060830  0.513770  0.797970  1.0  0.1131
  H  H719  1  0.130130  0.425370  0.618470  1.0  0.1114
  H  H720  1  0.056130  0.450570  0.600470  1.0  0.1226
  H  H721  1  0.215830  0.527870  0.733270  1.0  0.1244
  H  H722  1  0.185830  0.584770  0.680870  1.0  0.1246
  H  H723  1  0.998630  0.550370  0.735570  1.0  0.1237
  H  H724  1  0.032630  0.540570  0.821070  1.0  0.1201
  H  H725  1  0.129130  0.409370  0.566670  1.0  0.1235
  H  H726  1  0.055930  0.435370  0.548370  1.0  0.118
  H  H727  1  0.271530  0.573370  0.732470  1.0  0.1216
  H  H728  1  0.241430  0.630970  0.683070  1.0  0.1092
  H  H729  1  0.983430  0.540570  0.836770  1.0  0.1182
  H  H730  1  0.003030  0.599070  0.758570  1.0  0.116
  H  H731  1  0.142230  0.427570  0.512870  1.0  0.1183
  H  H732  1  0.039430  0.392370  0.512970  1.0  0.1147
  H  H733  1  0.286830  0.676270  0.708470  1.0  0.1169
  H  H734  1  0.956830  0.615270  0.833470  1.0  0.1198
  H  H735  1  0.085230  0.383370  0.434570  1.0  0.127
  H  H736  1  0.920830  0.584870  0.872370  1.0  0.1106
  H  H737  1  0.988230  0.551570  0.886670  1.0  0.1175
  H  H738  1  0.026130  0.665970  0.757970  1.0  0.0977
  H  H739  1  0.926130  0.620470  0.787070  1.0  0.1167
  H  H740  1  0.126330  0.395970  0.411070  1.0  0.12
  H  H741  1  0.184930  0.431270  0.489670  1.0  0.1237
  H  H742  1  0.030930  0.334270  0.428370  1.0  0.1079
  H  H743  1  0.003630  0.396070  0.473970  1.0  0.1152
  H  H744  1  0.901830  0.571770  0.923770  1.0  0.1243
  H  H745  1  0.974830  0.545170  0.938570  1.0  0.1065
  H  H746  1  0.019230  0.707870  0.730970  1.0  0.1209
  H  H747  1  0.919230  0.662370  0.760070  1.0  0.1155
  H  H748  1  0.174430  0.402370  0.383170  1.0  0.1138
  H  H749  1  0.233130  0.437770  0.461870  1.0  0.1117
  H  H750  1  0.978030  0.308270  0.401870  1.0  0.1078
  H  H751  1  0.951630  0.371470  0.446370  1.0  0.1102
  H  H752  1  0.811530  0.420570  0.993870  1.0  0.1133
  H  H753  1  0.782330  0.475570  0.049270  1.0  0.1137
  H  H754  1  0.755630  0.372270  0.997770  1.0  0.126
  H  H755  1  0.726530  0.427270  0.053170  1.0  0.123
  H  H756  1  0.715530  0.327670  0.028570  1.0  0.1163
  C  C757  1  0.832020  0.101930  0.929340  1.0  0.6578
  C  C758  1  0.781240  0.021560  0.018370  1.0  0.6521
  C  C759  1  0.854850  0.029130  0.959980  1.0  0.6372
  C  C760  1  0.849310  0.135980  0.913740  1.0  -0.1363
  C  C761  1  0.771810  0.012490  0.051550  1.0  -0.1275
  C  C762  1  0.884600  0.023060  0.959720  1.0  -0.1285
  C  C763  1  0.860290  0.165580  0.932430  1.0  -0.0568
  C  C764  1  0.854410  0.139380  0.881220  1.0  -0.0596
  C  C765  1  0.760250  0.978820  0.062280  1.0  -0.0188
  C  C766  1  0.775470  0.038150  0.072870  1.0  -0.0989
  C  C767  1  0.881720  0.994040  0.943910  1.0  -0.083
  C  C768  1  0.916010  0.046310  0.974990  1.0  -0.0909
  C  C769  1  0.876360  0.198570  0.918590  1.0  -0.1264
  C  C770  1  0.870480  0.172370  0.867380  1.0  -0.1085
  C  C771  1  0.750990  0.969770  0.093360  1.0  -0.1179
  C  C772  1  0.766470  0.029070  0.104040  1.0  -0.0811
  C  C773  1  0.909230  0.988460  0.944070  1.0  -0.1015
  C  C774  1  0.943420  0.040390  0.973810  1.0  -0.1095
  C  C775  1  0.881460  0.201960  0.886060  1.0  0.0653
  C  C776  1  0.754100  0.995110  0.114680  1.0  0.0295
  C  C777  1  0.941490  0.011590  0.958510  1.0  0.1065
  C  C778  1  0.900160  0.237830  0.871370  1.0  0.0581
  C  C779  1  0.743800  0.986450  0.149200  1.0  -0.0163
  C  C780  1  0.971840  0.006140  0.957080  1.0  0.0248
  C  C781  1  0.891700  0.242500  0.840780  1.0  -0.0845
  C  C782  1  0.926770  0.265860  0.887680  1.0  -0.1065
  C  C783  1  0.749960  0.962390  0.164330  1.0  -0.1008
  C  C784  1  0.728900  0.003040  0.164380  1.0  -0.1075
  C  C785  1  0.005670  0.033370  0.957560  1.0  -0.1341
  C  C786  1  0.909880  0.275190  0.826500  1.0  0.0597
  C  C787  1  0.944950  0.298550  0.873390  1.0  0.0645
  C  C788  1  0.739500  0.953890  0.195920  1.0  -0.0113
  C  C789  1  0.718500  0.995180  0.196030  1.0  0.029
  C  C790  1  0.936500  0.303220  0.842800  1.0  -0.1155
  C  C791  1  0.902500  0.279930  0.792790  1.0  0.0689
  C  C792  1  0.972380  0.328880  0.891470  1.0  0.0508
  C  C793  1  0.723800  0.970480  0.211220  1.0  -0.0942
  C  C794  1  0.746280  0.928790  0.213560  1.0  0.0447
  C  C795  1  0.701850  0.012600  0.213040  1.0  0.0431
  C  C796  1  0.908640  0.311270  0.781040  1.0  -0.1252
  C  C797  1  0.889800  0.251770  0.772460  1.0  -0.1556
  C  C798  1  0.998560  0.327190  0.908290  1.0  -0.1457
  C  C799  1  0.971310  0.359830  0.890830  1.0  -0.1401
  C  C800  1  0.737640  0.923270  0.245450  1.0  -0.1467
  C  C801  1  0.758810  0.909330  0.198340  1.0  -0.1201
  C  C802  1  0.675090  0.993460  0.234670  1.0  -0.1471
  C  C803  1  0.712100  0.046570  0.207650  1.0  -0.0721
  C  C804  1  0.901120  0.315050  0.750280  1.0  -0.1009
  C  C805  1  0.884500  0.255500  0.742000  1.0  -0.0494
  C  C806  1  0.023670  0.356450  0.924460  1.0  -0.0773
  C  C807  1  0.996430  0.389090  0.907010  1.0  -0.0935
  C  C808  1  0.741500  0.898300  0.262140  1.0  -0.0363
  C  C809  1  0.762700  0.884350  0.215030  1.0  -0.0449
  C  C810  1  0.659760  0.009750  0.250720  1.0  -0.0588
  C  C811  1  0.697140  0.063060  0.224120  1.0  -0.0535
  C  C812  1  0.887610  0.286400  0.730470  1.0  -0.1082
  C  C813  1  0.022610  0.387400  0.923820  1.0  -0.0663
  C  C814  1  0.754060  0.878830  0.246930  1.0  -0.1411
  C  C815  1  0.671230  0.044950  0.245950  1.0  -0.1433
  C  C816  1  0.879980  0.289200  0.696600  1.0  0.6888
  C  C817  1  0.047900  0.417340  0.941420  1.0  0.6818
  C  C818  1  0.757700  0.849300  0.264300  1.0  0.6711
  C  C819  1  0.656070  0.063350  0.263140  1.0  0.6664
  C  C820  1  0.815870  0.309880  0.645500  1.0  0.6526
  C  C821  1  0.786150  0.317080  0.645470  1.0  -0.1338
  C  C822  1  0.755220  0.294120  0.660890  1.0  -0.0395
  C  C823  1  0.788160  0.344550  0.627730  1.0  -0.0636
  C  C824  1  0.726290  0.298630  0.658570  1.0  -0.1416
  C  C825  1  0.759240  0.349050  0.625420  1.0  -0.1102
  C  C826  1  0.728300  0.326090  0.640830  1.0  0.0456
  C  C827  1  0.696400  0.330600  0.637800  1.0  0.0506
  C  C828  1  0.663200  0.300800  0.637940  1.0  -0.0852
  C  C829  1  0.498690  0.435260  0.262670  1.0  0.6577
  C  C830  1  0.447910  0.354890  0.351700  1.0  0.6521
  C  C831  1  0.521520  0.362460  0.293310  1.0  0.6372
  C  C832  1  0.515980  0.469310  0.247070  1.0  -0.1363
  C  C833  1  0.438480  0.345820  0.384880  1.0  -0.1275
  C  C834  1  0.551270  0.356390  0.293050  1.0  -0.1285
  C  C835  1  0.526960  0.498910  0.265760  1.0  -0.0568
  C  C836  1  0.521080  0.472710  0.214550  1.0  -0.0596
  C  C837  1  0.426920  0.312150  0.395610  1.0  -0.0188
  C  C838  1  0.442140  0.371480  0.406200  1.0  -0.0989
  C  C839  1  0.548390  0.327370  0.277240  1.0  -0.083
  C  C840  1  0.582680  0.379640  0.308320  1.0  -0.0909
  C  C841  1  0.543030  0.531900  0.251920  1.0  -0.1264
  C  C842  1  0.537150  0.505700  0.200710  1.0  -0.1085
  C  C843  1  0.417660  0.303100  0.426690  1.0  -0.1179
  C  C844  1  0.433140  0.362400  0.437370  1.0  -0.0811
  C  C845  1  0.575900  0.321790  0.277400  1.0  -0.1016
  C  C846  1  0.610090  0.373720  0.307140  1.0  -0.1095
  C  C847  1  0.548130  0.535290  0.219390  1.0  0.0653
  C  C848  1  0.420770  0.328440  0.448010  1.0  0.0295
  C  C849  1  0.608160  0.344920  0.291840  1.0  0.1065
  C  C850  1  0.566830  0.571160  0.204700  1.0  0.0581
  C  C851  1  0.410470  0.319780  0.482530  1.0  -0.0163
  C  C852  1  0.638510  0.339470  0.290410  1.0  0.0253
  C  C853  1  0.558370  0.575830  0.174110  1.0  -0.0845
  C  C854  1  0.593440  0.599190  0.221010  1.0  -0.1065
  C  C855  1  0.416630  0.295720  0.497660  1.0  -0.1008
  C  C856  1  0.395570  0.336370  0.497710  1.0  -0.1075
  C  C857  1  0.672340  0.366700  0.290890  1.0  -0.1341
  C  C858  1  0.576550  0.608520  0.159830  1.0  0.0597
  C  C859  1  0.611620  0.631880  0.206720  1.0  0.0645
  C  C860  1  0.406170  0.287220  0.529250  1.0  -0.0113
  C  C861  1  0.385170  0.328510  0.529360  1.0  0.029
  C  C862  1  0.603170  0.636550  0.176130  1.0  -0.1155
  C  C863  1  0.569170  0.613260  0.126120  1.0  0.0689
  C  C864  1  0.639050  0.662210  0.224800  1.0  0.0508
  C  C865  1  0.390470  0.303810  0.544550  1.0  -0.0942
  C  C866  1  0.412950  0.262120  0.546890  1.0  0.0447
  C  C867  1  0.368520  0.345930  0.546370  1.0  0.0431
  C  C868  1  0.575310  0.644600  0.114370  1.0  -0.1252
  C  C869  1  0.556470  0.585100  0.105790  1.0  -0.1556
  C  C870  1  0.665230  0.660520  0.241620  1.0  -0.1457
  C  C871  1  0.637980  0.693160  0.224160  1.0  -0.1401
  C  C872  1  0.404310  0.256600  0.578780  1.0  -0.1467
  C  C873  1  0.425480  0.242660  0.531670  1.0  -0.1201
  C  C874  1  0.341760  0.326790  0.568000  1.0  -0.1471
  C  C875  1  0.378770  0.379900  0.540980  1.0  -0.0721
  C  C876  1  0.567790  0.648380  0.083610  1.0  -0.1009
  C  C877  1  0.551170  0.588830  0.075330  1.0  -0.0494
  C  C878  1  0.690340  0.689780  0.257790  1.0  -0.0773
  C  C879  1  0.663100  0.722420  0.240340  1.0  -0.0935
  C  C880  1  0.408170  0.231630  0.595470  1.0  -0.0363
  C  C881  1  0.429370  0.217680  0.548360  1.0  -0.0449
  C  C882  1  0.326430  0.343080  0.584050  1.0  -0.0588
  C  C883  1  0.363810  0.396390  0.557450  1.0  -0.0789
  C  C884  1  0.554280  0.619730  0.063800  1.0  -0.1082
  C  C885  1  0.689280  0.720730  0.257150  1.0  -0.0663
  C  C886  1  0.420730  0.212160  0.580260  1.0  -0.1413
  C  C887  1  0.337900  0.378280  0.579280  1.0  -0.1433
  C  C888  1  0.546650  0.622530  0.029930  1.0  0.6888
  C  C889  1  0.714570  0.750670  0.274750  1.0  0.682
  C  C890  1  0.424370  0.182630  0.597630  1.0  0.671
  C  C891  1  0.322740  0.396680  0.596470  1.0  0.6636
  C  C892  1  0.482540  0.643210  0.978830  1.0  0.6526
  C  C893  1  0.452820  0.650410  0.978800  1.0  -0.1338
  C  C894  1  0.421890  0.627450  0.994220  1.0  -0.0395
  C  C895  1  0.454830  0.677880  0.961060  1.0  -0.0636
  C  C896  1  0.392960  0.631960  0.991900  1.0  -0.1416
  C  C897  1  0.425910  0.682380  0.958750  1.0  -0.1101
  C  C898  1  0.394970  0.659420  0.974160  1.0  0.0456
  C  C899  1  0.363070  0.663930  0.971130  1.0  0.0521
  C  C900  1  0.329870  0.634130  0.971270  1.0  -0.0852
  C  C901  1  0.165350  0.768600  0.596010  1.0  0.6578
  C  C902  1  0.114570  0.688230  0.685040  1.0  0.6521
  C  C903  1  0.188180  0.695800  0.626650  1.0  0.6372
  C  C904  1  0.182640  0.802650  0.580410  1.0  -0.1363
  C  C905  1  0.105140  0.679160  0.718220  1.0  -0.1275
  C  C906  1  0.217930  0.689730  0.626390  1.0  -0.1285
  C  C907  1  0.193620  0.832250  0.599100  1.0  -0.0568
  C  C908  1  0.187740  0.806050  0.547890  1.0  -0.0596
  C  C909  1  0.093580  0.645490  0.728950  1.0  -0.0188
  C  C910  1  0.108800  0.704820  0.739540  1.0  -0.0989
  C  C911  1  0.215050  0.660710  0.610580  1.0  -0.083
  C  C912  1  0.249340  0.712980  0.641660  1.0  -0.0909
  C  C913  1  0.209690  0.865240  0.585260  1.0  -0.1264
  C  C914  1  0.203810  0.839040  0.534050  1.0  -0.1085
  C  C915  1  0.084320  0.636440  0.760030  1.0  -0.1179
  C  C916  1  0.099800  0.695740  0.770710  1.0  -0.0811
  C  C917  1  0.242560  0.655130  0.610740  1.0  -0.1015
  C  C918  1  0.276750  0.707060  0.640480  1.0  -0.1095
  C  C919  1  0.214790  0.868630  0.552730  1.0  0.0653
  C  C920  1  0.087430  0.661780  0.781350  1.0  0.0295
  C  C921  1  0.274820  0.678260  0.625180  1.0  0.1065
  C  C922  1  0.233490  0.904500  0.538040  1.0  0.0581
  C  C923  1  0.077130  0.653120  0.815870  1.0  -0.0163
  C  C924  1  0.305170  0.672810  0.623750  1.0  0.0248
  C  C925  1  0.225030  0.909170  0.507450  1.0  -0.0847
  C  C926  1  0.260100  0.932530  0.554350  1.0  -0.1065
  C  C927  1  0.083290  0.629060  0.831000  1.0  -0.1008
  C  C928  1  0.062230  0.669710  0.831050  1.0  -0.1075
  C  C929  1  0.339000  0.700040  0.624230  1.0  -0.1341
  C  C930  1  0.243210  0.941860  0.493170  1.0  0.0597
  C  C931  1  0.278280  0.965220  0.540060  1.0  0.0645
  C  C932  1  0.072830  0.620560  0.862590  1.0  -0.0113
  C  C933  1  0.051830  0.661850  0.862700  1.0  0.029
  C  C934  1  0.269830  0.969890  0.509470  1.0  -0.1155
  C  C935  1  0.235830  0.946600  0.459460  1.0  0.0689
  C  C936  1  0.305710  0.995550  0.558140  1.0  0.0508
  C  C937  1  0.057130  0.637150  0.877890  1.0  -0.0942
  C  C938  1  0.079610  0.595460  0.880230  1.0  0.0447
  C  C939  1  0.035180  0.679270  0.879710  1.0  0.0431
  C  C940  1  0.241970  0.977940  0.447710  1.0  -0.1252
  C  C941  1  0.223130  0.918440  0.439130  1.0  -0.1556
  C  C942  1  0.331890  0.993860  0.574960  1.0  -0.1457
  C  C943  1  0.304640  0.026500  0.557500  1.0  -0.1401
  C  C944  1  0.070970  0.589940  0.912120  1.0  -0.1467
  C  C945  1  0.092140  0.576000  0.865010  1.0  -0.1201
  C  C946  1  0.008420  0.660130  0.901340  1.0  -0.1471
  C  C947  1  0.045430  0.713240  0.874320  1.0  -0.0721
  C  C948  1  0.234450  0.981720  0.416950  1.0  -0.1009
  C  C949  1  0.217830  0.922170  0.408670  1.0  -0.0494
  C  C950  1  0.357000  0.023120  0.591130  1.0  -0.0773
  C  C951  1  0.329760  0.055760  0.573680  1.0  -0.0935
  C  C952  1  0.074830  0.564970  0.928810  1.0  -0.0363
  C  C953  1  0.096030  0.551020  0.881700  1.0  -0.0449
  C  C954  1  0.993090  0.676420  0.917390  1.0  -0.0588
  C  C955  1  0.030470  0.729730  0.890790  1.0  -0.0535
  C  C956  1  0.220940  0.953070  0.397140  1.0  -0.1082
  C  C957  1  0.355940  0.054070  0.590490  1.0  -0.0664
  C  C958  1  0.087390  0.545500  0.913600  1.0  -0.1411
  C  C959  1  0.004560  0.711620  0.912620  1.0  -0.1433
  C  C960  1  0.213310  0.955870  0.363270  1.0  0.6888
  C  C961  1  0.381230  0.084010  0.608090  1.0  0.6816
  C  C962  1  0.091030  0.515970  0.930970  1.0  0.6712
  C  C963  1  0.989400  0.730020  0.929810  1.0  0.6664
  C  C964  1  0.149200  0.976550  0.312170  1.0  0.6526
  C  C965  1  0.119480  0.983750  0.312140  1.0  -0.1338
  C  C966  1  0.088550  0.960790  0.327560  1.0  -0.0395
  C  C967  1  0.121490  0.011220  0.294400  1.0  -0.0636
  C  C968  1  0.059620  0.965300  0.325240  1.0  -0.1416
  C  C969  1  0.092570  0.015720  0.292090  1.0  -0.1102
  C  C970  1  0.061630  0.992760  0.307500  1.0  0.0456
  C  C971  1  0.029730  0.997270  0.304470  1.0  0.0506
  C  C972  1  0.996530  0.967470  0.304610  1.0  -0.0852
  C  C973  1  0.898070  0.730090  0.929340  1.0  0.6556
  C  C974  1  0.978440  0.759680  0.018370  1.0  0.6523
  C  C975  1  0.970870  0.825720  0.959980  1.0  0.6419
  C  C976  1  0.864020  0.713330  0.913740  1.0  -0.1382
  C  C977  1  0.987510  0.759320  0.051550  1.0  -0.128
  C  C978  1  0.976940  0.861540  0.959720  1.0  -0.1276
  C  C979  1  0.834420  0.694710  0.932430  1.0  -0.0579
  C  C980  1  0.860620  0.715030  0.881220  1.0  -0.0598
  C  C981  1  0.021180  0.781430  0.062280  1.0  -0.0235
  C  C982  1  0.961850  0.737320  0.072870  1.0  -0.1001
  C  C983  1  0.005960  0.887680  0.943910  1.0  -0.0839
  C  C984  1  0.953690  0.869700  0.974990  1.0  -0.089
  C  C985  1  0.801430  0.677790  0.918590  1.0  -0.1281
  C  C986  1  0.827630  0.698110  0.867380  1.0  -0.11
  C  C987  1  0.030230  0.781220  0.093360  1.0  -0.1178
  C  C988  1  0.970930  0.737400  0.104040  1.0  -0.0762
  C  C989  1  0.011540  0.920770  0.944070  1.0  -0.1023
  C  C990  1  0.959610  0.903030  0.973810  1.0  -0.1087
  C  C991  1  0.798040  0.679500  0.886060  1.0  0.0661
  C  C992  1  0.004890  0.758990  0.114680  1.0  0.0292
  C  C993  1  0.988410  0.929900  0.958510  1.0  0.1063
  C  C994  1  0.762170  0.662330  0.871370  1.0  0.059
  C  C995  1  0.013550  0.757350  0.149200  1.0  -0.0151
  C  C996  1  0.993860  0.965700  0.957080  1.0  0.0185
  C  C997  1  0.757500  0.649200  0.840780  1.0  -0.0867
  C  C998  1  0.734140  0.660910  0.887680  1.0  -0.1099
  C  C999  1  0.037610  0.787570  0.164330  1.0  -0.1009
  C  C1000  1  0.996960  0.725860  0.164380  1.0  -0.1103
  C  C1001  1  0.966630  0.972300  0.957560  1.0  -0.1347
  C  C1002  1  0.724810  0.634690  0.826500  1.0  0.0633
  C  C1003  1  0.701450  0.646400  0.873390  1.0  0.0669
  C  C1004  1  0.046110  0.785610  0.195920  1.0  -0.0114
  C  C1005  1  0.004820  0.723320  0.196030  1.0  0.0288
  C  C1006  1  0.696780  0.633280  0.842800  1.0  -0.1188
  C  C1007  1  0.720070  0.622570  0.792790  1.0  0.068
  C  C1008  1  0.671120  0.643500  0.891470  1.0  0.0509
  C  C1009  1  0.029520  0.753320  0.211220  1.0  -0.0951
  C  C1010  1  0.071210  0.817490  0.213560  1.0  0.0465
  C  C1011  1  0.987400  0.689250  0.213040  1.0  0.0408
  C  C1012  1  0.688730  0.597370  0.781040  1.0  -0.1263
  C  C1013  1  0.748230  0.638030  0.772460  1.0  -0.1502
  C  C1014  1  0.672810  0.671370  0.908290  1.0  -0.1453
  C  C1015  1  0.640170  0.611480  0.890830  1.0  -0.1417
  C  C1016  1  0.076730  0.814370  0.245450  1.0  -0.144
  C  C1017  1  0.090670  0.849480  0.198340  1.0  -0.1219
  C  C1018  1  0.006540  0.681630  0.234670  1.0  -0.1479
  C  C1019  1  0.953430  0.665530  0.207650  1.0  -0.0735
  C  C1020  1  0.684950  0.586070  0.750280  1.0  -0.0986
  C  C1021  1  0.744500  0.629000  0.742000  1.0  -0.0462
  C  C1022  1  0.643550  0.667220  0.924460  1.0  -0.079
  C  C1023  1  0.610910  0.607340  0.907010  1.0  -0.0928
  C  C1024  1  0.101700  0.843200  0.262140  1.0  -0.0357
  C  C1025  1  0.115650  0.878350  0.215030  1.0  -0.0479
  C  C1026  1  0.990250  0.650010  0.250720  1.0  -0.0577
  C  C1027  1  0.936940  0.634080  0.224120  1.0  -0.058
  C  C1028  1  0.713600  0.601210  0.730470  1.0  -0.1081
  C  C1029  1  0.612600  0.635210  0.923820  1.0  -0.0655
  C  C1030  1  0.121170  0.875230  0.246930  1.0  -0.1406
  C  C1031  1  0.955050  0.626280  0.245950  1.0  -0.1438
  C  C1032  1  0.710800  0.590780  0.696600  1.0  0.6878
  C  C1033  1  0.582660  0.630560  0.941420  1.0  0.6827
  C  C1034  1  0.150700  0.908400  0.264300  1.0  0.6704
  C  C1035  1  0.936650  0.592720  0.263140  1.0  0.667
  C  C1036  1  0.690120  0.505990  0.645500  1.0  0.6597
  C  C1037  1  0.682920  0.469070  0.645470  1.0  -0.1347
  C  C1038  1  0.705880  0.461100  0.660890  1.0  -0.0382
  C  C1039  1  0.655450  0.443610  0.627730  1.0  -0.0587
  C  C1040  1  0.701370  0.427660  0.658570  1.0  -0.1398
  C  C1041  1  0.650950  0.410190  0.625420  1.0  -0.1083
  C  C1042  1  0.673910  0.402210  0.640830  1.0  0.0482
  C  C1043  1  0.669400  0.365800  0.637800  1.0  0.0521
  C  C1044  1  0.699200  0.362400  0.637940  1.0  -0.0872
  C  C1045  1  0.564740  0.063420  0.262670  1.0  0.6555
  C  C1046  1  0.645110  0.093010  0.351700  1.0  0.6523
  C  C1047  1  0.637540  0.159050  0.293310  1.0  0.6419
  C  C1048  1  0.530690  0.046660  0.247070  1.0  -0.1382
  C  C1049  1  0.654180  0.092650  0.384880  1.0  -0.128
  C  C1050  1  0.643610  0.194870  0.293050  1.0  -0.1276
  C  C1051  1  0.501090  0.028040  0.265760  1.0  -0.0579
  C  C1052  1  0.527290  0.048360  0.214550  1.0  -0.0598
  C  C1053  1  0.687850  0.114760  0.395610  1.0  -0.0235
  C  C1054  1  0.628520  0.070650  0.406200  1.0  -0.1001
  C  C1055  1  0.672630  0.221010  0.277240  1.0  -0.0839
  C  C1056  1  0.620360  0.203030  0.308320  1.0  -0.089
  C  C1057  1  0.468100  0.011120  0.251920  1.0  -0.1281
  C  C1058  1  0.494300  0.031440  0.200710  1.0  -0.11
  C  C1059  1  0.696900  0.114550  0.426690  1.0  -0.1178
  C  C1060  1  0.637600  0.070730  0.437370  1.0  -0.0762
  C  C1061  1  0.678210  0.254100  0.277400  1.0  -0.1023
  C  C1062  1  0.626280  0.236360  0.307140  1.0  -0.1087
  C  C1063  1  0.464710  0.012830  0.219390  1.0  0.0661
  C  C1064  1  0.671560  0.092320  0.448010  1.0  0.0292
  C  C1065  1  0.655080  0.263230  0.291840  1.0  0.1063
  C  C1066  1  0.428840  0.995660  0.204700  1.0  0.059
  C  C1067  1  0.680220  0.090680  0.482530  1.0  -0.0151
  C  C1068  1  0.660530  0.299030  0.290410  1.0  0.0223
  C  C1069  1  0.424170  0.982530  0.174110  1.0  -0.0867
  C  C1070  1  0.400810  0.994240  0.221010  1.0  -0.1099
  C  C1071  1  0.704280  0.120900  0.497660  1.0  -0.1009
  C  C1072  1  0.663630  0.059190  0.497710  1.0  -0.1103
  C  C1073  1  0.633300  0.305630  0.290890  1.0  -0.1346
  C  C1074  1  0.391480  0.968020  0.159830  1.0  0.0633
  C  C1075  1  0.368120  0.979730  0.206720  1.0  0.0669
  C  C1076  1  0.712780  0.118940  0.529250  1.0  -0.0114
  C  C1077  1  0.671490  0.056650  0.529360  1.0  0.0288
  C  C1078  1  0.363450  0.966610  0.176130  1.0  -0.1188
  C  C1079  1  0.386740  0.955900  0.126120  1.0  0.068
  C  C1080  1  0.337790  0.976830  0.224800  1.0  0.0509
  C  C1081  1  0.696190  0.086650  0.544550  1.0  -0.0951
  C  C1082  1  0.737880  0.150820  0.546890  1.0  0.0465
  C  C1083  1  0.654070  0.022580  0.546370  1.0  0.0408
  C  C1084  1  0.355400  0.930700  0.114370  1.0  -0.1263
  C  C1085  1  0.414900  0.971360  0.105790  1.0  -0.1502
  C  C1086  1  0.339480  0.004700  0.241620  1.0  -0.1453
  C  C1087  1  0.306840  0.944810  0.224160  1.0  -0.1417
  C  C1088  1  0.743400  0.147700  0.578780  1.0  -0.144
  C  C1089  1  0.757340  0.182810  0.531670  1.0  -0.1219
  C  C1090  1  0.673210  0.014960  0.568000  1.0  -0.1479
  C  C1091  1  0.620100  0.998860  0.540980  1.0  -0.0735
  C  C1092  1  0.351620  0.919400  0.083610  1.0  -0.0986
  C  C1093  1  0.411170  0.962330  0.075330  1.0  -0.0462
  C  C1094  1  0.310220  0.000550  0.257790  1.0  -0.079
  C  C1095  1  0.277580  0.940670  0.240340  1.0  -0.0928
  C  C1096  1  0.768370  0.176530  0.595470  1.0  -0.0357
  C  C1097  1  0.782320  0.211680  0.548360  1.0  -0.0479
  C  C1098  1  0.656920  0.983340  0.584050  1.0  -0.0577
  C  C1099  1  0.603610  0.967410  0.557450  1.0  -0.058
  C  C1100  1  0.380270  0.934540  0.063800  1.0  -0.1081
  C  C1101  1  0.279270  0.968540  0.257150  1.0  -0.0656
  C  C1102  1  0.787840  0.208560  0.580260  1.0  -0.1408
  C  C1103  1  0.621720  0.959610  0.579280  1.0  -0.1439
  C  C1104  1  0.377470  0.924110  0.029930  1.0  0.6878
  C  C1105  1  0.249330  0.963890  0.274750  1.0  0.683
  C  C1106  1  0.817370  0.241730  0.597630  1.0  0.6705
  C  C1107  1  0.603320  0.926050  0.596470  1.0  0.6666
  C  C1108  1  0.356790  0.839320  0.978830  1.0  0.6597
  C  C1109  1  0.349590  0.802400  0.978800  1.0  -0.1347
  C  C1110  1  0.372550  0.794430  0.994220  1.0  -0.0382
  C  C1111  1  0.322120  0.776940  0.961060  1.0  -0.0587
  C  C1112  1  0.368040  0.760990  0.991900  1.0  -0.1398
  C  C1113  1  0.317620  0.743520  0.958750  1.0  -0.1083
  C  C1114  1  0.340580  0.735540  0.974160  1.0  0.0482
  C  C1115  1  0.336070  0.699130  0.971130  1.0  0.054
  C  C1116  1  0.365870  0.695730  0.971270  1.0  -0.0872
  C  C1117  1  0.231400  0.396760  0.596010  1.0  0.6556
  C  C1118  1  0.311770  0.426350  0.685040  1.0  0.6523
  C  C1119  1  0.304200  0.492390  0.626650  1.0  0.6413
  C  C1120  1  0.197350  0.380000  0.580410  1.0  -0.1382
  C  C1121  1  0.320840  0.425990  0.718220  1.0  -0.128
  C  C1122  1  0.310270  0.528210  0.626390  1.0  -0.1276
  C  C1123  1  0.167750  0.361380  0.599100  1.0  -0.0579
  C  C1124  1  0.193950  0.381700  0.547890  1.0  -0.0598
  C  C1125  1  0.354510  0.448100  0.728950  1.0  -0.0235
  C  C1126  1  0.295180  0.403990  0.739540  1.0  -0.1001
  C  C1127  1  0.339290  0.554350  0.610580  1.0  -0.0839
  C  C1128  1  0.287020  0.536370  0.641660  1.0  -0.089
  C  C1129  1  0.134760  0.344460  0.585260  1.0  -0.1281
  C  C1130  1  0.160960  0.364780  0.534050  1.0  -0.11
  C  C1131  1  0.363560  0.447890  0.760030  1.0  -0.1178
  C  C1132  1  0.304260  0.404070  0.770710  1.0  -0.0762
  C  C1133  1  0.344870  0.587440  0.610740  1.0  -0.1023
  C  C1134  1  0.292940  0.569700  0.640480  1.0  -0.1087
  C  C1135  1  0.131370  0.346170  0.552730  1.0  0.0661
  C  C1136  1  0.338220  0.425660  0.781350  1.0  0.0292
  C  C1137  1  0.321740  0.596570  0.625180  1.0  0.1063
  C  C1138  1  0.095500  0.329000  0.538040  1.0  0.059
  C  C1139  1  0.346880  0.424020  0.815870  1.0  -0.0151
  C  C1140  1  0.327190  0.632370  0.623750  1.0  0.0185
  C  C1141  1  0.090830  0.315870  0.507450  1.0  -0.0869
  C  C1142  1  0.067470  0.327580  0.554350  1.0  -0.1099
  C  C1143  1  0.370940  0.454240  0.831000  1.0  -0.1009
  C  C1144  1  0.330290  0.392530  0.831050  1.0  -0.1103
  C  C1145  1  0.299960  0.638970  0.624230  1.0  -0.1347
  C  C1146  1  0.058140  0.301360  0.493170  1.0  0.0633
  C  C1147  1  0.034780  0.313070  0.540060  1.0  0.0669
  C  C1148  1  0.379440  0.452280  0.862590  1.0  -0.0114
  C  C1149  1  0.338150  0.389990  0.862700  1.0  0.0288
  C  C1150  1  0.030110  0.299950  0.509470  1.0  -0.1188
  C  C1151  1  0.053400  0.289240  0.459460  1.0  0.068
  C  C1152  1  0.004450  0.310170  0.558140  1.0  0.0509
  C  C1153  1  0.362850  0.419990  0.877890  1.0  -0.0951
  C  C1154  1  0.404540  0.484160  0.880230  1.0  0.0465
  C  C1155  1  0.320730  0.355920  0.879710  1.0  0.0408
  C  C1156  1  0.022060  0.264040  0.447710  1.0  -0.1263
  C  C1157  1  0.081560  0.304700  0.439130  1.0  -0.1502
  C  C1158  1  0.006140  0.338040  0.574960  1.0  -0.1453
  C  C1159  1  0.973500  0.278150  0.557500  1.0  -0.1417
  C  C1160  1  0.410060  0.481040  0.912120  1.0  -0.1441
  C  C1161  1  0.424000  0.516150  0.865010  1.0  -0.1219
  C  C1162  1  0.339870  0.348300  0.901340  1.0  -0.1479
  C  C1163  1  0.286760  0.332200  0.874320  1.0  -0.0735
  C  C1164  1  0.018280  0.252740  0.416950  1.0  -0.0986
  C  C1165  1  0.077830  0.295670  0.408670  1.0  -0.0462
  C  C1166  1  0.976880  0.333890  0.591130  1.0  -0.079
  C  C1167  1  0.944240  0.274010  0.573680  1.0  -0.0928
  C  C1168  1  0.435030  0.509870  0.928810  1.0  -0.0357
  C  C1169  1  0.448980  0.545020  0.881700  1.0  -0.0479
  C  C1170  1  0.323580  0.316680  0.917390  1.0  -0.0577
  C  C1171  1  0.270270  0.300750  0.890790  1.0  -0.058
  C  C1172  1  0.046930  0.267880  0.397140  1.0  -0.1081
  C  C1173  1  0.945930  0.301880  0.590490  1.0  -0.0656
  C  C1174  1  0.454500  0.541900  0.913600  1.0  -0.1406
  C  C1175  1  0.288380  0.292950  0.912620  1.0  -0.1438
  C  C1176  1  0.044130  0.257450  0.363270  1.0  0.6878
  C  C1177  1  0.915990  0.297230  0.608090  1.0  0.6824
  C  C1178  1  0.484030  0.575070  0.930970  1.0  0.6703
  C  C1179  1  0.269980  0.259390  0.929810  1.0  0.667
  C  C1180  1  0.023450  0.172660  0.312170  1.0  0.6597
  C  C1181  1  0.016250  0.135740  0.312140  1.0  -0.1347
  C  C1182  1  0.039210  0.127770  0.327560  1.0  -0.0382
  C  C1183  1  0.988780  0.110280  0.294400  1.0  -0.0587
  C  C1184  1  0.034700  0.094330  0.325240  1.0  -0.1398
  C  C1185  1  0.984280  0.076860  0.292090  1.0  -0.1083
  C  C1186  1  0.007240  0.068880  0.307500  1.0  0.0482
  C  C1187  1  0.002730  0.032470  0.304470  1.0  0.0521
  C  C1188  1  0.032530  0.029070  0.304610  1.0  -0.0872
  C  C1189  1  0.269910  0.167980  0.929340  1.0  0.6574
  C  C1190  1  0.240320  0.218760  0.018370  1.0  0.6515
  C  C1191  1  0.174280  0.145150  0.959980  1.0  0.6416
  C  C1192  1  0.286670  0.150690  0.913740  1.0  -0.1371
  C  C1193  1  0.240680  0.228190  0.051550  1.0  -0.1262
  C  C1194  1  0.138460  0.115400  0.959720  1.0  -0.1288
  C  C1195  1  0.305290  0.139710  0.932430  1.0  -0.0585
  C  C1196  1  0.284970  0.145590  0.881220  1.0  -0.0617
  C  C1197  1  0.218570  0.239750  0.062280  1.0  -0.0186
  C  C1198  1  0.262680  0.224530  0.072870  1.0  -0.0991
  C  C1199  1  0.112320  0.118280  0.943910  1.0  -0.0846
  C  C1200  1  0.130300  0.083990  0.974990  1.0  -0.0892
  C  C1201  1  0.322210  0.123640  0.918590  1.0  -0.1261
  C  C1202  1  0.301890  0.129520  0.867380  1.0  -0.1121
  C  C1203  1  0.218780  0.249010  0.093360  1.0  -0.1208
  C  C1204  1  0.262600  0.233530  0.104040  1.0  -0.0827
  C  C1205  1  0.079230  0.090770  0.944070  1.0  -0.102
  C  C1206  1  0.096970  0.056580  0.973810  1.0  -0.1042
  C  C1207  1  0.320500  0.118540  0.886060  1.0  0.0657
  C  C1208  1  0.241010  0.245900  0.114680  1.0  0.03
  C  C1209  1  0.070100  0.058510  0.958510  1.0  0.1043
  C  C1210  1  0.337670  0.099840  0.871370  1.0  0.0561
  C  C1211  1  0.242650  0.256200  0.149200  1.0  -0.013
  C  C1212  1  0.034300  0.028160  0.957080  1.0  0.0184
  C  C1213  1  0.350800  0.108300  0.840780  1.0  -0.0838
  C  C1214  1  0.339090  0.073230  0.887680  1.0  -0.1076
  C  C1215  1  0.212430  0.250040  0.164330  1.0  -0.1022
  C  C1216  1  0.274140  0.271100  0.164380  1.0  -0.1105
  C  C1217  1  0.027700  0.994330  0.957560  1.0  -0.1311
  C  C1218  1  0.365310  0.090120  0.826500  1.0  0.0593
  C  C1219  1  0.353600  0.055050  0.873390  1.0  0.0637
  C  C1220  1  0.214390  0.260500  0.195920  1.0  -0.0048
  C  C1221  1  0.276680  0.281500  0.196030  1.0  0.028
  C  C1222  1  0.366720  0.063500  0.842800  1.0  -0.119
  C  C1223  1  0.377430  0.097500  0.792790  1.0  0.0687
  C  C1224  1  0.356500  0.027620  0.891470  1.0  0.0498
  C  C1225  1  0.246680  0.276200  0.211220  1.0  -0.0965
  C  C1226  1  0.182510  0.253720  0.213560  1.0  0.048
  C  C1227  1  0.310750  0.298150  0.213040  1.0  0.0424
  C  C1228  1  0.402630  0.091360  0.781040  1.0  -0.1212
  C  C1229  1  0.361970  0.110200  0.772460  1.0  -0.1556
  C  C1230  1  0.328630  0.001440  0.908290  1.0  -0.1441
  C  C1231  1  0.388520  0.028690  0.890830  1.0  -0.1377
  C  C1232  1  0.185630  0.262360  0.245450  1.0  -0.1468
  C  C1233  1  0.150520  0.241190  0.198340  1.0  -0.1212
  C  C1234  1  0.318370  0.324910  0.234670  1.0  -0.1449
  C  C1235  1  0.334470  0.287900  0.207650  1.0  -0.0738
  C  C1236  1  0.413930  0.098880  0.750280  1.0  -0.0972
  C  C1237  1  0.371000  0.115500  0.742000  1.0  -0.0507
  C  C1238  1  0.332780  0.976330  0.924460  1.0  -0.0768
  C  C1239  1  0.392660  0.003570  0.907010  1.0  -0.0957
  C  C1240  1  0.156800  0.258500  0.262140  1.0  -0.0359
  C  C1241  1  0.121650  0.237300  0.215030  1.0  -0.0462
  C  C1242  1  0.349990  0.340240  0.250720  1.0  -0.0593
  C  C1243  1  0.365920  0.302860  0.224120  1.0  -0.0561
  C  C1244  1  0.398790  0.112390  0.730470  1.0  -0.1079
  C  C1245  1  0.364790  0.977390  0.923820  1.0  -0.066
  C  C1246  1  0.124770  0.245940  0.246930  1.0  -0.1423
  C  C1247  1  0.373720  0.328770  0.245950  1.0  -0.1419
  C  C1248  1  0.409220  0.120020  0.696600  1.0  0.6884
  C  C1249  1  0.369440  0.952100  0.941420  1.0  0.6817
  C  C1250  1  0.091600  0.242300  0.264300  1.0  0.6713
  C  C1251  1  0.407280  0.343930  0.263140  1.0  0.6634
  C  C1252  1  0.494010  0.184130  0.645500  1.0  0.6541
  C  C1253  1  0.530930  0.213850  0.645470  1.0  -0.1342
  C  C1254  1  0.538900  0.244780  0.660890  1.0  -0.0413
  C  C1255  1  0.556390  0.211840  0.627730  1.0  -0.0621
  C  C1256  1  0.572340  0.273710  0.658570  1.0  -0.1407
  C  C1257  1  0.589810  0.240760  0.625420  1.0  -0.1091
  C  C1258  1  0.597790  0.271700  0.640830  1.0  0.0477
  C  C1259  1  0.634200  0.303600  0.637800  1.0  0.0546
  C  C1260  1  0.637600  0.336800  0.637940  1.0  -0.09
  C  C1261  1  0.936580  0.501310  0.262670  1.0  0.6574
  C  C1262  1  0.906990  0.552090  0.351700  1.0  0.6515
  C  C1263  1  0.840950  0.478480  0.293310  1.0  0.6416
  C  C1264  1  0.953340  0.484020  0.247070  1.0  -0.1371
  C  C1265  1  0.907350  0.561520  0.384880  1.0  -0.1262
  C  C1266  1  0.805130  0.448730  0.293050  1.0  -0.1288
  C  C1267  1  0.971960  0.473040  0.265760  1.0  -0.0585
  C  C1268  1  0.951640  0.478920  0.214550  1.0  -0.0617
  C  C1269  1  0.885240  0.573080  0.395610  1.0  -0.0186
  C  C1270  1  0.929350  0.557860  0.406200  1.0  -0.0991
  C  C1271  1  0.778990  0.451610  0.277240  1.0  -0.0846
  C  C1272  1  0.796970  0.417320  0.308320  1.0  -0.0892
  C  C1273  1  0.988880  0.456970  0.251920  1.0  -0.1261
  C  C1274  1  0.968560  0.462850  0.200710  1.0  -0.1121
  C  C1275  1  0.885450  0.582340  0.426690  1.0  -0.1208
  C  C1276  1  0.929270  0.566860  0.437370  1.0  -0.0827
  C  C1277  1  0.745900  0.424100  0.277400  1.0  -0.102
  C  C1278  1  0.763640  0.389910  0.307140  1.0  -0.1042
  C  C1279  1  0.987170  0.451870  0.219390  1.0  0.0657
  C  C1280  1  0.907680  0.579230  0.448010  1.0  0.03
  C  C1281  1  0.736770  0.391840  0.291840  1.0  0.1043
  C  C1282  1  0.004340  0.433170  0.204700  1.0  0.0561
  C  C1283  1  0.909320  0.589530  0.482530  1.0  -0.013
  C  C1284  1  0.700970  0.361490  0.290410  1.0  0.026
  C  C1285  1  0.017470  0.441630  0.174110  1.0  -0.0838
  C  C1286  1  0.005760  0.406560  0.221010  1.0  -0.1076
  C  C1287  1  0.879100  0.583370  0.497660  1.0  -0.1022
  C  C1288  1  0.940810  0.604430  0.497710  1.0  -0.1105
  C  C1289  1  0.694370  0.327660  0.290890  1.0  -0.1311
  C  C1290  1  0.031980  0.423450  0.159830  1.0  0.0593
  C  C1291  1  0.020270  0.388380  0.206720  1.0  0.0637
  C  C1292  1  0.881060  0.593830  0.529250  1.0  -0.0048
  C  C1293  1  0.943350  0.614830  0.529360  1.0  0.028
  C  C1294  1  0.033390  0.396830  0.176130  1.0  -0.119
  C  C1295  1  0.044100  0.430830  0.126120  1.0  0.0687
  C  C1296  1  0.023170  0.360950  0.224800  1.0  0.0498
  C  C1297  1  0.913350  0.609530  0.544550  1.0  -0.0965
  C  C1298  1  0.849180  0.587050  0.546890  1.0  0.048
  C  C1299  1  0.977420  0.631480  0.546370  1.0  0.0424
  C  C1300  1  0.069300  0.424690  0.114370  1.0  -0.1212
  C  C1301  1  0.028640  0.443530  0.105790  1.0  -0.1556
  C  C1302  1  0.995300  0.334770  0.241620  1.0  -0.1441
  C  C1303  1  0.055190  0.362020  0.224160  1.0  -0.1377
  C  C1304  1  0.852300  0.595690  0.578780  1.0  -0.1468
  C  C1305  1  0.817190  0.574520  0.531670  1.0  -0.1212
  C  C1306  1  0.985040  0.658240  0.568000  1.0  -0.1449
  C  C1307  1  0.001140  0.621230  0.540980  1.0  -0.0737
  C  C1308  1  0.080600  0.432210  0.083610  1.0  -0.0972
  C  C1309  1  0.037670  0.448830  0.075330  1.0  -0.0507
  C  C1310  1  0.999450  0.309660  0.257790  1.0  -0.0768
  C  C1311  1  0.059330  0.336900  0.240340  1.0  -0.0957
  C  C1312  1  0.823470  0.591830  0.595470  1.0  -0.0359
  C  C1313  1  0.788320  0.570630  0.548360  1.0  -0.0462
  C  C1314  1  0.016660  0.673570  0.584050  1.0  -0.0593
  C  C1315  1  0.032590  0.636190  0.557450  1.0  -0.0561
  C  C1316  1  0.065460  0.445720  0.063800  1.0  -0.1079
  C  C1317  1  0.031460  0.310720  0.257150  1.0  -0.066
  C  C1318  1  0.791440  0.579270  0.580260  1.0  -0.1421
  C  C1319  1  0.040390  0.662100  0.579280  1.0  -0.142
  C  C1320  1  0.075890  0.453350  0.029930  1.0  0.6884
  C  C1321  1  0.036110  0.285430  0.274750  1.0  0.6816
  C  C1322  1  0.758270  0.575630  0.597630  1.0  0.6713
  C  C1323  1  0.073950  0.677260  0.596470  1.0  0.6642
  C  C1324  1  0.160680  0.517460  0.978830  1.0  0.6541
  C  C1325  1  0.197600  0.547180  0.978800  1.0  -0.1342
  C  C1326  1  0.205570  0.578110  0.994220  1.0  -0.0413
  C  C1327  1  0.223060  0.545170  0.961060  1.0  -0.0621
  C  C1328  1  0.239010  0.607040  0.991900  1.0  -0.1407
  C  C1329  1  0.256480  0.574090  0.958750  1.0  -0.1092
  C  C1330  1  0.264460  0.605030  0.974160  1.0  0.0477
  C  C1331  1  0.300870  0.636930  0.971130  1.0  0.0553
  C  C1332  1  0.304270  0.670130  0.971270  1.0  -0.09
  C  C1333  1  0.603240  0.834650  0.596010  1.0  0.6574
  C  C1334  1  0.573650  0.885430  0.685040  1.0  0.6515
  C  C1335  1  0.507610  0.811820  0.626650  1.0  0.6416
  C  C1336  1  0.620000  0.817360  0.580410  1.0  -0.1371
  C  C1337  1  0.574010  0.894860  0.718220  1.0  -0.1262
  C  C1338  1  0.471790  0.782070  0.626390  1.0  -0.1288
  C  C1339  1  0.638620  0.806380  0.599100  1.0  -0.0585
  C  C1340  1  0.618300  0.812260  0.547890  1.0  -0.0617
  C  C1341  1  0.551900  0.906420  0.728950  1.0  -0.0186
  C  C1342  1  0.596010  0.891200  0.739540  1.0  -0.0991
  C  C1343  1  0.445650  0.784950  0.610580  1.0  -0.0846
  C  C1344  1  0.463630  0.750660  0.641660  1.0  -0.0892
  C  C1345  1  0.655540  0.790310  0.585260  1.0  -0.1261
  C  C1346  1  0.635220  0.796190  0.534050  1.0  -0.1121
  C  C1347  1  0.552110  0.915680  0.760030  1.0  -0.1208
  C  C1348  1  0.595930  0.900200  0.770710  1.0  -0.0827
  C  C1349  1  0.412560  0.757440  0.610740  1.0  -0.102
  C  C1350  1  0.430300  0.723250  0.640480  1.0  -0.1042
  C  C1351  1  0.653830  0.785210  0.552730  1.0  0.0657
  C  C1352  1  0.574340  0.912570  0.781350  1.0  0.03
  C  C1353  1  0.403430  0.725180  0.625180  1.0  0.1043
  C  C1354  1  0.671000  0.766510  0.538040  1.0  0.0561
  C  C1355  1  0.575980  0.922870  0.815870  1.0  -0.013
  C  C1356  1  0.367630  0.694830  0.623750  1.0  0.0184
  C  C1357  1  0.684130  0.774970  0.507450  1.0  -0.0833
  C  C1358  1  0.672420  0.739900  0.554350  1.0  -0.1076
  C  C1359  1  0.545760  0.916710  0.831000  1.0  -0.1022
  C  C1360  1  0.607470  0.937770  0.831050  1.0  -0.1105
  C  C1361  1  0.361030  0.661000  0.624230  1.0  -0.1311
  C  C1362  1  0.698640  0.756790  0.493170  1.0  0.0593
  C  C1363  1  0.686930  0.721720  0.540060  1.0  0.0637
  C  C1364  1  0.547720  0.927170  0.862590  1.0  -0.0048
  C  C1365  1  0.610010  0.948170  0.862700  1.0  0.028
  C  C1366  1  0.700050  0.730170  0.509470  1.0  -0.119
  C  C1367  1  0.710760  0.764170  0.459460  1.0  0.0687
  C  C1368  1  0.689830  0.694290  0.558140  1.0  0.0498
  C  C1369  1  0.580010  0.942870  0.877890  1.0  -0.0965
  C  C1370  1  0.515840  0.920390  0.880230  1.0  0.048
  C  C1371  1  0.644080  0.964820  0.879710  1.0  0.0424
  C  C1372  1  0.735960  0.758030  0.447710  1.0  -0.1212
  C  C1373  1  0.695300  0.776870  0.439130  1.0  -0.1555
  C  C1374  1  0.661960  0.668110  0.574960  1.0  -0.1441
  C  C1375  1  0.721850  0.695360  0.557500  1.0  -0.1377
  C  C1376  1  0.518960  0.929030  0.912120  1.0  -0.1468
  C  C1377  1  0.483850  0.907860  0.865010  1.0  -0.1212
  C  C1378  1  0.651700  0.991580  0.901340  1.0  -0.1449
  C  C1379  1  0.667800  0.954570  0.874320  1.0  -0.0738
  C  C1380  1  0.747260  0.765550  0.416950  1.0  -0.0972
  C  C1381  1  0.704330  0.782170  0.408670  1.0  -0.0507
  C  C1382  1  0.666110  0.643000  0.591130  1.0  -0.0768
  C  C1383  1  0.725990  0.670240  0.573680  1.0  -0.0957
  C  C1384  1  0.490130  0.925170  0.928810  1.0  -0.0359
  C  C1385  1  0.454980  0.903970  0.881700  1.0  -0.0462
  C  C1386  1  0.683320  0.006910  0.917390  1.0  -0.0593
  C  C1387  1  0.699250  0.969530  0.890790  1.0  -0.0561
  C  C1388  1  0.732120  0.779060  0.397140  1.0  -0.1079
  C  C1389  1  0.698120  0.644060  0.590490  1.0  -0.0659
  C  C1390  1  0.458100  0.912610  0.913600  1.0  -0.142
  C  C1391  1  0.707050  0.995440  0.912620  1.0  -0.1419
  C  C1392  1  0.742550  0.786690  0.363270  1.0  0.6884
  C  C1393  1  0.702770  0.618770  0.608090  1.0  0.6819
  C  C1394  1  0.424930  0.908970  0.930970  1.0  0.6711
  C  C1395  1  0.740610  0.010600  0.929810  1.0  0.6634
  C  C1396  1  0.827340  0.850800  0.312170  1.0  0.6541
  C  C1397  1  0.864260  0.880520  0.312140  1.0  -0.1342
  C  C1398  1  0.872230  0.911450  0.327560  1.0  -0.0413
  C  C1399  1  0.889720  0.878510  0.294400  1.0  -0.0621
  C  C1400  1  0.905670  0.940380  0.325240  1.0  -0.1407
  C  C1401  1  0.923140  0.907430  0.292090  1.0  -0.1091
  C  C1402  1  0.931120  0.938370  0.307500  1.0  0.0477
  C  C1403  1  0.967530  0.970270  0.304470  1.0  0.0546
  C  C1404  1  0.970930  0.003470  0.304610  1.0  -0.09
  C  C1405  1  0.167980  0.898070  0.070660  1.0  0.6579
  C  C1406  1  0.218760  0.978440  0.981630  1.0  0.6526
  C  C1407  1  0.145150  0.970870  0.040020  1.0  0.6368
  C  C1408  1  0.150690  0.864020  0.086260  1.0  -0.1368
  C  C1409  1  0.228190  0.987510  0.948450  1.0  -0.1286
  C  C1410  1  0.115400  0.976940  0.040280  1.0  -0.1296
  C  C1411  1  0.139710  0.834420  0.067570  1.0  -0.0573
  C  C1412  1  0.145590  0.860620  0.118780  1.0  -0.061
  C  C1413  1  0.239750  0.021180  0.937720  1.0  -0.0197
  C  C1414  1  0.224530  0.961850  0.927130  1.0  -0.0973
  C  C1415  1  0.118280  0.005960  0.056090  1.0  -0.0864
  C  C1416  1  0.083990  0.953690  0.025010  1.0  -0.0917
  C  C1417  1  0.123640  0.801430  0.081410  1.0  -0.1238
  C  C1418  1  0.129520  0.827630  0.132620  1.0  -0.1066
  C  C1419  1  0.249010  0.030230  0.906640  1.0  -0.118
  C  C1420  1  0.233530  0.970930  0.895960  1.0  -0.0827
  C  C1421  1  0.090770  0.011540  0.055930  1.0  -0.0992
  C  C1422  1  0.056580  0.959610  0.026190  1.0  -0.1094
  C  C1423  1  0.118540  0.798040  0.113940  1.0  0.0658
  C  C1424  1  0.245900  0.004890  0.885320  1.0  0.0308
  C  C1425  1  0.058510  0.988410  0.041490  1.0  0.1088
  C  C1426  1  0.099840  0.762170  0.128630  1.0  0.056
  C  C1427  1  0.256200  0.013550  0.850800  1.0  -0.0126
  C  C1428  1  0.028160  0.993860  0.042920  1.0  0.0316
  C  C1429  1  0.108300  0.757500  0.159220  1.0  -0.0835
  C  C1430  1  0.073230  0.734140  0.112320  1.0  -0.108
  C  C1431  1  0.250040  0.037610  0.835670  1.0  -0.1021
  C  C1432  1  0.271100  0.996960  0.835620  1.0  -0.1091
  C  C1433  1  0.994330  0.966630  0.042440  1.0  -0.1311
  C  C1434  1  0.090120  0.724810  0.173500  1.0  0.0589
  C  C1435  1  0.055050  0.701450  0.126610  1.0  0.0641
  C  C1436  1  0.260500  0.046110  0.804080  1.0  -0.012
  C  C1437  1  0.281500  0.004820  0.803970  1.0  0.0264
  C  C1438  1  0.063500  0.696780  0.157200  1.0  -0.1173
  C  C1439  1  0.097500  0.720070  0.207210  1.0  0.0672
  C  C1440  1  0.027620  0.671120  0.108530  1.0  0.0509
  C  C1441  1  0.276200  0.029520  0.788780  1.0  -0.0965
  C  C1442  1  0.253720  0.071210  0.786440  1.0  0.0451
  C  C1443  1  0.298150  0.987400  0.786960  1.0  0.0439
  C  C1444  1  0.091360  0.688730  0.218960  1.0  -0.1247
  C  C1445  1  0.110200  0.748230  0.227540  1.0  -0.1524
  C  C1446  1  0.001440  0.672810  0.091710  1.0  -0.1443
  C  C1447  1  0.028690  0.640170  0.109170  1.0  -0.1368
  C  C1448  1  0.262360  0.076730  0.754550  1.0  -0.1431
  C  C1449  1  0.241190  0.090670  0.801660  1.0  -0.1174
  C  C1450  1  0.324910  0.006540  0.765330  1.0  -0.1476
  C  C1451  1  0.287900  0.953430  0.792350  1.0  -0.074
  C  C1452  1  0.098880  0.684950  0.249720  1.0  -0.0999
  C  C1453  1  0.115500  0.744500  0.258000  1.0  -0.0515
  C  C1454  1  0.976330  0.643550  0.075540  1.0  -0.0779
  C  C1455  1  0.003570  0.610910  0.092990  1.0  -0.0918
  C  C1456  1  0.258500  0.101700  0.737860  1.0  -0.0371
  C  C1457  1  0.237300  0.115650  0.784970  1.0  -0.0459
  C  C1458  1  0.340240  0.990250  0.749280  1.0  -0.0583
  C  C1459  1  0.302860  0.936940  0.775880  1.0  -0.0549
  C  C1460  1  0.112390  0.713600  0.269530  1.0  -0.108
  C  C1461  1  0.977390  0.612600  0.076180  1.0  -0.067
  C  C1462  1  0.245940  0.121170  0.753070  1.0  -0.1413
  C  C1463  1  0.328770  0.955050  0.754050  1.0  -0.1445
  C  C1464  1  0.120020  0.710800  0.303400  1.0  0.6882
  C  C1465  1  0.952100  0.582660  0.058580  1.0  0.6813
  C  C1466  1  0.242300  0.150700  0.735700  1.0  0.6716
  C  C1467  1  0.343930  0.936650  0.736860  1.0  0.6663
  C  C1468  1  0.184130  0.690120  0.354500  1.0  0.6533
  C  C1469  1  0.213850  0.682920  0.354530  1.0  -0.1343
  C  C1470  1  0.244780  0.705880  0.339110  1.0  -0.0397
  C  C1471  1  0.211840  0.655450  0.372270  1.0  -0.0609
  C  C1472  1  0.273710  0.701370  0.341430  1.0  -0.1422
  C  C1473  1  0.240760  0.650950  0.374580  1.0  -0.1092
  C  C1474  1  0.271700  0.673910  0.359170  1.0  0.0456
  C  C1475  1  0.303600  0.669400  0.362200  1.0  0.0496
  C  C1476  1  0.336800  0.699200  0.362060  1.0  -0.0855
  C  C1477  1  0.834650  0.231400  0.403990  1.0  0.6579
  C  C1478  1  0.885430  0.311770  0.314960  1.0  0.6526
  C  C1479  1  0.811820  0.304200  0.373350  1.0  0.6368
  C  C1480  1  0.817360  0.197350  0.419590  1.0  -0.1368
  C  C1481  1  0.894860  0.320840  0.281780  1.0  -0.1286
  C  C1482  1  0.782070  0.310270  0.373610  1.0  -0.1296
  C  C1483  1  0.806380  0.167750  0.400900  1.0  -0.0573
  C  C1484  1  0.812260  0.193950  0.452110  1.0  -0.061
  C  C1485  1  0.906420  0.354510  0.271050  1.0  -0.0197
  C  C1486  1  0.891200  0.295180  0.260460  1.0  -0.0973
  C  C1487  1  0.784950  0.339290  0.389420  1.0  -0.0864
  C  C1488  1  0.750660  0.287020  0.358340  1.0  -0.0917
  C  C1489  1  0.790310  0.134760  0.414740  1.0  -0.1238
  C  C1490  1  0.796190  0.160960  0.465950  1.0  -0.1066
  C  C1491  1  0.915680  0.363560  0.239970  1.0  -0.118
  C  C1492  1  0.900200  0.304260  0.229290  1.0  -0.0827
  C  C1493  1  0.757440  0.344870  0.389260  1.0  -0.0992
  C  C1494  1  0.723250  0.292940  0.359520  1.0  -0.1094
  C  C1495  1  0.785210  0.131370  0.447270  1.0  0.0658
  C  C1496  1  0.912570  0.338220  0.218650  1.0  0.0308
  C  C1497  1  0.725180  0.321740  0.374820  1.0  0.1088
  C  C1498  1  0.766510  0.095500  0.461960  1.0  0.056
  C  C1499  1  0.922870  0.346880  0.184130  1.0  -0.0126
  C  C1500  1  0.694830  0.327190  0.376250  1.0  0.0316
  C  C1501  1  0.774970  0.090830  0.492550  1.0  -0.0837
  C  C1502  1  0.739900  0.067470  0.445650  1.0  -0.108
  C  C1503  1  0.916710  0.370940  0.169000  1.0  -0.1022
  C  C1504  1  0.937770  0.330290  0.168950  1.0  -0.1091
  C  C1505  1  0.661000  0.299960  0.375770  1.0  -0.1311
  C  C1506  1  0.756790  0.058140  0.506830  1.0  0.0589
  C  C1507  1  0.721720  0.034780  0.459940  1.0  0.0641
  C  C1508  1  0.927170  0.379440  0.137410  1.0  -0.012
  C  C1509  1  0.948170  0.338150  0.137300  1.0  0.0264
  C  C1510  1  0.730170  0.030110  0.490530  1.0  -0.1173
  C  C1511  1  0.764170  0.053400  0.540540  1.0  0.0672
  C  C1512  1  0.694290  0.004450  0.441860  1.0  0.0509
  C  C1513  1  0.942870  0.362850  0.122110  1.0  -0.0965
  C  C1514  1  0.920390  0.404540  0.119770  1.0  0.0451
  C  C1515  1  0.964820  0.320730  0.120290  1.0  0.0439
  C  C1516  1  0.758030  0.022060  0.552290  1.0  -0.1247
  C  C1517  1  0.776870  0.081560  0.560870  1.0  -0.1524
  C  C1518  1  0.668110  0.006140  0.425040  1.0  -0.1443
  C  C1519  1  0.695360  0.973500  0.442500  1.0  -0.1368
  C  C1520  1  0.929030  0.410060  0.087880  1.0  -0.1431
  C  C1521  1  0.907860  0.424000  0.134990  1.0  -0.1174
  C  C1522  1  0.991580  0.339870  0.098660  1.0  -0.1476
  C  C1523  1  0.954570  0.286760  0.125680  1.0  -0.074
  C  C1524  1  0.765550  0.018280  0.583050  1.0  -0.0999
  C  C1525  1  0.782170  0.077830  0.591330  1.0  -0.0515
  C  C1526  1  0.643000  0.976880  0.408870  1.0  -0.0779
  C  C1527  1  0.670240  0.944240  0.426320  1.0  -0.0918
  C  C1528  1  0.925170  0.435030  0.071190  1.0  -0.0371
  C  C1529  1  0.903970  0.448980  0.118300  1.0  -0.0459
  C  C1530  1  0.006910  0.323580  0.082610  1.0  -0.0583
  C  C1531  1  0.969530  0.270270  0.109210  1.0  -0.0549
  C  C1532  1  0.779060  0.046930  0.602860  1.0  -0.108
  C  C1533  1  0.644060  0.945930  0.409510  1.0  -0.0671
  C  C1534  1  0.912610  0.454500  0.086400  1.0  -0.1413
  C  C1535  1  0.995440  0.288380  0.087380  1.0  -0.1445
  C  C1536  1  0.786690  0.044130  0.636730  1.0  0.6882
  C  C1537  1  0.618770  0.915990  0.391910  1.0  0.6811
  C  C1538  1  0.908970  0.484030  0.069030  1.0  0.6717
  C  C1539  1  0.010600  0.269980  0.070190  1.0  0.6662
  C  C1540  1  0.850800  0.023450  0.687830  1.0  0.6533
  C  C1541  1  0.880520  0.016250  0.687860  1.0  -0.1343
  C  C1542  1  0.911450  0.039210  0.672440  1.0  -0.0397
  C  C1543  1  0.878510  0.988780  0.705600  1.0  -0.0609
  C  C1544  1  0.940380  0.034700  0.674760  1.0  -0.1422
  C  C1545  1  0.907430  0.984280  0.707910  1.0  -0.1092
  C  C1546  1  0.938370  0.007240  0.692500  1.0  0.0456
  C  C1547  1  0.970270  0.002730  0.695530  1.0  0.0496
  C  C1548  1  0.003470  0.032530  0.695390  1.0  -0.0855
  C  C1549  1  0.501310  0.564740  0.737330  1.0  0.6579
  C  C1550  1  0.552090  0.645110  0.648300  1.0  0.6526
  C  C1551  1  0.478480  0.637540  0.706690  1.0  0.6368
  C  C1552  1  0.484020  0.530690  0.752930  1.0  -0.1368
  C  C1553  1  0.561520  0.654180  0.615120  1.0  -0.1286
  C  C1554  1  0.448730  0.643610  0.706950  1.0  -0.1296
  C  C1555  1  0.473040  0.501090  0.734240  1.0  -0.0573
  C  C1556  1  0.478920  0.527290  0.785450  1.0  -0.061
  C  C1557  1  0.573080  0.687850  0.604390  1.0  -0.0197
  C  C1558  1  0.557860  0.628520  0.593800  1.0  -0.0973
  C  C1559  1  0.451610  0.672630  0.722760  1.0  -0.0864
  C  C1560  1  0.417320  0.620360  0.691680  1.0  -0.0917
  C  C1561  1  0.456970  0.468100  0.748080  1.0  -0.1238
  C  C1562  1  0.462850  0.494300  0.799290  1.0  -0.1066
  C  C1563  1  0.582340  0.696900  0.573310  1.0  -0.118
  C  C1564  1  0.566860  0.637600  0.562630  1.0  -0.0827
  C  C1565  1  0.424100  0.678210  0.722600  1.0  -0.0993
  C  C1566  1  0.389910  0.626280  0.692860  1.0  -0.1094
  C  C1567  1  0.451870  0.464710  0.780610  1.0  0.0658
  C  C1568  1  0.579230  0.671560  0.551990  1.0  0.0308
  C  C1569  1  0.391840  0.655080  0.708160  1.0  0.1088
  C  C1570  1  0.433170  0.428840  0.795300  1.0  0.056
  C  C1571  1  0.589530  0.680220  0.517470  1.0  -0.0126
  C  C1572  1  0.361490  0.660530  0.709590  1.0  0.0322
  C  C1573  1  0.441630  0.424170  0.825890  1.0  -0.0835
  C  C1574  1  0.406560  0.400810  0.778990  1.0  -0.108
  C  C1575  1  0.583370  0.704280  0.502340  1.0  -0.1021
  C  C1576  1  0.604430  0.663630  0.502290  1.0  -0.1091
  C  C1577  1  0.327660  0.633300  0.709110  1.0  -0.1311
  C  C1578  1  0.423450  0.391480  0.840170  1.0  0.0589
  C  C1579  1  0.388380  0.368120  0.793280  1.0  0.0641
  C  C1580  1  0.593830  0.712780  0.470750  1.0  -0.012
  C  C1581  1  0.614830  0.671490  0.470640  1.0  0.0264
  C  C1582  1  0.396830  0.363450  0.823870  1.0  -0.1173
  C  C1583  1  0.430830  0.386740  0.873880  1.0  0.0672
  C  C1584  1  0.360950  0.337790  0.775200  1.0  0.0509
  C  C1585  1  0.609530  0.696190  0.455450  1.0  -0.0965
  C  C1586  1  0.587050  0.737880  0.453110  1.0  0.0451
  C  C1587  1  0.631480  0.654070  0.453630  1.0  0.0439
  C  C1588  1  0.424690  0.355400  0.885630  1.0  -0.1247
  C  C1589  1  0.443530  0.414900  0.894210  1.0  -0.1524
  C  C1590  1  0.334770  0.339480  0.758380  1.0  -0.1443
  C  C1591  1  0.362020  0.306840  0.775840  1.0  -0.1368
  C  C1592  1  0.595690  0.743400  0.421220  1.0  -0.1431
  C  C1593  1  0.574520  0.757340  0.468330  1.0  -0.1174
  C  C1594  1  0.658240  0.673210  0.432000  1.0  -0.1476
  C  C1595  1  0.621230  0.620100  0.459020  1.0  -0.074
  C  C1596  1  0.432210  0.351620  0.916390  1.0  -0.0999
  C  C1597  1  0.448830  0.411170  0.924670  1.0  -0.0515
  C  C1598  1  0.309660  0.310220  0.742210  1.0  -0.0779
  C  C1599  1  0.336900  0.277580  0.759660  1.0  -0.0918
  C  C1600  1  0.591830  0.768370  0.404530  1.0  -0.0371
  C  C1601  1  0.570630  0.782320  0.451640  1.0  -0.0459
  C  C1602  1  0.673570  0.656920  0.415950  1.0  -0.0584
  C  C1603  1  0.636190  0.603610  0.442550  1.0  -0.0812
  C  C1604  1  0.445720  0.380270  0.936200  1.0  -0.108
  C  C1605  1  0.310720  0.279270  0.742850  1.0  -0.067
  C  C1606  1  0.579270  0.787840  0.419740  1.0  -0.1414
  C  C1607  1  0.662100  0.621720  0.420720  1.0  -0.1445
  C  C1608  1  0.453350  0.377470  0.970070  1.0  0.6882
  C  C1609  1  0.285430  0.249330  0.725250  1.0  0.6815
  C  C1610  1  0.575630  0.817370  0.402370  1.0  0.6715
  C  C1611  1  0.677260  0.603320  0.403530  1.0  0.6635
  C  C1612  1  0.517460  0.356790  0.021170  1.0  0.6533
  C  C1613  1  0.547180  0.349590  0.021200  1.0  -0.1343
  C  C1614  1  0.578110  0.372550  0.005780  1.0  -0.0397
  C  C1615  1  0.545170  0.322120  0.038940  1.0  -0.0609
  C  C1616  1  0.607040  0.368040  0.008100  1.0  -0.1422
  C  C1617  1  0.574090  0.317620  0.041250  1.0  -0.1091
  C  C1618  1  0.605030  0.340580  0.025840  1.0  0.0456
  C  C1619  1  0.636930  0.336070  0.028870  1.0  0.0512
  C  C1620  1  0.670130  0.365870  0.028730  1.0  -0.0855
  C  C1621  1  0.101930  0.269910  0.070660  1.0  0.656
  C  C1622  1  0.021560  0.240320  0.981630  1.0  0.6536
  C  C1623  1  0.029130  0.174280  0.040020  1.0  0.6426
  C  C1624  1  0.135980  0.286670  0.086260  1.0  -0.138
  C  C1625  1  0.012490  0.240680  0.948450  1.0  -0.1283
  C  C1626  1  0.023060  0.138460  0.040280  1.0  -0.1269
  C  C1627  1  0.165580  0.305290  0.067570  1.0  -0.0584
  C  C1628  1  0.139380  0.284970  0.118780  1.0  -0.0599
  C  C1629  1  0.978820  0.218570  0.937720  1.0  -0.0235
  C  C1630  1  0.038150  0.262680  0.927130  1.0  -0.0981
  C  C1631  1  0.994040  0.112320  0.056090  1.0  -0.0851
  C  C1632  1  0.046310  0.130300  0.025010  1.0  -0.0911
  C  C1633  1  0.198570  0.322210  0.081410  1.0  -0.1258
  C  C1634  1  0.172370  0.301890  0.132620  1.0  -0.1088
  C  C1635  1  0.969770  0.218780  0.906640  1.0  -0.1178
  C  C1636  1  0.029070  0.262600  0.895960  1.0  -0.0801
  C  C1637  1  0.988460  0.079230  0.055930  1.0  -0.0995
  C  C1638  1  0.040390  0.096970  0.026190  1.0  -0.1082
  C  C1639  1  0.201960  0.320500  0.113940  1.0  0.0652
  C  C1640  1  0.995110  0.241010  0.885320  1.0  0.0296
  C  C1641  1  0.011590  0.070100  0.041490  1.0  0.1093
  C  C1642  1  0.237830  0.337670  0.128630  1.0  0.0573
  C  C1643  1  0.986450  0.242650  0.850800  1.0  -0.0167
  C  C1644  1  0.006140  0.034300  0.042920  1.0  0.0264
  C  C1645  1  0.242500  0.350800  0.159220  1.0  -0.0855
  C  C1646  1  0.265860  0.339090  0.112320  1.0  -0.1105
  C  C1647  1  0.962390  0.212430  0.835670  1.0  -0.1005
  C  C1648  1  0.003040  0.274140  0.835620  1.0  -0.1102
  C  C1649  1  0.033370  0.027700  0.042440  1.0  -0.1308
  C  C1650  1  0.275190  0.365310  0.173500  1.0  0.061
  C  C1651  1  0.298550  0.353600  0.126610  1.0  0.0653
  C  C1652  1  0.953890  0.214390  0.804080  1.0  -0.0103
  C  C1653  1  0.995180  0.276680  0.803970  1.0  0.028
  C  C1654  1  0.303220  0.366720  0.157200  1.0  -0.1164
  C  C1655  1  0.279930  0.377430  0.207210  1.0  0.0715
  C  C1656  1  0.328880  0.356500  0.108530  1.0  0.0505
  C  C1657  1  0.970480  0.246680  0.788780  1.0  -0.0938
  C  C1658  1  0.928790  0.182510  0.786440  1.0  0.0455
  C  C1659  1  0.012600  0.310750  0.786960  1.0  0.0424
  C  C1660  1  0.311270  0.402630  0.218960  1.0  -0.1253
  C  C1661  1  0.251770  0.361970  0.227540  1.0  -0.1522
  C  C1662  1  0.327190  0.328630  0.091710  1.0  -0.1427
  C  C1663  1  0.359830  0.388520  0.109170  1.0  -0.141
  C  C1664  1  0.923270  0.185630  0.754550  1.0  -0.1454
  C  C1665  1  0.909330  0.150520  0.801660  1.0  -0.1222
  C  C1666  1  0.993460  0.318370  0.765330  1.0  -0.1473
  C  C1667  1  0.046570  0.334470  0.792350  1.0  -0.071
  C  C1668  1  0.315050  0.413930  0.249720  1.0  -0.0988
  C  C1669  1  0.255500  0.371000  0.258000  1.0  -0.0457
  C  C1670  1  0.356450  0.332780  0.075540  1.0  -0.0801
  C  C1671  1  0.389090  0.392660  0.092990  1.0  -0.0936
  C  C1672  1  0.898300  0.156800  0.737860  1.0  -0.0381
  C  C1673  1  0.884350  0.121650  0.784970  1.0  -0.047
  C  C1674  1  0.009750  0.349990  0.749280  1.0  -0.0576
  C  C1675  1  0.063060  0.365920  0.775880  1.0  -0.0559
  C  C1676  1  0.286400  0.398790  0.269530  1.0  -0.1084
  C  C1677  1  0.387400  0.364790  0.076180  1.0  -0.0651
  C  C1678  1  0.878830  0.124770  0.753070  1.0  -0.1416
  C  C1679  1  0.044950  0.373720  0.754050  1.0  -0.1416
  C  C1680  1  0.289200  0.409220  0.303400  1.0  0.6866
  C  C1681  1  0.417340  0.369440  0.058580  1.0  0.6814
  C  C1682  1  0.849300  0.091600  0.735700  1.0  0.6675
  C  C1683  1  0.063350  0.407280  0.736860  1.0  0.6676
  C  C1684  1  0.309880  0.494010  0.354500  1.0  0.658
  C  C1685  1  0.317080  0.530930  0.354530  1.0  -0.1339
  C  C1686  1  0.294120  0.538900  0.339110  1.0  -0.0403
  C  C1687  1  0.344550  0.556390  0.372270  1.0  -0.0573
  C  C1688  1  0.298630  0.572340  0.341430  1.0  -0.1414
  C  C1689  1  0.349050  0.589810  0.374580  1.0  -0.1077
  C  C1690  1  0.326090  0.597790  0.359170  1.0  0.0478
  C  C1691  1  0.330600  0.634200  0.362200  1.0  0.0518
  C  C1692  1  0.300800  0.637600  0.362060  1.0  -0.0878
  C  C1693  1  0.768600  0.603240  0.403990  1.0  0.656
  C  C1694  1  0.688230  0.573650  0.314960  1.0  0.6536
  C  C1695  1  0.695800  0.507610  0.373350  1.0  0.642
  C  C1696  1  0.802650  0.620000  0.419590  1.0  -0.1379
  C  C1697  1  0.679160  0.574010  0.281780  1.0  -0.1283
  C  C1698  1  0.689730  0.471790  0.373610  1.0  -0.1269
  C  C1699  1  0.832250  0.638620  0.400900  1.0  -0.0584
  C  C1700  1  0.806050  0.618300  0.452110  1.0  -0.0601
  C  C1701  1  0.645490  0.551900  0.271050  1.0  -0.0235
  C  C1702  1  0.704820  0.596010  0.260460  1.0  -0.0981
  C  C1703  1  0.660710  0.445650  0.389420  1.0  -0.0851
  C  C1704  1  0.712980  0.463630  0.358340  1.0  -0.0911
  C  C1705  1  0.865240  0.655540  0.414740  1.0  -0.1258
  C  C1706  1  0.839040  0.635220  0.465950  1.0  -0.1088
  C  C1707  1  0.636440  0.552110  0.239970  1.0  -0.1178
  C  C1708  1  0.695740  0.595930  0.229290  1.0  -0.0801
  C  C1709  1  0.655130  0.412560  0.389260  1.0  -0.0995
  C  C1710  1  0.707060  0.430300  0.359520  1.0  -0.1082
  C  C1711  1  0.868630  0.653830  0.447270  1.0  0.0652
  C  C1712  1  0.661780  0.574340  0.218650  1.0  0.0296
  C  C1713  1  0.678260  0.403430  0.374820  1.0  0.1093
  C  C1714  1  0.904500  0.671000  0.461960  1.0  0.0573
  C  C1715  1  0.653120  0.575980  0.184130  1.0  -0.0167
  C  C1716  1  0.672810  0.367630  0.376250  1.0  0.0264
  C  C1717  1  0.909170  0.684130  0.492550  1.0  -0.0857
  C  C1718  1  0.932530  0.672420  0.445650  1.0  -0.1105
  C  C1719  1  0.629060  0.545760  0.169000  1.0  -0.1005
  C  C1720  1  0.669710  0.607470  0.168950  1.0  -0.1102
  C  C1721  1  0.700040  0.361030  0.375770  1.0  -0.1308
  C  C1722  1  0.941860  0.698640  0.506830  1.0  0.061
  C  C1723  1  0.965220  0.686930  0.459940  1.0  0.0653
  C  C1724  1  0.620560  0.547720  0.137410  1.0  -0.0102
  C  C1725  1  0.661850  0.610010  0.137300  1.0  0.028
  C  C1726  1  0.969890  0.700050  0.490530  1.0  -0.1164
  C  C1727  1  0.946600  0.710760  0.540540  1.0  0.0715
  C  C1728  1  0.995550  0.689830  0.441860  1.0  0.0505
  C  C1729  1  0.637150  0.580010  0.122110  1.0  -0.0938
  C  C1730  1  0.595460  0.515840  0.119770  1.0  0.0456
  C  C1731  1  0.679270  0.644080  0.120290  1.0  0.0424
  C  C1732  1  0.977940  0.735960  0.552290  1.0  -0.1253
  C  C1733  1  0.918440  0.695300  0.560870  1.0  -0.1522
  C  C1734  1  0.993860  0.661960  0.425040  1.0  -0.1427
  C  C1735  1  0.026500  0.721850  0.442500  1.0  -0.141
  C  C1736  1  0.589940  0.518960  0.087880  1.0  -0.1454
  C  C1737  1  0.576000  0.483850  0.134990  1.0  -0.1222
  C  C1738  1  0.660130  0.651700  0.098660  1.0  -0.1473
  C  C1739  1  0.713240  0.667800  0.125680  1.0  -0.071
  C  C1740  1  0.981720  0.747260  0.583050  1.0  -0.0988
  C  C1741  1  0.922170  0.704330  0.591330  1.0  -0.0457
  C  C1742  1  0.023120  0.666110  0.408870  1.0  -0.0801
  C  C1743  1  0.055760  0.725990  0.426320  1.0  -0.0936
  C  C1744  1  0.564970  0.490130  0.071190  1.0  -0.0381
  C  C1745  1  0.551020  0.454980  0.118300  1.0  -0.047
  C  C1746  1  0.676420  0.683320  0.082610  1.0  -0.0576
  C  C1747  1  0.729730  0.699250  0.109210  1.0  -0.0559
  C  C1748  1  0.953070  0.732120  0.602860  1.0  -0.1084
  C  C1749  1  0.054070  0.698120  0.409510  1.0  -0.0652
  C  C1750  1  0.545500  0.458100  0.086400  1.0  -0.1415
  C  C1751  1  0.711620  0.707050  0.087380  1.0  -0.1416
  C  C1752  1  0.955870  0.742550  0.636730  1.0  0.6866
  C  C1753  1  0.084010  0.702770  0.391910  1.0  0.6813
  C  C1754  1  0.515970  0.424930  0.069030  1.0  0.6674
  C  C1755  1  0.730020  0.740610  0.070190  1.0  0.6676
  C  C1756  1  0.976550  0.827340  0.687830  1.0  0.658
  C  C1757  1  0.983750  0.864260  0.687860  1.0  -0.1339
  C  C1758  1  0.960790  0.872230  0.672440  1.0  -0.0403
  C  C1759  1  0.011220  0.889720  0.705600  1.0  -0.0573
  C  C1760  1  0.965300  0.905670  0.674760  1.0  -0.1414
  C  C1761  1  0.015720  0.923140  0.707910  1.0  -0.1077
  C  C1762  1  0.992760  0.931120  0.692500  1.0  0.0478
  C  C1763  1  0.997270  0.967530  0.695530  1.0  0.0518
  C  C1764  1  0.967470  0.970930  0.695390  1.0  -0.0878
  C  C1765  1  0.435260  0.936580  0.737330  1.0  0.6559
  C  C1766  1  0.354890  0.906990  0.648300  1.0  0.6536
  C  C1767  1  0.362460  0.840950  0.706690  1.0  0.6426
  C  C1768  1  0.469310  0.953340  0.752930  1.0  -0.138
  C  C1769  1  0.345820  0.907350  0.615120  1.0  -0.1283
  C  C1770  1  0.356390  0.805130  0.706950  1.0  -0.1269
  C  C1771  1  0.498910  0.971960  0.734240  1.0  -0.0584
  C  C1772  1  0.472710  0.951640  0.785450  1.0  -0.0599
  C  C1773  1  0.312150  0.885240  0.604390  1.0  -0.0235
  C  C1774  1  0.371480  0.929350  0.593800  1.0  -0.0981
  C  C1775  1  0.327370  0.778990  0.722760  1.0  -0.0851
  C  C1776  1  0.379640  0.796970  0.691680  1.0  -0.0911
  C  C1777  1  0.531900  0.988880  0.748080  1.0  -0.1258
  C  C1778  1  0.505700  0.968560  0.799290  1.0  -0.1088
  C  C1779  1  0.303100  0.885450  0.573310  1.0  -0.1178
  C  C1780  1  0.362400  0.929270  0.562630  1.0  -0.0801
  C  C1781  1  0.321790  0.745900  0.722600  1.0  -0.0995
  C  C1782  1  0.373720  0.763640  0.692860  1.0  -0.1082
  C  C1783  1  0.535290  0.987170  0.780610  1.0  0.0652
  C  C1784  1  0.328440  0.907680  0.551990  1.0  0.0296
  C  C1785  1  0.344920  0.736770  0.708160  1.0  0.1093
  C  C1786  1  0.571160  0.004340  0.795300  1.0  0.0573
  C  C1787  1  0.319780  0.909320  0.517470  1.0  -0.0167
  C  C1788  1  0.339470  0.700970  0.709590  1.0  0.0303
  C  C1789  1  0.575830  0.017470  0.825890  1.0  -0.0855
  C  C1790  1  0.599190  0.005760  0.778990  1.0  -0.1105
  C  C1791  1  0.295720  0.879100  0.502340  1.0  -0.1005
  C  C1792  1  0.336370  0.940810  0.502290  1.0  -0.1102
  C  C1793  1  0.366700  0.694370  0.709110  1.0  -0.1307
  C  C1794  1  0.608520  0.031980  0.840170  1.0  0.061
  C  C1795  1  0.631880  0.020270  0.793280  1.0  0.0653
  C  C1796  1  0.287220  0.881060  0.470750  1.0  -0.0103
  C  C1797  1  0.328510  0.943350  0.470640  1.0  0.028
  C  C1798  1  0.636550  0.033390  0.823870  1.0  -0.1164
  C  C1799  1  0.613260  0.044100  0.873880  1.0  0.0715
  C  C1800  1  0.662210  0.023170  0.775200  1.0  0.0505
  C  C1801  1  0.303810  0.913350  0.455450  1.0  -0.0938
  C  C1802  1  0.262120  0.849180  0.453110  1.0  0.0455
  C  C1803  1  0.345930  0.977420  0.453630  1.0  0.0424
  C  C1804  1  0.644600  0.069300  0.885630  1.0  -0.1253
  C  C1805  1  0.585100  0.028640  0.894210  1.0  -0.1522
  C  C1806  1  0.660520  0.995300  0.758380  1.0  -0.1427
  C  C1807  1  0.693160  0.055190  0.775840  1.0  -0.141
  C  C1808  1  0.256600  0.852300  0.421220  1.0  -0.1454
  C  C1809  1  0.242660  0.817190  0.468330  1.0  -0.1222
  C  C1810  1  0.326790  0.985040  0.432000  1.0  -0.1473
  C  C1811  1  0.379900  0.001140  0.459020  1.0  -0.071
  C  C1812  1  0.648380  0.080600  0.916390  1.0  -0.0988
  C  C1813  1  0.588830  0.037670  0.924670  1.0  -0.0456
  C  C1814  1  0.689780  0.999450  0.742210  1.0  -0.0801
  C  C1815  1  0.722420  0.059330  0.759660  1.0  -0.0936
  C  C1816  1  0.231630  0.823470  0.404530  1.0  -0.0381
  C  C1817  1  0.217680  0.788320  0.451640  1.0  -0.047
  C  C1818  1  0.343080  0.016660  0.415950  1.0  -0.0576
  C  C1819  1  0.396390  0.032590  0.442550  1.0  -0.0559
  C  C1820  1  0.619730  0.065460  0.936200  1.0  -0.1084
  C  C1821  1  0.720730  0.031460  0.742850  1.0  -0.0652
  C  C1822  1  0.212160  0.791440  0.419740  1.0  -0.1418
  C  C1823  1  0.378280  0.040390  0.420720  1.0  -0.1417
  C  C1824  1  0.622530  0.075890  0.970070  1.0  0.6866
  C  C1825  1  0.750670  0.036110  0.725250  1.0  0.6817
  C  C1826  1  0.182630  0.758270  0.402370  1.0  0.6676
  C  C1827  1  0.396680  0.073950  0.403530  1.0  0.6672
  C  C1828  1  0.643210  0.160680  0.021170  1.0  0.658
  C  C1829  1  0.650410  0.197600  0.021200  1.0  -0.1339
  C  C1830  1  0.627450  0.205570  0.005780  1.0  -0.0403
  C  C1831  1  0.677880  0.223060  0.038940  1.0  -0.0573
  C  C1832  1  0.631960  0.239010  0.008100  1.0  -0.1414
  C  C1833  1  0.682380  0.256480  0.041250  1.0  -0.1077
  C  C1834  1  0.659420  0.264460  0.025840  1.0  0.0478
  C  C1835  1  0.663930  0.300870  0.028870  1.0  0.0534
  C  C1836  1  0.634130  0.304270  0.028730  1.0  -0.0878
  C  C1837  1  0.730090  0.832020  0.070660  1.0  0.6552
  C  C1838  1  0.759680  0.781240  0.981630  1.0  0.6526
  C  C1839  1  0.825720  0.854850  0.040020  1.0  0.6418
  C  C1840  1  0.713330  0.849310  0.086260  1.0  -0.1376
  C  C1841  1  0.759320  0.771810  0.948450  1.0  -0.1257
  C  C1842  1  0.861540  0.884600  0.040280  1.0  -0.1311
  C  C1843  1  0.694710  0.860290  0.067570  1.0  -0.0574
  C  C1844  1  0.715030  0.854410  0.118780  1.0  -0.0613
  C  C1845  1  0.781430  0.760250  0.937720  1.0  -0.0196
  C  C1846  1  0.737320  0.775470  0.927130  1.0  -0.1014
  C  C1847  1  0.887680  0.881720  0.056090  1.0  -0.0853
  C  C1848  1  0.869700  0.916010  0.025010  1.0  -0.0896
  C  C1849  1  0.677790  0.876360  0.081410  1.0  -0.1256
  C  C1850  1  0.698110  0.870480  0.132620  1.0  -0.1106
  C  C1851  1  0.781220  0.750990  0.906640  1.0  -0.1214
  C  C1852  1  0.737400  0.766470  0.895960  1.0  -0.0809
  C  C1853  1  0.920770  0.909230  0.055930  1.0  -0.0994
  C  C1854  1  0.903030  0.943420  0.026190  1.0  -0.1064
  C  C1855  1  0.679500  0.881460  0.113940  1.0  0.0667
  C  C1856  1  0.758990  0.754100  0.885320  1.0  0.0291
  C  C1857  1  0.929900  0.941490  0.041490  1.0  0.107
  C  C1858  1  0.662330  0.900160  0.128630  1.0  0.0589
  C  C1859  1  0.757350  0.743800  0.850800  1.0  -0.0136
  C  C1860  1  0.965700  0.971840  0.042920  1.0  0.025
  C  C1861  1  0.649200  0.891700  0.159220  1.0  -0.0856
  C  C1862  1  0.660910  0.926770  0.112320  1.0  -0.1074
  C  C1863  1  0.787570  0.749960  0.835670  1.0  -0.1003
  C  C1864  1  0.725860  0.728900  0.835620  1.0  -0.1101
  C  C1865  1  0.972300  0.005670  0.042440  1.0  -0.1339
  C  C1866  1  0.634690  0.909880  0.173500  1.0  0.0621
  C  C1867  1  0.646400  0.944950  0.126610  1.0  0.0629
  C  C1868  1  0.785610  0.739500  0.804080  1.0  -0.0056
  C  C1869  1  0.723320  0.718500  0.803970  1.0  0.0268
  C  C1870  1  0.633280  0.936500  0.157200  1.0  -0.1189
  C  C1871  1  0.622570  0.902500  0.207210  1.0  0.0707
  C  C1872  1  0.643500  0.972380  0.108530  1.0  0.0507
  C  C1873  1  0.753320  0.723800  0.788780  1.0  -0.0995
  C  C1874  1  0.817490  0.746280  0.786440  1.0  0.0491
  C  C1875  1  0.689250  0.701850  0.786960  1.0  0.0421
  C  C1876  1  0.597370  0.908640  0.218960  1.0  -0.1239
  C  C1877  1  0.638030  0.889800  0.227540  1.0  -0.1553
  C  C1878  1  0.671370  0.998560  0.091710  1.0  -0.1416
  C  C1879  1  0.611480  0.971310  0.109170  1.0  -0.1414
  C  C1880  1  0.814370  0.737640  0.754550  1.0  -0.1472
  C  C1881  1  0.849480  0.758810  0.801660  1.0  -0.1212
  C  C1882  1  0.681630  0.675090  0.765330  1.0  -0.1451
  C  C1883  1  0.665530  0.712100  0.792350  1.0  -0.0729
  C  C1884  1  0.586070  0.901120  0.249720  1.0  -0.0965
  C  C1885  1  0.629000  0.884500  0.258000  1.0  -0.0517
  C  C1886  1  0.667220  0.023670  0.075540  1.0  -0.0785
  C  C1887  1  0.607340  0.996430  0.092990  1.0  -0.0958
  C  C1888  1  0.843200  0.741500  0.737860  1.0  -0.0365
  C  C1889  1  0.878350  0.762700  0.784970  1.0  -0.0457
  C  C1890  1  0.650010  0.659760  0.749280  1.0  -0.0583
  C  C1891  1  0.634080  0.697140  0.775880  1.0  -0.0586
  C  C1892  1  0.601210  0.887610  0.269530  1.0  -0.1091
  C  C1893  1  0.635210  0.022610  0.076180  1.0  -0.0655
  C  C1894  1  0.875230  0.754060  0.753070  1.0  -0.1425
  C  C1895  1  0.626280  0.671230  0.754050  1.0  -0.1426
  C  C1896  1  0.590780  0.879980  0.303400  1.0  0.6873
  C  C1897  1  0.630560  0.047900  0.058580  1.0  0.6816
  C  C1898  1  0.908400  0.757700  0.735700  1.0  0.6697
  C  C1899  1  0.592720  0.656070  0.736860  1.0  0.6654
  C  C1900  1  0.505990  0.815870  0.354500  1.0  0.6548
  C  C1901  1  0.469070  0.786150  0.354530  1.0  -0.1338
  C  C1902  1  0.461100  0.755220  0.339110  1.0  -0.0409
  C  C1903  1  0.443610  0.788160  0.372270  1.0  -0.0613
  C  C1904  1  0.427660  0.726290  0.341430  1.0  -0.1402
  C  C1905  1  0.410190  0.759240  0.374580  1.0  -0.1095
  C  C1906  1  0.402210  0.728300  0.359170  1.0  0.0471
  C  C1907  1  0.365800  0.696400  0.362200  1.0  0.0537
  C  C1908  1  0.362400  0.663200  0.362060  1.0  -0.0869
  C  C1909  1  0.396760  0.165350  0.403990  1.0  0.6552
  C  C1910  1  0.426350  0.114570  0.314960  1.0  0.6526
  C  C1911  1  0.492390  0.188180  0.373350  1.0  0.6418
  C  C1912  1  0.380000  0.182640  0.419590  1.0  -0.1376
  C  C1913  1  0.425990  0.105140  0.281780  1.0  -0.1257
  C  C1914  1  0.528210  0.217930  0.373610  1.0  -0.1311
  C  C1915  1  0.361380  0.193620  0.400900  1.0  -0.0574
  C  C1916  1  0.381700  0.187740  0.452110  1.0  -0.0613
  C  C1917  1  0.448100  0.093580  0.271050  1.0  -0.0196
  C  C1918  1  0.403990  0.108800  0.260460  1.0  -0.1014
  C  C1919  1  0.554350  0.215050  0.389420  1.0  -0.0853
  C  C1920  1  0.536370  0.249340  0.358340  1.0  -0.0896
  C  C1921  1  0.344460  0.209690  0.414740  1.0  -0.1256
  C  C1922  1  0.364780  0.203810  0.465950  1.0  -0.1107
  C  C1923  1  0.447890  0.084320  0.239970  1.0  -0.1214
  C  C1924  1  0.404070  0.099800  0.229290  1.0  -0.0809
  C  C1925  1  0.587440  0.242560  0.389260  1.0  -0.0994
  C  C1926  1  0.569700  0.276750  0.359520  1.0  -0.1064
  C  C1927  1  0.346170  0.214790  0.447270  1.0  0.0667
  C  C1928  1  0.425660  0.087430  0.218650  1.0  0.0291
  C  C1929  1  0.596570  0.274820  0.374820  1.0  0.107
  C  C1930  1  0.329000  0.233490  0.461960  1.0  0.0589
  C  C1931  1  0.424020  0.077130  0.184130  1.0  -0.0136
  C  C1932  1  0.632370  0.305170  0.376250  1.0  0.025
  C  C1933  1  0.315870  0.225030  0.492550  1.0  -0.0854
  C  C1934  1  0.327580  0.260100  0.445650  1.0  -0.1074
  C  C1935  1  0.454240  0.083290  0.169000  1.0  -0.1003
  C  C1936  1  0.392530  0.062230  0.168950  1.0  -0.1101
  C  C1937  1  0.638970  0.339000  0.375770  1.0  -0.1339
  C  C1938  1  0.301360  0.243210  0.506830  1.0  0.0621
  C  C1939  1  0.313070  0.278280  0.459940  1.0  0.0629
  C  C1940  1  0.452280  0.072830  0.137410  1.0  -0.0056
  C  C1941  1  0.389990  0.051830  0.137300  1.0  0.0268
  C  C1942  1  0.299950  0.269830  0.490530  1.0  -0.1189
  C  C1943  1  0.289240  0.235830  0.540540  1.0  0.0707
  C  C1944  1  0.310170  0.305710  0.441860  1.0  0.0507
  C  C1945  1  0.419990  0.057130  0.122110  1.0  -0.0995
  C  C1946  1  0.484160  0.079610  0.119770  1.0  0.0491
  C  C1947  1  0.355920  0.035180  0.120290  1.0  0.0421
  C  C1948  1  0.264040  0.241970  0.552290  1.0  -0.1239
  C  C1949  1  0.304700  0.223130  0.560870  1.0  -0.1553
  C  C1950  1  0.338040  0.331890  0.425040  1.0  -0.1416
  C  C1951  1  0.278150  0.304640  0.442500  1.0  -0.1414
  C  C1952  1  0.481040  0.070970  0.087880  1.0  -0.1472
  C  C1953  1  0.516150  0.092140  0.134990  1.0  -0.1212
  C  C1954  1  0.348300  0.008420  0.098660  1.0  -0.1451
  C  C1955  1  0.332200  0.045430  0.125680  1.0  -0.0729
  C  C1956  1  0.252740  0.234450  0.583050  1.0  -0.0965
  C  C1957  1  0.295670  0.217830  0.591330  1.0  -0.0517
  C  C1958  1  0.333890  0.357000  0.408870  1.0  -0.0785
  C  C1959  1  0.274010  0.329760  0.426320  1.0  -0.0958
  C  C1960  1  0.509870  0.074830  0.071190  1.0  -0.0365
  C  C1961  1  0.545020  0.096030  0.118300  1.0  -0.0457
  C  C1962  1  0.316680  0.993090  0.082610  1.0  -0.0583
  C  C1963  1  0.300750  0.030470  0.109210  1.0  -0.0586
  C  C1964  1  0.267880  0.220940  0.602860  1.0  -0.1091
  C  C1965  1  0.301880  0.355940  0.409510  1.0  -0.0654
  C  C1966  1  0.541900  0.087390  0.086400  1.0  -0.1423
  C  C1967  1  0.292950  0.004560  0.087380  1.0  -0.1426
  C  C1968  1  0.257450  0.213310  0.636730  1.0  0.6873
  C  C1969  1  0.297230  0.381230  0.391910  1.0  0.6818
  C  C1970  1  0.575070  0.091030  0.069030  1.0  0.6697
  C  C1971  1  0.259390  0.989400  0.070190  1.0  0.6654
  C  C1972  1  0.172660  0.149200  0.687830  1.0  0.6548
  C  C1973  1  0.135740  0.119480  0.687860  1.0  -0.1338
  C  C1974  1  0.127770  0.088550  0.672440  1.0  -0.0409
  C  C1975  1  0.110280  0.121490  0.705600  1.0  -0.0613
  C  C1976  1  0.094330  0.059620  0.674760  1.0  -0.1402
  C  C1977  1  0.076860  0.092570  0.707910  1.0  -0.1095
  C  C1978  1  0.068880  0.061630  0.692500  1.0  0.0471
  C  C1979  1  0.032470  0.029730  0.695530  1.0  0.0537
  C  C1980  1  0.029070  0.996530  0.695390  1.0  -0.0869
  C  C1981  1  0.063420  0.498690  0.737330  1.0  0.6552
  C  C1982  1  0.093010  0.447910  0.648300  1.0  0.6526
  C  C1983  1  0.159050  0.521520  0.706690  1.0  0.6418
  C  C1984  1  0.046660  0.515980  0.752930  1.0  -0.1376
  C  C1985  1  0.092650  0.438480  0.615120  1.0  -0.1257
  C  C1986  1  0.194870  0.551270  0.706950  1.0  -0.1311
  C  C1987  1  0.028040  0.526960  0.734240  1.0  -0.0574
  C  C1988  1  0.048360  0.521080  0.785450  1.0  -0.0613
  C  C1989  1  0.114760  0.426920  0.604390  1.0  -0.0196
  C  C1990  1  0.070650  0.442140  0.593800  1.0  -0.1014
  C  C1991  1  0.221010  0.548390  0.722760  1.0  -0.0853
  C  C1992  1  0.203030  0.582680  0.691680  1.0  -0.0896
  C  C1993  1  0.011120  0.543030  0.748080  1.0  -0.1256
  C  C1994  1  0.031440  0.537150  0.799290  1.0  -0.1106
  C  C1995  1  0.114550  0.417660  0.573310  1.0  -0.1214
  C  C1996  1  0.070730  0.433140  0.562630  1.0  -0.0809
  C  C1997  1  0.254100  0.575900  0.722600  1.0  -0.0994
  C  C1998  1  0.236360  0.610090  0.692860  1.0  -0.1064
  C  C1999  1  0.012830  0.548130  0.780610  1.0  0.0667
  C  C2000  1  0.092320  0.420770  0.551990  1.0  0.0291
  C  C2001  1  0.263230  0.608160  0.708160  1.0  0.107
  C  C2002  1  0.995660  0.566830  0.795300  1.0  0.0589
  C  C2003  1  0.090680  0.410470  0.517470  1.0  -0.0136
  C  C2004  1  0.299030  0.638510  0.709590  1.0  0.0323
  C  C2005  1  0.982530  0.558370  0.825890  1.0  -0.0856
  C  C2006  1  0.994240  0.593440  0.778990  1.0  -0.1074
  C  C2007  1  0.120900  0.416630  0.502340  1.0  -0.1003
  C  C2008  1  0.059190  0.395570  0.502290  1.0  -0.1101
  C  C2009  1  0.305630  0.672340  0.709110  1.0  -0.134
  C  C2010  1  0.968020  0.576550  0.840170  1.0  0.0621
  C  C2011  1  0.979730  0.611620  0.793280  1.0  0.0629
  C  C2012  1  0.118940  0.406170  0.470750  1.0  -0.0056
  C  C2013  1  0.056650  0.385170  0.470640  1.0  0.0268
  C  C2014  1  0.966610  0.603170  0.823870  1.0  -0.1189
  C  C2015  1  0.955900  0.569170  0.873880  1.0  0.0707
  C  C2016  1  0.976830  0.639050  0.775200  1.0  0.0507
  C  C2017  1  0.086650  0.390470  0.455450  1.0  -0.0995
  C  C2018  1  0.150820  0.412950  0.453110  1.0  0.0491
  C  C2019  1  0.022580  0.368520  0.453630  1.0  0.0421
  C  C2020  1  0.930700  0.575310  0.885630  1.0  -0.1239
  C  C2021  1  0.971360  0.556470  0.894210  1.0  -0.1553
  C  C2022  1  0.004700  0.665230  0.758380  1.0  -0.1416
  C  C2023  1  0.944810  0.637980  0.775840  1.0  -0.1414
  C  C2024  1  0.147700  0.404310  0.421220  1.0  -0.1472
  C  C2025  1  0.182810  0.425480  0.468330  1.0  -0.1212
  C  C2026  1  0.014960  0.341760  0.432000  1.0  -0.1451
  C  C2027  1  0.998860  0.378770  0.459020  1.0  -0.0729
  C  C2028  1  0.919400  0.567790  0.916390  1.0  -0.0965
  C  C2029  1  0.962330  0.551170  0.924670  1.0  -0.0517
  C  C2030  1  0.000550  0.690340  0.742210  1.0  -0.0785
  C  C2031  1  0.940670  0.663100  0.759660  1.0  -0.0958
  C  C2032  1  0.176530  0.408170  0.404530  1.0  -0.0365
  C  C2033  1  0.211680  0.429370  0.451640  1.0  -0.0457
  C  C2034  1  0.983340  0.326430  0.415950  1.0  -0.0583
  C  C2035  1  0.967410  0.363810  0.442550  1.0  -0.0586
  C  C2036  1  0.934540  0.554280  0.936200  1.0  -0.1091
  C  C2037  1  0.968540  0.689280  0.742850  1.0  -0.0655
  C  C2038  1  0.208560  0.420730  0.419740  1.0  -0.1423
  C  C2039  1  0.959610  0.337900  0.420720  1.0  -0.1427
  C  C2040  1  0.924110  0.546650  0.970070  1.0  0.6873
  C  C2041  1  0.963890  0.714570  0.725250  1.0  0.6815
  C  C2042  1  0.241730  0.424370  0.402370  1.0  0.6699
  C  C2043  1  0.926050  0.322740  0.403530  1.0  0.6662
  C  C2044  1  0.839320  0.482540  0.021170  1.0  0.6548
  C  C2045  1  0.802400  0.452820  0.021200  1.0  -0.1338
  C  C2046  1  0.794430  0.421890  0.005780  1.0  -0.0409
  C  C2047  1  0.776940  0.454830  0.038940  1.0  -0.0613
  C  C2048  1  0.760990  0.392960  0.008100  1.0  -0.1402
  C  C2049  1  0.743520  0.425910  0.041250  1.0  -0.1096
  C  C2050  1  0.735540  0.394970  0.025840  1.0  0.0471
  C  C2051  1  0.699130  0.363070  0.028870  1.0  0.0546
  C  C2052  1  0.695730  0.329870  0.028730  1.0  -0.0869
  O  O2053  1  0.824570  0.073840  0.914130  1.0  -0.5837
  O  O2054  1  0.823160  0.098360  0.958230  1.0  -0.544
  O  O2055  1  0.778230  0.999710  0.998110  1.0  -0.5649
  O  O2056  1  0.793180  0.052930  0.009260  1.0  -0.5511
  O  O2057  1  0.827790  0.010570  0.942890  1.0  -0.5212
  O  O2058  1  0.855070  0.053890  0.976120  1.0  -0.5678
  O  O2059  1  0.749170  0.037960  0.948250  1.0  -0.5509
  O  O2060  1  0.761230  0.999630  0.926340  1.0  -0.516
  O  O2061  1  0.863440  0.261720  0.680510  1.0  -0.547
  O  O2062  1  0.887790  0.318380  0.684630  1.0  -0.5749
  O  O2063  1  0.040440  0.440400  0.950870  1.0  -0.6102
  O  O2064  1  0.077800  0.424350  0.946440  1.0  -0.5189
  O  O2065  1  0.771980  0.836090  0.254200  1.0  -0.5407
  O  O2066  1  0.747800  0.847400  0.292900  1.0  -0.5675
  O  O2067  1  0.842860  0.327390  0.629410  1.0  -0.5351
  O  O2068  1  0.812030  0.284260  0.661330  1.0  -0.5344
  O  O2069  1  0.491240  0.407170  0.247460  1.0  -0.5836
  O  O2070  1  0.489830  0.431690  0.291560  1.0  -0.544
  O  O2071  1  0.444900  0.333040  0.331440  1.0  -0.5649
  O  O2072  1  0.459850  0.386260  0.342590  1.0  -0.5511
  O  O2073  1  0.494460  0.343900  0.276220  1.0  -0.5212
  O  O2074  1  0.521740  0.387220  0.309450  1.0  -0.5678
  O  O2075  1  0.415840  0.371290  0.281580  1.0  -0.5509
  O  O2076  1  0.427900  0.332960  0.259670  1.0  -0.516
  O  O2077  1  0.530110  0.595050  0.013840  1.0  -0.5462
  O  O2078  1  0.554460  0.651710  0.017960  1.0  -0.5749
  O  O2079  1  0.707110  0.773730  0.284200  1.0  -0.6101
  O  O2080  1  0.744470  0.757680  0.279770  1.0  -0.5187
  O  O2081  1  0.438650  0.169420  0.587530  1.0  -0.5407
  O  O2082  1  0.414470  0.180730  0.626230  1.0  -0.5675
  O  O2083  1  0.509530  0.660720  0.962740  1.0  -0.5351
  O  O2084  1  0.478700  0.617590  0.994660  1.0  -0.5343
  O  O2085  1  0.157900  0.740510  0.580800  1.0  -0.5837
  O  O2086  1  0.156490  0.765030  0.624900  1.0  -0.544
  O  O2087  1  0.111560  0.666380  0.664780  1.0  -0.5648
  O  O2088  1  0.126510  0.719600  0.675930  1.0  -0.5512
  O  O2089  1  0.161120  0.677240  0.609560  1.0  -0.5212
  O  O2090  1  0.188400  0.720560  0.642790  1.0  -0.5678
  O  O2091  1  0.082500  0.704630  0.614920  1.0  -0.5512
  O  O2092  1  0.094560  0.666300  0.593010  1.0  -0.5147
  O  O2093  1  0.196770  0.928390  0.347180  1.0  -0.547
  O  O2094  1  0.221120  0.985050  0.351300  1.0  -0.5748
  O  O2095  1  0.373770  0.107070  0.617540  1.0  -0.6098
  O  O2096  1  0.411130  0.091020  0.613110  1.0  -0.5189
  O  O2097  1  0.105310  0.502760  0.920870  1.0  -0.5412
  O  O2098  1  0.081130  0.514070  0.959570  1.0  -0.5676
  O  O2099  1  0.176190  0.994060  0.296080  1.0  -0.5352
  O  O2100  1  0.145360  0.950930  0.328000  1.0  -0.5344
  O  O2101  1  0.926160  0.750730  0.914130  1.0  -0.5838
  O  O2102  1  0.901640  0.724800  0.958230  1.0  -0.5459
  O  O2103  1  0.000290  0.778520  0.998110  1.0  -0.5673
  O  O2104  1  0.947070  0.740250  0.009260  1.0  -0.5551
  O  O2105  1  0.989430  0.817220  0.942890  1.0  -0.5224
  O  O2106  1  0.946110  0.801180  0.976120  1.0  -0.5655
  O  O2107  1  0.962040  0.711210  0.948250  1.0  -0.551
  O  O2108  1  0.000370  0.761600  0.926340  1.0  -0.514
  O  O2109  1  0.738280  0.601720  0.680510  1.0  -0.5487
  O  O2110  1  0.681620  0.569410  0.684630  1.0  -0.5769
  O  O2111  1  0.559600  0.600040  0.950870  1.0  -0.61
  O  O2112  1  0.575650  0.653450  0.946440  1.0  -0.5213
  O  O2113  1  0.163910  0.935890  0.254200  1.0  -0.5388
  O  O2114  1  0.152600  0.900400  0.292900  1.0  -0.5654
  O  O2115  1  0.672610  0.515470  0.629410  1.0  -0.5355
  O  O2116  1  0.715740  0.527770  0.661330  1.0  -0.5358
  O  O2117  1  0.592830  0.084060  0.247460  1.0  -0.5836
  O  O2118  1  0.568310  0.058130  0.291560  1.0  -0.5459
  O  O2119  1  0.666960  0.111850  0.331440  1.0  -0.5673
  O  O2120  1  0.613740  0.073580  0.342590  1.0  -0.5551
  O  O2121  1  0.656100  0.150550  0.276220  1.0  -0.5224
  O  O2122  1  0.612780  0.134510  0.309450  1.0  -0.5655
  O  O2123  1  0.628710  0.044540  0.281580  1.0  -0.551
  O  O2124  1  0.667040  0.094930  0.259670  1.0  -0.5142
  O  O2125  1  0.404950  0.935050  0.013840  1.0  -0.5488
  O  O2126  1  0.348290  0.902740  0.017960  1.0  -0.5769
  O  O2127  1  0.226270  0.933370  0.284200  1.0  -0.6101
  O  O2128  1  0.242320  0.986780  0.279770  1.0  -0.5211
  O  O2129  1  0.830580  0.269220  0.587530  1.0  -0.5388
  O  O2130  1  0.819270  0.233730  0.626230  1.0  -0.5656
  O  O2131  1  0.339280  0.848800  0.962740  1.0  -0.5355
  O  O2132  1  0.382410  0.861100  0.994660  1.0  -0.5358
  O  O2133  1  0.259490  0.417400  0.580800  1.0  -0.5838
  O  O2134  1  0.234970  0.391470  0.624900  1.0  -0.5459
  O  O2135  1  0.333620  0.445190  0.664780  1.0  -0.5674
  O  O2136  1  0.280400  0.406920  0.675930  1.0  -0.5549
  O  O2137  1  0.322760  0.483890  0.609560  1.0  -0.5224
  O  O2138  1  0.279440  0.467850  0.642790  1.0  -0.5655
  O  O2139  1  0.295370  0.377880  0.614920  1.0  -0.5513
  O  O2140  1  0.333700  0.428270  0.593010  1.0  -0.516
  O  O2141  1  0.071610  0.268390  0.347180  1.0  -0.5479
  O  O2142  1  0.014950  0.236080  0.351300  1.0  -0.5772
  O  O2143  1  0.892930  0.266710  0.617540  1.0  -0.61
  O  O2144  1  0.908980  0.320120  0.613110  1.0  -0.5213
  O  O2145  1  0.497240  0.602560  0.920870  1.0  -0.5392
  O  O2146  1  0.485930  0.567070  0.959570  1.0  -0.5654
  O  O2147  1  0.005940  0.182140  0.296080  1.0  -0.5355
  O  O2148  1  0.049070  0.194440  0.328000  1.0  -0.5358
  O  O2149  1  0.249270  0.175430  0.914130  1.0  -0.5826
  O  O2150  1  0.275200  0.176840  0.958230  1.0  -0.5443
  O  O2151  1  0.221480  0.221770  0.998110  1.0  -0.5665
  O  O2152  1  0.259750  0.206820  0.009260  1.0  -0.5542
  O  O2153  1  0.182780  0.172210  0.942890  1.0  -0.5229
  O  O2154  1  0.198820  0.144930  0.976120  1.0  -0.5681
  O  O2155  1  0.288790  0.250830  0.948250  1.0  -0.5515
  O  O2156  1  0.238400  0.238770  0.926340  1.0  -0.5168
  O  O2157  1  0.398280  0.136560  0.680510  1.0  -0.5503
  O  O2158  1  0.430590  0.112210  0.684630  1.0  -0.5782
  O  O2159  1  0.399960  0.959560  0.950870  1.0  -0.6105
  O  O2160  1  0.346550  0.922200  0.946440  1.0  -0.5206
  O  O2161  1  0.064110  0.228020  0.254200  1.0  -0.5409
  O  O2162  1  0.099600  0.252200  0.292900  1.0  -0.5669
  O  O2163  1  0.484530  0.157140  0.629410  1.0  -0.5368
  O  O2164  1  0.472230  0.187970  0.661330  1.0  -0.533
  O  O2165  1  0.915940  0.508760  0.247460  1.0  -0.5825
  O  O2166  1  0.941870  0.510170  0.291560  1.0  -0.5443
  O  O2167  1  0.888150  0.555100  0.331440  1.0  -0.5665
  O  O2168  1  0.926420  0.540150  0.342590  1.0  -0.5542
  O  O2169  1  0.849450  0.505540  0.276220  1.0  -0.5229
  O  O2170  1  0.865490  0.478260  0.309450  1.0  -0.5681
  O  O2171  1  0.955460  0.584160  0.281580  1.0  -0.5515
  O  O2172  1  0.905070  0.572100  0.259670  1.0  -0.5167
  O  O2173  1  0.064950  0.469890  0.013840  1.0  -0.5486
  O  O2174  1  0.097260  0.445540  0.017960  1.0  -0.5783
  O  O2175  1  0.066630  0.292890  0.284200  1.0  -0.6102
  O  O2176  1  0.013220  0.255530  0.279770  1.0  -0.5206
  O  O2177  1  0.730780  0.561350  0.587530  1.0  -0.5409
  O  O2178  1  0.766270  0.585530  0.626230  1.0  -0.567
  O  O2179  1  0.151200  0.490470  0.962740  1.0  -0.5367
  O  O2180  1  0.138900  0.521300  0.994660  1.0  -0.533
  O  O2181  1  0.582600  0.842100  0.580800  1.0  -0.5826
  O  O2182  1  0.608530  0.843510  0.624900  1.0  -0.5443
  O  O2183  1  0.554810  0.888440  0.664780  1.0  -0.5664
  O  O2184  1  0.593080  0.873490  0.675930  1.0  -0.5542
  O  O2185  1  0.516110  0.838880  0.609560  1.0  -0.5229
  O  O2186  1  0.532150  0.811600  0.642790  1.0  -0.5681
  O  O2187  1  0.622120  0.917500  0.614920  1.0  -0.5511
  O  O2188  1  0.571730  0.905440  0.593010  1.0  -0.517
  O  O2189  1  0.731610  0.803230  0.347180  1.0  -0.5503
  O  O2190  1  0.763920  0.778880  0.351300  1.0  -0.578
  O  O2191  1  0.733290  0.626230  0.617540  1.0  -0.6103
  O  O2192  1  0.679880  0.588870  0.613110  1.0  -0.5205
  O  O2193  1  0.397440  0.894690  0.920870  1.0  -0.5415
  O  O2194  1  0.432930  0.918870  0.959570  1.0  -0.5666
  O  O2195  1  0.817860  0.823810  0.296080  1.0  -0.5368
  O  O2196  1  0.805560  0.854640  0.328000  1.0  -0.533
  O  O2197  1  0.175430  0.926160  0.085870  1.0  -0.5836
  O  O2198  1  0.176840  0.901640  0.041770  1.0  -0.5427
  O  O2199  1  0.221770  0.000290  0.001890  1.0  -0.5632
  O  O2200  1  0.206820  0.947070  0.990740  1.0  -0.5517
  O  O2201  1  0.172210  0.989430  0.057110  1.0  -0.5207
  O  O2202  1  0.144930  0.946110  0.023880  1.0  -0.5664
  O  O2203  1  0.250830  0.962040  0.051750  1.0  -0.5518
  O  O2204  1  0.238770  0.000370  0.073660  1.0  -0.516
  O  O2205  1  0.136560  0.738280  0.319490  1.0  -0.5454
  O  O2206  1  0.112210  0.681620  0.315370  1.0  -0.574
  O  O2207  1  0.959560  0.559600  0.049130  1.0  -0.6101
  O  O2208  1  0.922200  0.575650  0.053560  1.0  -0.5216
  O  O2209  1  0.228020  0.163910  0.745800  1.0  -0.5417
  O  O2210  1  0.252200  0.152600  0.707100  1.0  -0.5688
  O  O2211  1  0.157140  0.672610  0.370590  1.0  -0.5372
  O  O2212  1  0.187970  0.715740  0.338670  1.0  -0.5359
  O  O2213  1  0.842100  0.259490  0.419200  1.0  -0.5836
  O  O2214  1  0.843510  0.234970  0.375100  1.0  -0.5427
  O  O2215  1  0.888440  0.333620  0.335220  1.0  -0.5632
  O  O2216  1  0.873490  0.280400  0.324070  1.0  -0.5518
  O  O2217  1  0.838880  0.322760  0.390440  1.0  -0.5207
  O  O2218  1  0.811600  0.279440  0.357210  1.0  -0.5664
  O  O2219  1  0.917500  0.295370  0.385080  1.0  -0.5521
  O  O2220  1  0.905440  0.333700  0.406990  1.0  -0.5147
  O  O2221  1  0.803230  0.071610  0.652820  1.0  -0.5456
  O  O2222  1  0.778880  0.014950  0.648700  1.0  -0.574
  O  O2223  1  0.626230  0.892930  0.382460  1.0  -0.6098
  O  O2224  1  0.588870  0.908980  0.386890  1.0  -0.5216
  O  O2225  1  0.894690  0.497240  0.079130  1.0  -0.542
  O  O2226  1  0.918870  0.485930  0.040430  1.0  -0.569
  O  O2227  1  0.823810  0.005940  0.703920  1.0  -0.5371
  O  O2228  1  0.854640  0.049070  0.672000  1.0  -0.5359
  O  O2229  1  0.508760  0.592830  0.752540  1.0  -0.5835
  O  O2230  1  0.510170  0.568310  0.708440  1.0  -0.5427
  O  O2231  1  0.555100  0.666960  0.668560  1.0  -0.5631
  O  O2232  1  0.540150  0.613740  0.657410  1.0  -0.5517
  O  O2233  1  0.505540  0.656100  0.723780  1.0  -0.5207
  O  O2234  1  0.478260  0.612780  0.690550  1.0  -0.5664
  O  O2235  1  0.584160  0.628710  0.718420  1.0  -0.5518
  O  O2236  1  0.572100  0.667040  0.740330  1.0  -0.5161
  O  O2237  1  0.469890  0.404950  0.986160  1.0  -0.5446
  O  O2238  1  0.445540  0.348290  0.982040  1.0  -0.574
  O  O2239  1  0.292890  0.226270  0.715800  1.0  -0.6101
  O  O2240  1  0.255530  0.242320  0.720230  1.0  -0.5214
  O  O2241  1  0.561350  0.830580  0.412470  1.0  -0.542
  O  O2242  1  0.585530  0.819270  0.373770  1.0  -0.5688
  O  O2243  1  0.490470  0.339280  0.037260  1.0  -0.5371
  O  O2244  1  0.521300  0.382410  0.005340  1.0  -0.5357
  O  O2245  1  0.073840  0.249270  0.085870  1.0  -0.5837
  O  O2246  1  0.098360  0.275200  0.041770  1.0  -0.5444
  O  O2247  1  0.999710  0.221480  0.001890  1.0  -0.566
  O  O2248  1  0.052930  0.259750  0.990740  1.0  -0.5551
  O  O2249  1  0.010570  0.182780  0.057110  1.0  -0.5215
  O  O2250  1  0.053890  0.198820  0.023880  1.0  -0.5681
  O  O2251  1  0.037960  0.288790  0.051750  1.0  -0.5497
  O  O2252  1  0.999630  0.238400  0.073660  1.0  -0.5156
  O  O2253  1  0.261720  0.398280  0.319490  1.0  -0.5483
  O  O2254  1  0.318380  0.430590  0.315370  1.0  -0.5788
  O  O2255  1  0.440400  0.399960  0.049130  1.0  -0.6107
  O  O2256  1  0.424350  0.346550  0.053560  1.0  -0.5208
  O  O2257  1  0.836090  0.064110  0.745800  1.0  -0.5399
  O  O2258  1  0.847400  0.099600  0.707100  1.0  -0.5679
  O  O2259  1  0.327390  0.484530  0.370590  1.0  -0.5345
  O  O2260  1  0.284260  0.472230  0.338670  1.0  -0.535
  O  O2261  1  0.740510  0.582600  0.419200  1.0  -0.5837
  O  O2262  1  0.765030  0.608530  0.375100  1.0  -0.5444
  O  O2263  1  0.666380  0.554810  0.335220  1.0  -0.5659
  O  O2264  1  0.719600  0.593080  0.324070  1.0  -0.5549
  O  O2265  1  0.677240  0.516110  0.390440  1.0  -0.5215
  O  O2266  1  0.720560  0.532150  0.357210  1.0  -0.5681
  O  O2267  1  0.704630  0.622120  0.385080  1.0  -0.5498
  O  O2268  1  0.666300  0.571730  0.406990  1.0  -0.5175
  O  O2269  1  0.928390  0.731610  0.652820  1.0  -0.5475
  O  O2270  1  0.985050  0.763920  0.648700  1.0  -0.5791
  O  O2271  1  0.107070  0.733290  0.382460  1.0  -0.6106
  O  O2272  1  0.091020  0.679880  0.386890  1.0  -0.5208
  O  O2273  1  0.502760  0.397440  0.079130  1.0  -0.5405
  O  O2274  1  0.514070  0.432930  0.040430  1.0  -0.5679
  O  O2275  1  0.994060  0.817860  0.703920  1.0  -0.5345
  O  O2276  1  0.950930  0.805560  0.672000  1.0  -0.535
  O  O2277  1  0.407170  0.915940  0.752540  1.0  -0.5836
  O  O2278  1  0.431690  0.941870  0.708440  1.0  -0.5444
  O  O2279  1  0.333040  0.888150  0.668560  1.0  -0.566
  O  O2280  1  0.386260  0.926420  0.657410  1.0  -0.555
  O  O2281  1  0.343900  0.849450  0.723780  1.0  -0.5215
  O  O2282  1  0.387220  0.865490  0.690550  1.0  -0.5681
  O  O2283  1  0.371290  0.955460  0.718420  1.0  -0.5497
  O  O2284  1  0.332960  0.905070  0.740330  1.0  -0.5157
  O  O2285  1  0.595050  0.064950  0.986160  1.0  -0.5481
  O  O2286  1  0.651710  0.097260  0.982040  1.0  -0.5787
  O  O2287  1  0.773730  0.066630  0.715800  1.0  -0.6107
  O  O2288  1  0.757680  0.013220  0.720230  1.0  -0.5205
  O  O2289  1  0.169420  0.730780  0.412470  1.0  -0.5405
  O  O2290  1  0.180730  0.766270  0.373770  1.0  -0.5682
  O  O2291  1  0.660720  0.151200  0.037260  1.0  -0.5345
  O  O2292  1  0.617590  0.138900  0.005340  1.0  -0.535
  O  O2293  1  0.750730  0.824570  0.085870  1.0  -0.585
  O  O2294  1  0.724800  0.823160  0.041770  1.0  -0.544
  O  O2295  1  0.778520  0.778230  0.001890  1.0  -0.5666
  O  O2296  1  0.740250  0.793180  0.990740  1.0  -0.5539
  O  O2297  1  0.817220  0.827790  0.057110  1.0  -0.5228
  O  O2298  1  0.801180  0.855070  0.023880  1.0  -0.5671
  O  O2299  1  0.711210  0.749170  0.051750  1.0  -0.5519
  O  O2300  1  0.761600  0.761230  0.073660  1.0  -0.5175
  O  O2301  1  0.601720  0.863440  0.319490  1.0  -0.5494
  O  O2302  1  0.569410  0.887790  0.315370  1.0  -0.577
  O  O2303  1  0.600040  0.040440  0.049130  1.0  -0.6099
  O  O2304  1  0.653450  0.077800  0.053560  1.0  -0.5209
  O  O2305  1  0.935890  0.771980  0.745800  1.0  -0.5411
  O  O2306  1  0.900400  0.747800  0.707100  1.0  -0.5691
  O  O2307  1  0.515470  0.842860  0.370590  1.0  -0.5372
  O  O2308  1  0.527770  0.812030  0.338670  1.0  -0.5349
  O  O2309  1  0.417400  0.157900  0.419200  1.0  -0.585
  O  O2310  1  0.391470  0.156490  0.375100  1.0  -0.544
  O  O2311  1  0.445190  0.111560  0.335220  1.0  -0.5664
  O  O2312  1  0.406920  0.126510  0.324070  1.0  -0.5539
  O  O2313  1  0.483890  0.161120  0.390440  1.0  -0.5228
  O  O2314  1  0.467850  0.188400  0.357210  1.0  -0.5671
  O  O2315  1  0.377880  0.082500  0.385080  1.0  -0.5516
  O  O2316  1  0.428270  0.094560  0.406990  1.0  -0.5179
  O  O2317  1  0.268390  0.196770  0.652820  1.0  -0.5503
  O  O2318  1  0.236080  0.221120  0.648700  1.0  -0.5768
  O  O2319  1  0.266710  0.373770  0.382460  1.0  -0.6095
  O  O2320  1  0.320120  0.411130  0.386890  1.0  -0.5205
  O  O2321  1  0.602560  0.105310  0.079130  1.0  -0.5417
  O  O2322  1  0.567070  0.081130  0.040430  1.0  -0.5689
  O  O2323  1  0.182140  0.176190  0.703920  1.0  -0.5372
  O  O2324  1  0.194440  0.145360  0.672000  1.0  -0.5349
  O  O2325  1  0.084060  0.491240  0.752540  1.0  -0.5849
  O  O2326  1  0.058130  0.489830  0.708440  1.0  -0.544
  O  O2327  1  0.111850  0.444900  0.668560  1.0  -0.5666
  O  O2328  1  0.073580  0.459850  0.657410  1.0  -0.5539
  O  O2329  1  0.150550  0.494460  0.723780  1.0  -0.5228
  O  O2330  1  0.134510  0.521740  0.690550  1.0  -0.5671
  O  O2331  1  0.044540  0.415840  0.718420  1.0  -0.5519
  O  O2332  1  0.094930  0.427900  0.740330  1.0  -0.5174
  O  O2333  1  0.935050  0.530110  0.986160  1.0  -0.5486
  O  O2334  1  0.902740  0.554460  0.982040  1.0  -0.577
  O  O2335  1  0.933370  0.707110  0.715800  1.0  -0.6095
  O  O2336  1  0.986780  0.744470  0.720230  1.0  -0.5209
  O  O2337  1  0.269220  0.438650  0.412470  1.0  -0.5417
  O  O2338  1  0.233730  0.414470  0.373770  1.0  -0.5693
  O  O2339  1  0.848800  0.509530  0.037260  1.0  -0.5372
  O  O2340  1  0.861100  0.478700  0.005340  1.0  -0.5349
