# generated using pymatgen
data_AgH20C20(N2O)2
_symmetry_space_group_name_H-M   'P 1'
_cell_length_a   30.09540000
_cell_length_b   15.50480000
_cell_length_c   35.48430000
_cell_angle_alpha   90.00000000
_cell_angle_beta   107.18500000
_cell_angle_gamma   90.00000000
_symmetry_Int_Tables_number   1
_chemical_formula_structural   AgH20C20(N2O)2
_chemical_formula_sum   'Ag24 H480 C480 N96 O48'
_cell_volume   15818.58565970
_cell_formula_units_Z   24
loop_
 _symmetry_equiv_pos_site_id
 _symmetry_equiv_pos_as_xyz
  1  'x, y, z'
loop_
 _atom_site_type_symbol
 _atom_site_label
 _atom_site_symmetry_multiplicity
 _atom_site_fract_x
 _atom_site_fract_y
 _atom_site_fract_z
 _atom_site_occupancy
 _atom_site_charge
  Ag  Ag1  1  0.768230  0.463310  0.026720  1.0  0.2879
  Ag  Ag2  1  0.013510  0.216430  0.010190  1.0  0.3271
  Ag  Ag3  1  0.270570  0.488750  0.272370  1.0  0.2692
  Ag  Ag4  1  0.268230  0.963310  0.026720  1.0  0.2879
  Ag  Ag5  1  0.513510  0.716430  0.010190  1.0  0.3271
  Ag  Ag6  1  0.770570  0.988750  0.272370  1.0  0.2692
  Ag  Ag7  1  0.768230  0.536690  0.526720  1.0  0.2882
  Ag  Ag8  1  0.013510  0.783570  0.510190  1.0  0.3267
  Ag  Ag9  1  0.270570  0.511250  0.772370  1.0  0.2681
  Ag  Ag10  1  0.268230  0.036690  0.526720  1.0  0.2882
  Ag  Ag11  1  0.513510  0.283570  0.510190  1.0  0.3267
  Ag  Ag12  1  0.770570  0.011250  0.772370  1.0  0.2681
  Ag  Ag13  1  0.231770  0.463310  0.473280  1.0  0.2882
  Ag  Ag14  1  0.986490  0.216430  0.489810  1.0  0.328
  Ag  Ag15  1  0.729430  0.488750  0.227630  1.0  0.269
  Ag  Ag16  1  0.731770  0.963310  0.473280  1.0  0.2882
  Ag  Ag17  1  0.486490  0.716430  0.489810  1.0  0.328
  Ag  Ag18  1  0.229430  0.988750  0.227630  1.0  0.269
  Ag  Ag19  1  0.231770  0.536690  0.973280  1.0  0.2885
  Ag  Ag20  1  0.986490  0.783570  0.989810  1.0  0.3272
  Ag  Ag21  1  0.729430  0.511250  0.727630  1.0  0.2691
  Ag  Ag22  1  0.731770  0.036690  0.973280  1.0  0.2885
  Ag  Ag23  1  0.486490  0.283570  0.989810  1.0  0.3272
  Ag  Ag24  1  0.229430  0.011250  0.727630  1.0  0.2691
  H  H25  1  0.878000  0.721500  0.074100  1.0  0.3364
  H  H26  1  0.762100  0.785700  0.893900  1.0  0.2679
  H  H27  1  0.948900  0.898900  0.066300  1.0  0.2854
  H  H28  1  0.054300  0.513400  0.972100  1.0  0.2799
  H  H29  1  0.141000  0.693400  0.988200  1.0  0.2519
  H  H30  1  0.251300  0.521700  0.146000  1.0  0.2405
  H  H31  1  0.770300  0.325600  0.085400  1.0  0.084
  H  H32  1  0.811200  0.275600  0.147500  1.0  0.1069
  H  H33  1  0.878800  0.348200  0.183000  1.0  0.1081
  H  H34  1  0.905900  0.461900  0.153200  1.0  0.1207
  H  H35  1  0.861600  0.517800  0.051500  1.0  0.0939
  H  H36  1  0.904400  0.535200  0.090200  1.0  0.0869
  H  H37  1  0.813700  0.603800  0.081300  1.0  0.0631
  H  H38  1  0.859900  0.628500  0.115600  1.0  0.0656
  H  H39  1  0.898700  0.811900  0.045300  1.0  0.1001
  H  H40  1  0.676300  0.015100  0.712200  1.0  0.0784
  H  H41  1  0.606300  0.941500  0.690600  1.0  0.1082
  H  H42  1  0.595100  0.819000  0.724200  1.0  0.101
  H  H43  1  0.654700  0.772900  0.780200  1.0  0.102
  H  H44  1  0.764200  0.882300  0.817500  1.0  0.1099
  H  H45  1  0.745600  0.784800  0.813300  1.0  0.0953
  H  H46  1  0.708400  0.918400  0.851300  1.0  0.0731
  H  H47  1  0.692300  0.819700  0.848500  1.0  0.0668
  H  H48  1  0.783100  0.754700  0.957400  1.0  0.1026
  H  H49  1  0.096600  0.273700  0.078400  1.0  0.0882
  H  H50  1  0.150900  0.227300  0.134200  1.0  0.1004
  H  H51  1  0.150200  0.086400  0.155300  1.0  0.1044
  H  H52  1  0.092600  0.993400  0.118600  1.0  0.098
  H  H53  1  0.034600  0.966700  0.050700  1.0  0.0869
  H  H54  1  0.007700  0.049000  0.027700  1.0  0.0874
  H  H55  1  0.999600  0.994900  0.102400  1.0  0.0862
  H  H56  1  0.969500  0.069500  0.075400  1.0  0.0919
  H  H57  1  0.849400  0.980500  0.956100  1.0  0.1023
  H  H58  1  0.917200  0.153600  0.965400  1.0  0.0739
  H  H59  1  0.857100  0.166000  0.907100  1.0  0.1085
  H  H60  1  0.863900  0.266000  0.860300  1.0  0.1124
  H  H61  1  0.933700  0.344000  0.871300  1.0  0.1013
  H  H62  1  0.014400  0.367400  0.910200  1.0  0.1007
  H  H63  1  0.036000  0.308200  0.948300  1.0  0.0936
  H  H64  1  0.982700  0.462700  0.945400  1.0  0.0771
  H  H65  1  0.991500  0.397800  0.981900  1.0  0.0858
  H  H66  1  0.107600  0.588600  0.005600  1.0  0.102
  H  H67  1  0.230400  0.106300  0.966600  1.0  0.0831
  H  H68  1  0.176000  0.133600  0.907900  1.0  0.1089
  H  H69  1  0.127700  0.020900  0.874900  1.0  0.1122
  H  H70  1  0.136400  0.884300  0.903500  1.0  0.1155
  H  H71  1  0.227300  0.818900  0.986400  1.0  0.097
  H  H72  1  0.186700  0.783700  0.949400  1.0  0.0916
  H  H73  1  0.175700  0.851400  0.021100  1.0  0.0889
  H  H74  1  0.131800  0.840700  0.982600  1.0  0.0779
  H  H75  1  0.231800  0.580500  0.089500  1.0  0.0973
  H  H76  1  0.357000  0.399600  0.326400  1.0  0.0771
  H  H77  1  0.431400  0.356700  0.329800  1.0  0.1109
  H  H78  1  0.456900  0.371900  0.272900  1.0  0.112
  H  H79  1  0.408300  0.438400  0.217800  1.0  0.1148
  H  H80  1  0.339100  0.526100  0.188600  1.0  0.0882
  H  H81  1  0.301500  0.539900  0.212100  1.0  0.1101
  H  H82  1  0.310100  0.386400  0.169300  1.0  0.0929
  H  H83  1  0.275100  0.393500  0.195600  1.0  0.0964
  H  H84  1  0.151600  0.367500  0.064700  1.0  0.095
  H  H85  1  0.378000  0.221500  0.074100  1.0  0.3364
  H  H86  1  0.262100  0.285700  0.893900  1.0  0.2679
  H  H87  1  0.448900  0.398900  0.066300  1.0  0.2854
  H  H88  1  0.554300  0.013400  0.972100  1.0  0.2799
  H  H89  1  0.641000  0.193400  0.988200  1.0  0.2519
  H  H90  1  0.751300  0.021700  0.146000  1.0  0.2405
  H  H91  1  0.270300  0.825600  0.085400  1.0  0.084
  H  H92  1  0.311200  0.775600  0.147500  1.0  0.1069
  H  H93  1  0.378800  0.848200  0.183000  1.0  0.1081
  H  H94  1  0.405900  0.961900  0.153200  1.0  0.1207
  H  H95  1  0.361600  0.017800  0.051500  1.0  0.0939
  H  H96  1  0.404400  0.035200  0.090200  1.0  0.0869
  H  H97  1  0.313700  0.103800  0.081300  1.0  0.0631
  H  H98  1  0.359900  0.128500  0.115600  1.0  0.0656
  H  H99  1  0.398700  0.311900  0.045300  1.0  0.1001
  H  H100  1  0.176300  0.515100  0.712200  1.0  0.0784
  H  H101  1  0.106300  0.441500  0.690600  1.0  0.1082
  H  H102  1  0.095100  0.319000  0.724200  1.0  0.101
  H  H103  1  0.154700  0.272900  0.780200  1.0  0.102
  H  H104  1  0.264200  0.382300  0.817500  1.0  0.1099
  H  H105  1  0.245600  0.284800  0.813300  1.0  0.0953
  H  H106  1  0.208400  0.418400  0.851300  1.0  0.0731
  H  H107  1  0.192300  0.319700  0.848500  1.0  0.0668
  H  H108  1  0.283100  0.254700  0.957400  1.0  0.1026
  H  H109  1  0.596600  0.773700  0.078400  1.0  0.0882
  H  H110  1  0.650900  0.727300  0.134200  1.0  0.1004
  H  H111  1  0.650200  0.586400  0.155300  1.0  0.1044
  H  H112  1  0.592600  0.493400  0.118600  1.0  0.098
  H  H113  1  0.534600  0.466700  0.050700  1.0  0.0869
  H  H114  1  0.507700  0.549000  0.027700  1.0  0.0874
  H  H115  1  0.499600  0.494900  0.102400  1.0  0.0862
  H  H116  1  0.469500  0.569500  0.075400  1.0  0.0919
  H  H117  1  0.349400  0.480500  0.956100  1.0  0.1023
  H  H118  1  0.417200  0.653600  0.965400  1.0  0.0739
  H  H119  1  0.357100  0.666000  0.907100  1.0  0.1085
  H  H120  1  0.363900  0.766000  0.860300  1.0  0.1124
  H  H121  1  0.433700  0.844000  0.871300  1.0  0.1013
  H  H122  1  0.514400  0.867400  0.910200  1.0  0.1007
  H  H123  1  0.536000  0.808200  0.948300  1.0  0.0936
  H  H124  1  0.482700  0.962700  0.945400  1.0  0.0771
  H  H125  1  0.491500  0.897800  0.981900  1.0  0.0858
  H  H126  1  0.607600  0.088600  0.005600  1.0  0.102
  H  H127  1  0.730400  0.606300  0.966600  1.0  0.0831
  H  H128  1  0.676000  0.633600  0.907900  1.0  0.1089
  H  H129  1  0.627700  0.520900  0.874900  1.0  0.1122
  H  H130  1  0.636400  0.384300  0.903500  1.0  0.1155
  H  H131  1  0.727300  0.318900  0.986400  1.0  0.097
  H  H132  1  0.686700  0.283700  0.949400  1.0  0.0916
  H  H133  1  0.675700  0.351400  0.021100  1.0  0.0889
  H  H134  1  0.631800  0.340700  0.982600  1.0  0.0779
  H  H135  1  0.731800  0.080500  0.089500  1.0  0.0973
  H  H136  1  0.857000  0.899600  0.326400  1.0  0.0771
  H  H137  1  0.931400  0.856700  0.329800  1.0  0.1109
  H  H138  1  0.956900  0.871900  0.272900  1.0  0.112
  H  H139  1  0.908300  0.938400  0.217800  1.0  0.1148
  H  H140  1  0.839100  0.026100  0.188600  1.0  0.0882
  H  H141  1  0.801500  0.039900  0.212100  1.0  0.1101
  H  H142  1  0.810100  0.886400  0.169300  1.0  0.0929
  H  H143  1  0.775100  0.893500  0.195600  1.0  0.0964
  H  H144  1  0.651600  0.867500  0.064700  1.0  0.095
  H  H145  1  0.878000  0.278500  0.574100  1.0  0.3371
  H  H146  1  0.762100  0.214300  0.393900  1.0  0.268
  H  H147  1  0.948900  0.101100  0.566300  1.0  0.2844
  H  H148  1  0.054300  0.486600  0.472100  1.0  0.2798
  H  H149  1  0.141000  0.306600  0.488200  1.0  0.2527
  H  H150  1  0.251300  0.478300  0.646000  1.0  0.2392
  H  H151  1  0.770300  0.674400  0.585400  1.0  0.0843
  H  H152  1  0.811200  0.724400  0.647500  1.0  0.1073
  H  H153  1  0.878800  0.651800  0.683000  1.0  0.1078
  H  H154  1  0.905900  0.538100  0.653200  1.0  0.1209
  H  H155  1  0.861600  0.482200  0.551500  1.0  0.0932
  H  H156  1  0.904400  0.464800  0.590200  1.0  0.0871
  H  H157  1  0.813700  0.396200  0.581300  1.0  0.0633
  H  H158  1  0.859900  0.371500  0.615600  1.0  0.0659
  H  H159  1  0.898700  0.188100  0.545300  1.0  0.0996
  H  H160  1  0.676300  0.984900  0.212200  1.0  0.0779
  H  H161  1  0.606300  0.058500  0.190600  1.0  0.1082
  H  H162  1  0.595100  0.181000  0.224200  1.0  0.1011
  H  H163  1  0.654700  0.227100  0.280200  1.0  0.1018
  H  H164  1  0.764200  0.117700  0.317500  1.0  0.11
  H  H165  1  0.745600  0.215200  0.313300  1.0  0.0949
  H  H166  1  0.708400  0.081600  0.351300  1.0  0.0722
  H  H167  1  0.692300  0.180300  0.348500  1.0  0.0665
  H  H168  1  0.783100  0.245300  0.457400  1.0  0.1022
  H  H169  1  0.096600  0.726300  0.578400  1.0  0.0893
  H  H170  1  0.150900  0.772700  0.634200  1.0  0.1008
  H  H171  1  0.150200  0.913600  0.655300  1.0  0.1045
  H  H172  1  0.092600  0.006600  0.618600  1.0  0.0978
  H  H173  1  0.034600  0.033300  0.550700  1.0  0.0875
  H  H174  1  0.007700  0.951000  0.527700  1.0  0.0875
  H  H175  1  0.999600  0.005100  0.602400  1.0  0.0867
  H  H176  1  0.969500  0.930500  0.575400  1.0  0.0923
  H  H177  1  0.849400  0.019500  0.456100  1.0  0.1018
  H  H178  1  0.917200  0.846400  0.465400  1.0  0.0743
  H  H179  1  0.857100  0.834000  0.407100  1.0  0.1087
  H  H180  1  0.863900  0.734000  0.360300  1.0  0.1124
  H  H181  1  0.933700  0.656000  0.371300  1.0  0.1014
  H  H182  1  0.014400  0.632600  0.410200  1.0  0.1005
  H  H183  1  0.036000  0.691800  0.448300  1.0  0.0936
  H  H184  1  0.982700  0.537300  0.445400  1.0  0.0771
  H  H185  1  0.991500  0.602200  0.481900  1.0  0.0859
  H  H186  1  0.107600  0.411400  0.505600  1.0  0.1018
  H  H187  1  0.230400  0.893700  0.466600  1.0  0.0836
  H  H188  1  0.176000  0.866400  0.407900  1.0  0.1091
  H  H189  1  0.127700  0.979100  0.374900  1.0  0.1123
  H  H190  1  0.136400  0.115700  0.403500  1.0  0.1164
  H  H191  1  0.227300  0.181100  0.486400  1.0  0.0967
  H  H192  1  0.186700  0.216300  0.449400  1.0  0.0922
  H  H193  1  0.175700  0.148600  0.521100  1.0  0.0891
  H  H194  1  0.131800  0.159300  0.482600  1.0  0.078
  H  H195  1  0.231800  0.419500  0.589500  1.0  0.0978
  H  H196  1  0.357000  0.600400  0.826400  1.0  0.0768
  H  H197  1  0.431400  0.643300  0.829800  1.0  0.1104
  H  H198  1  0.456900  0.628100  0.772900  1.0  0.1123
  H  H199  1  0.408300  0.561600  0.717800  1.0  0.1147
  H  H200  1  0.339100  0.473900  0.688600  1.0  0.0884
  H  H201  1  0.301500  0.460100  0.712100  1.0  0.1112
  H  H202  1  0.310100  0.613600  0.669300  1.0  0.092
  H  H203  1  0.275100  0.606500  0.695600  1.0  0.0951
  H  H204  1  0.151600  0.632500  0.564700  1.0  0.0952
  H  H205  1  0.378000  0.778500  0.574100  1.0  0.3371
  H  H206  1  0.262100  0.714300  0.393900  1.0  0.268
  H  H207  1  0.448900  0.601100  0.566300  1.0  0.2844
  H  H208  1  0.554300  0.986600  0.472100  1.0  0.2798
  H  H209  1  0.641000  0.806600  0.488200  1.0  0.2527
  H  H210  1  0.751300  0.978300  0.646000  1.0  0.2392
  H  H211  1  0.270300  0.174400  0.585400  1.0  0.0843
  H  H212  1  0.311200  0.224400  0.647500  1.0  0.1073
  H  H213  1  0.378800  0.151800  0.683000  1.0  0.1078
  H  H214  1  0.405900  0.038100  0.653200  1.0  0.1209
  H  H215  1  0.361600  0.982200  0.551500  1.0  0.0932
  H  H216  1  0.404400  0.964800  0.590200  1.0  0.0871
  H  H217  1  0.313700  0.896200  0.581300  1.0  0.0633
  H  H218  1  0.359900  0.871500  0.615600  1.0  0.0659
  H  H219  1  0.398700  0.688100  0.545300  1.0  0.0996
  H  H220  1  0.176300  0.484900  0.212200  1.0  0.0779
  H  H221  1  0.106300  0.558500  0.190600  1.0  0.1082
  H  H222  1  0.095100  0.681000  0.224200  1.0  0.1011
  H  H223  1  0.154700  0.727100  0.280200  1.0  0.1018
  H  H224  1  0.264200  0.617700  0.317500  1.0  0.11
  H  H225  1  0.245600  0.715200  0.313300  1.0  0.0949
  H  H226  1  0.208400  0.581600  0.351300  1.0  0.0722
  H  H227  1  0.192300  0.680300  0.348500  1.0  0.0665
  H  H228  1  0.283100  0.745300  0.457400  1.0  0.1022
  H  H229  1  0.596600  0.226300  0.578400  1.0  0.0893
  H  H230  1  0.650900  0.272700  0.634200  1.0  0.1008
  H  H231  1  0.650200  0.413600  0.655300  1.0  0.1045
  H  H232  1  0.592600  0.506600  0.618600  1.0  0.0978
  H  H233  1  0.534600  0.533300  0.550700  1.0  0.0875
  H  H234  1  0.507700  0.451000  0.527700  1.0  0.0875
  H  H235  1  0.499600  0.505100  0.602400  1.0  0.0867
  H  H236  1  0.469500  0.430500  0.575400  1.0  0.0923
  H  H237  1  0.349400  0.519500  0.456100  1.0  0.1018
  H  H238  1  0.417200  0.346400  0.465400  1.0  0.0743
  H  H239  1  0.357100  0.334000  0.407100  1.0  0.1087
  H  H240  1  0.363900  0.234000  0.360300  1.0  0.1124
  H  H241  1  0.433700  0.156000  0.371300  1.0  0.1014
  H  H242  1  0.514400  0.132600  0.410200  1.0  0.1005
  H  H243  1  0.536000  0.191800  0.448300  1.0  0.0936
  H  H244  1  0.482700  0.037300  0.445400  1.0  0.0771
  H  H245  1  0.491500  0.102200  0.481900  1.0  0.0859
  H  H246  1  0.607600  0.911400  0.505600  1.0  0.1018
  H  H247  1  0.730400  0.393700  0.466600  1.0  0.0836
  H  H248  1  0.676000  0.366400  0.407900  1.0  0.1091
  H  H249  1  0.627700  0.479100  0.374900  1.0  0.1123
  H  H250  1  0.636400  0.615700  0.403500  1.0  0.1164
  H  H251  1  0.727300  0.681100  0.486400  1.0  0.0967
  H  H252  1  0.686700  0.716300  0.449400  1.0  0.0922
  H  H253  1  0.675700  0.648600  0.521100  1.0  0.0891
  H  H254  1  0.631800  0.659300  0.482600  1.0  0.078
  H  H255  1  0.731800  0.919500  0.589500  1.0  0.0978
  H  H256  1  0.857000  0.100400  0.826400  1.0  0.0768
  H  H257  1  0.931400  0.143300  0.829800  1.0  0.1104
  H  H258  1  0.956900  0.128100  0.772900  1.0  0.1123
  H  H259  1  0.908300  0.061600  0.717800  1.0  0.1147
  H  H260  1  0.839100  0.973900  0.688600  1.0  0.0884
  H  H261  1  0.801500  0.960100  0.712100  1.0  0.1112
  H  H262  1  0.810100  0.113600  0.669300  1.0  0.092
  H  H263  1  0.775100  0.106500  0.695600  1.0  0.0951
  H  H264  1  0.651600  0.132500  0.564700  1.0  0.0952
  H  H265  1  0.122000  0.721500  0.425900  1.0  0.3375
  H  H266  1  0.237900  0.785700  0.606100  1.0  0.2684
  H  H267  1  0.051100  0.898900  0.433700  1.0  0.2854
  H  H268  1  0.945700  0.513400  0.527900  1.0  0.2798
  H  H269  1  0.859000  0.693400  0.511800  1.0  0.2509
  H  H270  1  0.748700  0.521700  0.354000  1.0  0.2404
  H  H271  1  0.229700  0.325600  0.414600  1.0  0.0832
  H  H272  1  0.188800  0.275600  0.352500  1.0  0.1067
  H  H273  1  0.121200  0.348200  0.317000  1.0  0.1067
  H  H274  1  0.094100  0.461900  0.346800  1.0  0.1212
  H  H275  1  0.138400  0.517800  0.448500  1.0  0.0925
  H  H276  1  0.095600  0.535200  0.409800  1.0  0.0865
  H  H277  1  0.186300  0.603800  0.418700  1.0  0.0632
  H  H278  1  0.140100  0.628500  0.384400  1.0  0.0664
  H  H279  1  0.101300  0.811900  0.454700  1.0  0.0989
  H  H280  1  0.323700  0.015100  0.787800  1.0  0.078
  H  H281  1  0.393700  0.941500  0.809400  1.0  0.108
  H  H282  1  0.404900  0.819000  0.775800  1.0  0.1016
  H  H283  1  0.345300  0.772900  0.719800  1.0  0.1021
  H  H284  1  0.235800  0.882300  0.682500  1.0  0.1126
  H  H285  1  0.254400  0.784800  0.686700  1.0  0.0957
  H  H286  1  0.291600  0.918400  0.648700  1.0  0.0724
  H  H287  1  0.307700  0.819700  0.651500  1.0  0.0668
  H  H288  1  0.216900  0.754700  0.542600  1.0  0.103
  H  H289  1  0.903400  0.273700  0.421600  1.0  0.0894
  H  H290  1  0.849100  0.227300  0.365800  1.0  0.1015
  H  H291  1  0.849800  0.086400  0.344700  1.0  0.1033
  H  H292  1  0.907400  0.993400  0.381400  1.0  0.0981
  H  H293  1  0.965400  0.966700  0.449300  1.0  0.0872
  H  H294  1  0.992300  0.049000  0.472300  1.0  0.086
  H  H295  1  0.000400  0.994900  0.397600  1.0  0.0871
  H  H296  1  0.030500  0.069500  0.424600  1.0  0.0924
  H  H297  1  0.150600  0.980500  0.543900  1.0  0.102
  H  H298  1  0.082800  0.153600  0.534600  1.0  0.0737
  H  H299  1  0.142900  0.166000  0.592900  1.0  0.1081
  H  H300  1  0.136100  0.266000  0.639700  1.0  0.1126
  H  H301  1  0.066300  0.344000  0.628700  1.0  0.1017
  H  H302  1  0.985600  0.367400  0.589800  1.0  0.1002
  H  H303  1  0.964000  0.308200  0.551700  1.0  0.0949
  H  H304  1  0.017300  0.462700  0.554600  1.0  0.0774
  H  H305  1  0.008500  0.397800  0.518100  1.0  0.0885
  H  H306  1  0.892400  0.588600  0.494400  1.0  0.1024
  H  H307  1  0.769600  0.106300  0.533400  1.0  0.0835
  H  H308  1  0.824000  0.133600  0.592100  1.0  0.1082
  H  H309  1  0.872300  0.020900  0.625100  1.0  0.1123
  H  H310  1  0.863600  0.884300  0.596500  1.0  0.1159
  H  H311  1  0.772700  0.818900  0.513600  1.0  0.0959
  H  H312  1  0.813300  0.783700  0.550600  1.0  0.0928
  H  H313  1  0.824300  0.851400  0.478900  1.0  0.0899
  H  H314  1  0.868200  0.840700  0.517400  1.0  0.0747
  H  H315  1  0.768200  0.580500  0.410500  1.0  0.0978
  H  H316  1  0.643000  0.399600  0.173600  1.0  0.0773
  H  H317  1  0.568600  0.356700  0.170200  1.0  0.1104
  H  H318  1  0.543100  0.371900  0.227100  1.0  0.1109
  H  H319  1  0.591700  0.438400  0.282200  1.0  0.1139
  H  H320  1  0.660900  0.526100  0.311400  1.0  0.0895
  H  H321  1  0.698500  0.539900  0.287900  1.0  0.1087
  H  H322  1  0.689900  0.386400  0.330700  1.0  0.0931
  H  H323  1  0.724900  0.393500  0.304400  1.0  0.0964
  H  H324  1  0.848400  0.367500  0.435300  1.0  0.0956
  H  H325  1  0.622000  0.221500  0.425900  1.0  0.3375
  H  H326  1  0.737900  0.285700  0.606100  1.0  0.2684
  H  H327  1  0.551100  0.398900  0.433700  1.0  0.2854
  H  H328  1  0.445700  0.013400  0.527900  1.0  0.2798
  H  H329  1  0.359000  0.193400  0.511800  1.0  0.2509
  H  H330  1  0.248700  0.021700  0.354000  1.0  0.2404
  H  H331  1  0.729700  0.825600  0.414600  1.0  0.0832
  H  H332  1  0.688800  0.775600  0.352500  1.0  0.1067
  H  H333  1  0.621200  0.848200  0.317000  1.0  0.1067
  H  H334  1  0.594100  0.961900  0.346800  1.0  0.1212
  H  H335  1  0.638400  0.017800  0.448500  1.0  0.0925
  H  H336  1  0.595600  0.035200  0.409800  1.0  0.0865
  H  H337  1  0.686300  0.103800  0.418700  1.0  0.0632
  H  H338  1  0.640100  0.128500  0.384400  1.0  0.0664
  H  H339  1  0.601300  0.311900  0.454700  1.0  0.0989
  H  H340  1  0.823700  0.515100  0.787800  1.0  0.078
  H  H341  1  0.893700  0.441500  0.809400  1.0  0.108
  H  H342  1  0.904900  0.319000  0.775800  1.0  0.1016
  H  H343  1  0.845300  0.272900  0.719800  1.0  0.1021
  H  H344  1  0.735800  0.382300  0.682500  1.0  0.1126
  H  H345  1  0.754400  0.284800  0.686700  1.0  0.0957
  H  H346  1  0.791600  0.418400  0.648700  1.0  0.0724
  H  H347  1  0.807700  0.319700  0.651500  1.0  0.0668
  H  H348  1  0.716900  0.254700  0.542600  1.0  0.103
  H  H349  1  0.403400  0.773700  0.421600  1.0  0.0894
  H  H350  1  0.349100  0.727300  0.365800  1.0  0.1015
  H  H351  1  0.349800  0.586400  0.344700  1.0  0.1033
  H  H352  1  0.407400  0.493400  0.381400  1.0  0.0981
  H  H353  1  0.465400  0.466700  0.449300  1.0  0.0872
  H  H354  1  0.492300  0.549000  0.472300  1.0  0.086
  H  H355  1  0.500400  0.494900  0.397600  1.0  0.0871
  H  H356  1  0.530500  0.569500  0.424600  1.0  0.0924
  H  H357  1  0.650600  0.480500  0.543900  1.0  0.102
  H  H358  1  0.582800  0.653600  0.534600  1.0  0.0737
  H  H359  1  0.642900  0.666000  0.592900  1.0  0.1081
  H  H360  1  0.636100  0.766000  0.639700  1.0  0.1126
  H  H361  1  0.566300  0.844000  0.628700  1.0  0.1017
  H  H362  1  0.485600  0.867400  0.589800  1.0  0.1002
  H  H363  1  0.464000  0.808200  0.551700  1.0  0.0949
  H  H364  1  0.517300  0.962700  0.554600  1.0  0.0774
  H  H365  1  0.508500  0.897800  0.518100  1.0  0.0885
  H  H366  1  0.392400  0.088600  0.494400  1.0  0.1024
  H  H367  1  0.269600  0.606300  0.533400  1.0  0.0835
  H  H368  1  0.324000  0.633600  0.592100  1.0  0.1082
  H  H369  1  0.372300  0.520900  0.625100  1.0  0.1123
  H  H370  1  0.363600  0.384300  0.596500  1.0  0.1159
  H  H371  1  0.272700  0.318900  0.513600  1.0  0.0959
  H  H372  1  0.313300  0.283700  0.550600  1.0  0.0928
  H  H373  1  0.324300  0.351400  0.478900  1.0  0.0899
  H  H374  1  0.368200  0.340700  0.517400  1.0  0.0747
  H  H375  1  0.268200  0.080500  0.410500  1.0  0.0978
  H  H376  1  0.143000  0.899600  0.173600  1.0  0.0773
  H  H377  1  0.068600  0.856700  0.170200  1.0  0.1104
  H  H378  1  0.043100  0.871900  0.227100  1.0  0.1109
  H  H379  1  0.091700  0.938400  0.282200  1.0  0.1139
  H  H380  1  0.160900  0.026100  0.311400  1.0  0.0895
  H  H381  1  0.198500  0.039900  0.287900  1.0  0.1087
  H  H382  1  0.189900  0.886400  0.330700  1.0  0.0931
  H  H383  1  0.224900  0.893500  0.304400  1.0  0.0964
  H  H384  1  0.348400  0.867500  0.435300  1.0  0.0956
  H  H385  1  0.122000  0.278500  0.925900  1.0  0.3374
  H  H386  1  0.237900  0.214300  0.106100  1.0  0.2688
  H  H387  1  0.051100  0.101100  0.933700  1.0  0.2852
  H  H388  1  0.945700  0.486600  0.027900  1.0  0.281
  H  H389  1  0.859000  0.306600  0.011800  1.0  0.251
  H  H390  1  0.748700  0.478300  0.854000  1.0  0.2381
  H  H391  1  0.229700  0.674400  0.914600  1.0  0.0832
  H  H392  1  0.188800  0.724400  0.852500  1.0  0.1074
  H  H393  1  0.121200  0.651800  0.817000  1.0  0.1069
  H  H394  1  0.094100  0.538100  0.846800  1.0  0.1212
  H  H395  1  0.138400  0.482200  0.948500  1.0  0.0922
  H  H396  1  0.095600  0.464800  0.909800  1.0  0.0863
  H  H397  1  0.186300  0.396200  0.918700  1.0  0.0629
  H  H398  1  0.140100  0.371500  0.884400  1.0  0.0658
  H  H399  1  0.101300  0.188100  0.954700  1.0  0.0987
  H  H400  1  0.323700  0.984900  0.287800  1.0  0.0782
  H  H401  1  0.393700  0.058500  0.309400  1.0  0.1084
  H  H402  1  0.404900  0.181000  0.275800  1.0  0.1014
  H  H403  1  0.345300  0.227100  0.219800  1.0  0.1019
  H  H404  1  0.235800  0.117700  0.182500  1.0  0.1133
  H  H405  1  0.254400  0.215200  0.186700  1.0  0.0947
  H  H406  1  0.291600  0.081600  0.148700  1.0  0.0724
  H  H407  1  0.307700  0.180300  0.151500  1.0  0.0669
  H  H408  1  0.216900  0.245300  0.042600  1.0  0.1026
  H  H409  1  0.903400  0.726300  0.921600  1.0  0.0884
  H  H410  1  0.849100  0.772700  0.865800  1.0  0.1009
  H  H411  1  0.849800  0.913600  0.844700  1.0  0.1033
  H  H412  1  0.907400  0.006600  0.881400  1.0  0.098
  H  H413  1  0.965400  0.033300  0.949300  1.0  0.0873
  H  H414  1  0.992300  0.951000  0.972300  1.0  0.0865
  H  H415  1  0.000400  0.005100  0.897600  1.0  0.0871
  H  H416  1  0.030500  0.930500  0.924600  1.0  0.0915
  H  H417  1  0.150600  0.019500  0.043900  1.0  0.102
  H  H418  1  0.082800  0.846400  0.034600  1.0  0.0738
  H  H419  1  0.142900  0.834000  0.092900  1.0  0.108
  H  H420  1  0.136100  0.734000  0.139700  1.0  0.1129
  H  H421  1  0.066300  0.656000  0.128700  1.0  0.1019
  H  H422  1  0.985600  0.632600  0.089800  1.0  0.1003
  H  H423  1  0.964000  0.691800  0.051700  1.0  0.095
  H  H424  1  0.017300  0.537300  0.054600  1.0  0.0776
  H  H425  1  0.008500  0.602200  0.018100  1.0  0.0883
  H  H426  1  0.892400  0.411400  0.994400  1.0  0.1028
  H  H427  1  0.769600  0.893700  0.033400  1.0  0.0836
  H  H428  1  0.824000  0.866400  0.092100  1.0  0.1086
  H  H429  1  0.872300  0.979100  0.125100  1.0  0.1122
  H  H430  1  0.863600  0.115700  0.096500  1.0  0.1158
  H  H431  1  0.772700  0.181100  0.013600  1.0  0.0957
  H  H432  1  0.813300  0.216300  0.050600  1.0  0.0924
  H  H433  1  0.824300  0.148600  0.978900  1.0  0.0899
  H  H434  1  0.868200  0.159300  0.017400  1.0  0.0746
  H  H435  1  0.768200  0.419500  0.910500  1.0  0.0978
  H  H436  1  0.643000  0.600400  0.673600  1.0  0.0773
  H  H437  1  0.568600  0.643300  0.670200  1.0  0.1103
  H  H438  1  0.543100  0.628100  0.727100  1.0  0.1109
  H  H439  1  0.591700  0.561600  0.782200  1.0  0.114
  H  H440  1  0.660900  0.473900  0.811400  1.0  0.0901
  H  H441  1  0.698500  0.460100  0.787900  1.0  0.1102
  H  H442  1  0.689900  0.613600  0.830700  1.0  0.0924
  H  H443  1  0.724900  0.606500  0.804400  1.0  0.096
  H  H444  1  0.848400  0.632500  0.935300  1.0  0.0957
  H  H445  1  0.622000  0.778500  0.925900  1.0  0.3374
  H  H446  1  0.737900  0.714300  0.106100  1.0  0.2688
  H  H447  1  0.551100  0.601100  0.933700  1.0  0.2852
  H  H448  1  0.445700  0.986600  0.027900  1.0  0.281
  H  H449  1  0.359000  0.806600  0.011800  1.0  0.251
  H  H450  1  0.248700  0.978300  0.854000  1.0  0.2381
  H  H451  1  0.729700  0.174400  0.914600  1.0  0.0832
  H  H452  1  0.688800  0.224400  0.852500  1.0  0.1074
  H  H453  1  0.621200  0.151800  0.817000  1.0  0.1069
  H  H454  1  0.594100  0.038100  0.846800  1.0  0.1212
  H  H455  1  0.638400  0.982200  0.948500  1.0  0.0922
  H  H456  1  0.595600  0.964800  0.909800  1.0  0.0863
  H  H457  1  0.686300  0.896200  0.918700  1.0  0.0629
  H  H458  1  0.640100  0.871500  0.884400  1.0  0.0658
  H  H459  1  0.601300  0.688100  0.954700  1.0  0.0987
  H  H460  1  0.823700  0.484900  0.287800  1.0  0.0782
  H  H461  1  0.893700  0.558500  0.309400  1.0  0.1084
  H  H462  1  0.904900  0.681000  0.275800  1.0  0.1014
  H  H463  1  0.845300  0.727100  0.219800  1.0  0.1019
  H  H464  1  0.735800  0.617700  0.182500  1.0  0.1133
  H  H465  1  0.754400  0.715200  0.186700  1.0  0.0947
  H  H466  1  0.791600  0.581600  0.148700  1.0  0.0724
  H  H467  1  0.807700  0.680300  0.151500  1.0  0.0669
  H  H468  1  0.716900  0.745300  0.042600  1.0  0.1026
  H  H469  1  0.403400  0.226300  0.921600  1.0  0.0884
  H  H470  1  0.349100  0.272700  0.865800  1.0  0.1009
  H  H471  1  0.349800  0.413600  0.844700  1.0  0.1033
  H  H472  1  0.407400  0.506600  0.881400  1.0  0.098
  H  H473  1  0.465400  0.533300  0.949300  1.0  0.0873
  H  H474  1  0.492300  0.451000  0.972300  1.0  0.0865
  H  H475  1  0.500400  0.505100  0.897600  1.0  0.0871
  H  H476  1  0.530500  0.430500  0.924600  1.0  0.0915
  H  H477  1  0.650600  0.519500  0.043900  1.0  0.102
  H  H478  1  0.582800  0.346400  0.034600  1.0  0.0738
  H  H479  1  0.642900  0.334000  0.092900  1.0  0.108
  H  H480  1  0.636100  0.234000  0.139700  1.0  0.1129
  H  H481  1  0.566300  0.156000  0.128700  1.0  0.1019
  H  H482  1  0.485600  0.132600  0.089800  1.0  0.1003
  H  H483  1  0.464000  0.191800  0.051700  1.0  0.095
  H  H484  1  0.517300  0.037300  0.054600  1.0  0.0776
  H  H485  1  0.508500  0.102200  0.018100  1.0  0.0883
  H  H486  1  0.392400  0.911400  0.994400  1.0  0.1028
  H  H487  1  0.269600  0.393700  0.033400  1.0  0.0836
  H  H488  1  0.324000  0.366400  0.092100  1.0  0.1086
  H  H489  1  0.372300  0.479100  0.125100  1.0  0.1122
  H  H490  1  0.363600  0.615700  0.096500  1.0  0.1158
  H  H491  1  0.272700  0.681100  0.013600  1.0  0.0957
  H  H492  1  0.313300  0.716300  0.050600  1.0  0.0924
  H  H493  1  0.324300  0.648600  0.978900  1.0  0.0899
  H  H494  1  0.368200  0.659300  0.017400  1.0  0.0746
  H  H495  1  0.268200  0.919500  0.910500  1.0  0.0978
  H  H496  1  0.143000  0.100400  0.673600  1.0  0.0773
  H  H497  1  0.068600  0.143300  0.670200  1.0  0.1103
  H  H498  1  0.043100  0.128100  0.727100  1.0  0.1109
  H  H499  1  0.091700  0.061600  0.782200  1.0  0.114
  H  H500  1  0.160900  0.973900  0.811400  1.0  0.0901
  H  H501  1  0.198500  0.960100  0.787900  1.0  0.1102
  H  H502  1  0.189900  0.113600  0.830700  1.0  0.0924
  H  H503  1  0.224900  0.106500  0.804400  1.0  0.096
  H  H504  1  0.348400  0.132500  0.935300  1.0  0.0957
  C  C505  1  0.798700  0.352900  0.099100  1.0  0.1484
  C  C506  1  0.822400  0.323600  0.136300  1.0  -0.1675
  C  C507  1  0.862400  0.365400  0.156900  1.0  -0.1323
  C  C508  1  0.878400  0.432200  0.139300  1.0  -0.1118
  C  C509  1  0.854100  0.456800  0.100900  1.0  0.2368
  C  C510  1  0.870100  0.529800  0.080200  1.0  -0.297
  C  C511  1  0.847600  0.612900  0.087300  1.0  0.0212
  C  C512  1  0.830700  0.693100  0.026100  1.0  0.5363
  C  C513  1  0.839800  0.772400  0.004900  1.0  -0.1386
  C  C514  1  0.876200  0.827400  0.021300  1.0  -0.1074
  C  C515  1  0.671400  0.965600  0.726300  1.0  0.1191
  C  C516  1  0.630000  0.921900  0.713100  1.0  -0.1082
  C  C517  1  0.623500  0.850400  0.732900  1.0  -0.0909
  C  C518  1  0.658700  0.823100  0.766200  1.0  -0.1273
  C  C519  1  0.699000  0.869800  0.778400  1.0  0.2122
  C  C520  1  0.736500  0.845800  0.814900  1.0  -0.2793
  C  C521  1  0.719200  0.858200  0.850800  1.0  -0.0037
  C  C522  1  0.777500  0.900700  0.912600  1.0  0.5508
  C  C523  1  0.811700  0.870700  0.950500  1.0  -0.0665
  C  C524  1  0.807900  0.793300  0.969200  1.0  -0.1274
  C  C525  1  0.095600  0.215600  0.086600  1.0  0.1587
  C  C526  1  0.127800  0.188400  0.119600  1.0  -0.1035
  C  C527  1  0.127500  0.106000  0.132200  1.0  -0.119
  C  C528  1  0.093600  0.051600  0.110500  1.0  -0.105
  C  C529  1  0.060900  0.081200  0.076900  1.0  0.219
  C  C530  1  0.021900  0.024000  0.054200  1.0  -0.2313
  C  C531  1  0.984700  0.013100  0.074800  1.0  0.0053
  C  C532  1  0.918300  0.969700  0.021800  1.0  0.5513
  C  C533  1  0.880400  0.904700  0.003500  1.0  -0.1171
  C  C534  1  0.847400  0.926600  0.968200  1.0  -0.022
  C  C535  1  0.920700  0.192000  0.945600  1.0  0.1606
  C  C536  1  0.884400  0.200000  0.911400  1.0  -0.1155
  C  C537  1  0.888700  0.257500  0.883800  1.0  -0.1058
  C  C538  1  0.930000  0.304200  0.890500  1.0  -0.089
  C  C539  1  0.965100  0.292800  0.924600  1.0  0.2197
  C  C540  1  0.009200  0.344900  0.934600  1.0  -0.2931
  C  C541  1  0.004700  0.419800  0.961300  1.0  -0.0104
  C  C542  1  0.080300  0.422400  0.009600  1.0  0.5257
  C  C543  1  0.123500  0.471200  0.031600  1.0  -0.132
  C  C544  1  0.130600  0.557500  0.025000  1.0  -0.1483
  C  C545  1  0.210900  0.060500  0.953600  1.0  0.156
  C  C546  1  0.179000  0.077300  0.918900  1.0  -0.1565
  C  C547  1  0.150500  0.010900  0.899500  1.0  -0.1082
  C  C548  1  0.155800  0.930500  0.916300  1.0  -0.0975
  C  C549  1  0.189400  0.916700  0.952100  1.0  0.1905
  C  C550  1  0.194600  0.827900  0.970500  1.0  -0.2834
  C  C551  1  0.163000  0.817700  0.996500  1.0  -0.0081
  C  C552  1  0.181500  0.691500  0.041000  1.0  0.5417
  C  C553  1  0.171300  0.598800  0.046500  1.0  -0.1129
  C  C554  1  0.203700  0.553000  0.075000  1.0  -0.1176
  C  C555  1  0.367800  0.407900  0.304100  1.0  0.1447
  C  C556  1  0.411700  0.381400  0.306300  1.0  -0.1573
  C  C557  1  0.427000  0.391600  0.272900  1.0  -0.1377
  C  C558  1  0.398300  0.429900  0.240500  1.0  -0.091
  C  C559  1  0.354200  0.457000  0.240500  1.0  0.2477
  C  C560  1  0.321200  0.496500  0.204200  1.0  -0.3112
  C  C561  1  0.290600  0.426700  0.179200  1.0  0.0238
  C  C562  1  0.230200  0.418600  0.115700  1.0  0.5386
  C  C563  1  0.196400  0.467700  0.083000  1.0  -0.0746
  C  C564  1  0.156300  0.426800  0.060400  1.0  -0.0694
  C  C565  1  0.298700  0.852900  0.099100  1.0  0.1484
  C  C566  1  0.322400  0.823600  0.136300  1.0  -0.1675
  C  C567  1  0.362400  0.865400  0.156900  1.0  -0.1323
  C  C568  1  0.378400  0.932200  0.139300  1.0  -0.1118
  C  C569  1  0.354100  0.956800  0.100900  1.0  0.2368
  C  C570  1  0.370100  0.029800  0.080200  1.0  -0.297
  C  C571  1  0.347600  0.112900  0.087300  1.0  0.0212
  C  C572  1  0.330700  0.193100  0.026100  1.0  0.5363
  C  C573  1  0.339800  0.272400  0.004900  1.0  -0.1386
  C  C574  1  0.376200  0.327400  0.021300  1.0  -0.1074
  C  C575  1  0.171400  0.465600  0.726300  1.0  0.1191
  C  C576  1  0.130000  0.421900  0.713100  1.0  -0.1082
  C  C577  1  0.123500  0.350400  0.732900  1.0  -0.0909
  C  C578  1  0.158700  0.323100  0.766200  1.0  -0.1273
  C  C579  1  0.199000  0.369800  0.778400  1.0  0.2122
  C  C580  1  0.236500  0.345800  0.814900  1.0  -0.2793
  C  C581  1  0.219200  0.358200  0.850800  1.0  -0.0037
  C  C582  1  0.277500  0.400700  0.912600  1.0  0.5508
  C  C583  1  0.311700  0.370700  0.950500  1.0  -0.0665
  C  C584  1  0.307900  0.293300  0.969200  1.0  -0.1274
  C  C585  1  0.595600  0.715600  0.086600  1.0  0.1587
  C  C586  1  0.627800  0.688400  0.119600  1.0  -0.1035
  C  C587  1  0.627500  0.606000  0.132200  1.0  -0.119
  C  C588  1  0.593600  0.551600  0.110500  1.0  -0.105
  C  C589  1  0.560900  0.581200  0.076900  1.0  0.219
  C  C590  1  0.521900  0.524000  0.054200  1.0  -0.2313
  C  C591  1  0.484700  0.513100  0.074800  1.0  0.0053
  C  C592  1  0.418300  0.469700  0.021800  1.0  0.5513
  C  C593  1  0.380400  0.404700  0.003500  1.0  -0.1171
  C  C594  1  0.347400  0.426600  0.968200  1.0  -0.022
  C  C595  1  0.420700  0.692000  0.945600  1.0  0.1606
  C  C596  1  0.384400  0.700000  0.911400  1.0  -0.1155
  C  C597  1  0.388700  0.757500  0.883800  1.0  -0.1058
  C  C598  1  0.430000  0.804200  0.890500  1.0  -0.089
  C  C599  1  0.465100  0.792800  0.924600  1.0  0.2197
  C  C600  1  0.509200  0.844900  0.934600  1.0  -0.2931
  C  C601  1  0.504700  0.919800  0.961300  1.0  -0.0104
  C  C602  1  0.580300  0.922400  0.009600  1.0  0.5257
  C  C603  1  0.623500  0.971200  0.031600  1.0  -0.132
  C  C604  1  0.630600  0.057500  0.025000  1.0  -0.1483
  C  C605  1  0.710900  0.560500  0.953600  1.0  0.156
  C  C606  1  0.679000  0.577300  0.918900  1.0  -0.1565
  C  C607  1  0.650500  0.510900  0.899500  1.0  -0.1082
  C  C608  1  0.655800  0.430500  0.916300  1.0  -0.0975
  C  C609  1  0.689400  0.416700  0.952100  1.0  0.1905
  C  C610  1  0.694600  0.327900  0.970500  1.0  -0.2834
  C  C611  1  0.663000  0.317700  0.996500  1.0  -0.0081
  C  C612  1  0.681500  0.191500  0.041000  1.0  0.5417
  C  C613  1  0.671300  0.098800  0.046500  1.0  -0.1129
  C  C614  1  0.703700  0.053000  0.075000  1.0  -0.1176
  C  C615  1  0.867800  0.907900  0.304100  1.0  0.1447
  C  C616  1  0.911700  0.881400  0.306300  1.0  -0.1573
  C  C617  1  0.927000  0.891600  0.272900  1.0  -0.1377
  C  C618  1  0.898300  0.929900  0.240500  1.0  -0.091
  C  C619  1  0.854200  0.957000  0.240500  1.0  0.2477
  C  C620  1  0.821200  0.996500  0.204200  1.0  -0.3112
  C  C621  1  0.790600  0.926700  0.179200  1.0  0.0238
  C  C622  1  0.730200  0.918600  0.115700  1.0  0.5386
  C  C623  1  0.696400  0.967700  0.083000  1.0  -0.0746
  C  C624  1  0.656300  0.926800  0.060400  1.0  -0.0694
  C  C625  1  0.798700  0.647100  0.599100  1.0  0.1483
  C  C626  1  0.822400  0.676400  0.636300  1.0  -0.1671
  C  C627  1  0.862400  0.634600  0.656900  1.0  -0.1327
  C  C628  1  0.878400  0.567800  0.639300  1.0  -0.1135
  C  C629  1  0.854100  0.543200  0.600900  1.0  0.2364
  C  C630  1  0.870100  0.470200  0.580200  1.0  -0.2964
  C  C631  1  0.847600  0.387100  0.587300  1.0  0.0218
  C  C632  1  0.830700  0.306900  0.526100  1.0  0.5358
  C  C633  1  0.839800  0.227600  0.504900  1.0  -0.1382
  C  C634  1  0.876200  0.172600  0.521300  1.0  -0.1078
  C  C635  1  0.671400  0.034400  0.226300  1.0  0.1175
  C  C636  1  0.630000  0.078100  0.213100  1.0  -0.1095
  C  C637  1  0.623500  0.149600  0.232900  1.0  -0.0909
  C  C638  1  0.658700  0.176900  0.266200  1.0  -0.1279
  C  C639  1  0.699000  0.130200  0.278400  1.0  0.2127
  C  C640  1  0.736500  0.154200  0.314900  1.0  -0.2789
  C  C641  1  0.719200  0.141800  0.350800  1.0  -0.0032
  C  C642  1  0.777500  0.099300  0.412600  1.0  0.5509
  C  C643  1  0.811700  0.129300  0.450500  1.0  -0.0669
  C  C644  1  0.807900  0.206700  0.469200  1.0  -0.1274
  C  C645  1  0.095600  0.784400  0.586600  1.0  0.159
  C  C646  1  0.127800  0.811600  0.619600  1.0  -0.1063
  C  C647  1  0.127500  0.894000  0.632200  1.0  -0.1192
  C  C648  1  0.093600  0.948400  0.610500  1.0  -0.1046
  C  C649  1  0.060900  0.918800  0.576900  1.0  0.2194
  C  C650  1  0.021900  0.976000  0.554200  1.0  -0.2312
  C  C651  1  0.984700  0.986900  0.574800  1.0  0.0058
  C  C652  1  0.918300  0.030300  0.521800  1.0  0.5514
  C  C653  1  0.880400  0.095300  0.503500  1.0  -0.1177
  C  C654  1  0.847400  0.073400  0.468200  1.0  -0.0219
  C  C655  1  0.920700  0.808000  0.445600  1.0  0.1613
  C  C656  1  0.884400  0.800000  0.411400  1.0  -0.1159
  C  C657  1  0.888700  0.742500  0.383800  1.0  -0.106
  C  C658  1  0.930000  0.695800  0.390500  1.0  -0.0899
  C  C659  1  0.965100  0.707200  0.424600  1.0  0.22
  C  C660  1  0.009200  0.655100  0.434600  1.0  -0.2934
  C  C661  1  0.004700  0.580200  0.461300  1.0  -0.0107
  C  C662  1  0.080300  0.577600  0.509600  1.0  0.5249
  C  C663  1  0.123500  0.528800  0.531600  1.0  -0.1322
  C  C664  1  0.130600  0.442500  0.525000  1.0  -0.1476
  C  C665  1  0.210900  0.939500  0.453600  1.0  0.1565
  C  C666  1  0.179000  0.922700  0.418900  1.0  -0.1576
  C  C667  1  0.150500  0.989100  0.399500  1.0  -0.1084
  C  C668  1  0.155800  0.069500  0.416300  1.0  -0.0989
  C  C669  1  0.189400  0.083300  0.452100  1.0  0.19
  C  C670  1  0.194600  0.172100  0.470500  1.0  -0.2829
  C  C671  1  0.163000  0.182300  0.496500  1.0  -0.0083
  C  C672  1  0.181500  0.308500  0.541000  1.0  0.5416
  C  C673  1  0.171300  0.401200  0.546500  1.0  -0.113
  C  C674  1  0.203700  0.447000  0.575000  1.0  -0.1173
  C  C675  1  0.367800  0.592100  0.804100  1.0  0.145
  C  C676  1  0.411700  0.618600  0.806300  1.0  -0.1575
  C  C677  1  0.427000  0.608400  0.772900  1.0  -0.1374
  C  C678  1  0.398300  0.570100  0.740500  1.0  -0.0922
  C  C679  1  0.354200  0.543000  0.740500  1.0  0.2472
  C  C680  1  0.321200  0.503500  0.704200  1.0  -0.3097
  C  C681  1  0.290600  0.573300  0.679200  1.0  0.0252
  C  C682  1  0.230200  0.581400  0.615700  1.0  0.5382
  C  C683  1  0.196400  0.532300  0.583000  1.0  -0.0753
  C  C684  1  0.156300  0.573200  0.560400  1.0  -0.0712
  C  C685  1  0.298700  0.147100  0.599100  1.0  0.1483
  C  C686  1  0.322400  0.176400  0.636300  1.0  -0.1671
  C  C687  1  0.362400  0.134600  0.656900  1.0  -0.1327
  C  C688  1  0.378400  0.067800  0.639300  1.0  -0.1135
  C  C689  1  0.354100  0.043200  0.600900  1.0  0.2364
  C  C690  1  0.370100  0.970200  0.580200  1.0  -0.2964
  C  C691  1  0.347600  0.887100  0.587300  1.0  0.0218
  C  C692  1  0.330700  0.806900  0.526100  1.0  0.5358
  C  C693  1  0.339800  0.727600  0.504900  1.0  -0.1382
  C  C694  1  0.376200  0.672600  0.521300  1.0  -0.1078
  C  C695  1  0.171400  0.534400  0.226300  1.0  0.1175
  C  C696  1  0.130000  0.578100  0.213100  1.0  -0.1095
  C  C697  1  0.123500  0.649600  0.232900  1.0  -0.0909
  C  C698  1  0.158700  0.676900  0.266200  1.0  -0.1279
  C  C699  1  0.199000  0.630200  0.278400  1.0  0.2127
  C  C700  1  0.236500  0.654200  0.314900  1.0  -0.2789
  C  C701  1  0.219200  0.641800  0.350800  1.0  -0.0032
  C  C702  1  0.277500  0.599300  0.412600  1.0  0.5509
  C  C703  1  0.311700  0.629300  0.450500  1.0  -0.0669
  C  C704  1  0.307900  0.706700  0.469200  1.0  -0.1274
  C  C705  1  0.595600  0.284400  0.586600  1.0  0.159
  C  C706  1  0.627800  0.311600  0.619600  1.0  -0.1063
  C  C707  1  0.627500  0.394000  0.632200  1.0  -0.1192
  C  C708  1  0.593600  0.448400  0.610500  1.0  -0.1046
  C  C709  1  0.560900  0.418800  0.576900  1.0  0.2194
  C  C710  1  0.521900  0.476000  0.554200  1.0  -0.2312
  C  C711  1  0.484700  0.486900  0.574800  1.0  0.0058
  C  C712  1  0.418300  0.530300  0.521800  1.0  0.5514
  C  C713  1  0.380400  0.595300  0.503500  1.0  -0.1177
  C  C714  1  0.347400  0.573400  0.468200  1.0  -0.0219
  C  C715  1  0.420700  0.308000  0.445600  1.0  0.1613
  C  C716  1  0.384400  0.300000  0.411400  1.0  -0.1159
  C  C717  1  0.388700  0.242500  0.383800  1.0  -0.106
  C  C718  1  0.430000  0.195800  0.390500  1.0  -0.0899
  C  C719  1  0.465100  0.207200  0.424600  1.0  0.22
  C  C720  1  0.509200  0.155100  0.434600  1.0  -0.2934
  C  C721  1  0.504700  0.080200  0.461300  1.0  -0.0107
  C  C722  1  0.580300  0.077600  0.509600  1.0  0.5249
  C  C723  1  0.623500  0.028800  0.531600  1.0  -0.1322
  C  C724  1  0.630600  0.942500  0.525000  1.0  -0.1476
  C  C725  1  0.710900  0.439500  0.453600  1.0  0.1565
  C  C726  1  0.679000  0.422700  0.418900  1.0  -0.1576
  C  C727  1  0.650500  0.489100  0.399500  1.0  -0.1084
  C  C728  1  0.655800  0.569500  0.416300  1.0  -0.0989
  C  C729  1  0.689400  0.583300  0.452100  1.0  0.19
  C  C730  1  0.694600  0.672100  0.470500  1.0  -0.2829
  C  C731  1  0.663000  0.682300  0.496500  1.0  -0.0083
  C  C732  1  0.681500  0.808500  0.541000  1.0  0.5416
  C  C733  1  0.671300  0.901200  0.546500  1.0  -0.113
  C  C734  1  0.703700  0.947000  0.575000  1.0  -0.1173
  C  C735  1  0.867800  0.092100  0.804100  1.0  0.145
  C  C736  1  0.911700  0.118600  0.806300  1.0  -0.1575
  C  C737  1  0.927000  0.108400  0.772900  1.0  -0.1374
  C  C738  1  0.898300  0.070100  0.740500  1.0  -0.0922
  C  C739  1  0.854200  0.043000  0.740500  1.0  0.2472
  C  C740  1  0.821200  0.003500  0.704200  1.0  -0.3097
  C  C741  1  0.790600  0.073300  0.679200  1.0  0.0252
  C  C742  1  0.730200  0.081400  0.615700  1.0  0.5382
  C  C743  1  0.696400  0.032300  0.583000  1.0  -0.0753
  C  C744  1  0.656300  0.073200  0.560400  1.0  -0.0712
  C  C745  1  0.201300  0.352900  0.400900  1.0  0.1501
  C  C746  1  0.177600  0.323600  0.363700  1.0  -0.167
  C  C747  1  0.137600  0.365400  0.343100  1.0  -0.1305
  C  C748  1  0.121600  0.432200  0.360700  1.0  -0.112
  C  C749  1  0.145900  0.456800  0.399100  1.0  0.2363
  C  C750  1  0.129900  0.529800  0.419800  1.0  -0.2991
  C  C751  1  0.152400  0.612900  0.412700  1.0  0.0219
  C  C752  1  0.169300  0.693100  0.473900  1.0  0.537
  C  C753  1  0.160200  0.772400  0.495100  1.0  -0.1387
  C  C754  1  0.123800  0.827400  0.478700  1.0  -0.1076
  C  C755  1  0.328600  0.965600  0.773700  1.0  0.1182
  C  C756  1  0.370000  0.921900  0.786900  1.0  -0.1077
  C  C757  1  0.376500  0.850400  0.767100  1.0  -0.0896
  C  C758  1  0.341300  0.823100  0.733800  1.0  -0.1269
  C  C759  1  0.301000  0.869800  0.721600  1.0  0.2114
  C  C760  1  0.263500  0.845800  0.685100  1.0  -0.2812
  C  C761  1  0.280800  0.858200  0.649200  1.0  -0.0015
  C  C762  1  0.222500  0.900700  0.587400  1.0  0.5502
  C  C763  1  0.188300  0.870700  0.549500  1.0  -0.0673
  C  C764  1  0.192100  0.793300  0.530800  1.0  -0.1262
  C  C765  1  0.904400  0.215600  0.413400  1.0  0.1606
  C  C766  1  0.872200  0.188400  0.380400  1.0  -0.1059
  C  C767  1  0.872500  0.106000  0.367800  1.0  -0.1192
  C  C768  1  0.906400  0.051600  0.389500  1.0  -0.1044
  C  C769  1  0.939100  0.081200  0.423100  1.0  0.2201
  C  C770  1  0.978100  0.024000  0.445800  1.0  -0.2322
  C  C771  1  0.015300  0.013100  0.425200  1.0  0.0078
  C  C772  1  0.081700  0.969700  0.478200  1.0  0.5531
  C  C773  1  0.119600  0.904700  0.496500  1.0  -0.117
  C  C774  1  0.152600  0.926600  0.531800  1.0  -0.0224
  C  C775  1  0.079300  0.192000  0.554400  1.0  0.1606
  C  C776  1  0.115600  0.200000  0.588600  1.0  -0.117
  C  C777  1  0.111300  0.257500  0.616200  1.0  -0.1057
  C  C778  1  0.070000  0.304200  0.609500  1.0  -0.0903
  C  C779  1  0.034900  0.292800  0.575400  1.0  0.2214
  C  C780  1  0.990800  0.344900  0.565400  1.0  -0.293
  C  C781  1  0.995300  0.419800  0.538700  1.0  -0.0089
  C  C782  1  0.919700  0.422400  0.490400  1.0  0.5256
  C  C783  1  0.876500  0.471200  0.468400  1.0  -0.1343
  C  C784  1  0.869400  0.557500  0.475000  1.0  -0.147
  C  C785  1  0.789100  0.060500  0.546400  1.0  0.1561
  C  C786  1  0.821000  0.077300  0.581100  1.0  -0.1559
  C  C787  1  0.849500  0.010900  0.600500  1.0  -0.1089
  C  C788  1  0.844200  0.930500  0.583700  1.0  -0.1002
  C  C789  1  0.810600  0.916700  0.547900  1.0  0.1906
  C  C790  1  0.805400  0.827900  0.529500  1.0  -0.2835
  C  C791  1  0.837000  0.817700  0.503500  1.0  -0.008
  C  C792  1  0.818500  0.691500  0.459000  1.0  0.5412
  C  C793  1  0.828700  0.598800  0.453500  1.0  -0.1134
  C  C794  1  0.796300  0.553000  0.425000  1.0  -0.1201
  C  C795  1  0.632200  0.407900  0.195900  1.0  0.1454
  C  C796  1  0.588300  0.381400  0.193700  1.0  -0.1582
  C  C797  1  0.573000  0.391600  0.227100  1.0  -0.1383
  C  C798  1  0.601700  0.429900  0.259500  1.0  -0.0908
  C  C799  1  0.645800  0.457000  0.259500  1.0  0.2482
  C  C800  1  0.678800  0.496500  0.295800  1.0  -0.3104
  C  C801  1  0.709400  0.426700  0.320800  1.0  0.0228
  C  C802  1  0.769800  0.418600  0.384300  1.0  0.539
  C  C803  1  0.803600  0.467700  0.417000  1.0  -0.0763
  C  C804  1  0.843700  0.426800  0.439600  1.0  -0.0703
  C  C805  1  0.701300  0.852900  0.400900  1.0  0.1501
  C  C806  1  0.677600  0.823600  0.363700  1.0  -0.167
  C  C807  1  0.637600  0.865400  0.343100  1.0  -0.1305
  C  C808  1  0.621600  0.932200  0.360700  1.0  -0.112
  C  C809  1  0.645900  0.956800  0.399100  1.0  0.2363
  C  C810  1  0.629900  0.029800  0.419800  1.0  -0.2991
  C  C811  1  0.652400  0.112900  0.412700  1.0  0.0219
  C  C812  1  0.669300  0.193100  0.473900  1.0  0.537
  C  C813  1  0.660200  0.272400  0.495100  1.0  -0.1387
  C  C814  1  0.623800  0.327400  0.478700  1.0  -0.1076
  C  C815  1  0.828600  0.465600  0.773700  1.0  0.1182
  C  C816  1  0.870000  0.421900  0.786900  1.0  -0.1077
  C  C817  1  0.876500  0.350400  0.767100  1.0  -0.0896
  C  C818  1  0.841300  0.323100  0.733800  1.0  -0.1269
  C  C819  1  0.801000  0.369800  0.721600  1.0  0.2114
  C  C820  1  0.763500  0.345800  0.685100  1.0  -0.2812
  C  C821  1  0.780800  0.358200  0.649200  1.0  -0.0015
  C  C822  1  0.722500  0.400700  0.587400  1.0  0.5502
  C  C823  1  0.688300  0.370700  0.549500  1.0  -0.0673
  C  C824  1  0.692100  0.293300  0.530800  1.0  -0.1262
  C  C825  1  0.404400  0.715600  0.413400  1.0  0.1606
  C  C826  1  0.372200  0.688400  0.380400  1.0  -0.1059
  C  C827  1  0.372500  0.606000  0.367800  1.0  -0.1192
  C  C828  1  0.406400  0.551600  0.389500  1.0  -0.1044
  C  C829  1  0.439100  0.581200  0.423100  1.0  0.2201
  C  C830  1  0.478100  0.524000  0.445800  1.0  -0.2322
  C  C831  1  0.515300  0.513100  0.425200  1.0  0.0078
  C  C832  1  0.581700  0.469700  0.478200  1.0  0.5531
  C  C833  1  0.619600  0.404700  0.496500  1.0  -0.117
  C  C834  1  0.652600  0.426600  0.531800  1.0  -0.0224
  C  C835  1  0.579300  0.692000  0.554400  1.0  0.1606
  C  C836  1  0.615600  0.700000  0.588600  1.0  -0.117
  C  C837  1  0.611300  0.757500  0.616200  1.0  -0.1057
  C  C838  1  0.570000  0.804200  0.609500  1.0  -0.0903
  C  C839  1  0.534900  0.792800  0.575400  1.0  0.2214
  C  C840  1  0.490800  0.844900  0.565400  1.0  -0.293
  C  C841  1  0.495300  0.919800  0.538700  1.0  -0.0089
  C  C842  1  0.419700  0.922400  0.490400  1.0  0.5256
  C  C843  1  0.376500  0.971200  0.468400  1.0  -0.1343
  C  C844  1  0.369400  0.057500  0.475000  1.0  -0.147
  C  C845  1  0.289100  0.560500  0.546400  1.0  0.1561
  C  C846  1  0.321000  0.577300  0.581100  1.0  -0.1559
  C  C847  1  0.349500  0.510900  0.600500  1.0  -0.1089
  C  C848  1  0.344200  0.430500  0.583700  1.0  -0.1002
  C  C849  1  0.310600  0.416700  0.547900  1.0  0.1906
  C  C850  1  0.305400  0.327900  0.529500  1.0  -0.2835
  C  C851  1  0.337000  0.317700  0.503500  1.0  -0.008
  C  C852  1  0.318500  0.191500  0.459000  1.0  0.5412
  C  C853  1  0.328700  0.098800  0.453500  1.0  -0.1134
  C  C854  1  0.296300  0.053000  0.425000  1.0  -0.1201
  C  C855  1  0.132200  0.907900  0.195900  1.0  0.1454
  C  C856  1  0.088300  0.881400  0.193700  1.0  -0.1582
  C  C857  1  0.073000  0.891600  0.227100  1.0  -0.1383
  C  C858  1  0.101700  0.929900  0.259500  1.0  -0.0908
  C  C859  1  0.145800  0.957000  0.259500  1.0  0.2482
  C  C860  1  0.178800  0.996500  0.295800  1.0  -0.3104
  C  C861  1  0.209400  0.926700  0.320800  1.0  0.0228
  C  C862  1  0.269800  0.918600  0.384300  1.0  0.539
  C  C863  1  0.303600  0.967700  0.417000  1.0  -0.0763
  C  C864  1  0.343700  0.926800  0.439600  1.0  -0.0703
  C  C865  1  0.201300  0.647100  0.900900  1.0  0.1496
  C  C866  1  0.177600  0.676400  0.863700  1.0  -0.1655
  C  C867  1  0.137600  0.634600  0.843100  1.0  -0.1321
  C  C868  1  0.121600  0.567800  0.860700  1.0  -0.1115
  C  C869  1  0.145900  0.543200  0.899100  1.0  0.2364
  C  C870  1  0.129900  0.470200  0.919800  1.0  -0.2994
  C  C871  1  0.152400  0.387100  0.912700  1.0  0.022
  C  C872  1  0.169300  0.306900  0.973900  1.0  0.5368
  C  C873  1  0.160200  0.227600  0.995100  1.0  -0.1383
  C  C874  1  0.123800  0.172600  0.978700  1.0  -0.1081
  C  C875  1  0.328600  0.034400  0.273700  1.0  0.1175
  C  C876  1  0.370000  0.078100  0.286900  1.0  -0.1079
  C  C877  1  0.376500  0.149600  0.267100  1.0  -0.0894
  C  C878  1  0.341300  0.176900  0.233800  1.0  -0.127
  C  C879  1  0.301000  0.130200  0.221600  1.0  0.2123
  C  C880  1  0.263500  0.154200  0.185100  1.0  -0.2807
  C  C881  1  0.280800  0.141800  0.149200  1.0  -0.001
  C  C882  1  0.222500  0.099300  0.087400  1.0  0.5498
  C  C883  1  0.188300  0.129300  0.049500  1.0  -0.0675
  C  C884  1  0.192100  0.206700  0.030800  1.0  -0.126
  C  C885  1  0.904400  0.784400  0.913400  1.0  0.1603
  C  C886  1  0.872200  0.811600  0.880400  1.0  -0.1068
  C  C887  1  0.872500  0.894000  0.867800  1.0  -0.1192
  C  C888  1  0.906400  0.948400  0.889500  1.0  -0.1035
  C  C889  1  0.939100  0.918800  0.923100  1.0  0.2198
  C  C890  1  0.978100  0.976000  0.945800  1.0  -0.2323
  C  C891  1  0.015300  0.986900  0.925200  1.0  0.0075
  C  C892  1  0.081700  0.030300  0.978200  1.0  0.5534
  C  C893  1  0.119600  0.095300  0.996500  1.0  -0.1175
  C  C894  1  0.152600  0.073400  0.031800  1.0  -0.0221
  C  C895  1  0.079300  0.808000  0.054400  1.0  0.161
  C  C896  1  0.115600  0.800000  0.088600  1.0  -0.1172
  C  C897  1  0.111300  0.742500  0.116200  1.0  -0.1053
  C  C898  1  0.070000  0.695800  0.109500  1.0  -0.0909
  C  C899  1  0.034900  0.707200  0.075400  1.0  0.2214
  C  C900  1  0.990800  0.655100  0.065400  1.0  -0.2933
  C  C901  1  0.995300  0.580200  0.038700  1.0  -0.0095
  C  C902  1  0.919700  0.577600  0.990400  1.0  0.5251
  C  C903  1  0.876500  0.528800  0.968400  1.0  -0.134
  C  C904  1  0.869400  0.442500  0.975000  1.0  -0.1462
  C  C905  1  0.789100  0.939500  0.046400  1.0  0.1562
  C  C906  1  0.821000  0.922700  0.081100  1.0  -0.157
  C  C907  1  0.849500  0.989100  0.100500  1.0  -0.109
  C  C908  1  0.844200  0.069500  0.083700  1.0  -0.0993
  C  C909  1  0.810600  0.083300  0.047900  1.0  0.1903
  C  C910  1  0.805400  0.172100  0.029500  1.0  -0.2832
  C  C911  1  0.837000  0.182300  0.003500  1.0  -0.0082
  C  C912  1  0.818500  0.308500  0.959000  1.0  0.5411
  C  C913  1  0.828700  0.401200  0.953500  1.0  -0.1137
  C  C914  1  0.796300  0.447000  0.925000  1.0  -0.1193
  C  C915  1  0.632200  0.592100  0.695900  1.0  0.1456
  C  C916  1  0.588300  0.618600  0.693700  1.0  -0.1583
  C  C917  1  0.573000  0.608400  0.727100  1.0  -0.1389
  C  C918  1  0.601700  0.570100  0.759500  1.0  -0.0911
  C  C919  1  0.645800  0.543000  0.759500  1.0  0.247
  C  C920  1  0.678800  0.503500  0.795800  1.0  -0.3103
  C  C921  1  0.709400  0.573300  0.820800  1.0  0.0233
  C  C922  1  0.769800  0.581400  0.884300  1.0  0.5384
  C  C923  1  0.803600  0.532300  0.917000  1.0  -0.0761
  C  C924  1  0.843700  0.573200  0.939600  1.0  -0.0715
  C  C925  1  0.701300  0.147100  0.900900  1.0  0.1496
  C  C926  1  0.677600  0.176400  0.863700  1.0  -0.1655
  C  C927  1  0.637600  0.134600  0.843100  1.0  -0.1321
  C  C928  1  0.621600  0.067800  0.860700  1.0  -0.1115
  C  C929  1  0.645900  0.043200  0.899100  1.0  0.2364
  C  C930  1  0.629900  0.970200  0.919800  1.0  -0.2994
  C  C931  1  0.652400  0.887100  0.912700  1.0  0.022
  C  C932  1  0.669300  0.806900  0.973900  1.0  0.5368
  C  C933  1  0.660200  0.727600  0.995100  1.0  -0.1383
  C  C934  1  0.623800  0.672600  0.978700  1.0  -0.1081
  C  C935  1  0.828600  0.534400  0.273700  1.0  0.1175
  C  C936  1  0.870000  0.578100  0.286900  1.0  -0.1079
  C  C937  1  0.876500  0.649600  0.267100  1.0  -0.0894
  C  C938  1  0.841300  0.676900  0.233800  1.0  -0.127
  C  C939  1  0.801000  0.630200  0.221600  1.0  0.2123
  C  C940  1  0.763500  0.654200  0.185100  1.0  -0.2807
  C  C941  1  0.780800  0.641800  0.149200  1.0  -0.001
  C  C942  1  0.722500  0.599300  0.087400  1.0  0.5498
  C  C943  1  0.688300  0.629300  0.049500  1.0  -0.0675
  C  C944  1  0.692100  0.706700  0.030800  1.0  -0.126
  C  C945  1  0.404400  0.284400  0.913400  1.0  0.1603
  C  C946  1  0.372200  0.311600  0.880400  1.0  -0.1068
  C  C947  1  0.372500  0.394000  0.867800  1.0  -0.1192
  C  C948  1  0.406400  0.448400  0.889500  1.0  -0.1035
  C  C949  1  0.439100  0.418800  0.923100  1.0  0.2198
  C  C950  1  0.478100  0.476000  0.945800  1.0  -0.2323
  C  C951  1  0.515300  0.486900  0.925200  1.0  0.0075
  C  C952  1  0.581700  0.530300  0.978200  1.0  0.5534
  C  C953  1  0.619600  0.595300  0.996500  1.0  -0.1175
  C  C954  1  0.652600  0.573400  0.031800  1.0  -0.0221
  C  C955  1  0.579300  0.308000  0.054400  1.0  0.161
  C  C956  1  0.615600  0.300000  0.088600  1.0  -0.1172
  C  C957  1  0.611300  0.242500  0.116200  1.0  -0.1053
  C  C958  1  0.570000  0.195800  0.109500  1.0  -0.0909
  C  C959  1  0.534900  0.207200  0.075400  1.0  0.2214
  C  C960  1  0.490800  0.155100  0.065400  1.0  -0.2933
  C  C961  1  0.495300  0.080200  0.038700  1.0  -0.0095
  C  C962  1  0.419700  0.077600  0.990400  1.0  0.5251
  C  C963  1  0.376500  0.028800  0.968400  1.0  -0.134
  C  C964  1  0.369400  0.942500  0.975000  1.0  -0.1462
  C  C965  1  0.289100  0.439500  0.046400  1.0  0.1562
  C  C966  1  0.321000  0.422700  0.081100  1.0  -0.157
  C  C967  1  0.349500  0.489100  0.100500  1.0  -0.109
  C  C968  1  0.344200  0.569500  0.083700  1.0  -0.0993
  C  C969  1  0.310600  0.583300  0.047900  1.0  0.1903
  C  C970  1  0.305400  0.672100  0.029500  1.0  -0.2832
  C  C971  1  0.337000  0.682300  0.003500  1.0  -0.0082
  C  C972  1  0.318500  0.808500  0.959000  1.0  0.5411
  C  C973  1  0.328700  0.901200  0.953500  1.0  -0.1137
  C  C974  1  0.296300  0.947000  0.925000  1.0  -0.1193
  C  C975  1  0.132200  0.092100  0.695900  1.0  0.1456
  C  C976  1  0.088300  0.118600  0.693700  1.0  -0.1583
  C  C977  1  0.073000  0.108400  0.727100  1.0  -0.1389
  C  C978  1  0.101700  0.070100  0.759500  1.0  -0.0911
  C  C979  1  0.145800  0.043000  0.759500  1.0  0.247
  C  C980  1  0.178800  0.003500  0.795800  1.0  -0.3103
  C  C981  1  0.209400  0.073300  0.820800  1.0  0.0233
  C  C982  1  0.269800  0.081400  0.884300  1.0  0.5384
  C  C983  1  0.303600  0.032300  0.917000  1.0  -0.0761
  C  C984  1  0.343700  0.073200  0.939600  1.0  -0.0715
  N  N985  1  0.814100  0.418400  0.081350  1.0  -0.352
  N  N986  1  0.855900  0.684000  0.063520  1.0  -0.3982
  N  N987  1  0.705500  0.940400  0.758600  1.0  -0.3958
  N  N988  1  0.754900  0.839900  0.887700  1.0  -0.4357
  N  N989  1  0.062100  0.162600  0.064660  1.0  -0.3063
  N  N990  1  0.949400  0.949900  0.055550  1.0  -0.4129
  N  N991  1  0.960800  0.235800  0.952350  1.0  -0.3764
  N  N992  1  0.048500  0.461900  0.980070  1.0  -0.4103
  N  N993  1  0.216700  0.981500  0.971080  1.0  -0.4092
  N  N994  1  0.159200  0.726800  0.006400  1.0  -0.4236
  N  N995  1  0.339100  0.445200  0.271850  1.0  -0.3439
  N  N996  1  0.255700  0.465600  0.146100  1.0  -0.3772
  N  N997  1  0.314100  0.918400  0.081350  1.0  -0.352
  N  N998  1  0.355900  0.184000  0.063520  1.0  -0.3982
  N  N999  1  0.205500  0.440400  0.758600  1.0  -0.3958
  N  N1000  1  0.254900  0.339900  0.887700  1.0  -0.4357
  N  N1001  1  0.562100  0.662600  0.064660  1.0  -0.3063
  N  N1002  1  0.449400  0.449900  0.055550  1.0  -0.4129
  N  N1003  1  0.460800  0.735800  0.952350  1.0  -0.3764
  N  N1004  1  0.548500  0.961900  0.980070  1.0  -0.4103
  N  N1005  1  0.716700  0.481500  0.971080  1.0  -0.4092
  N  N1006  1  0.659200  0.226800  0.006400  1.0  -0.4236
  N  N1007  1  0.839100  0.945200  0.271850  1.0  -0.3439
  N  N1008  1  0.755700  0.965600  0.146100  1.0  -0.3772
  N  N1009  1  0.814100  0.581600  0.581350  1.0  -0.3521
  N  N1010  1  0.855900  0.316000  0.563520  1.0  -0.3988
  N  N1011  1  0.705500  0.059600  0.258600  1.0  -0.395
  N  N1012  1  0.754900  0.160100  0.387700  1.0  -0.4353
  N  N1013  1  0.062100  0.837400  0.564660  1.0  -0.3056
  N  N1014  1  0.949400  0.050100  0.555550  1.0  -0.4142
  N  N1015  1  0.960800  0.764200  0.452350  1.0  -0.3766
  N  N1016  1  0.048500  0.538100  0.480070  1.0  -0.4102
  N  N1017  1  0.216700  0.018500  0.471080  1.0  -0.4094
  N  N1018  1  0.159200  0.273200  0.506400  1.0  -0.4234
  N  N1019  1  0.339100  0.554800  0.771850  1.0  -0.3442
  N  N1020  1  0.255700  0.534400  0.646100  1.0  -0.3789
  N  N1021  1  0.314100  0.081600  0.581350  1.0  -0.3521
  N  N1022  1  0.355900  0.816000  0.563520  1.0  -0.3988
  N  N1023  1  0.205500  0.559600  0.258600  1.0  -0.395
  N  N1024  1  0.254900  0.660100  0.387700  1.0  -0.4353
  N  N1025  1  0.562100  0.337400  0.564660  1.0  -0.3056
  N  N1026  1  0.449400  0.550100  0.555550  1.0  -0.4142
  N  N1027  1  0.460800  0.264200  0.452350  1.0  -0.3766
  N  N1028  1  0.548500  0.038100  0.480070  1.0  -0.4102
  N  N1029  1  0.716700  0.518500  0.471080  1.0  -0.4094
  N  N1030  1  0.659200  0.773200  0.506400  1.0  -0.4234
  N  N1031  1  0.839100  0.054800  0.771850  1.0  -0.3442
  N  N1032  1  0.755700  0.034400  0.646100  1.0  -0.3789
  N  N1033  1  0.185900  0.418400  0.418650  1.0  -0.3501
  N  N1034  1  0.144100  0.684000  0.436480  1.0  -0.3986
  N  N1035  1  0.294500  0.940400  0.741400  1.0  -0.3924
  N  N1036  1  0.245100  0.839900  0.612300  1.0  -0.4352
  N  N1037  1  0.937900  0.162600  0.435340  1.0  -0.307
  N  N1038  1  0.050600  0.949900  0.444450  1.0  -0.4122
  N  N1039  1  0.039200  0.235800  0.547650  1.0  -0.3782
  N  N1040  1  0.951500  0.461900  0.519930  1.0  -0.4107
  N  N1041  1  0.783300  0.981500  0.528920  1.0  -0.4117
  N  N1042  1  0.840800  0.726800  0.493600  1.0  -0.4239
  N  N1043  1  0.660900  0.445200  0.228150  1.0  -0.3433
  N  N1044  1  0.744300  0.465600  0.353900  1.0  -0.3778
  N  N1045  1  0.685900  0.918400  0.418650  1.0  -0.3501
  N  N1046  1  0.644100  0.184000  0.436480  1.0  -0.3986
  N  N1047  1  0.794500  0.440400  0.741400  1.0  -0.3924
  N  N1048  1  0.745100  0.339900  0.612300  1.0  -0.4352
  N  N1049  1  0.437900  0.662600  0.435340  1.0  -0.307
  N  N1050  1  0.550600  0.449900  0.444450  1.0  -0.4122
  N  N1051  1  0.539200  0.735800  0.547650  1.0  -0.3782
  N  N1052  1  0.451500  0.961900  0.519930  1.0  -0.4107
  N  N1053  1  0.283300  0.481500  0.528920  1.0  -0.4117
  N  N1054  1  0.340800  0.226800  0.493600  1.0  -0.4239
  N  N1055  1  0.160900  0.945200  0.228150  1.0  -0.3433
  N  N1056  1  0.244300  0.965600  0.353900  1.0  -0.3778
  N  N1057  1  0.185900  0.581600  0.918650  1.0  -0.3509
  N  N1058  1  0.144100  0.316000  0.936480  1.0  -0.3985
  N  N1059  1  0.294500  0.059600  0.241400  1.0  -0.3936
  N  N1060  1  0.245100  0.160100  0.112300  1.0  -0.4346
  N  N1061  1  0.937900  0.837400  0.935340  1.0  -0.3044
  N  N1062  1  0.050600  0.050100  0.944450  1.0  -0.4135
  N  N1063  1  0.039200  0.764200  0.047650  1.0  -0.3783
  N  N1064  1  0.951500  0.538100  0.019930  1.0  -0.4096
  N  N1065  1  0.783300  0.018500  0.028920  1.0  -0.4117
  N  N1066  1  0.840800  0.273200  0.993600  1.0  -0.4238
  N  N1067  1  0.660900  0.554800  0.728150  1.0  -0.343
  N  N1068  1  0.744300  0.534400  0.853900  1.0  -0.3787
  N  N1069  1  0.685900  0.081600  0.918650  1.0  -0.3509
  N  N1070  1  0.644100  0.816000  0.936480  1.0  -0.3985
  N  N1071  1  0.794500  0.559600  0.241400  1.0  -0.3936
  N  N1072  1  0.745100  0.660100  0.112300  1.0  -0.4346
  N  N1073  1  0.437900  0.337400  0.935340  1.0  -0.3044
  N  N1074  1  0.550600  0.550100  0.944450  1.0  -0.4135
  N  N1075  1  0.539200  0.264200  0.047650  1.0  -0.3783
  N  N1076  1  0.451500  0.038100  0.019930  1.0  -0.4096
  N  N1077  1  0.283300  0.518500  0.028920  1.0  -0.4117
  N  N1078  1  0.340800  0.773200  0.993600  1.0  -0.4238
  N  N1079  1  0.160900  0.054800  0.728150  1.0  -0.343
  N  N1080  1  0.244300  0.034400  0.853900  1.0  -0.3787
  O  O1081  1  0.800300  0.640300  0.009770  1.0  -0.5858
  O  O1082  1  0.771000  0.978200  0.906340  1.0  -0.549
  O  O1083  1  0.918360  0.039200  0.004960  1.0  -0.5744
  O  O1084  1  0.074500  0.347100  0.018800  1.0  -0.6201
  O  O1085  1  0.209600  0.731700  0.067550  1.0  -0.5695
  O  O1086  1  0.234300  0.339800  0.114510  1.0  -0.5709
  O  O1087  1  0.300300  0.140300  0.009770  1.0  -0.5858
  O  O1088  1  0.271000  0.478200  0.906340  1.0  -0.549
  O  O1089  1  0.418360  0.539200  0.004960  1.0  -0.5744
  O  O1090  1  0.574500  0.847100  0.018800  1.0  -0.6201
  O  O1091  1  0.709600  0.231700  0.067550  1.0  -0.5695
  O  O1092  1  0.734300  0.839800  0.114510  1.0  -0.5709
  O  O1093  1  0.800300  0.359700  0.509770  1.0  -0.585
  O  O1094  1  0.771000  0.021800  0.406340  1.0  -0.5505
  O  O1095  1  0.918360  0.960800  0.504960  1.0  -0.5748
  O  O1096  1  0.074500  0.652900  0.518800  1.0  -0.6199
  O  O1097  1  0.209600  0.268300  0.567550  1.0  -0.5693
  O  O1098  1  0.234300  0.660200  0.614510  1.0  -0.5725
  O  O1099  1  0.300300  0.859700  0.509770  1.0  -0.585
  O  O1100  1  0.271000  0.521800  0.406340  1.0  -0.5505
  O  O1101  1  0.418360  0.460800  0.504960  1.0  -0.5748
  O  O1102  1  0.574500  0.152900  0.518800  1.0  -0.6199
  O  O1103  1  0.709600  0.768300  0.567550  1.0  -0.5693
  O  O1104  1  0.734300  0.160200  0.614510  1.0  -0.5725
  O  O1105  1  0.199700  0.640300  0.490230  1.0  -0.5848
  O  O1106  1  0.229000  0.978200  0.593660  1.0  -0.5494
  O  O1107  1  0.081640  0.039200  0.495040  1.0  -0.5746
  O  O1108  1  0.925500  0.347100  0.481200  1.0  -0.6179
  O  O1109  1  0.790400  0.731700  0.432450  1.0  -0.5705
  O  O1110  1  0.765700  0.339800  0.385490  1.0  -0.5708
  O  O1111  1  0.699700  0.140300  0.490230  1.0  -0.5848
  O  O1112  1  0.729000  0.478200  0.593660  1.0  -0.5494
  O  O1113  1  0.581640  0.539200  0.495040  1.0  -0.5746
  O  O1114  1  0.425500  0.847100  0.481200  1.0  -0.6179
  O  O1115  1  0.290400  0.231700  0.432450  1.0  -0.5705
  O  O1116  1  0.265700  0.839800  0.385490  1.0  -0.5708
  O  O1117  1  0.199700  0.359700  0.990230  1.0  -0.585
  O  O1118  1  0.229000  0.021800  0.093660  1.0  -0.551
  O  O1119  1  0.081640  0.960800  0.995040  1.0  -0.5751
  O  O1120  1  0.925500  0.652900  0.981200  1.0  -0.6185
  O  O1121  1  0.790400  0.268300  0.932450  1.0  -0.5707
  O  O1122  1  0.765700  0.660200  0.885490  1.0  -0.5723
  O  O1123  1  0.699700  0.859700  0.990230  1.0  -0.585
  O  O1124  1  0.729000  0.521800  0.093660  1.0  -0.551
  O  O1125  1  0.581640  0.460800  0.995040  1.0  -0.5751
  O  O1126  1  0.425500  0.152900  0.981200  1.0  -0.6185
  O  O1127  1  0.290400  0.768300  0.932450  1.0  -0.5707
  O  O1128  1  0.265700  0.160200  0.885490  1.0  -0.5723
