# generated using pymatgen
data_Co2H59C68(N2O3)4
_symmetry_space_group_name_H-M   'P 1'
_cell_length_a   38.22600000
_cell_length_b   13.45600000
_cell_length_c   33.94500000
_cell_angle_alpha   90.00000000
_cell_angle_beta   110.13200000
_cell_angle_gamma   90.00000000
_symmetry_Int_Tables_number   1
_chemical_formula_structural   Co2H59C68(N2O3)4
_chemical_formula_sum   'Co16 H472 C544 N64 O96'
_cell_volume   16393.47375248
_cell_formula_units_Z   8
loop_
 _symmetry_equiv_pos_site_id
 _symmetry_equiv_pos_as_xyz
  1  'x, y, z'
loop_
 _atom_site_type_symbol
 _atom_site_label
 _atom_site_symmetry_multiplicity
 _atom_site_fract_x
 _atom_site_fract_y
 _atom_site_fract_z
 _atom_site_occupancy
 _atom_site_charge
  Co  Co1  1  0.009610  0.315450  0.042140  1.0  0.9132
  Co  Co2  1  0.289750  0.382020  0.467330  1.0  0.9042
  Co  Co3  1  0.509610  0.815450  0.042140  1.0  0.9132
  Co  Co4  1  0.789750  0.882020  0.467330  1.0  0.9042
  Co  Co5  1  0.009610  0.684550  0.542140  1.0  0.9129
  Co  Co6  1  0.289750  0.617980  0.967330  1.0  0.9051
  Co  Co7  1  0.509610  0.184550  0.542140  1.0  0.9129
  Co  Co8  1  0.789750  0.117980  0.967330  1.0  0.9051
  Co  Co9  1  0.990390  0.315450  0.457860  1.0  0.9115
  Co  Co10  1  0.710250  0.382020  0.032670  1.0  0.903
  Co  Co11  1  0.490390  0.815450  0.457860  1.0  0.9115
  Co  Co12  1  0.210250  0.882020  0.032670  1.0  0.903
  Co  Co13  1  0.990390  0.684550  0.957860  1.0  0.9112
  Co  Co14  1  0.710250  0.617980  0.532670  1.0  0.9035
  Co  Co15  1  0.490390  0.184550  0.957860  1.0  0.9112
  Co  Co16  1  0.210250  0.117980  0.532670  1.0  0.9035
  H  H17  1  0.098200  0.298800  0.044000  1.0  0.3799
  H  H18  1  0.240500  0.393400  0.343200  1.0  0.3692
  H  H19  1  0.970900  0.413200  0.954800  1.0  0.3318
  H  H20  1  0.107300  0.232800  0.149300  1.0  0.3707
  H  H21  1  0.197400  0.188900  0.018700  1.0  0.1135
  H  H22  1  0.176200  0.197900  0.050600  1.0  0.0998
  H  H23  1  0.170700  0.264000  0.232900  1.0  0.1097
  H  H24  1  0.185700  0.366500  0.253300  1.0  0.1176
  H  H25  1  0.943000  0.927700  0.978800  1.0  0.129
  H  H26  1  0.933200  0.898300  0.018400  1.0  0.1259
  H  H27  1  0.011500  0.134500  0.098900  1.0  0.2579
  H  H28  1  0.258500  0.559600  0.082800  1.0  0.1082
  H  H29  1  0.176300  0.266000  0.105000  1.0  0.1189
  H  H30  1  0.192800  0.166000  0.957700  1.0  0.1198
  H  H31  1  0.921400  0.466700  0.892700  1.0  0.1248
  H  H32  1  0.896200  0.545200  0.904400  1.0  0.1246
  H  H33  1  0.882400  0.435400  0.894200  1.0  0.1321
  H  H34  1  0.078900  0.244500  0.852600  1.0  0.1403
  H  H35  1  0.054900  0.302200  0.907200  1.0  0.1067
  H  H36  1  0.137300  0.061600  0.374500  1.0  0.1176
  H  H37  1  0.962800  0.225000  0.962900  1.0  0.1282
  H  H38  1  0.925700  0.165400  0.954800  1.0  0.1233
  H  H39  1  0.959700  0.115100  0.946800  1.0  0.1361
  H  H40  1  0.245000  0.556100  0.147100  1.0  0.1131
  H  H41  1  0.128700  0.178600  0.837000  1.0  0.1052
  H  H42  1  0.116900  0.173500  0.238700  1.0  0.103
  H  H43  1  0.181900  0.339200  0.168000  1.0  0.0884
  H  H44  1  0.185700  0.180600  0.400800  1.0  0.1056
  H  H45  1  0.183500  0.134700  0.889200  1.0  0.1066
  H  H46  1  0.080200  0.052700  0.250700  1.0  0.108
  H  H47  1  0.958500  0.382400  0.081000  1.0  0.1443
  H  H48  1  0.915600  0.360700  0.062900  1.0  0.1433
  H  H49  1  0.929900  0.470000  0.073400  1.0  0.1426
  H  H50  1  0.036600  0.470100  0.164800  1.0  0.1109
  H  H51  1  0.216900  0.479900  0.190200  1.0  0.1153
  H  H52  1  0.041100  0.585000  0.223900  1.0  0.1219
  H  H53  1  0.998100  0.985500  0.126800  1.0  0.1279
  H  H54  1  0.989900  0.897700  0.094500  1.0  0.1489
  H  H55  1  0.956900  0.951500  0.103200  1.0  0.1441
  H  H56  1  0.089300  0.995300  0.317700  1.0  0.1089
  H  H57  1  0.158000  0.464500  0.299100  1.0  0.105
  H  H58  1  0.131900  0.591300  0.323700  1.0  0.1018
  H  H59  1  0.075200  0.653700  0.286000  1.0  0.1136
  H  H60  1  0.820900  0.008800  0.905700  1.0  0.3174
  H  H61  1  0.852600  0.081100  0.040600  1.0  0.1249
  H  H62  1  0.894300  0.104600  0.047000  1.0  0.1469
  H  H63  1  0.882900  0.998000  0.056700  1.0  0.1386
  H  H64  1  0.861900  0.935500  0.874900  1.0  0.1329
  H  H65  1  0.889700  0.861300  0.905900  1.0  0.1247
  H  H66  1  0.903700  0.965900  0.897400  1.0  0.1358
  H  H67  1  0.868900  0.534500  0.001200  1.0  0.1032
  H  H68  1  0.854100  0.505700  0.953600  1.0  0.1074
  H  H69  1  0.804200  0.278700  0.035400  1.0  0.3169
  H  H70  1  0.850100  0.514400  0.058300  1.0  0.1226
  H  H71  1  0.849500  0.421000  0.085600  1.0  0.1361
  H  H72  1  0.812100  0.473800  0.059500  1.0  0.1321
  H  H73  1  0.829600  0.219000  0.917600  1.0  0.1345
  H  H74  1  0.867600  0.276400  0.933000  1.0  0.1303
  H  H75  1  0.831000  0.331400  0.906200  1.0  0.1315
  H  H76  1  0.598200  0.798800  0.044000  1.0  0.3799
  H  H77  1  0.740500  0.893400  0.343200  1.0  0.3693
  H  H78  1  0.470900  0.913200  0.954800  1.0  0.3318
  H  H79  1  0.607300  0.732800  0.149300  1.0  0.3707
  H  H80  1  0.697400  0.688900  0.018700  1.0  0.1135
  H  H81  1  0.676200  0.697900  0.050600  1.0  0.0998
  H  H82  1  0.670700  0.764000  0.232900  1.0  0.1097
  H  H83  1  0.685700  0.866500  0.253300  1.0  0.1175
  H  H84  1  0.443000  0.427700  0.978800  1.0  0.129
  H  H85  1  0.433200  0.398300  0.018400  1.0  0.1259
  H  H86  1  0.511500  0.634500  0.098900  1.0  0.2579
  H  H87  1  0.758500  0.059600  0.082800  1.0  0.1082
  H  H88  1  0.676300  0.766000  0.105000  1.0  0.1189
  H  H89  1  0.692800  0.666000  0.957700  1.0  0.1198
  H  H90  1  0.421400  0.966700  0.892700  1.0  0.1248
  H  H91  1  0.396200  0.045200  0.904400  1.0  0.1246
  H  H92  1  0.382400  0.935400  0.894200  1.0  0.1321
  H  H93  1  0.578900  0.744500  0.852600  1.0  0.1403
  H  H94  1  0.554900  0.802200  0.907200  1.0  0.1067
  H  H95  1  0.637300  0.561600  0.374500  1.0  0.1176
  H  H96  1  0.462800  0.725000  0.962900  1.0  0.1282
  H  H97  1  0.425700  0.665400  0.954800  1.0  0.1233
  H  H98  1  0.459700  0.615100  0.946800  1.0  0.1361
  H  H99  1  0.745000  0.056100  0.147100  1.0  0.1131
  H  H100  1  0.628700  0.678600  0.837000  1.0  0.1052
  H  H101  1  0.616900  0.673500  0.238700  1.0  0.103
  H  H102  1  0.681900  0.839200  0.168000  1.0  0.0884
  H  H103  1  0.685700  0.680600  0.400800  1.0  0.1059
  H  H104  1  0.683500  0.634700  0.889200  1.0  0.1066
  H  H105  1  0.580200  0.552700  0.250700  1.0  0.108
  H  H106  1  0.458500  0.882400  0.081000  1.0  0.1443
  H  H107  1  0.415600  0.860700  0.062900  1.0  0.1433
  H  H108  1  0.429900  0.970000  0.073400  1.0  0.1426
  H  H109  1  0.536600  0.970100  0.164800  1.0  0.1109
  H  H110  1  0.716900  0.979900  0.190200  1.0  0.1153
  H  H111  1  0.541100  0.085000  0.223900  1.0  0.1219
  H  H112  1  0.498100  0.485500  0.126800  1.0  0.1279
  H  H113  1  0.489900  0.397700  0.094500  1.0  0.1489
  H  H114  1  0.456900  0.451500  0.103200  1.0  0.1441
  H  H115  1  0.589300  0.495300  0.317700  1.0  0.1089
  H  H116  1  0.658000  0.964500  0.299100  1.0  0.105
  H  H117  1  0.631900  0.091300  0.323700  1.0  0.1018
  H  H118  1  0.575200  0.153700  0.286000  1.0  0.1136
  H  H119  1  0.320900  0.508800  0.905700  1.0  0.3174
  H  H120  1  0.352600  0.581100  0.040600  1.0  0.1249
  H  H121  1  0.394300  0.604600  0.047000  1.0  0.1469
  H  H122  1  0.382900  0.498000  0.056700  1.0  0.1386
  H  H123  1  0.361900  0.435500  0.874900  1.0  0.1329
  H  H124  1  0.389700  0.361300  0.905900  1.0  0.1247
  H  H125  1  0.403700  0.465900  0.897400  1.0  0.1358
  H  H126  1  0.368900  0.034500  0.001200  1.0  0.1032
  H  H127  1  0.354100  0.005700  0.953600  1.0  0.1074
  H  H128  1  0.304200  0.778700  0.035400  1.0  0.3169
  H  H129  1  0.350100  0.014400  0.058300  1.0  0.1226
  H  H130  1  0.349500  0.921000  0.085600  1.0  0.1361
  H  H131  1  0.312100  0.973800  0.059500  1.0  0.1321
  H  H132  1  0.329600  0.719000  0.917600  1.0  0.1345
  H  H133  1  0.367600  0.776400  0.933000  1.0  0.1303
  H  H134  1  0.331000  0.831400  0.906200  1.0  0.1315
  H  H135  1  0.098200  0.701200  0.544000  1.0  0.38
  H  H136  1  0.240500  0.606600  0.843200  1.0  0.3672
  H  H137  1  0.970900  0.586800  0.454800  1.0  0.3316
  H  H138  1  0.107300  0.767200  0.649300  1.0  0.3708
  H  H139  1  0.197400  0.811100  0.518700  1.0  0.1134
  H  H140  1  0.176200  0.802100  0.550600  1.0  0.0999
  H  H141  1  0.170700  0.736000  0.732900  1.0  0.1097
  H  H142  1  0.185700  0.633500  0.753300  1.0  0.1174
  H  H143  1  0.943000  0.072300  0.478800  1.0  0.1289
  H  H144  1  0.933200  0.101700  0.518400  1.0  0.1254
  H  H145  1  0.011500  0.865500  0.598900  1.0  0.2588
  H  H146  1  0.258500  0.440400  0.582800  1.0  0.1082
  H  H147  1  0.176300  0.734000  0.605000  1.0  0.1182
  H  H148  1  0.192800  0.834000  0.457700  1.0  0.1196
  H  H149  1  0.921400  0.533300  0.392700  1.0  0.1253
  H  H150  1  0.896200  0.454800  0.404400  1.0  0.1234
  H  H151  1  0.882400  0.564600  0.394200  1.0  0.1319
  H  H152  1  0.078900  0.755500  0.352600  1.0  0.1403
  H  H153  1  0.054900  0.697800  0.407200  1.0  0.1069
  H  H154  1  0.137300  0.938400  0.874500  1.0  0.1176
  H  H155  1  0.962800  0.775000  0.462900  1.0  0.1272
  H  H156  1  0.925700  0.834600  0.454800  1.0  0.1231
  H  H157  1  0.959700  0.884900  0.446800  1.0  0.1355
  H  H158  1  0.245000  0.443900  0.647100  1.0  0.1132
  H  H159  1  0.128700  0.821400  0.337000  1.0  0.1049
  H  H160  1  0.116900  0.826500  0.738700  1.0  0.1031
  H  H161  1  0.181900  0.660800  0.668000  1.0  0.0881
  H  H162  1  0.185700  0.819400  0.900800  1.0  0.1056
  H  H163  1  0.183500  0.865300  0.389200  1.0  0.1064
  H  H164  1  0.080200  0.947300  0.750700  1.0  0.1083
  H  H165  1  0.958500  0.617600  0.581000  1.0  0.1436
  H  H166  1  0.915600  0.639300  0.562900  1.0  0.1428
  H  H167  1  0.929900  0.530000  0.573400  1.0  0.142
  H  H168  1  0.036600  0.529900  0.664800  1.0  0.1111
  H  H169  1  0.216900  0.520100  0.690200  1.0  0.115
  H  H170  1  0.041100  0.415000  0.723900  1.0  0.1219
  H  H171  1  0.998100  0.014500  0.626800  1.0  0.1278
  H  H172  1  0.989900  0.102300  0.594500  1.0  0.1485
  H  H173  1  0.956900  0.048500  0.603200  1.0  0.144
  H  H174  1  0.089300  0.004700  0.817700  1.0  0.1091
  H  H175  1  0.158000  0.535500  0.799100  1.0  0.1052
  H  H176  1  0.131900  0.408700  0.823700  1.0  0.1019
  H  H177  1  0.075200  0.346300  0.786000  1.0  0.1137
  H  H178  1  0.820900  0.991200  0.405700  1.0  0.3175
  H  H179  1  0.852600  0.918900  0.540600  1.0  0.1247
  H  H180  1  0.894300  0.895400  0.547000  1.0  0.148
  H  H181  1  0.882900  0.002000  0.556700  1.0  0.1386
  H  H182  1  0.861900  0.064500  0.374900  1.0  0.1334
  H  H183  1  0.889700  0.138700  0.405900  1.0  0.1247
  H  H184  1  0.903700  0.034100  0.397400  1.0  0.1356
  H  H185  1  0.868900  0.465500  0.501200  1.0  0.1035
  H  H186  1  0.854100  0.494300  0.453600  1.0  0.1078
  H  H187  1  0.804200  0.721300  0.535400  1.0  0.3168
  H  H188  1  0.850100  0.485600  0.558300  1.0  0.1229
  H  H189  1  0.849500  0.579000  0.585600  1.0  0.1358
  H  H190  1  0.812100  0.526200  0.559500  1.0  0.1316
  H  H191  1  0.829600  0.781000  0.417600  1.0  0.1345
  H  H192  1  0.867600  0.723600  0.433000  1.0  0.1306
  H  H193  1  0.831000  0.668600  0.406200  1.0  0.1307
  H  H194  1  0.598200  0.201200  0.544000  1.0  0.38
  H  H195  1  0.740500  0.106600  0.843200  1.0  0.3672
  H  H196  1  0.470900  0.086800  0.454800  1.0  0.3316
  H  H197  1  0.607300  0.267200  0.649300  1.0  0.3708
  H  H198  1  0.697400  0.311100  0.518700  1.0  0.1134
  H  H199  1  0.676200  0.302100  0.550600  1.0  0.0999
  H  H200  1  0.670700  0.236000  0.732900  1.0  0.1097
  H  H201  1  0.685700  0.133500  0.753300  1.0  0.1173
  H  H202  1  0.443000  0.572300  0.478800  1.0  0.1289
  H  H203  1  0.433200  0.601700  0.518400  1.0  0.1254
  H  H204  1  0.511500  0.365500  0.598900  1.0  0.2588
  H  H205  1  0.758500  0.940400  0.582800  1.0  0.1082
  H  H206  1  0.676300  0.234000  0.605000  1.0  0.1182
  H  H207  1  0.692800  0.334000  0.457700  1.0  0.1196
  H  H208  1  0.421400  0.033300  0.392700  1.0  0.1253
  H  H209  1  0.396200  0.954800  0.404400  1.0  0.1234
  H  H210  1  0.382400  0.064600  0.394200  1.0  0.1319
  H  H211  1  0.578900  0.255500  0.352600  1.0  0.1403
  H  H212  1  0.554900  0.197800  0.407200  1.0  0.1069
  H  H213  1  0.637300  0.438400  0.874500  1.0  0.1176
  H  H214  1  0.462800  0.275000  0.462900  1.0  0.1272
  H  H215  1  0.425700  0.334600  0.454800  1.0  0.1231
  H  H216  1  0.459700  0.384900  0.446800  1.0  0.1355
  H  H217  1  0.745000  0.943900  0.647100  1.0  0.1132
  H  H218  1  0.628700  0.321400  0.337000  1.0  0.1049
  H  H219  1  0.616900  0.326500  0.738700  1.0  0.1031
  H  H220  1  0.681900  0.160800  0.668000  1.0  0.0881
  H  H221  1  0.685700  0.319400  0.900800  1.0  0.1058
  H  H222  1  0.683500  0.365300  0.389200  1.0  0.1064
  H  H223  1  0.580200  0.447300  0.750700  1.0  0.1083
  H  H224  1  0.458500  0.117600  0.581000  1.0  0.1436
  H  H225  1  0.415600  0.139300  0.562900  1.0  0.1428
  H  H226  1  0.429900  0.030000  0.573400  1.0  0.142
  H  H227  1  0.536600  0.029900  0.664800  1.0  0.1111
  H  H228  1  0.716900  0.020100  0.690200  1.0  0.115
  H  H229  1  0.541100  0.915000  0.723900  1.0  0.1219
  H  H230  1  0.498100  0.514500  0.626800  1.0  0.1278
  H  H231  1  0.489900  0.602300  0.594500  1.0  0.1485
  H  H232  1  0.456900  0.548500  0.603200  1.0  0.144
  H  H233  1  0.589300  0.504700  0.817700  1.0  0.1091
  H  H234  1  0.658000  0.035500  0.799100  1.0  0.1052
  H  H235  1  0.631900  0.908700  0.823700  1.0  0.1019
  H  H236  1  0.575200  0.846300  0.786000  1.0  0.1137
  H  H237  1  0.320900  0.491200  0.405700  1.0  0.3175
  H  H238  1  0.352600  0.418900  0.540600  1.0  0.1247
  H  H239  1  0.394300  0.395400  0.547000  1.0  0.148
  H  H240  1  0.382900  0.502000  0.556700  1.0  0.1386
  H  H241  1  0.361900  0.564500  0.374900  1.0  0.1334
  H  H242  1  0.389700  0.638700  0.405900  1.0  0.1247
  H  H243  1  0.403700  0.534100  0.397400  1.0  0.1356
  H  H244  1  0.368900  0.965500  0.501200  1.0  0.1035
  H  H245  1  0.354100  0.994300  0.453600  1.0  0.1078
  H  H246  1  0.304200  0.221300  0.535400  1.0  0.3168
  H  H247  1  0.350100  0.985600  0.558300  1.0  0.1229
  H  H248  1  0.349500  0.079000  0.585600  1.0  0.1358
  H  H249  1  0.312100  0.026200  0.559500  1.0  0.1316
  H  H250  1  0.329600  0.281000  0.417600  1.0  0.1345
  H  H251  1  0.367600  0.223600  0.433000  1.0  0.1306
  H  H252  1  0.331000  0.168600  0.406200  1.0  0.1307
  H  H253  1  0.901800  0.298800  0.456000  1.0  0.3782
  H  H254  1  0.759500  0.393400  0.156800  1.0  0.372
  H  H255  1  0.029100  0.413200  0.545200  1.0  0.3313
  H  H256  1  0.892700  0.232800  0.350700  1.0  0.3716
  H  H257  1  0.802600  0.188900  0.481300  1.0  0.1146
  H  H258  1  0.823800  0.197900  0.449400  1.0  0.1005
  H  H259  1  0.829300  0.264000  0.267100  1.0  0.1096
  H  H260  1  0.814300  0.366500  0.246700  1.0  0.1189
  H  H261  1  0.057000  0.927700  0.521200  1.0  0.1279
  H  H262  1  0.066800  0.898300  0.481600  1.0  0.126
  H  H263  1  0.988500  0.134500  0.401100  1.0  0.2586
  H  H264  1  0.741500  0.559600  0.417200  1.0  0.1078
  H  H265  1  0.823700  0.266000  0.395000  1.0  0.1194
  H  H266  1  0.807200  0.166000  0.542300  1.0  0.1199
  H  H267  1  0.078600  0.466700  0.607300  1.0  0.1244
  H  H268  1  0.103800  0.545200  0.595600  1.0  0.1247
  H  H269  1  0.117600  0.435400  0.605800  1.0  0.1327
  H  H270  1  0.921100  0.244500  0.647400  1.0  0.1406
  H  H271  1  0.945100  0.302200  0.592800  1.0  0.1074
  H  H272  1  0.862700  0.061600  0.125500  1.0  0.1175
  H  H273  1  0.037200  0.225000  0.537100  1.0  0.1277
  H  H274  1  0.074300  0.165400  0.545200  1.0  0.1245
  H  H275  1  0.040300  0.115100  0.553200  1.0  0.1352
  H  H276  1  0.755000  0.556100  0.352900  1.0  0.1136
  H  H277  1  0.871300  0.178600  0.663000  1.0  0.1054
  H  H278  1  0.883100  0.173500  0.261300  1.0  0.1024
  H  H279  1  0.818100  0.339200  0.332000  1.0  0.0892
  H  H280  1  0.814300  0.180600  0.099200  1.0  0.1062
  H  H281  1  0.816500  0.134700  0.610800  1.0  0.1063
  H  H282  1  0.919800  0.052700  0.249300  1.0  0.1083
  H  H283  1  0.041500  0.382400  0.419000  1.0  0.144
  H  H284  1  0.084400  0.360700  0.437100  1.0  0.1405
  H  H285  1  0.070100  0.470000  0.426600  1.0  0.1427
  H  H286  1  0.963400  0.470100  0.335200  1.0  0.112
  H  H287  1  0.783100  0.479900  0.309800  1.0  0.1152
  H  H288  1  0.958900  0.585000  0.276100  1.0  0.1213
  H  H289  1  0.001900  0.985500  0.373200  1.0  0.1273
  H  H290  1  0.010100  0.897700  0.405500  1.0  0.1485
  H  H291  1  0.043100  0.951500  0.396800  1.0  0.1434
  H  H292  1  0.910700  0.995300  0.182300  1.0  0.1106
  H  H293  1  0.842000  0.464500  0.200900  1.0  0.1064
  H  H294  1  0.868100  0.591300  0.176300  1.0  0.102
  H  H295  1  0.924800  0.653700  0.214000  1.0  0.1132
  H  H296  1  0.179100  0.008800  0.594300  1.0  0.3172
  H  H297  1  0.147400  0.081100  0.459400  1.0  0.1256
  H  H298  1  0.105700  0.104600  0.453000  1.0  0.1483
  H  H299  1  0.117100  0.998000  0.443300  1.0  0.1387
  H  H300  1  0.138100  0.935500  0.625100  1.0  0.1335
  H  H301  1  0.110300  0.861300  0.594100  1.0  0.1245
  H  H302  1  0.096300  0.965900  0.602600  1.0  0.1357
  H  H303  1  0.131100  0.534500  0.498800  1.0  0.1031
  H  H304  1  0.145900  0.505700  0.546400  1.0  0.1072
  H  H305  1  0.195800  0.278700  0.464600  1.0  0.3164
  H  H306  1  0.149900  0.514400  0.441700  1.0  0.1223
  H  H307  1  0.150500  0.421000  0.414400  1.0  0.1346
  H  H308  1  0.187900  0.473800  0.440500  1.0  0.1328
  H  H309  1  0.170400  0.219000  0.582400  1.0  0.1358
  H  H310  1  0.132400  0.276400  0.567000  1.0  0.129
  H  H311  1  0.169000  0.331400  0.593800  1.0  0.131
  H  H312  1  0.401800  0.798800  0.456000  1.0  0.3782
  H  H313  1  0.259500  0.893400  0.156800  1.0  0.372
  H  H314  1  0.529100  0.913200  0.545200  1.0  0.3313
  H  H315  1  0.392700  0.732800  0.350700  1.0  0.3716
  H  H316  1  0.302600  0.688900  0.481300  1.0  0.1146
  H  H317  1  0.323800  0.697900  0.449400  1.0  0.1005
  H  H318  1  0.329300  0.764000  0.267100  1.0  0.1096
  H  H319  1  0.314300  0.866500  0.246700  1.0  0.1189
  H  H320  1  0.557000  0.427700  0.521200  1.0  0.1279
  H  H321  1  0.566800  0.398300  0.481600  1.0  0.126
  H  H322  1  0.488500  0.634500  0.401100  1.0  0.2586
  H  H323  1  0.241500  0.059600  0.417200  1.0  0.1078
  H  H324  1  0.323700  0.766000  0.395000  1.0  0.1194
  H  H325  1  0.307200  0.666000  0.542300  1.0  0.1199
  H  H326  1  0.578600  0.966700  0.607300  1.0  0.1244
  H  H327  1  0.603800  0.045200  0.595600  1.0  0.1247
  H  H328  1  0.617600  0.935400  0.605800  1.0  0.1327
  H  H329  1  0.421100  0.744500  0.647400  1.0  0.1406
  H  H330  1  0.445100  0.802200  0.592800  1.0  0.1074
  H  H331  1  0.362700  0.561600  0.125500  1.0  0.1175
  H  H332  1  0.537200  0.725000  0.537100  1.0  0.1277
  H  H333  1  0.574300  0.665400  0.545200  1.0  0.1245
  H  H334  1  0.540300  0.615100  0.553200  1.0  0.1352
  H  H335  1  0.255000  0.056100  0.352900  1.0  0.1136
  H  H336  1  0.371300  0.678600  0.663000  1.0  0.1054
  H  H337  1  0.383100  0.673500  0.261300  1.0  0.1024
  H  H338  1  0.318100  0.839200  0.332000  1.0  0.0892
  H  H339  1  0.314300  0.680600  0.099200  1.0  0.1062
  H  H340  1  0.316500  0.634700  0.610800  1.0  0.1063
  H  H341  1  0.419800  0.552700  0.249300  1.0  0.1083
  H  H342  1  0.541500  0.882400  0.419000  1.0  0.144
  H  H343  1  0.584400  0.860700  0.437100  1.0  0.1405
  H  H344  1  0.570100  0.970000  0.426600  1.0  0.1427
  H  H345  1  0.463400  0.970100  0.335200  1.0  0.112
  H  H346  1  0.283100  0.979900  0.309800  1.0  0.1152
  H  H347  1  0.458900  0.085000  0.276100  1.0  0.1213
  H  H348  1  0.501900  0.485500  0.373200  1.0  0.1273
  H  H349  1  0.510100  0.397700  0.405500  1.0  0.1485
  H  H350  1  0.543100  0.451500  0.396800  1.0  0.1434
  H  H351  1  0.410700  0.495300  0.182300  1.0  0.1106
  H  H352  1  0.342000  0.964500  0.200900  1.0  0.1064
  H  H353  1  0.368100  0.091300  0.176300  1.0  0.102
  H  H354  1  0.424800  0.153700  0.214000  1.0  0.1132
  H  H355  1  0.679100  0.508800  0.594300  1.0  0.3172
  H  H356  1  0.647400  0.581100  0.459400  1.0  0.1256
  H  H357  1  0.605700  0.604600  0.453000  1.0  0.1483
  H  H358  1  0.617100  0.498000  0.443300  1.0  0.1387
  H  H359  1  0.638100  0.435500  0.625100  1.0  0.1335
  H  H360  1  0.610300  0.361300  0.594100  1.0  0.1245
  H  H361  1  0.596300  0.465900  0.602600  1.0  0.1357
  H  H362  1  0.631100  0.034500  0.498800  1.0  0.1031
  H  H363  1  0.645900  0.005700  0.546400  1.0  0.1072
  H  H364  1  0.695800  0.778700  0.464600  1.0  0.3164
  H  H365  1  0.649900  0.014400  0.441700  1.0  0.1223
  H  H366  1  0.650500  0.921000  0.414400  1.0  0.1346
  H  H367  1  0.687900  0.973800  0.440500  1.0  0.1328
  H  H368  1  0.670400  0.719000  0.582400  1.0  0.1358
  H  H369  1  0.632400  0.776400  0.567000  1.0  0.129
  H  H370  1  0.669000  0.831400  0.593800  1.0  0.131
  H  H371  1  0.901800  0.701200  0.956000  1.0  0.3783
  H  H372  1  0.759500  0.606600  0.656800  1.0  0.3705
  H  H373  1  0.029100  0.586800  0.045200  1.0  0.3312
  H  H374  1  0.892700  0.767200  0.850700  1.0  0.3718
  H  H375  1  0.802600  0.811100  0.981300  1.0  0.1143
  H  H376  1  0.823800  0.802100  0.949400  1.0  0.1005
  H  H377  1  0.829300  0.736000  0.767100  1.0  0.1084
  H  H378  1  0.814300  0.633500  0.746700  1.0  0.119
  H  H379  1  0.057000  0.072300  0.021200  1.0  0.1282
  H  H380  1  0.066800  0.101700  0.981600  1.0  0.1266
  H  H381  1  0.988500  0.865500  0.901100  1.0  0.2587
  H  H382  1  0.741500  0.440400  0.917200  1.0  0.1073
  H  H383  1  0.823700  0.734000  0.895000  1.0  0.1196
  H  H384  1  0.807200  0.834000  0.042300  1.0  0.1199
  H  H385  1  0.078600  0.533300  0.107300  1.0  0.1241
  H  H386  1  0.103800  0.454800  0.095600  1.0  0.1237
  H  H387  1  0.117600  0.564600  0.105800  1.0  0.132
  H  H388  1  0.921100  0.755500  0.147400  1.0  0.1409
  H  H389  1  0.945100  0.697800  0.092800  1.0  0.1072
  H  H390  1  0.862700  0.938400  0.625500  1.0  0.1174
  H  H391  1  0.037200  0.775000  0.037100  1.0  0.128
  H  H392  1  0.074300  0.834600  0.045200  1.0  0.1248
  H  H393  1  0.040300  0.884900  0.053200  1.0  0.1346
  H  H394  1  0.755000  0.443900  0.852900  1.0  0.1131
  H  H395  1  0.871300  0.821400  0.163000  1.0  0.1054
  H  H396  1  0.883100  0.826500  0.761300  1.0  0.103
  H  H397  1  0.818100  0.660800  0.832000  1.0  0.089
  H  H398  1  0.814300  0.819400  0.599200  1.0  0.1058
  H  H399  1  0.816500  0.865300  0.110800  1.0  0.1064
  H  H400  1  0.919800  0.947300  0.749300  1.0  0.1083
  H  H401  1  0.041500  0.617600  0.919000  1.0  0.1439
  H  H402  1  0.084400  0.639300  0.937100  1.0  0.1413
  H  H403  1  0.070100  0.530000  0.926600  1.0  0.1413
  H  H404  1  0.963400  0.529900  0.835200  1.0  0.1118
  H  H405  1  0.783100  0.520100  0.809800  1.0  0.1153
  H  H406  1  0.958900  0.415000  0.776100  1.0  0.121
  H  H407  1  0.001900  0.014500  0.873200  1.0  0.1273
  H  H408  1  0.010100  0.102300  0.905500  1.0  0.1498
  H  H409  1  0.043100  0.048500  0.896800  1.0  0.1433
  H  H410  1  0.910700  0.004700  0.682300  1.0  0.1105
  H  H411  1  0.842000  0.535500  0.700900  1.0  0.1067
  H  H412  1  0.868100  0.408700  0.676300  1.0  0.102
  H  H413  1  0.924800  0.346300  0.714000  1.0  0.1134
  H  H414  1  0.179100  0.991200  0.094300  1.0  0.3171
  H  H415  1  0.147400  0.918900  0.959400  1.0  0.1257
  H  H416  1  0.105700  0.895400  0.953000  1.0  0.1479
  H  H417  1  0.117100  0.002000  0.943300  1.0  0.1392
  H  H418  1  0.138100  0.064500  0.125100  1.0  0.1339
  H  H419  1  0.110300  0.138700  0.094100  1.0  0.1241
  H  H420  1  0.096300  0.034100  0.102600  1.0  0.1362
  H  H421  1  0.131100  0.465500  0.998800  1.0  0.1029
  H  H422  1  0.145900  0.494300  0.046400  1.0  0.1075
  H  H423  1  0.195800  0.721300  0.964600  1.0  0.3163
  H  H424  1  0.149900  0.485600  0.941700  1.0  0.1215
  H  H425  1  0.150500  0.579000  0.914400  1.0  0.1344
  H  H426  1  0.187900  0.526200  0.940500  1.0  0.1326
  H  H427  1  0.170400  0.781000  0.082400  1.0  0.1349
  H  H428  1  0.132400  0.723600  0.067000  1.0  0.1286
  H  H429  1  0.169000  0.668600  0.093800  1.0  0.1302
  H  H430  1  0.401800  0.201200  0.956000  1.0  0.3783
  H  H431  1  0.259500  0.106600  0.656800  1.0  0.3705
  H  H432  1  0.529100  0.086800  0.045200  1.0  0.3312
  H  H433  1  0.392700  0.267200  0.850700  1.0  0.3718
  H  H434  1  0.302600  0.311100  0.981300  1.0  0.1143
  H  H435  1  0.323800  0.302100  0.949400  1.0  0.1005
  H  H436  1  0.329300  0.236000  0.767100  1.0  0.1084
  H  H437  1  0.314300  0.133500  0.746700  1.0  0.119
  H  H438  1  0.557000  0.572300  0.021200  1.0  0.1282
  H  H439  1  0.566800  0.601700  0.981600  1.0  0.1266
  H  H440  1  0.488500  0.365500  0.901100  1.0  0.2587
  H  H441  1  0.241500  0.940400  0.917200  1.0  0.1073
  H  H442  1  0.323700  0.234000  0.895000  1.0  0.1196
  H  H443  1  0.307200  0.334000  0.042300  1.0  0.1199
  H  H444  1  0.578600  0.033300  0.107300  1.0  0.1241
  H  H445  1  0.603800  0.954800  0.095600  1.0  0.1237
  H  H446  1  0.617600  0.064600  0.105800  1.0  0.132
  H  H447  1  0.421100  0.255500  0.147400  1.0  0.1409
  H  H448  1  0.445100  0.197800  0.092800  1.0  0.1072
  H  H449  1  0.362700  0.438400  0.625500  1.0  0.1174
  H  H450  1  0.537200  0.275000  0.037100  1.0  0.128
  H  H451  1  0.574300  0.334600  0.045200  1.0  0.1248
  H  H452  1  0.540300  0.384900  0.053200  1.0  0.1346
  H  H453  1  0.255000  0.943900  0.852900  1.0  0.1131
  H  H454  1  0.371300  0.321400  0.163000  1.0  0.1054
  H  H455  1  0.383100  0.326500  0.761300  1.0  0.103
  H  H456  1  0.318100  0.160800  0.832000  1.0  0.089
  H  H457  1  0.314300  0.319400  0.599200  1.0  0.1058
  H  H458  1  0.316500  0.365300  0.110800  1.0  0.1064
  H  H459  1  0.419800  0.447300  0.749300  1.0  0.1083
  H  H460  1  0.541500  0.117600  0.919000  1.0  0.1439
  H  H461  1  0.584400  0.139300  0.937100  1.0  0.1413
  H  H462  1  0.570100  0.030000  0.926600  1.0  0.1413
  H  H463  1  0.463400  0.029900  0.835200  1.0  0.1118
  H  H464  1  0.283100  0.020100  0.809800  1.0  0.1153
  H  H465  1  0.458900  0.915000  0.776100  1.0  0.121
  H  H466  1  0.501900  0.514500  0.873200  1.0  0.1273
  H  H467  1  0.510100  0.602300  0.905500  1.0  0.1498
  H  H468  1  0.543100  0.548500  0.896800  1.0  0.1433
  H  H469  1  0.410700  0.504700  0.682300  1.0  0.1105
  H  H470  1  0.342000  0.035500  0.700900  1.0  0.1067
  H  H471  1  0.368100  0.908700  0.676300  1.0  0.102
  H  H472  1  0.424800  0.846300  0.714000  1.0  0.1134
  H  H473  1  0.679100  0.491200  0.094300  1.0  0.3171
  H  H474  1  0.647400  0.418900  0.959400  1.0  0.1257
  H  H475  1  0.605700  0.395400  0.953000  1.0  0.1479
  H  H476  1  0.617100  0.502000  0.943300  1.0  0.1392
  H  H477  1  0.638100  0.564500  0.125100  1.0  0.1339
  H  H478  1  0.610300  0.638700  0.094100  1.0  0.1241
  H  H479  1  0.596300  0.534100  0.102600  1.0  0.1362
  H  H480  1  0.631100  0.965500  0.998800  1.0  0.1029
  H  H481  1  0.645900  0.994300  0.046400  1.0  0.1075
  H  H482  1  0.695800  0.221300  0.964600  1.0  0.3163
  H  H483  1  0.649900  0.985600  0.941700  1.0  0.1215
  H  H484  1  0.650500  0.079000  0.914400  1.0  0.1344
  H  H485  1  0.687900  0.026200  0.940500  1.0  0.1326
  H  H486  1  0.670400  0.281000  0.082400  1.0  0.1349
  H  H487  1  0.632400  0.223600  0.067000  1.0  0.1286
  H  H488  1  0.669000  0.168600  0.093800  1.0  0.1302
  C  C489  1  0.206790  0.274200  0.369230  1.0  -0.1501
  C  C490  1  0.935280  0.419000  0.019600  1.0  0.2418
  C  C491  1  0.181630  0.232100  0.028200  1.0  -0.2359
  C  C492  1  0.220820  0.373900  0.021700  1.0  0.175
  C  C493  1  0.236770  0.317300  0.404860  1.0  0.6537
  C  C494  1  0.166670  0.316500  0.250400  1.0  -0.1848
  C  C495  1  0.145300  0.247500  0.992100  1.0  -0.0255
  C  C496  1  0.045680  0.324000  0.978600  1.0  0.6974
  C  C497  1  0.079740  0.296300  0.969000  1.0  -0.1212
  C  C498  1  0.114630  0.276700  0.001200  1.0  0.2502
  C  C499  1  0.051900  0.329400  0.121500  1.0  0.6379
  C  C500  1  0.932920  0.952700  0.999500  1.0  -0.3083
  C  C501  1  0.958280  0.033700  0.024300  1.0  -0.0868
  C  C502  1  0.201610  0.308600  0.327300  1.0  0.1569
  C  C503  1  0.141340  0.227200  0.949900  1.0  0.0149
  C  C504  1  0.203570  0.326800  0.046300  1.0  -0.0268
  C  C505  1  0.227060  0.457000  0.099000  1.0  0.0115
  C  C506  1  0.150100  0.194600  0.299300  1.0  0.0555
  C  C507  1  0.966670  0.123700  0.009500  1.0  0.2067
  C  C508  1  0.207180  0.367900  0.086200  1.0  -0.0043
  C  C509  1  0.244820  0.501800  0.073700  1.0  -0.0889
  C  C510  1  0.073560  0.367000  0.164100  1.0  -0.1823
  C  C511  1  0.129200  0.363000  0.227400  1.0  0.0604
  C  C512  1  0.172710  0.273300  0.293260  1.0  0.0367
  C  C513  1  0.106800  0.249200  0.916200  1.0  0.0285
  C  C514  1  0.921400  0.450400  0.952000  1.0  0.1829
  C  C515  1  0.190010  0.324200  0.113100  1.0  -0.139
  C  C516  1  0.170100  0.182600  0.937300  1.0  -0.1412
  C  C517  1  0.108130  0.326400  0.188300  1.0  0.2668
  C  C518  1  0.893420  0.983200  0.977400  1.0  -0.0809
  C  C519  1  0.242310  0.461900  0.035900  1.0  -0.1271
  C  C520  1  0.903800  0.476800  0.906800  1.0  -0.3659
  C  C521  1  0.101400  0.230300  0.873800  1.0  -0.1655
  C  C522  1  0.077170  0.285200  0.928100  1.0  -0.1015
  C  C523  1  0.155700  0.158800  0.339800  1.0  0.06
  C  C524  1  0.133200  0.084200  0.347400  1.0  -0.1394
  C  C525  1  0.906760  0.452800  0.984400  1.0  -0.1855
  C  C526  1  0.952400  0.160700  0.964300  1.0  -0.3934
  C  C527  1  0.231100  0.498400  0.138300  1.0  -0.1377
  C  C528  1  0.978100  0.033300  0.066000  1.0  0.1929
  C  C529  1  0.131100  0.189600  0.864900  1.0  -0.1241
  C  C530  1  0.121200  0.152000  0.266000  1.0  -0.151
  C  C531  1  0.193700  0.367900  0.151000  1.0  -0.0901
  C  C532  1  0.183200  0.201700  0.373900  1.0  -0.1193
  C  C533  1  0.164700  0.164400  0.896500  1.0  -0.0934
  C  C534  1  0.099300  0.079600  0.273200  1.0  -0.1054
  C  C535  1  0.934800  0.407000  0.063100  1.0  -0.3954
  C  C536  1  0.079400  0.481100  0.221600  1.0  0.0355
  C  C537  1  0.059500  0.442600  0.180500  1.0  -0.0625
  C  C538  1  0.214200  0.452800  0.164100  1.0  -0.0756
  C  C539  1  0.115100  0.443400  0.243700  1.0  0.0573
  C  C540  1  0.064700  0.560500  0.238600  1.0  -0.092
  C  C541  1  0.981000  0.960400  0.100800  1.0  -0.3534
  C  C542  1  0.104600  0.044600  0.313500  1.0  -0.1027
  C  C543  1  0.134500  0.487600  0.283100  1.0  -0.1414
  C  C544  1  0.118800  0.563700  0.297600  1.0  -0.0944
  C  C545  1  0.084700  0.600400  0.275500  1.0  -0.0817
  C  C546  1  0.869090  0.025000  0.995500  1.0  0.2238
  C  C547  1  0.873310  0.972700  0.936100  1.0  0.1446
  C  C548  1  0.875260  0.054700  0.038600  1.0  -0.3837
  C  C549  1  0.883000  0.930000  0.900400  1.0  -0.3694
  C  C550  1  0.261440  0.513600  0.009000  1.0  0.6536
  C  C551  1  0.867510  0.481000  0.981600  1.0  -0.2482
  C  C552  1  0.846460  0.397400  0.990700  1.0  -0.138
  C  C553  1  0.833180  0.389600  0.023500  1.0  0.1294
  C  C554  1  0.834370  0.310800  0.966700  1.0  0.2485
  C  C555  1  0.836520  0.455600  0.060000  1.0  -0.3818
  C  C556  1  0.841200  0.281800  0.927300  1.0  -0.4008
  C  C557  1  0.706790  0.774200  0.369230  1.0  -0.1501
  C  C558  1  0.435280  0.919000  0.019600  1.0  0.2418
  C  C559  1  0.681630  0.732100  0.028200  1.0  -0.2359
  C  C560  1  0.720820  0.873900  0.021700  1.0  0.175
  C  C561  1  0.736770  0.817300  0.404860  1.0  0.6537
  C  C562  1  0.666667  0.816500  0.250400  1.0  -0.1848
  C  C563  1  0.645300  0.747500  0.992100  1.0  -0.0255
  C  C564  1  0.545680  0.824000  0.978600  1.0  0.6974
  C  C565  1  0.579740  0.796300  0.969000  1.0  -0.1212
  C  C566  1  0.614630  0.776700  0.001200  1.0  0.2502
  C  C567  1  0.551900  0.829400  0.121500  1.0  0.6379
  C  C568  1  0.432920  0.452700  0.999500  1.0  -0.3083
  C  C569  1  0.458280  0.533700  0.024300  1.0  -0.0868
  C  C570  1  0.701610  0.808600  0.327300  1.0  0.1569
  C  C571  1  0.641340  0.727200  0.949900  1.0  0.0149
  C  C572  1  0.703570  0.826800  0.046300  1.0  -0.0268
  C  C573  1  0.727060  0.957000  0.099000  1.0  0.0115
  C  C574  1  0.650100  0.694600  0.299300  1.0  0.0555
  C  C575  1  0.466670  0.623700  0.009500  1.0  0.2067
  C  C576  1  0.707180  0.867900  0.086200  1.0  -0.0043
  C  C577  1  0.744820  0.001800  0.073700  1.0  -0.0889
  C  C578  1  0.573560  0.867000  0.164100  1.0  -0.1823
  C  C579  1  0.629200  0.863000  0.227400  1.0  0.0604
  C  C580  1  0.672710  0.773300  0.293260  1.0  0.0364
  C  C581  1  0.606800  0.749200  0.916200  1.0  0.0285
  C  C582  1  0.421400  0.950400  0.952000  1.0  0.1829
  C  C583  1  0.690010  0.824200  0.113100  1.0  -0.139
  C  C584  1  0.670100  0.682600  0.937300  1.0  -0.1412
  C  C585  1  0.608130  0.826400  0.188300  1.0  0.2668
  C  C586  1  0.393420  0.483200  0.977400  1.0  -0.0809
  C  C587  1  0.742310  0.961900  0.035900  1.0  -0.1271
  C  C588  1  0.403800  0.976800  0.906800  1.0  -0.3659
  C  C589  1  0.601400  0.730300  0.873800  1.0  -0.1655
  C  C590  1  0.577170  0.785200  0.928100  1.0  -0.1015
  C  C591  1  0.655700  0.658800  0.339800  1.0  0.06
  C  C592  1  0.633200  0.584200  0.347400  1.0  -0.1394
  C  C593  1  0.406760  0.952800  0.984400  1.0  -0.1855
  C  C594  1  0.452400  0.660700  0.964300  1.0  -0.3934
  C  C595  1  0.731100  0.998400  0.138300  1.0  -0.1377
  C  C596  1  0.478100  0.533300  0.066000  1.0  0.1929
  C  C597  1  0.631100  0.689600  0.864900  1.0  -0.1241
  C  C598  1  0.621200  0.652000  0.266000  1.0  -0.151
  C  C599  1  0.693700  0.867900  0.151000  1.0  -0.0901
  C  C600  1  0.683200  0.701700  0.373900  1.0  -0.1193
  C  C601  1  0.664700  0.664400  0.896500  1.0  -0.0934
  C  C602  1  0.599300  0.579600  0.273200  1.0  -0.1054
  C  C603  1  0.434800  0.907000  0.063100  1.0  -0.3954
  C  C604  1  0.579400  0.981100  0.221600  1.0  0.0355
  C  C605  1  0.559500  0.942600  0.180500  1.0  -0.0625
  C  C606  1  0.714200  0.952800  0.164100  1.0  -0.0756
  C  C607  1  0.615100  0.943400  0.243700  1.0  0.0573
  C  C608  1  0.564700  0.060500  0.238600  1.0  -0.092
  C  C609  1  0.481000  0.460400  0.100800  1.0  -0.3534
  C  C610  1  0.604600  0.544600  0.313500  1.0  -0.1027
  C  C611  1  0.634500  0.987600  0.283100  1.0  -0.1414
  C  C612  1  0.618800  0.063700  0.297600  1.0  -0.0944
  C  C613  1  0.584700  0.100400  0.275500  1.0  -0.0817
  C  C614  1  0.369090  0.525000  0.995500  1.0  0.2238
  C  C615  1  0.373310  0.472700  0.936100  1.0  0.1446
  C  C616  1  0.375260  0.554700  0.038600  1.0  -0.3837
  C  C617  1  0.383000  0.430000  0.900400  1.0  -0.3694
  C  C618  1  0.761440  0.013600  0.009000  1.0  0.6536
  C  C619  1  0.367510  0.981000  0.981600  1.0  -0.2482
  C  C620  1  0.346460  0.897400  0.990700  1.0  -0.138
  C  C621  1  0.333180  0.889600  0.023500  1.0  0.1294
  C  C622  1  0.334370  0.810800  0.966700  1.0  0.2485
  C  C623  1  0.336520  0.955600  0.060000  1.0  -0.3818
  C  C624  1  0.341200  0.781800  0.927300  1.0  -0.4008
  C  C625  1  0.206790  0.725800  0.869230  1.0  -0.1499
  C  C626  1  0.935280  0.581000  0.519600  1.0  0.2412
  C  C627  1  0.181630  0.767900  0.528200  1.0  -0.2356
  C  C628  1  0.220820  0.626100  0.521700  1.0  0.175
  C  C629  1  0.236770  0.682700  0.904860  1.0  0.6541
  C  C630  1  0.166670  0.683500  0.750400  1.0  -0.185
  C  C631  1  0.145300  0.752500  0.492100  1.0  -0.0258
  C  C632  1  0.045680  0.676000  0.478600  1.0  0.6973
  C  C633  1  0.079740  0.703700  0.469000  1.0  -0.1214
  C  C634  1  0.114630  0.723300  0.501200  1.0  0.2503
  C  C635  1  0.051900  0.670600  0.621500  1.0  0.638
  C  C636  1  0.932920  0.047300  0.499500  1.0  -0.3081
  C  C637  1  0.958280  0.966300  0.524300  1.0  -0.0868
  C  C638  1  0.201610  0.691400  0.827300  1.0  0.1571
  C  C639  1  0.141340  0.772800  0.449900  1.0  0.0144
  C  C640  1  0.203570  0.673200  0.546300  1.0  -0.0261
  C  C641  1  0.227060  0.543000  0.599000  1.0  0.0106
  C  C642  1  0.150100  0.805400  0.799300  1.0  0.0558
  C  C643  1  0.966670  0.876300  0.509500  1.0  0.2066
  C  C644  1  0.207180  0.632100  0.586200  1.0  -0.0051
  C  C645  1  0.244820  0.498200  0.573700  1.0  -0.0884
  C  C646  1  0.073560  0.633000  0.664100  1.0  -0.1824
  C  C647  1  0.129200  0.637000  0.727400  1.0  0.0601
  C  C648  1  0.172710  0.726700  0.793260  1.0  0.0378
  C  C649  1  0.106800  0.750800  0.416200  1.0  0.0272
  C  C650  1  0.921400  0.549600  0.452000  1.0  0.1832
  C  C651  1  0.190010  0.675800  0.613100  1.0  -0.1401
  C  C652  1  0.170100  0.817400  0.437300  1.0  -0.1409
  C  C653  1  0.108130  0.673600  0.688300  1.0  0.2663
  C  C654  1  0.893420  0.016800  0.477400  1.0  -0.081
  C  C655  1  0.242310  0.538100  0.535900  1.0  -0.1271
  C  C656  1  0.903800  0.523200  0.406800  1.0  -0.3652
  C  C657  1  0.101400  0.769700  0.373800  1.0  -0.1648
  C  C658  1  0.077170  0.714800  0.428100  1.0  -0.1011
  C  C659  1  0.155700  0.841200  0.839800  1.0  0.0603
  C  C660  1  0.133200  0.915800  0.847400  1.0  -0.1391
  C  C661  1  0.906760  0.547200  0.484400  1.0  -0.1863
  C  C662  1  0.952400  0.839300  0.464300  1.0  -0.3924
  C  C663  1  0.231100  0.501600  0.638300  1.0  -0.1379
  C  C664  1  0.978100  0.966700  0.566000  1.0  0.1929
  C  C665  1  0.131100  0.810400  0.364900  1.0  -0.1243
  C  C666  1  0.121200  0.848000  0.766000  1.0  -0.152
  C  C667  1  0.193700  0.632100  0.651000  1.0  -0.0902
  C  C668  1  0.183200  0.798300  0.873900  1.0  -0.1194
  C  C669  1  0.164700  0.835600  0.396500  1.0  -0.0938
  C  C670  1  0.099300  0.920400  0.773200  1.0  -0.106
  C  C671  1  0.934800  0.593000  0.563100  1.0  -0.3955
  C  C672  1  0.079400  0.518900  0.721600  1.0  0.0349
  C  C673  1  0.059500  0.557400  0.680500  1.0  -0.0617
  C  C674  1  0.214200  0.547200  0.664100  1.0  -0.0753
  C  C675  1  0.115100  0.556600  0.743700  1.0  0.0571
  C  C676  1  0.064700  0.439500  0.738600  1.0  -0.0912
  C  C677  1  0.981000  0.039600  0.600800  1.0  -0.3533
  C  C678  1  0.104600  0.955400  0.813500  1.0  -0.1041
  C  C679  1  0.134500  0.512400  0.783100  1.0  -0.1405
  C  C680  1  0.118800  0.436300  0.797600  1.0  -0.0942
  C  C681  1  0.084700  0.399600  0.775500  1.0  -0.0801
  C  C682  1  0.869090  0.975000  0.495500  1.0  0.2236
  C  C683  1  0.873310  0.027300  0.436100  1.0  0.1445
  C  C684  1  0.875260  0.945300  0.538600  1.0  -0.3846
  C  C685  1  0.883000  0.070000  0.400400  1.0  -0.3702
  C  C686  1  0.261440  0.486400  0.509000  1.0  0.6537
  C  C687  1  0.867510  0.519000  0.481600  1.0  -0.2485
  C  C688  1  0.846460  0.602600  0.490700  1.0  -0.1374
  C  C689  1  0.833180  0.610400  0.523500  1.0  0.1292
  C  C690  1  0.834370  0.689200  0.466700  1.0  0.2487
  C  C691  1  0.836520  0.544400  0.560000  1.0  -0.3828
  C  C692  1  0.841200  0.718200  0.427300  1.0  -0.4008
  C  C693  1  0.706790  0.225800  0.869230  1.0  -0.1499
  C  C694  1  0.435280  0.081000  0.519600  1.0  0.2412
  C  C695  1  0.681630  0.267900  0.528200  1.0  -0.2356
  C  C696  1  0.720820  0.126100  0.521700  1.0  0.175
  C  C697  1  0.736770  0.182700  0.904860  1.0  0.6541
  C  C698  1  0.666667  0.183500  0.750400  1.0  -0.1851
  C  C699  1  0.645300  0.252500  0.492100  1.0  -0.0258
  C  C700  1  0.545680  0.176000  0.478600  1.0  0.6973
  C  C701  1  0.579740  0.203700  0.469000  1.0  -0.1214
  C  C702  1  0.614630  0.223300  0.501200  1.0  0.2503
  C  C703  1  0.551900  0.170600  0.621500  1.0  0.638
  C  C704  1  0.432920  0.547300  0.499500  1.0  -0.3081
  C  C705  1  0.458280  0.466300  0.524300  1.0  -0.0868
  C  C706  1  0.701610  0.191400  0.827300  1.0  0.1571
  C  C707  1  0.641340  0.272800  0.449900  1.0  0.0144
  C  C708  1  0.703570  0.173200  0.546300  1.0  -0.0261
  C  C709  1  0.727060  0.043000  0.599000  1.0  0.0106
  C  C710  1  0.650100  0.305400  0.799300  1.0  0.0558
  C  C711  1  0.466670  0.376300  0.509500  1.0  0.2066
  C  C712  1  0.707180  0.132100  0.586200  1.0  -0.0051
  C  C713  1  0.744820  0.998200  0.573700  1.0  -0.0884
  C  C714  1  0.573560  0.133000  0.664100  1.0  -0.1824
  C  C715  1  0.629200  0.137000  0.727400  1.0  0.0601
  C  C716  1  0.672710  0.226700  0.793260  1.0  0.0375
  C  C717  1  0.606800  0.250800  0.416200  1.0  0.0272
  C  C718  1  0.421400  0.049600  0.452000  1.0  0.1832
  C  C719  1  0.690010  0.175800  0.613100  1.0  -0.1401
  C  C720  1  0.670100  0.317400  0.437300  1.0  -0.1409
  C  C721  1  0.608130  0.173600  0.688300  1.0  0.2663
  C  C722  1  0.393420  0.516800  0.477400  1.0  -0.081
  C  C723  1  0.742310  0.038100  0.535900  1.0  -0.1271
  C  C724  1  0.403800  0.023200  0.406800  1.0  -0.3652
  C  C725  1  0.601400  0.269700  0.373800  1.0  -0.1648
  C  C726  1  0.577170  0.214800  0.428100  1.0  -0.1011
  C  C727  1  0.655700  0.341200  0.839800  1.0  0.0603
  C  C728  1  0.633200  0.415800  0.847400  1.0  -0.1391
  C  C729  1  0.406760  0.047200  0.484400  1.0  -0.1863
  C  C730  1  0.452400  0.339300  0.464300  1.0  -0.3924
  C  C731  1  0.731100  0.001600  0.638300  1.0  -0.1379
  C  C732  1  0.478100  0.466700  0.566000  1.0  0.1929
  C  C733  1  0.631100  0.310400  0.364900  1.0  -0.1243
  C  C734  1  0.621200  0.348000  0.766000  1.0  -0.152
  C  C735  1  0.693700  0.132100  0.651000  1.0  -0.0902
  C  C736  1  0.683200  0.298300  0.873900  1.0  -0.1194
  C  C737  1  0.664700  0.335600  0.396500  1.0  -0.0938
  C  C738  1  0.599300  0.420400  0.773200  1.0  -0.106
  C  C739  1  0.434800  0.093000  0.563100  1.0  -0.3955
  C  C740  1  0.579400  0.018900  0.721600  1.0  0.0349
  C  C741  1  0.559500  0.057400  0.680500  1.0  -0.0617
  C  C742  1  0.714200  0.047200  0.664100  1.0  -0.0753
  C  C743  1  0.615100  0.056600  0.743700  1.0  0.0571
  C  C744  1  0.564700  0.939500  0.738600  1.0  -0.0912
  C  C745  1  0.481000  0.539600  0.600800  1.0  -0.3533
  C  C746  1  0.604600  0.455400  0.813500  1.0  -0.1041
  C  C747  1  0.634500  0.012400  0.783100  1.0  -0.1405
  C  C748  1  0.618800  0.936300  0.797600  1.0  -0.0942
  C  C749  1  0.584700  0.899600  0.775500  1.0  -0.0801
  C  C750  1  0.369090  0.475000  0.495500  1.0  0.2236
  C  C751  1  0.373310  0.527300  0.436100  1.0  0.1445
  C  C752  1  0.375260  0.445300  0.538600  1.0  -0.3846
  C  C753  1  0.383000  0.570000  0.400400  1.0  -0.3702
  C  C754  1  0.761440  0.986400  0.509000  1.0  0.6537
  C  C755  1  0.367510  0.019000  0.481600  1.0  -0.2485
  C  C756  1  0.346460  0.102600  0.490700  1.0  -0.1374
  C  C757  1  0.333180  0.110400  0.523500  1.0  0.1292
  C  C758  1  0.334370  0.189200  0.466700  1.0  0.2487
  C  C759  1  0.336520  0.044400  0.560000  1.0  -0.3828
  C  C760  1  0.341200  0.218200  0.427300  1.0  -0.4008
  C  C761  1  0.793210  0.274200  0.130770  1.0  -0.1491
  C  C762  1  0.064720  0.419000  0.480400  1.0  0.2416
  C  C763  1  0.818370  0.232100  0.471800  1.0  -0.2337
  C  C764  1  0.779180  0.373900  0.478300  1.0  0.1743
  C  C765  1  0.763230  0.317300  0.095140  1.0  0.6529
  C  C766  1  0.833330  0.316500  0.249600  1.0  -0.1861
  C  C767  1  0.854700  0.247500  0.507900  1.0  -0.0238
  C  C768  1  0.954320  0.324000  0.521400  1.0  0.697
  C  C769  1  0.920260  0.296300  0.531000  1.0  -0.1213
  C  C770  1  0.885370  0.276700  0.498800  1.0  0.2496
  C  C771  1  0.948100  0.329400  0.378500  1.0  0.6377
  C  C772  1  0.067080  0.952700  0.500500  1.0  -0.3092
  C  C773  1  0.041720  0.033700  0.475700  1.0  -0.0872
  C  C774  1  0.798390  0.308600  0.172700  1.0  0.1554
  C  C775  1  0.858660  0.227200  0.550100  1.0  0.0152
  C  C776  1  0.796430  0.326800  0.453700  1.0  -0.0283
  C  C777  1  0.772940  0.457000  0.401000  1.0  0.0126
  C  C778  1  0.849900  0.194600  0.200700  1.0  0.0573
  C  C779  1  0.033330  0.123700  0.490500  1.0  0.2065
  C  C780  1  0.792820  0.367900  0.413800  1.0  -0.0037
  C  C781  1  0.755180  0.501800  0.426300  1.0  -0.0889
  C  C782  1  0.926440  0.367000  0.335900  1.0  -0.184
  C  C783  1  0.870800  0.363000  0.272600  1.0  0.0595
  C  C784  1  0.827290  0.273300  0.206740  1.0  0.0367
  C  C785  1  0.893200  0.249200  0.583800  1.0  0.0303
  C  C786  1  0.078600  0.450400  0.548000  1.0  0.1837
  C  C787  1  0.809990  0.324200  0.386900  1.0  -0.1413
  C  C788  1  0.829900  0.182600  0.562700  1.0  -0.1428
  C  C789  1  0.891870  0.326400  0.311700  1.0  0.268
  C  C790  1  0.106580  0.983200  0.522600  1.0  -0.0803
  C  C791  1  0.757690  0.461900  0.464100  1.0  -0.1288
  C  C792  1  0.096200  0.476800  0.593200  1.0  -0.366
  C  C793  1  0.898600  0.230300  0.626200  1.0  -0.1671
  C  C794  1  0.922830  0.285200  0.571900  1.0  -0.1025
  C  C795  1  0.844300  0.158800  0.160200  1.0  0.0614
  C  C796  1  0.866800  0.084200  0.152600  1.0  -0.1383
  C  C797  1  0.093240  0.452800  0.515600  1.0  -0.1864
  C  C798  1  0.047600  0.160700  0.535700  1.0  -0.3921
  C  C799  1  0.768900  0.498400  0.361700  1.0  -0.1347
  C  C800  1  0.021900  0.033300  0.434000  1.0  0.1933
  C  C801  1  0.868900  0.189600  0.635100  1.0  -0.1261
  C  C802  1  0.878800  0.152000  0.234000  1.0  -0.1523
  C  C803  1  0.806300  0.367900  0.349000  1.0  -0.0889
  C  C804  1  0.816800  0.201700  0.126100  1.0  -0.1199
  C  C805  1  0.835300  0.164400  0.603500  1.0  -0.0944
  C  C806  1  0.900700  0.079600  0.226800  1.0  -0.1037
  C  C807  1  0.065200  0.407000  0.436900  1.0  -0.3957
  C  C808  1  0.920600  0.481100  0.278400  1.0  0.0337
  C  C809  1  0.940500  0.442600  0.319500  1.0  -0.0595
  C  C810  1  0.785800  0.452800  0.335900  1.0  -0.0718
  C  C811  1  0.884900  0.443400  0.256300  1.0  0.0582
  C  C812  1  0.935300  0.560500  0.261400  1.0  -0.0922
  C  C813  1  0.019000  0.960400  0.399200  1.0  -0.3534
  C  C814  1  0.895400  0.044600  0.186500  1.0  -0.1026
  C  C815  1  0.865500  0.487600  0.216900  1.0  -0.1406
  C  C816  1  0.881200  0.563700  0.202400  1.0  -0.0945
  C  C817  1  0.915300  0.600400  0.224500  1.0  -0.0805
  C  C818  1  0.130910  0.025000  0.504500  1.0  0.2239
  C  C819  1  0.126690  0.972700  0.563900  1.0  0.1439
  C  C820  1  0.124740  0.054700  0.461400  1.0  -0.3827
  C  C821  1  0.117000  0.930000  0.599600  1.0  -0.3701
  C  C822  1  0.738560  0.513600  0.491000  1.0  0.6531
  C  C823  1  0.132490  0.481000  0.518400  1.0  -0.248
  C  C824  1  0.153540  0.397400  0.509300  1.0  -0.1382
  C  C825  1  0.166820  0.389600  0.476500  1.0  0.1289
  C  C826  1  0.165630  0.310800  0.533300  1.0  0.2489
  C  C827  1  0.163480  0.455600  0.440000  1.0  -0.3816
  C  C828  1  0.158800  0.281800  0.572700  1.0  -0.4006
  C  C829  1  0.293210  0.774200  0.130770  1.0  -0.1491
  C  C830  1  0.564720  0.919000  0.480400  1.0  0.2416
  C  C831  1  0.318370  0.732100  0.471800  1.0  -0.2337
  C  C832  1  0.279180  0.873900  0.478300  1.0  0.1743
  C  C833  1  0.263230  0.817300  0.095140  1.0  0.6529
  C  C834  1  0.333333  0.816500  0.249600  1.0  -0.1861
  C  C835  1  0.354700  0.747500  0.507900  1.0  -0.0238
  C  C836  1  0.454320  0.824000  0.521400  1.0  0.697
  C  C837  1  0.420260  0.796300  0.531000  1.0  -0.1213
  C  C838  1  0.385370  0.776700  0.498800  1.0  0.2496
  C  C839  1  0.448100  0.829400  0.378500  1.0  0.6377
  C  C840  1  0.567080  0.452700  0.500500  1.0  -0.3092
  C  C841  1  0.541720  0.533700  0.475700  1.0  -0.0872
  C  C842  1  0.298390  0.808600  0.172700  1.0  0.1554
  C  C843  1  0.358660  0.727200  0.550100  1.0  0.0152
  C  C844  1  0.296430  0.826800  0.453700  1.0  -0.0283
  C  C845  1  0.272940  0.957000  0.401000  1.0  0.0126
  C  C846  1  0.349900  0.694600  0.200700  1.0  0.0573
  C  C847  1  0.533330  0.623700  0.490500  1.0  0.2065
  C  C848  1  0.292820  0.867900  0.413800  1.0  -0.0037
  C  C849  1  0.255180  0.001800  0.426300  1.0  -0.0889
  C  C850  1  0.426440  0.867000  0.335900  1.0  -0.184
  C  C851  1  0.370800  0.863000  0.272600  1.0  0.0596
  C  C852  1  0.327290  0.773300  0.206740  1.0  0.0363
  C  C853  1  0.393200  0.749200  0.583800  1.0  0.0303
  C  C854  1  0.578600  0.950400  0.548000  1.0  0.1837
  C  C855  1  0.309990  0.824200  0.386900  1.0  -0.1413
  C  C856  1  0.329900  0.682600  0.562700  1.0  -0.1428
  C  C857  1  0.391870  0.826400  0.311700  1.0  0.268
  C  C858  1  0.606580  0.483200  0.522600  1.0  -0.0803
  C  C859  1  0.257690  0.961900  0.464100  1.0  -0.1288
  C  C860  1  0.596200  0.976800  0.593200  1.0  -0.366
  C  C861  1  0.398600  0.730300  0.626200  1.0  -0.1671
  C  C862  1  0.422830  0.785200  0.571900  1.0  -0.1025
  C  C863  1  0.344300  0.658800  0.160200  1.0  0.0614
  C  C864  1  0.366800  0.584200  0.152600  1.0  -0.1383
  C  C865  1  0.593240  0.952800  0.515600  1.0  -0.1864
  C  C866  1  0.547600  0.660700  0.535700  1.0  -0.3921
  C  C867  1  0.268900  0.998400  0.361700  1.0  -0.1347
  C  C868  1  0.521900  0.533300  0.434000  1.0  0.1933
  C  C869  1  0.368900  0.689600  0.635100  1.0  -0.1261
  C  C870  1  0.378800  0.652000  0.234000  1.0  -0.1523
  C  C871  1  0.306300  0.867900  0.349000  1.0  -0.0889
  C  C872  1  0.316800  0.701700  0.126100  1.0  -0.1199
  C  C873  1  0.335300  0.664400  0.603500  1.0  -0.0944
  C  C874  1  0.400700  0.579600  0.226800  1.0  -0.1037
  C  C875  1  0.565200  0.907000  0.436900  1.0  -0.3957
  C  C876  1  0.420600  0.981100  0.278400  1.0  0.0337
  C  C877  1  0.440500  0.942600  0.319500  1.0  -0.0595
  C  C878  1  0.285800  0.952800  0.335900  1.0  -0.0718
  C  C879  1  0.384900  0.943400  0.256300  1.0  0.0582
  C  C880  1  0.435300  0.060500  0.261400  1.0  -0.0922
  C  C881  1  0.519000  0.460400  0.399200  1.0  -0.3534
  C  C882  1  0.395400  0.544600  0.186500  1.0  -0.1026
  C  C883  1  0.365500  0.987600  0.216900  1.0  -0.1406
  C  C884  1  0.381200  0.063700  0.202400  1.0  -0.0945
  C  C885  1  0.415300  0.100400  0.224500  1.0  -0.0805
  C  C886  1  0.630910  0.525000  0.504500  1.0  0.2239
  C  C887  1  0.626690  0.472700  0.563900  1.0  0.1439
  C  C888  1  0.624740  0.554700  0.461400  1.0  -0.3827
  C  C889  1  0.617000  0.430000  0.599600  1.0  -0.3701
  C  C890  1  0.238560  0.013600  0.491000  1.0  0.6531
  C  C891  1  0.632490  0.981000  0.518400  1.0  -0.248
  C  C892  1  0.653540  0.897400  0.509300  1.0  -0.1382
  C  C893  1  0.666820  0.889600  0.476500  1.0  0.1289
  C  C894  1  0.665630  0.810800  0.533300  1.0  0.2489
  C  C895  1  0.663480  0.955600  0.440000  1.0  -0.3816
  C  C896  1  0.658800  0.781800  0.572700  1.0  -0.4006
  C  C897  1  0.793210  0.725800  0.630770  1.0  -0.1492
  C  C898  1  0.064720  0.581000  0.980400  1.0  0.2416
  C  C899  1  0.818370  0.767900  0.971800  1.0  -0.2328
  C  C900  1  0.779180  0.626100  0.978300  1.0  0.1742
  C  C901  1  0.763230  0.682700  0.595140  1.0  0.653
  C  C902  1  0.833330  0.683500  0.749600  1.0  -0.186
  C  C903  1  0.854700  0.752500  0.007900  1.0  -0.024
  C  C904  1  0.954320  0.676000  0.021400  1.0  0.6966
  C  C905  1  0.920260  0.703700  0.031000  1.0  -0.1208
  C  C906  1  0.885370  0.723300  0.998800  1.0  0.2497
  C  C907  1  0.948100  0.670600  0.878500  1.0  0.6376
  C  C908  1  0.067080  0.047300  0.000500  1.0  -0.3088
  C  C909  1  0.041720  0.966300  0.975700  1.0  -0.0868
  C  C910  1  0.798390  0.691400  0.672700  1.0  0.156
  C  C911  1  0.858660  0.772800  0.050100  1.0  0.0156
  C  C912  1  0.796430  0.673200  0.953700  1.0  -0.0276
  C  C913  1  0.772940  0.543000  0.901000  1.0  0.0125
  C  C914  1  0.849900  0.805400  0.700700  1.0  0.0579
  C  C915  1  0.033330  0.876300  0.990500  1.0  0.2064
  C  C916  1  0.792820  0.632100  0.913800  1.0  -0.0036
  C  C917  1  0.755180  0.498200  0.926300  1.0  -0.089
  C  C918  1  0.926440  0.633000  0.835900  1.0  -0.1841
  C  C919  1  0.870800  0.637000  0.772600  1.0  0.0593
  C  C920  1  0.827290  0.726700  0.706740  1.0  0.0376
  C  C921  1  0.893200  0.750800  0.083800  1.0  0.031
  C  C922  1  0.078600  0.549600  0.048000  1.0  0.1839
  C  C923  1  0.809990  0.675800  0.886900  1.0  -0.1416
  C  C924  1  0.829900  0.817400  0.062700  1.0  -0.1423
  C  C925  1  0.891870  0.673600  0.811700  1.0  0.2676
  C  C926  1  0.106580  0.016800  0.022600  1.0  -0.0804
  C  C927  1  0.757690  0.538100  0.964100  1.0  -0.1291
  C  C928  1  0.096200  0.523200  0.093200  1.0  -0.3661
  C  C929  1  0.898600  0.769700  0.126200  1.0  -0.1662
  C  C930  1  0.922830  0.714800  0.071900  1.0  -0.102
  C  C931  1  0.844300  0.841200  0.660200  1.0  0.0617
  C  C932  1  0.866800  0.915800  0.652600  1.0  -0.1386
  C  C933  1  0.093240  0.547200  0.015600  1.0  -0.1871
  C  C934  1  0.047600  0.839300  0.035700  1.0  -0.3922
  C  C935  1  0.768900  0.501600  0.861700  1.0  -0.1354
  C  C936  1  0.021900  0.966700  0.934000  1.0  0.1938
  C  C937  1  0.868900  0.810400  0.135100  1.0  -0.126
  C  C938  1  0.878800  0.848000  0.734000  1.0  -0.1519
  C  C939  1  0.806300  0.632100  0.849000  1.0  -0.0903
  C  C940  1  0.816800  0.798300  0.626100  1.0  -0.1201
  C  C941  1  0.835300  0.835600  0.103500  1.0  -0.0941
  C  C942  1  0.900700  0.920400  0.726800  1.0  -0.1029
  C  C943  1  0.065200  0.593000  0.936900  1.0  -0.3966
  C  C944  1  0.920600  0.518900  0.778400  1.0  0.0332
  C  C945  1  0.940500  0.557400  0.819500  1.0  -0.0595
  C  C946  1  0.785800  0.547200  0.835900  1.0  -0.0708
  C  C947  1  0.884900  0.556600  0.756300  1.0  0.0581
  C  C948  1  0.935300  0.439500  0.761400  1.0  -0.0927
  C  C949  1  0.019000  0.039600  0.899200  1.0  -0.3537
  C  C950  1  0.895400  0.955400  0.686500  1.0  -0.1028
  C  C951  1  0.865500  0.512400  0.716900  1.0  -0.1399
  C  C952  1  0.881200  0.436300  0.702400  1.0  -0.0939
  C  C953  1  0.915300  0.399600  0.724500  1.0  -0.0791
  C  C954  1  0.130910  0.975000  0.004500  1.0  0.2238
  C  C955  1  0.126690  0.027300  0.063900  1.0  0.1444
  C  C956  1  0.124740  0.945300  0.961400  1.0  -0.3824
  C  C957  1  0.117000  0.070000  0.099600  1.0  -0.3689
  C  C958  1  0.738560  0.486400  0.991000  1.0  0.653
  C  C959  1  0.132490  0.519000  0.018400  1.0  -0.2483
  C  C960  1  0.153540  0.602600  0.009300  1.0  -0.1376
  C  C961  1  0.166820  0.610400  0.976500  1.0  0.129
  C  C962  1  0.165630  0.689200  0.033300  1.0  0.249
  C  C963  1  0.163480  0.544400  0.940000  1.0  -0.3816
  C  C964  1  0.158800  0.718200  0.072700  1.0  -0.4002
  C  C965  1  0.293210  0.225800  0.630770  1.0  -0.1492
  C  C966  1  0.564720  0.081000  0.980400  1.0  0.2416
  C  C967  1  0.318370  0.267900  0.971800  1.0  -0.2328
  C  C968  1  0.279180  0.126100  0.978300  1.0  0.1742
  C  C969  1  0.263230  0.182700  0.595140  1.0  0.653
  C  C970  1  0.333333  0.183500  0.749600  1.0  -0.186
  C  C971  1  0.354700  0.252500  0.007900  1.0  -0.024
  C  C972  1  0.454320  0.176000  0.021400  1.0  0.6966
  C  C973  1  0.420260  0.203700  0.031000  1.0  -0.1208
  C  C974  1  0.385370  0.223300  0.998800  1.0  0.2497
  C  C975  1  0.448100  0.170600  0.878500  1.0  0.6376
  C  C976  1  0.567080  0.547300  0.000500  1.0  -0.3088
  C  C977  1  0.541720  0.466300  0.975700  1.0  -0.0868
  C  C978  1  0.298390  0.191400  0.672700  1.0  0.156
  C  C979  1  0.358660  0.272800  0.050100  1.0  0.0156
  C  C980  1  0.296430  0.173200  0.953700  1.0  -0.0276
  C  C981  1  0.272940  0.043000  0.901000  1.0  0.0125
  C  C982  1  0.349900  0.305400  0.700700  1.0  0.0579
  C  C983  1  0.533330  0.376300  0.990500  1.0  0.2064
  C  C984  1  0.292820  0.132100  0.913800  1.0  -0.0036
  C  C985  1  0.255180  0.998200  0.926300  1.0  -0.089
  C  C986  1  0.426440  0.133000  0.835900  1.0  -0.1841
  C  C987  1  0.370800  0.137000  0.772600  1.0  0.0593
  C  C988  1  0.327290  0.226700  0.706740  1.0  0.0373
  C  C989  1  0.393200  0.250800  0.083800  1.0  0.031
  C  C990  1  0.578600  0.049600  0.048000  1.0  0.1839
  C  C991  1  0.309990  0.175800  0.886900  1.0  -0.1416
  C  C992  1  0.329900  0.317400  0.062700  1.0  -0.1423
  C  C993  1  0.391870  0.173600  0.811700  1.0  0.2676
  C  C994  1  0.606580  0.516800  0.022600  1.0  -0.0804
  C  C995  1  0.257690  0.038100  0.964100  1.0  -0.1291
  C  C996  1  0.596200  0.023200  0.093200  1.0  -0.3661
  C  C997  1  0.398600  0.269700  0.126200  1.0  -0.1662
  C  C998  1  0.422830  0.214800  0.071900  1.0  -0.102
  C  C999  1  0.344300  0.341200  0.660200  1.0  0.0617
  C  C1000  1  0.366800  0.415800  0.652600  1.0  -0.1386
  C  C1001  1  0.593240  0.047200  0.015600  1.0  -0.1871
  C  C1002  1  0.547600  0.339300  0.035700  1.0  -0.3922
  C  C1003  1  0.268900  0.001600  0.861700  1.0  -0.1354
  C  C1004  1  0.521900  0.466700  0.934000  1.0  0.1938
  C  C1005  1  0.368900  0.310400  0.135100  1.0  -0.126
  C  C1006  1  0.378800  0.348000  0.734000  1.0  -0.1519
  C  C1007  1  0.306300  0.132100  0.849000  1.0  -0.0903
  C  C1008  1  0.316800  0.298300  0.626100  1.0  -0.1201
  C  C1009  1  0.335300  0.335600  0.103500  1.0  -0.0941
  C  C1010  1  0.400700  0.420400  0.726800  1.0  -0.1029
  C  C1011  1  0.565200  0.093000  0.936900  1.0  -0.3966
  C  C1012  1  0.420600  0.018900  0.778400  1.0  0.0332
  C  C1013  1  0.440500  0.057400  0.819500  1.0  -0.0595
  C  C1014  1  0.285800  0.047200  0.835900  1.0  -0.0708
  C  C1015  1  0.384900  0.056600  0.756300  1.0  0.0581
  C  C1016  1  0.435300  0.939500  0.761400  1.0  -0.0927
  C  C1017  1  0.519000  0.539600  0.899200  1.0  -0.3537
  C  C1018  1  0.395400  0.455400  0.686500  1.0  -0.1028
  C  C1019  1  0.365500  0.012400  0.716900  1.0  -0.1399
  C  C1020  1  0.381200  0.936300  0.702400  1.0  -0.0939
  C  C1021  1  0.415300  0.899600  0.724500  1.0  -0.0791
  C  C1022  1  0.630910  0.475000  0.004500  1.0  0.2238
  C  C1023  1  0.626690  0.527300  0.063900  1.0  0.1444
  C  C1024  1  0.624740  0.445300  0.961400  1.0  -0.3824
  C  C1025  1  0.617000  0.570000  0.099600  1.0  -0.3689
  C  C1026  1  0.238560  0.986400  0.991000  1.0  0.653
  C  C1027  1  0.632490  0.019000  0.018400  1.0  -0.2483
  C  C1028  1  0.653540  0.102600  0.009300  1.0  -0.1376
  C  C1029  1  0.666820  0.110400  0.976500  1.0  0.129
  C  C1030  1  0.665630  0.189200  0.033300  1.0  0.249
  C  C1031  1  0.663480  0.044400  0.940000  1.0  -0.3816
  C  C1032  1  0.658800  0.218200  0.072700  1.0  -0.4002
  N  N1033  1  0.956000  0.419400  0.968680  1.0  -0.0899
  N  N1034  1  0.965710  0.398300  0.009860  1.0  -0.3153
  N  N1035  1  0.989700  0.176800  0.040490  1.0  -0.3145
  N  N1036  1  0.996610  0.118400  0.074300  1.0  -0.1035
  N  N1037  1  0.838490  0.007500  0.929720  1.0  -0.1389
  N  N1038  1  0.835000  0.040100  0.966070  1.0  -0.2602
  N  N1039  1  0.814830  0.300800  0.018550  1.0  -0.1049
  N  N1040  1  0.815310  0.252200  0.984280  1.0  -0.2803
  N  N1041  1  0.456000  0.919400  0.968680  1.0  -0.0899
  N  N1042  1  0.465710  0.898300  0.009860  1.0  -0.3153
  N  N1043  1  0.489700  0.676800  0.040490  1.0  -0.3145
  N  N1044  1  0.496610  0.618400  0.074300  1.0  -0.1035
  N  N1045  1  0.338490  0.507500  0.929720  1.0  -0.1389
  N  N1046  1  0.335000  0.540100  0.966070  1.0  -0.2602
  N  N1047  1  0.314830  0.800800  0.018550  1.0  -0.1049
  N  N1048  1  0.315310  0.752200  0.984280  1.0  -0.2803
  N  N1049  1  0.956000  0.580600  0.468680  1.0  -0.0904
  N  N1050  1  0.965710  0.601700  0.509860  1.0  -0.3147
  N  N1051  1  0.989700  0.823200  0.540490  1.0  -0.3134
  N  N1052  1  0.996610  0.881600  0.574300  1.0  -0.103
  N  N1053  1  0.838490  0.992500  0.429720  1.0  -0.1388
  N  N1054  1  0.835000  0.959900  0.466070  1.0  -0.2607
  N  N1055  1  0.814830  0.699200  0.518550  1.0  -0.1051
  N  N1056  1  0.815310  0.747800  0.484280  1.0  -0.2803
  N  N1057  1  0.456000  0.080600  0.468680  1.0  -0.0904
  N  N1058  1  0.465710  0.101700  0.509860  1.0  -0.3147
  N  N1059  1  0.489700  0.323200  0.540490  1.0  -0.3134
  N  N1060  1  0.496610  0.381600  0.574300  1.0  -0.103
  N  N1061  1  0.338490  0.492500  0.429720  1.0  -0.1388
  N  N1062  1  0.335000  0.459900  0.466070  1.0  -0.2607
  N  N1063  1  0.314830  0.199200  0.518550  1.0  -0.1051
  N  N1064  1  0.315310  0.247800  0.484280  1.0  -0.2803
  N  N1065  1  0.044000  0.419400  0.531320  1.0  -0.0896
  N  N1066  1  0.034290  0.398300  0.490140  1.0  -0.3164
  N  N1067  1  0.010300  0.176800  0.459510  1.0  -0.3142
  N  N1068  1  0.003390  0.118400  0.425700  1.0  -0.1004
  N  N1069  1  0.161510  0.007500  0.570280  1.0  -0.1393
  N  N1070  1  0.165000  0.040100  0.533930  1.0  -0.2597
  N  N1071  1  0.185170  0.300800  0.481450  1.0  -0.1051
  N  N1072  1  0.184690  0.252200  0.515720  1.0  -0.2798
  N  N1073  1  0.544000  0.919400  0.531320  1.0  -0.0896
  N  N1074  1  0.534290  0.898300  0.490140  1.0  -0.3164
  N  N1075  1  0.510300  0.676800  0.459510  1.0  -0.3142
  N  N1076  1  0.503390  0.618400  0.425700  1.0  -0.1004
  N  N1077  1  0.661510  0.507500  0.570280  1.0  -0.1393
  N  N1078  1  0.665000  0.540100  0.533930  1.0  -0.2597
  N  N1079  1  0.685170  0.800800  0.481450  1.0  -0.1051
  N  N1080  1  0.684690  0.752200  0.515720  1.0  -0.2798
  N  N1081  1  0.044000  0.580600  0.031320  1.0  -0.0899
  N  N1082  1  0.034290  0.601700  0.990140  1.0  -0.3154
  N  N1083  1  0.010300  0.823200  0.959510  1.0  -0.3125
  N  N1084  1  0.003390  0.881600  0.925700  1.0  -0.1001
  N  N1085  1  0.161510  0.992500  0.070280  1.0  -0.1387
  N  N1086  1  0.165000  0.959900  0.033930  1.0  -0.2595
  N  N1087  1  0.185170  0.699200  0.981450  1.0  -0.1047
  N  N1088  1  0.184690  0.747800  0.015720  1.0  -0.2804
  N  N1089  1  0.544000  0.080600  0.031320  1.0  -0.0899
  N  N1090  1  0.534290  0.101700  0.990140  1.0  -0.3154
  N  N1091  1  0.510300  0.323200  0.959510  1.0  -0.3125
  N  N1092  1  0.503390  0.381600  0.925700  1.0  -0.1001
  N  N1093  1  0.661510  0.492500  0.070280  1.0  -0.1387
  N  N1094  1  0.665000  0.459900  0.033930  1.0  -0.2595
  N  N1095  1  0.685170  0.199200  0.981450  1.0  -0.1047
  N  N1096  1  0.684690  0.247800  0.015720  1.0  -0.2804
  O  O1097  1  0.262130  0.368900  0.400310  1.0  -0.6029
  O  O1098  1  0.218290  0.335700  0.984240  1.0  -0.5542
  O  O1099  1  0.118500  0.285900  0.041940  1.0  -0.524
  O  O1100  1  0.223920  0.380500  0.320960  1.0  -0.521
  O  O1101  1  0.024230  0.376100  0.098890  1.0  -0.5901
  O  O1102  1  0.048670  0.321500  0.017380  1.0  -0.6634
  O  O1103  1  0.016320  0.345300  0.949950  1.0  -0.5852
  O  O1104  1  0.063440  0.258300  0.107290  1.0  -0.6218
  O  O1105  1  0.237390  0.298200  0.441700  1.0  -0.6096
  O  O1106  1  0.121980  0.247300  0.172590  1.0  -0.5315
  O  O1107  1  0.281460  0.589100  0.023580  1.0  -0.5461
  O  O1108  1  0.257260  0.479300  0.973300  1.0  -0.5678
  O  O1109  1  0.762130  0.868900  0.400310  1.0  -0.6029
  O  O1110  1  0.718290  0.835700  0.984240  1.0  -0.5542
  O  O1111  1  0.618500  0.785900  0.041940  1.0  -0.524
  O  O1112  1  0.723920  0.880500  0.320960  1.0  -0.521
  O  O1113  1  0.524230  0.876100  0.098890  1.0  -0.5901
  O  O1114  1  0.548670  0.821500  0.017380  1.0  -0.6634
  O  O1115  1  0.516320  0.845300  0.949950  1.0  -0.5852
  O  O1116  1  0.563440  0.758300  0.107290  1.0  -0.6218
  O  O1117  1  0.737390  0.798200  0.441700  1.0  -0.6096
  O  O1118  1  0.621980  0.747300  0.172590  1.0  -0.5315
  O  O1119  1  0.781460  0.089100  0.023580  1.0  -0.5461
  O  O1120  1  0.757260  0.979300  0.973300  1.0  -0.5678
  O  O1121  1  0.262130  0.631100  0.900310  1.0  -0.6044
  O  O1122  1  0.218290  0.664300  0.484240  1.0  -0.5543
  O  O1123  1  0.118500  0.714100  0.541940  1.0  -0.5242
  O  O1124  1  0.223920  0.619500  0.820960  1.0  -0.521
  O  O1125  1  0.024230  0.623900  0.598890  1.0  -0.5896
  O  O1126  1  0.048670  0.678500  0.517380  1.0  -0.6635
  O  O1127  1  0.016320  0.654700  0.449950  1.0  -0.5854
  O  O1128  1  0.063440  0.741700  0.607290  1.0  -0.6236
  O  O1129  1  0.237390  0.701800  0.941700  1.0  -0.6092
  O  O1130  1  0.121980  0.752700  0.672590  1.0  -0.5324
  O  O1131  1  0.281460  0.410900  0.523580  1.0  -0.5456
  O  O1132  1  0.257260  0.520700  0.473300  1.0  -0.5669
  O  O1133  1  0.762130  0.131100  0.900310  1.0  -0.6044
  O  O1134  1  0.718290  0.164300  0.484240  1.0  -0.5543
  O  O1135  1  0.618500  0.214100  0.541940  1.0  -0.5242
  O  O1136  1  0.723920  0.119500  0.820960  1.0  -0.521
  O  O1137  1  0.524230  0.123900  0.598890  1.0  -0.5896
  O  O1138  1  0.548670  0.178500  0.517380  1.0  -0.6635
  O  O1139  1  0.516320  0.154700  0.449950  1.0  -0.5854
  O  O1140  1  0.563440  0.241700  0.607290  1.0  -0.6236
  O  O1141  1  0.737390  0.201800  0.941700  1.0  -0.6092
  O  O1142  1  0.621980  0.252700  0.672590  1.0  -0.5324
  O  O1143  1  0.781460  0.910900  0.523580  1.0  -0.5456
  O  O1144  1  0.757260  0.020700  0.473300  1.0  -0.5669
  O  O1145  1  0.737870  0.368900  0.099690  1.0  -0.6024
  O  O1146  1  0.781710  0.335700  0.515760  1.0  -0.5536
  O  O1147  1  0.881500  0.285900  0.458060  1.0  -0.5236
  O  O1148  1  0.776080  0.380500  0.179040  1.0  -0.5211
  O  O1149  1  0.975770  0.376100  0.401110  1.0  -0.5894
  O  O1150  1  0.951330  0.321500  0.482620  1.0  -0.663
  O  O1151  1  0.983680  0.345300  0.550050  1.0  -0.5848
  O  O1152  1  0.936560  0.258300  0.392710  1.0  -0.6225
  O  O1153  1  0.762610  0.298200  0.058300  1.0  -0.6087
  O  O1154  1  0.878020  0.247300  0.327410  1.0  -0.536
  O  O1155  1  0.718540  0.589100  0.476420  1.0  -0.5458
  O  O1156  1  0.742740  0.479300  0.526700  1.0  -0.5701
  O  O1157  1  0.237870  0.868900  0.099690  1.0  -0.6024
  O  O1158  1  0.281710  0.835700  0.515760  1.0  -0.5536
  O  O1159  1  0.381500  0.785900  0.458060  1.0  -0.5236
  O  O1160  1  0.276080  0.880500  0.179040  1.0  -0.5211
  O  O1161  1  0.475770  0.876100  0.401110  1.0  -0.5894
  O  O1162  1  0.451330  0.821500  0.482620  1.0  -0.663
  O  O1163  1  0.483680  0.845300  0.550050  1.0  -0.5848
  O  O1164  1  0.436560  0.758300  0.392710  1.0  -0.6225
  O  O1165  1  0.262610  0.798200  0.058300  1.0  -0.6087
  O  O1166  1  0.378020  0.747300  0.327410  1.0  -0.536
  O  O1167  1  0.218540  0.089100  0.476420  1.0  -0.5458
  O  O1168  1  0.242740  0.979300  0.526700  1.0  -0.5701
  O  O1169  1  0.737870  0.631100  0.599690  1.0  -0.6049
  O  O1170  1  0.781710  0.664300  0.015760  1.0  -0.5537
  O  O1171  1  0.881500  0.714100  0.958060  1.0  -0.5237
  O  O1172  1  0.776080  0.619500  0.679040  1.0  -0.5207
  O  O1173  1  0.975770  0.623900  0.901110  1.0  -0.5897
  O  O1174  1  0.951330  0.678500  0.982620  1.0  -0.6632
  O  O1175  1  0.983680  0.654700  0.050050  1.0  -0.585
  O  O1176  1  0.936560  0.741700  0.892710  1.0  -0.6236
  O  O1177  1  0.762610  0.701800  0.558300  1.0  -0.6085
  O  O1178  1  0.878020  0.752700  0.827410  1.0  -0.5354
  O  O1179  1  0.718540  0.410900  0.976420  1.0  -0.5457
  O  O1180  1  0.742740  0.520700  0.026700  1.0  -0.5693
  O  O1181  1  0.237870  0.131100  0.599690  1.0  -0.6049
  O  O1182  1  0.281710  0.164300  0.015760  1.0  -0.5537
  O  O1183  1  0.381500  0.214100  0.958060  1.0  -0.5237
  O  O1184  1  0.276080  0.119500  0.679040  1.0  -0.5207
  O  O1185  1  0.475770  0.123900  0.901110  1.0  -0.5897
  O  O1186  1  0.451330  0.178500  0.982620  1.0  -0.6632
  O  O1187  1  0.483680  0.154700  0.050050  1.0  -0.585
  O  O1188  1  0.436560  0.241700  0.892710  1.0  -0.6236
  O  O1189  1  0.262610  0.201800  0.558300  1.0  -0.6085
  O  O1190  1  0.378020  0.252700  0.827410  1.0  -0.5354
  O  O1191  1  0.218540  0.910900  0.976420  1.0  -0.5457
  O  O1192  1  0.242740  0.020700  0.026700  1.0  -0.5693
