# generated using pymatgen
data_AgH12C28(S3N2)2
_symmetry_space_group_name_H-M   'P 1'
_cell_length_a   12.77310000
_cell_length_b   29.87200000
_cell_length_c   33.79200000
_cell_angle_alpha   90.00000000
_cell_angle_beta   90.00000000
_cell_angle_gamma   90.00000000
_symmetry_Int_Tables_number   1
_chemical_formula_structural   AgH12C28(S3N2)2
_chemical_formula_sum   'Ag16 H192 C448 S96 N64'
_cell_volume   12893.60939581
_cell_formula_units_Z   16
loop_
 _symmetry_equiv_pos_site_id
 _symmetry_equiv_pos_as_xyz
  1  'x, y, z'
loop_
 _atom_site_type_symbol
 _atom_site_label
 _atom_site_symmetry_multiplicity
 _atom_site_fract_x
 _atom_site_fract_y
 _atom_site_fract_z
 _atom_site_occupancy
 _atom_site_charge
  Ag  Ag1  1  0.125000  0.125000  0.125000  1.0  0.4339
  Ag  Ag2  1  0.125000  0.625000  0.625000  1.0  0.4339
  Ag  Ag3  1  0.625000  0.625000  0.125000  1.0  0.4339
  Ag  Ag4  1  0.625000  0.125000  0.625000  1.0  0.4339
  Ag  Ag5  1  0.875000  0.375000  0.875000  1.0  0.449
  Ag  Ag6  1  0.875000  0.875000  0.375000  1.0  0.449
  Ag  Ag7  1  0.375000  0.375000  0.375000  1.0  0.449
  Ag  Ag8  1  0.375000  0.875000  0.875000  1.0  0.449
  Ag  Ag9  1  0.875000  0.875000  0.875000  1.0  0.4339
  Ag  Ag10  1  0.875000  0.375000  0.375000  1.0  0.4339
  Ag  Ag11  1  0.375000  0.375000  0.875000  1.0  0.4339
  Ag  Ag12  1  0.375000  0.875000  0.375000  1.0  0.4339
  Ag  Ag13  1  0.125000  0.625000  0.125000  1.0  0.449
  Ag  Ag14  1  0.125000  0.125000  0.625000  1.0  0.449
  Ag  Ag15  1  0.625000  0.625000  0.625000  1.0  0.449
  Ag  Ag16  1  0.625000  0.125000  0.125000  1.0  0.449
  H  H17  1  0.841900  0.270800  0.117100  1.0  0.0999
  H  H18  1  0.679400  0.298900  0.087400  1.0  0.0969
  H  H19  1  0.590600  0.201400  0.983200  1.0  0.1072
  H  H20  1  0.428600  0.229800  0.952500  1.0  0.1045
  H  H21  1  0.294000  0.343100  0.035300  1.0  0.0994
  H  H22  1  0.128200  0.367900  0.006400  1.0  0.0961
  H  H23  1  0.841900  0.770800  0.617100  1.0  0.0999
  H  H24  1  0.679400  0.798900  0.587400  1.0  0.0969
  H  H25  1  0.590600  0.701400  0.483200  1.0  0.1072
  H  H26  1  0.428600  0.729800  0.452500  1.0  0.1045
  H  H27  1  0.294000  0.843100  0.535300  1.0  0.0994
  H  H28  1  0.128200  0.867900  0.506400  1.0  0.0961
  H  H29  1  0.341900  0.270800  0.617100  1.0  0.0999
  H  H30  1  0.179400  0.298900  0.587400  1.0  0.0969
  H  H31  1  0.090600  0.201400  0.483200  1.0  0.1072
  H  H32  1  0.928600  0.229800  0.452500  1.0  0.1045
  H  H33  1  0.794000  0.343100  0.535300  1.0  0.0994
  H  H34  1  0.628200  0.367900  0.506400  1.0  0.0961
  H  H35  1  0.341900  0.770800  0.117100  1.0  0.0999
  H  H36  1  0.179400  0.798900  0.087400  1.0  0.0969
  H  H37  1  0.090600  0.701400  0.983200  1.0  0.1072
  H  H38  1  0.928600  0.729800  0.952500  1.0  0.1045
  H  H39  1  0.794000  0.843100  0.035300  1.0  0.0994
  H  H40  1  0.628200  0.867900  0.006400  1.0  0.0961
  H  H41  1  0.908100  0.479200  0.117100  1.0  0.0998
  H  H42  1  0.070600  0.451100  0.087400  1.0  0.0966
  H  H43  1  0.159400  0.548600  0.983200  1.0  0.1078
  H  H44  1  0.321400  0.520200  0.952500  1.0  0.1044
  H  H45  1  0.456000  0.406900  0.035300  1.0  0.099
  H  H46  1  0.621800  0.382100  0.006400  1.0  0.0963
  H  H47  1  0.908100  0.979200  0.617100  1.0  0.0998
  H  H48  1  0.070600  0.951100  0.587400  1.0  0.0966
  H  H49  1  0.159400  0.048600  0.483200  1.0  0.1078
  H  H50  1  0.321400  0.020200  0.452500  1.0  0.1044
  H  H51  1  0.456000  0.906900  0.535300  1.0  0.099
  H  H52  1  0.621800  0.882100  0.506400  1.0  0.0963
  H  H53  1  0.408100  0.479200  0.617100  1.0  0.0998
  H  H54  1  0.570600  0.451100  0.587400  1.0  0.0966
  H  H55  1  0.659400  0.548600  0.483200  1.0  0.1078
  H  H56  1  0.821400  0.520200  0.452500  1.0  0.1044
  H  H57  1  0.956000  0.406900  0.535300  1.0  0.099
  H  H58  1  0.121800  0.382100  0.506400  1.0  0.0963
  H  H59  1  0.408100  0.979200  0.117100  1.0  0.0998
  H  H60  1  0.570600  0.951100  0.087400  1.0  0.0966
  H  H61  1  0.659400  0.048600  0.983200  1.0  0.1078
  H  H62  1  0.821400  0.020200  0.952500  1.0  0.1044
  H  H63  1  0.956000  0.906900  0.035300  1.0  0.099
  H  H64  1  0.121800  0.882100  0.006400  1.0  0.0963
  H  H65  1  0.908100  0.270800  0.632900  1.0  0.1004
  H  H66  1  0.070600  0.298900  0.662600  1.0  0.097
  H  H67  1  0.159400  0.201400  0.766800  1.0  0.1077
  H  H68  1  0.321400  0.229800  0.797500  1.0  0.1034
  H  H69  1  0.456000  0.343100  0.714700  1.0  0.0998
  H  H70  1  0.621800  0.367900  0.743600  1.0  0.0963
  H  H71  1  0.908100  0.770800  0.132900  1.0  0.1004
  H  H72  1  0.070600  0.798900  0.162600  1.0  0.097
  H  H73  1  0.159400  0.701400  0.266800  1.0  0.1077
  H  H74  1  0.321400  0.729800  0.297500  1.0  0.1034
  H  H75  1  0.456000  0.843100  0.214700  1.0  0.0998
  H  H76  1  0.621800  0.867900  0.243600  1.0  0.0963
  H  H77  1  0.408100  0.270800  0.132900  1.0  0.1004
  H  H78  1  0.570600  0.298900  0.162600  1.0  0.097
  H  H79  1  0.659400  0.201400  0.266800  1.0  0.1077
  H  H80  1  0.821400  0.229800  0.297500  1.0  0.1034
  H  H81  1  0.956000  0.343100  0.214700  1.0  0.0998
  H  H82  1  0.121800  0.367900  0.243600  1.0  0.0963
  H  H83  1  0.408100  0.770800  0.632900  1.0  0.1004
  H  H84  1  0.570600  0.798900  0.662600  1.0  0.097
  H  H85  1  0.659400  0.701400  0.766800  1.0  0.1077
  H  H86  1  0.821400  0.729800  0.797500  1.0  0.1034
  H  H87  1  0.956000  0.843100  0.714700  1.0  0.0998
  H  H88  1  0.121800  0.867900  0.743600  1.0  0.0963
  H  H89  1  0.841900  0.479200  0.632900  1.0  0.0992
  H  H90  1  0.679400  0.451100  0.662600  1.0  0.0962
  H  H91  1  0.590600  0.548600  0.766800  1.0  0.1071
  H  H92  1  0.428600  0.520200  0.797500  1.0  0.1036
  H  H93  1  0.294000  0.406900  0.714700  1.0  0.0997
  H  H94  1  0.128200  0.382100  0.743600  1.0  0.0963
  H  H95  1  0.841900  0.979200  0.132900  1.0  0.0992
  H  H96  1  0.679400  0.951100  0.162600  1.0  0.0962
  H  H97  1  0.590600  0.048600  0.266800  1.0  0.1071
  H  H98  1  0.428600  0.020200  0.297500  1.0  0.1036
  H  H99  1  0.294000  0.906900  0.214700  1.0  0.0997
  H  H100  1  0.128200  0.882100  0.243600  1.0  0.0963
  H  H101  1  0.341900  0.479200  0.132900  1.0  0.0992
  H  H102  1  0.179400  0.451100  0.162600  1.0  0.0962
  H  H103  1  0.090600  0.548600  0.266800  1.0  0.1071
  H  H104  1  0.928600  0.520200  0.297500  1.0  0.1036
  H  H105  1  0.794000  0.406900  0.214700  1.0  0.0997
  H  H106  1  0.628200  0.382100  0.243600  1.0  0.0963
  H  H107  1  0.341900  0.979200  0.632900  1.0  0.0992
  H  H108  1  0.179400  0.951100  0.662600  1.0  0.0962
  H  H109  1  0.090600  0.048600  0.766800  1.0  0.1071
  H  H110  1  0.928600  0.020200  0.797500  1.0  0.1036
  H  H111  1  0.794000  0.906900  0.714700  1.0  0.0997
  H  H112  1  0.628200  0.882100  0.743600  1.0  0.0963
  H  H113  1  0.158100  0.729200  0.882900  1.0  0.0995
  H  H114  1  0.320600  0.701100  0.912600  1.0  0.0964
  H  H115  1  0.409400  0.798600  0.016800  1.0  0.1079
  H  H116  1  0.571400  0.770200  0.047500  1.0  0.1035
  H  H117  1  0.706000  0.656900  0.964700  1.0  0.0995
  H  H118  1  0.871800  0.632100  0.993600  1.0  0.0963
  H  H119  1  0.158100  0.229200  0.382900  1.0  0.0995
  H  H120  1  0.320600  0.201100  0.412600  1.0  0.0964
  H  H121  1  0.409400  0.298600  0.516800  1.0  0.1079
  H  H122  1  0.571400  0.270200  0.547500  1.0  0.1035
  H  H123  1  0.706000  0.156900  0.464700  1.0  0.0995
  H  H124  1  0.871800  0.132100  0.493600  1.0  0.0963
  H  H125  1  0.658100  0.729200  0.382900  1.0  0.0995
  H  H126  1  0.820600  0.701100  0.412600  1.0  0.0964
  H  H127  1  0.909400  0.798600  0.516800  1.0  0.1079
  H  H128  1  0.071400  0.770200  0.547500  1.0  0.1035
  H  H129  1  0.206000  0.656900  0.464700  1.0  0.0995
  H  H130  1  0.371800  0.632100  0.493600  1.0  0.0963
  H  H131  1  0.658100  0.229200  0.882900  1.0  0.0995
  H  H132  1  0.820600  0.201100  0.912600  1.0  0.0964
  H  H133  1  0.909400  0.298600  0.016800  1.0  0.1079
  H  H134  1  0.071400  0.270200  0.047500  1.0  0.1035
  H  H135  1  0.206000  0.156900  0.964700  1.0  0.0995
  H  H136  1  0.371800  0.132100  0.993600  1.0  0.0963
  H  H137  1  0.091900  0.520800  0.882900  1.0  0.1
  H  H138  1  0.929400  0.548900  0.912600  1.0  0.0971
  H  H139  1  0.840600  0.451400  0.016800  1.0  0.1073
  H  H140  1  0.678600  0.479800  0.047500  1.0  0.1036
  H  H141  1  0.544000  0.593100  0.964700  1.0  0.1
  H  H142  1  0.378200  0.617900  0.993600  1.0  0.0966
  H  H143  1  0.091900  0.020800  0.382900  1.0  0.1
  H  H144  1  0.929400  0.048900  0.412600  1.0  0.0971
  H  H145  1  0.840600  0.951400  0.516800  1.0  0.1073
  H  H146  1  0.678600  0.979800  0.547500  1.0  0.1036
  H  H147  1  0.544000  0.093100  0.464700  1.0  0.1
  H  H148  1  0.378200  0.117900  0.493600  1.0  0.0966
  H  H149  1  0.591900  0.520800  0.382900  1.0  0.1
  H  H150  1  0.429400  0.548900  0.412600  1.0  0.0971
  H  H151  1  0.340600  0.451400  0.516800  1.0  0.1073
  H  H152  1  0.178600  0.479800  0.547500  1.0  0.1036
  H  H153  1  0.044000  0.593100  0.464700  1.0  0.1
  H  H154  1  0.878200  0.617900  0.493600  1.0  0.0966
  H  H155  1  0.591900  0.020800  0.882900  1.0  0.1
  H  H156  1  0.429400  0.048900  0.912600  1.0  0.0971
  H  H157  1  0.340600  0.951400  0.016800  1.0  0.1073
  H  H158  1  0.178600  0.979800  0.047500  1.0  0.1036
  H  H159  1  0.044000  0.093100  0.964700  1.0  0.1
  H  H160  1  0.878200  0.117900  0.993600  1.0  0.0966
  H  H161  1  0.091900  0.729200  0.367100  1.0  0.0993
  H  H162  1  0.929400  0.701100  0.337400  1.0  0.0964
  H  H163  1  0.840600  0.798600  0.233200  1.0  0.1072
  H  H164  1  0.678600  0.770200  0.202500  1.0  0.1047
  H  H165  1  0.544000  0.656900  0.285300  1.0  0.0993
  H  H166  1  0.378200  0.632100  0.256400  1.0  0.0964
  H  H167  1  0.091900  0.229200  0.867100  1.0  0.0993
  H  H168  1  0.929400  0.201100  0.837400  1.0  0.0964
  H  H169  1  0.840600  0.298600  0.733200  1.0  0.1072
  H  H170  1  0.678600  0.270200  0.702500  1.0  0.1047
  H  H171  1  0.544000  0.156900  0.785300  1.0  0.0993
  H  H172  1  0.378200  0.132100  0.756400  1.0  0.0964
  H  H173  1  0.591900  0.729200  0.867100  1.0  0.0993
  H  H174  1  0.429400  0.701100  0.837400  1.0  0.0964
  H  H175  1  0.340600  0.798600  0.733200  1.0  0.1072
  H  H176  1  0.178600  0.770200  0.702500  1.0  0.1047
  H  H177  1  0.044000  0.656900  0.785300  1.0  0.0993
  H  H178  1  0.878200  0.632100  0.756400  1.0  0.0964
  H  H179  1  0.591900  0.229200  0.367100  1.0  0.0993
  H  H180  1  0.429400  0.201100  0.337400  1.0  0.0964
  H  H181  1  0.340600  0.298600  0.233200  1.0  0.1072
  H  H182  1  0.178600  0.270200  0.202500  1.0  0.1047
  H  H183  1  0.044000  0.156900  0.285300  1.0  0.0993
  H  H184  1  0.878200  0.132100  0.256400  1.0  0.0964
  H  H185  1  0.158100  0.520800  0.367100  1.0  0.1003
  H  H186  1  0.320600  0.548900  0.337400  1.0  0.0969
  H  H187  1  0.409400  0.451400  0.233200  1.0  0.1076
  H  H188  1  0.571400  0.479800  0.202500  1.0  0.1044
  H  H189  1  0.706000  0.593100  0.285300  1.0  0.099
  H  H190  1  0.871800  0.617900  0.256400  1.0  0.0958
  H  H191  1  0.158100  0.020800  0.867100  1.0  0.1003
  H  H192  1  0.320600  0.048900  0.837400  1.0  0.0969
  H  H193  1  0.409400  0.951400  0.733200  1.0  0.1076
  H  H194  1  0.571400  0.979800  0.702500  1.0  0.1044
  H  H195  1  0.706000  0.093100  0.785300  1.0  0.099
  H  H196  1  0.871800  0.117900  0.756400  1.0  0.0958
  H  H197  1  0.658100  0.520800  0.867100  1.0  0.1003
  H  H198  1  0.820600  0.548900  0.837400  1.0  0.0969
  H  H199  1  0.909400  0.451400  0.733200  1.0  0.1076
  H  H200  1  0.071400  0.479800  0.702500  1.0  0.1044
  H  H201  1  0.206000  0.593100  0.785300  1.0  0.099
  H  H202  1  0.371800  0.617900  0.756400  1.0  0.0958
  H  H203  1  0.658100  0.020800  0.367100  1.0  0.1003
  H  H204  1  0.820600  0.048900  0.337400  1.0  0.0969
  H  H205  1  0.909400  0.951400  0.233200  1.0  0.1076
  H  H206  1  0.071400  0.979800  0.202500  1.0  0.1044
  H  H207  1  0.206000  0.093100  0.285300  1.0  0.099
  H  H208  1  0.371800  0.117900  0.256400  1.0  0.0958
  C  C209  1  0.926000  0.190800  0.090090  1.0  0.2988
  C  C210  1  0.835500  0.216000  0.080800  1.0  -0.0242
  C  C211  1  0.804700  0.255600  0.096740  1.0  -0.0745
  C  C212  1  0.711900  0.271700  0.079730  1.0  -0.0677
  C  C213  1  0.672800  0.244200  0.051010  1.0  -0.0621
  C  C214  1  0.581200  0.250190  0.026310  1.0  -0.0918
  C  C215  1  0.552100  0.226200  0.993200  1.0  -0.0914
  C  C216  1  0.458800  0.242300  0.975660  1.0  -0.0876
  C  C217  1  0.416200  0.278100  0.995870  1.0  -0.1078
  C  C218  1  0.319600  0.302260  0.987890  1.0  -0.0565
  C  C219  1  0.268400  0.332800  0.010550  1.0  -0.08
  C  C220  1  0.174500  0.347500  0.993960  1.0  -0.0759
  C  C221  1  0.157300  0.329000  0.957800  1.0  -0.0249
  C  C222  1  0.068100  0.335120  0.933310  1.0  0.283
  C  C223  1  0.926000  0.690800  0.590090  1.0  0.2988
  C  C224  1  0.835500  0.716000  0.580800  1.0  -0.0242
  C  C225  1  0.804700  0.755600  0.596740  1.0  -0.0745
  C  C226  1  0.711900  0.771700  0.579730  1.0  -0.0677
  C  C227  1  0.672800  0.744200  0.551010  1.0  -0.0621
  C  C228  1  0.581200  0.750190  0.526310  1.0  -0.0918
  C  C229  1  0.552100  0.726200  0.493200  1.0  -0.0914
  C  C230  1  0.458800  0.742300  0.475660  1.0  -0.0876
  C  C231  1  0.416200  0.778100  0.495870  1.0  -0.1078
  C  C232  1  0.319600  0.802260  0.487890  1.0  -0.0565
  C  C233  1  0.268400  0.832800  0.510550  1.0  -0.08
  C  C234  1  0.174500  0.847500  0.493960  1.0  -0.0759
  C  C235  1  0.157300  0.829000  0.457800  1.0  -0.0249
  C  C236  1  0.068100  0.835120  0.433310  1.0  0.283
  C  C237  1  0.426000  0.190800  0.590090  1.0  0.2988
  C  C238  1  0.335500  0.216000  0.580800  1.0  -0.0242
  C  C239  1  0.304700  0.255600  0.596740  1.0  -0.0745
  C  C240  1  0.211900  0.271700  0.579730  1.0  -0.0677
  C  C241  1  0.172800  0.244200  0.551010  1.0  -0.0621
  C  C242  1  0.081200  0.250190  0.526310  1.0  -0.0918
  C  C243  1  0.052100  0.226200  0.493200  1.0  -0.0914
  C  C244  1  0.958800  0.242300  0.475660  1.0  -0.0876
  C  C245  1  0.916200  0.278100  0.495870  1.0  -0.1078
  C  C246  1  0.819600  0.302260  0.487890  1.0  -0.0565
  C  C247  1  0.768400  0.332800  0.510550  1.0  -0.08
  C  C248  1  0.674500  0.347500  0.493960  1.0  -0.0759
  C  C249  1  0.657300  0.329000  0.457800  1.0  -0.0249
  C  C250  1  0.568100  0.335120  0.433310  1.0  0.283
  C  C251  1  0.426000  0.690800  0.090090  1.0  0.2988
  C  C252  1  0.335500  0.716000  0.080800  1.0  -0.0242
  C  C253  1  0.304700  0.755600  0.096740  1.0  -0.0745
  C  C254  1  0.211900  0.771700  0.079730  1.0  -0.0677
  C  C255  1  0.172800  0.744200  0.051010  1.0  -0.0621
  C  C256  1  0.081200  0.750190  0.026310  1.0  -0.0918
  C  C257  1  0.052100  0.726200  0.993200  1.0  -0.0914
  C  C258  1  0.958800  0.742300  0.975660  1.0  -0.0876
  C  C259  1  0.916200  0.778100  0.995870  1.0  -0.1078
  C  C260  1  0.819600  0.802260  0.987890  1.0  -0.0565
  C  C261  1  0.768400  0.832800  0.010550  1.0  -0.08
  C  C262  1  0.674500  0.847500  0.993960  1.0  -0.0759
  C  C263  1  0.657300  0.829000  0.957800  1.0  -0.0249
  C  C264  1  0.568100  0.835120  0.933310  1.0  0.283
  C  C265  1  0.824000  0.559200  0.090090  1.0  0.2994
  C  C266  1  0.914500  0.534000  0.080800  1.0  -0.0234
  C  C267  1  0.945300  0.494400  0.096740  1.0  -0.0756
  C  C268  1  0.038100  0.478300  0.079730  1.0  -0.0663
  C  C269  1  0.077200  0.505800  0.051010  1.0  -0.0621
  C  C270  1  0.168800  0.499810  0.026310  1.0  -0.0924
  C  C271  1  0.197900  0.523800  0.993200  1.0  -0.0917
  C  C272  1  0.291200  0.507700  0.975660  1.0  -0.0872
  C  C273  1  0.333800  0.471900  0.995870  1.0  -0.1087
  C  C274  1  0.430400  0.447740  0.987890  1.0  -0.0556
  C  C275  1  0.481600  0.417200  0.010550  1.0  -0.0818
  C  C276  1  0.575500  0.402500  0.993960  1.0  -0.0742
  C  C277  1  0.592700  0.421000  0.957800  1.0  -0.0245
  C  C278  1  0.681900  0.414880  0.933310  1.0  0.2857
  C  C279  1  0.824000  0.059200  0.590090  1.0  0.2994
  C  C280  1  0.914500  0.034000  0.580800  1.0  -0.0234
  C  C281  1  0.945300  0.994400  0.596740  1.0  -0.0756
  C  C282  1  0.038100  0.978300  0.579730  1.0  -0.0663
  C  C283  1  0.077200  0.005800  0.551010  1.0  -0.0621
  C  C284  1  0.168800  0.999810  0.526310  1.0  -0.0924
  C  C285  1  0.197900  0.023800  0.493200  1.0  -0.0917
  C  C286  1  0.291200  0.007700  0.475660  1.0  -0.0872
  C  C287  1  0.333800  0.971900  0.495870  1.0  -0.1087
  C  C288  1  0.430400  0.947740  0.487890  1.0  -0.0556
  C  C289  1  0.481600  0.917200  0.510550  1.0  -0.0818
  C  C290  1  0.575500  0.902500  0.493960  1.0  -0.0742
  C  C291  1  0.592700  0.921000  0.457800  1.0  -0.0245
  C  C292  1  0.681900  0.914880  0.433310  1.0  0.2857
  C  C293  1  0.324000  0.559200  0.590090  1.0  0.2994
  C  C294  1  0.414500  0.534000  0.580800  1.0  -0.0234
  C  C295  1  0.445300  0.494400  0.596740  1.0  -0.0756
  C  C296  1  0.538100  0.478300  0.579730  1.0  -0.0663
  C  C297  1  0.577200  0.505800  0.551010  1.0  -0.0621
  C  C298  1  0.668800  0.499810  0.526310  1.0  -0.0924
  C  C299  1  0.697900  0.523800  0.493200  1.0  -0.0917
  C  C300  1  0.791200  0.507700  0.475660  1.0  -0.0872
  C  C301  1  0.833800  0.471900  0.495870  1.0  -0.1087
  C  C302  1  0.930400  0.447740  0.487890  1.0  -0.0556
  C  C303  1  0.981600  0.417200  0.510550  1.0  -0.0818
  C  C304  1  0.075500  0.402500  0.493960  1.0  -0.0742
  C  C305  1  0.092700  0.421000  0.457800  1.0  -0.0245
  C  C306  1  0.181900  0.414880  0.433310  1.0  0.2857
  C  C307  1  0.324000  0.059200  0.090090  1.0  0.2994
  C  C308  1  0.414500  0.034000  0.080800  1.0  -0.0234
  C  C309  1  0.445300  0.994400  0.096740  1.0  -0.0756
  C  C310  1  0.538100  0.978300  0.079730  1.0  -0.0663
  C  C311  1  0.577200  0.005800  0.051010  1.0  -0.0621
  C  C312  1  0.668800  0.999810  0.026310  1.0  -0.0924
  C  C313  1  0.697900  0.023800  0.993200  1.0  -0.0917
  C  C314  1  0.791200  0.007700  0.975660  1.0  -0.0872
  C  C315  1  0.833800  0.971900  0.995870  1.0  -0.1087
  C  C316  1  0.930400  0.947740  0.987890  1.0  -0.0556
  C  C317  1  0.981600  0.917200  0.010550  1.0  -0.0818
  C  C318  1  0.075500  0.902500  0.993960  1.0  -0.0742
  C  C319  1  0.092700  0.921000  0.957800  1.0  -0.0245
  C  C320  1  0.181900  0.914880  0.933310  1.0  0.2857
  C  C321  1  0.824000  0.190800  0.659910  1.0  0.3002
  C  C322  1  0.914500  0.216000  0.669200  1.0  -0.0241
  C  C323  1  0.945300  0.255600  0.653260  1.0  -0.0745
  C  C324  1  0.038100  0.271700  0.670270  1.0  -0.0667
  C  C325  1  0.077200  0.244200  0.698990  1.0  -0.0629
  C  C326  1  0.168800  0.250190  0.723690  1.0  -0.0913
  C  C327  1  0.197900  0.226200  0.756800  1.0  -0.0913
  C  C328  1  0.291200  0.242300  0.774340  1.0  -0.0873
  C  C329  1  0.333800  0.278100  0.754130  1.0  -0.1078
  C  C330  1  0.430400  0.302260  0.762110  1.0  -0.0565
  C  C331  1  0.481600  0.332800  0.739450  1.0  -0.0799
  C  C332  1  0.575500  0.347500  0.756040  1.0  -0.0749
  C  C333  1  0.592700  0.329000  0.792200  1.0  -0.0223
  C  C334  1  0.681900  0.335120  0.816690  1.0  0.285
  C  C335  1  0.824000  0.690800  0.159910  1.0  0.3002
  C  C336  1  0.914500  0.716000  0.169200  1.0  -0.0241
  C  C337  1  0.945300  0.755600  0.153260  1.0  -0.0745
  C  C338  1  0.038100  0.771700  0.170270  1.0  -0.0667
  C  C339  1  0.077200  0.744200  0.198990  1.0  -0.0629
  C  C340  1  0.168800  0.750190  0.223690  1.0  -0.0913
  C  C341  1  0.197900  0.726200  0.256800  1.0  -0.0913
  C  C342  1  0.291200  0.742300  0.274340  1.0  -0.0873
  C  C343  1  0.333800  0.778100  0.254130  1.0  -0.1078
  C  C344  1  0.430400  0.802260  0.262110  1.0  -0.0565
  C  C345  1  0.481600  0.832800  0.239450  1.0  -0.0799
  C  C346  1  0.575500  0.847500  0.256040  1.0  -0.0749
  C  C347  1  0.592700  0.829000  0.292200  1.0  -0.0223
  C  C348  1  0.681900  0.835120  0.316690  1.0  0.285
  C  C349  1  0.324000  0.190800  0.159910  1.0  0.3002
  C  C350  1  0.414500  0.216000  0.169200  1.0  -0.0241
  C  C351  1  0.445300  0.255600  0.153260  1.0  -0.0745
  C  C352  1  0.538100  0.271700  0.170270  1.0  -0.0667
  C  C353  1  0.577200  0.244200  0.198990  1.0  -0.0629
  C  C354  1  0.668800  0.250190  0.223690  1.0  -0.0913
  C  C355  1  0.697900  0.226200  0.256800  1.0  -0.0913
  C  C356  1  0.791200  0.242300  0.274340  1.0  -0.0873
  C  C357  1  0.833800  0.278100  0.254130  1.0  -0.1078
  C  C358  1  0.930400  0.302260  0.262110  1.0  -0.0565
  C  C359  1  0.981600  0.332800  0.239450  1.0  -0.0799
  C  C360  1  0.075500  0.347500  0.256040  1.0  -0.0749
  C  C361  1  0.092700  0.329000  0.292200  1.0  -0.0223
  C  C362  1  0.181900  0.335120  0.316690  1.0  0.285
  C  C363  1  0.324000  0.690800  0.659910  1.0  0.3002
  C  C364  1  0.414500  0.716000  0.669200  1.0  -0.0241
  C  C365  1  0.445300  0.755600  0.653260  1.0  -0.0745
  C  C366  1  0.538100  0.771700  0.670270  1.0  -0.0667
  C  C367  1  0.577200  0.744200  0.698990  1.0  -0.0629
  C  C368  1  0.668800  0.750190  0.723690  1.0  -0.0913
  C  C369  1  0.697900  0.726200  0.756800  1.0  -0.0913
  C  C370  1  0.791200  0.742300  0.774340  1.0  -0.0873
  C  C371  1  0.833800  0.778100  0.754130  1.0  -0.1078
  C  C372  1  0.930400  0.802260  0.762110  1.0  -0.0565
  C  C373  1  0.981600  0.832800  0.739450  1.0  -0.0799
  C  C374  1  0.075500  0.847500  0.756040  1.0  -0.0749
  C  C375  1  0.092700  0.829000  0.792200  1.0  -0.0223
  C  C376  1  0.181900  0.835120  0.816690  1.0  0.285
  C  C377  1  0.926000  0.559200  0.659910  1.0  0.2987
  C  C378  1  0.835500  0.534000  0.669200  1.0  -0.0232
  C  C379  1  0.804700  0.494400  0.653260  1.0  -0.075
  C  C380  1  0.711900  0.478300  0.670270  1.0  -0.0678
  C  C381  1  0.672800  0.505800  0.698990  1.0  -0.0624
  C  C382  1  0.581200  0.499810  0.723690  1.0  -0.0923
  C  C383  1  0.552100  0.523800  0.756800  1.0  -0.0911
  C  C384  1  0.458800  0.507700  0.774340  1.0  -0.0892
  C  C385  1  0.416200  0.471900  0.754130  1.0  -0.1086
  C  C386  1  0.319600  0.447740  0.762110  1.0  -0.0563
  C  C387  1  0.268400  0.417200  0.739450  1.0  -0.0796
  C  C388  1  0.174500  0.402500  0.756040  1.0  -0.0753
  C  C389  1  0.157300  0.421000  0.792200  1.0  -0.0223
  C  C390  1  0.068100  0.414880  0.816690  1.0  0.2821
  C  C391  1  0.926000  0.059200  0.159910  1.0  0.2987
  C  C392  1  0.835500  0.034000  0.169200  1.0  -0.0232
  C  C393  1  0.804700  0.994400  0.153260  1.0  -0.075
  C  C394  1  0.711900  0.978300  0.170270  1.0  -0.0678
  C  C395  1  0.672800  0.005800  0.198990  1.0  -0.0624
  C  C396  1  0.581200  0.999810  0.223690  1.0  -0.0923
  C  C397  1  0.552100  0.023800  0.256800  1.0  -0.0911
  C  C398  1  0.458800  0.007700  0.274340  1.0  -0.0892
  C  C399  1  0.416200  0.971900  0.254130  1.0  -0.1086
  C  C400  1  0.319600  0.947740  0.262110  1.0  -0.0563
  C  C401  1  0.268400  0.917200  0.239450  1.0  -0.0796
  C  C402  1  0.174500  0.902500  0.256040  1.0  -0.0753
  C  C403  1  0.157300  0.921000  0.292200  1.0  -0.0223
  C  C404  1  0.068100  0.914880  0.316690  1.0  0.2821
  C  C405  1  0.426000  0.559200  0.159910  1.0  0.2987
  C  C406  1  0.335500  0.534000  0.169200  1.0  -0.0232
  C  C407  1  0.304700  0.494400  0.153260  1.0  -0.075
  C  C408  1  0.211900  0.478300  0.170270  1.0  -0.0678
  C  C409  1  0.172800  0.505800  0.198990  1.0  -0.0624
  C  C410  1  0.081200  0.499810  0.223690  1.0  -0.0923
  C  C411  1  0.052100  0.523800  0.256800  1.0  -0.0911
  C  C412  1  0.958800  0.507700  0.274340  1.0  -0.0892
  C  C413  1  0.916200  0.471900  0.254130  1.0  -0.1086
  C  C414  1  0.819600  0.447740  0.262110  1.0  -0.0563
  C  C415  1  0.768400  0.417200  0.239450  1.0  -0.0796
  C  C416  1  0.674500  0.402500  0.256040  1.0  -0.0753
  C  C417  1  0.657300  0.421000  0.292200  1.0  -0.0223
  C  C418  1  0.568100  0.414880  0.316690  1.0  0.2821
  C  C419  1  0.426000  0.059200  0.659910  1.0  0.2987
  C  C420  1  0.335500  0.034000  0.669200  1.0  -0.0232
  C  C421  1  0.304700  0.994400  0.653260  1.0  -0.075
  C  C422  1  0.211900  0.978300  0.670270  1.0  -0.0678
  C  C423  1  0.172800  0.005800  0.698990  1.0  -0.0624
  C  C424  1  0.081200  0.999810  0.723690  1.0  -0.0923
  C  C425  1  0.052100  0.023800  0.756800  1.0  -0.0911
  C  C426  1  0.958800  0.007700  0.774340  1.0  -0.0892
  C  C427  1  0.916200  0.971900  0.754130  1.0  -0.1086
  C  C428  1  0.819600  0.947740  0.762110  1.0  -0.0563
  C  C429  1  0.768400  0.917200  0.739450  1.0  -0.0796
  C  C430  1  0.674500  0.902500  0.756040  1.0  -0.0753
  C  C431  1  0.657300  0.921000  0.792200  1.0  -0.0223
  C  C432  1  0.568100  0.914880  0.816690  1.0  0.2821
  C  C433  1  0.074000  0.809200  0.909910  1.0  0.2998
  C  C434  1  0.164500  0.784000  0.919200  1.0  -0.0229
  C  C435  1  0.195300  0.744400  0.903260  1.0  -0.0752
  C  C436  1  0.288100  0.728300  0.920270  1.0  -0.0673
  C  C437  1  0.327200  0.755800  0.948990  1.0  -0.0626
  C  C438  1  0.418800  0.749810  0.973690  1.0  -0.0922
  C  C439  1  0.447900  0.773800  0.006800  1.0  -0.0918
  C  C440  1  0.541200  0.757700  0.024340  1.0  -0.088
  C  C441  1  0.583800  0.721900  0.004130  1.0  -0.1087
  C  C442  1  0.680400  0.697740  0.012110  1.0  -0.0559
  C  C443  1  0.731600  0.667200  0.989450  1.0  -0.0802
  C  C444  1  0.825500  0.652500  0.006040  1.0  -0.0746
  C  C445  1  0.842700  0.671000  0.042200  1.0  -0.0221
  C  C446  1  0.931900  0.664880  0.066690  1.0  0.285
  C  C447  1  0.074000  0.309200  0.409910  1.0  0.2998
  C  C448  1  0.164500  0.284000  0.419200  1.0  -0.0229
  C  C449  1  0.195300  0.244400  0.403260  1.0  -0.0752
  C  C450  1  0.288100  0.228300  0.420270  1.0  -0.0673
  C  C451  1  0.327200  0.255800  0.448990  1.0  -0.0626
  C  C452  1  0.418800  0.249810  0.473690  1.0  -0.0922
  C  C453  1  0.447900  0.273800  0.506800  1.0  -0.0918
  C  C454  1  0.541200  0.257700  0.524340  1.0  -0.088
  C  C455  1  0.583800  0.221900  0.504130  1.0  -0.1087
  C  C456  1  0.680400  0.197740  0.512110  1.0  -0.0559
  C  C457  1  0.731600  0.167200  0.489450  1.0  -0.0802
  C  C458  1  0.825500  0.152500  0.506040  1.0  -0.0746
  C  C459  1  0.842700  0.171000  0.542200  1.0  -0.0221
  C  C460  1  0.931900  0.164880  0.566690  1.0  0.285
  C  C461  1  0.574000  0.809200  0.409910  1.0  0.2998
  C  C462  1  0.664500  0.784000  0.419200  1.0  -0.0229
  C  C463  1  0.695300  0.744400  0.403260  1.0  -0.0752
  C  C464  1  0.788100  0.728300  0.420270  1.0  -0.0673
  C  C465  1  0.827200  0.755800  0.448990  1.0  -0.0626
  C  C466  1  0.918800  0.749810  0.473690  1.0  -0.0922
  C  C467  1  0.947900  0.773800  0.506800  1.0  -0.0918
  C  C468  1  0.041200  0.757700  0.524340  1.0  -0.088
  C  C469  1  0.083800  0.721900  0.504130  1.0  -0.1087
  C  C470  1  0.180400  0.697740  0.512110  1.0  -0.0559
  C  C471  1  0.231600  0.667200  0.489450  1.0  -0.0802
  C  C472  1  0.325500  0.652500  0.506040  1.0  -0.0746
  C  C473  1  0.342700  0.671000  0.542200  1.0  -0.0221
  C  C474  1  0.431900  0.664880  0.566690  1.0  0.285
  C  C475  1  0.574000  0.309200  0.909910  1.0  0.2998
  C  C476  1  0.664500  0.284000  0.919200  1.0  -0.0229
  C  C477  1  0.695300  0.244400  0.903260  1.0  -0.0752
  C  C478  1  0.788100  0.228300  0.920270  1.0  -0.0673
  C  C479  1  0.827200  0.255800  0.948990  1.0  -0.0626
  C  C480  1  0.918800  0.249810  0.973690  1.0  -0.0922
  C  C481  1  0.947900  0.273800  0.006800  1.0  -0.0918
  C  C482  1  0.041200  0.257700  0.024340  1.0  -0.088
  C  C483  1  0.083800  0.221900  0.004130  1.0  -0.1087
  C  C484  1  0.180400  0.197740  0.012110  1.0  -0.0559
  C  C485  1  0.231600  0.167200  0.989450  1.0  -0.0802
  C  C486  1  0.325500  0.152500  0.006040  1.0  -0.0746
  C  C487  1  0.342700  0.171000  0.042200  1.0  -0.0221
  C  C488  1  0.431900  0.164880  0.066690  1.0  0.285
  C  C489  1  0.176000  0.440800  0.909910  1.0  0.2993
  C  C490  1  0.085500  0.466000  0.919200  1.0  -0.024
  C  C491  1  0.054700  0.505600  0.903260  1.0  -0.0742
  C  C492  1  0.961900  0.521700  0.920270  1.0  -0.0678
  C  C493  1  0.922800  0.494200  0.948990  1.0  -0.0626
  C  C494  1  0.831200  0.500190  0.973690  1.0  -0.0914
  C  C495  1  0.802100  0.476200  0.006800  1.0  -0.0908
  C  C496  1  0.708800  0.492300  0.024340  1.0  -0.0889
  C  C497  1  0.666200  0.528100  0.004130  1.0  -0.1077
  C  C498  1  0.569600  0.552260  0.012110  1.0  -0.057
  C  C499  1  0.518400  0.582800  0.989450  1.0  -0.0794
  C  C500  1  0.424500  0.597500  0.006040  1.0  -0.0759
  C  C501  1  0.407300  0.579000  0.042200  1.0  -0.0224
  C  C502  1  0.318100  0.585120  0.066690  1.0  0.2822
  C  C503  1  0.176000  0.940800  0.409910  1.0  0.2993
  C  C504  1  0.085500  0.966000  0.419200  1.0  -0.024
  C  C505  1  0.054700  0.005600  0.403260  1.0  -0.0742
  C  C506  1  0.961900  0.021700  0.420270  1.0  -0.0678
  C  C507  1  0.922800  0.994200  0.448990  1.0  -0.0626
  C  C508  1  0.831200  0.000190  0.473690  1.0  -0.0914
  C  C509  1  0.802100  0.976200  0.506800  1.0  -0.0908
  C  C510  1  0.708800  0.992300  0.524340  1.0  -0.0889
  C  C511  1  0.666200  0.028100  0.504130  1.0  -0.1077
  C  C512  1  0.569600  0.052260  0.512110  1.0  -0.057
  C  C513  1  0.518400  0.082800  0.489450  1.0  -0.0794
  C  C514  1  0.424500  0.097500  0.506040  1.0  -0.0759
  C  C515  1  0.407300  0.079000  0.542200  1.0  -0.0224
  C  C516  1  0.318100  0.085120  0.566690  1.0  0.2822
  C  C517  1  0.676000  0.440800  0.409910  1.0  0.2993
  C  C518  1  0.585500  0.466000  0.419200  1.0  -0.024
  C  C519  1  0.554700  0.505600  0.403260  1.0  -0.0742
  C  C520  1  0.461900  0.521700  0.420270  1.0  -0.0678
  C  C521  1  0.422800  0.494200  0.448990  1.0  -0.0626
  C  C522  1  0.331200  0.500190  0.473690  1.0  -0.0914
  C  C523  1  0.302100  0.476200  0.506800  1.0  -0.0908
  C  C524  1  0.208800  0.492300  0.524340  1.0  -0.0889
  C  C525  1  0.166200  0.528100  0.504130  1.0  -0.1077
  C  C526  1  0.069600  0.552260  0.512110  1.0  -0.057
  C  C527  1  0.018400  0.582800  0.489450  1.0  -0.0794
  C  C528  1  0.924500  0.597500  0.506040  1.0  -0.0759
  C  C529  1  0.907300  0.579000  0.542200  1.0  -0.0224
  C  C530  1  0.818100  0.585120  0.566690  1.0  0.2822
  C  C531  1  0.676000  0.940800  0.909910  1.0  0.2993
  C  C532  1  0.585500  0.966000  0.919200  1.0  -0.024
  C  C533  1  0.554700  0.005600  0.903260  1.0  -0.0742
  C  C534  1  0.461900  0.021700  0.920270  1.0  -0.0678
  C  C535  1  0.422800  0.994200  0.948990  1.0  -0.0626
  C  C536  1  0.331200  0.000190  0.973690  1.0  -0.0914
  C  C537  1  0.302100  0.976200  0.006800  1.0  -0.0908
  C  C538  1  0.208800  0.992300  0.024340  1.0  -0.0889
  C  C539  1  0.166200  0.028100  0.004130  1.0  -0.1077
  C  C540  1  0.069600  0.052260  0.012110  1.0  -0.057
  C  C541  1  0.018400  0.082800  0.989450  1.0  -0.0794
  C  C542  1  0.924500  0.097500  0.006040  1.0  -0.0759
  C  C543  1  0.907300  0.079000  0.042200  1.0  -0.0224
  C  C544  1  0.818100  0.085120  0.066690  1.0  0.2822
  C  C545  1  0.176000  0.809200  0.340090  1.0  0.2981
  C  C546  1  0.085500  0.784000  0.330800  1.0  -0.0235
  C  C547  1  0.054700  0.744400  0.346740  1.0  -0.0747
  C  C548  1  0.961900  0.728300  0.329730  1.0  -0.0669
  C  C549  1  0.922800  0.755800  0.301010  1.0  -0.062
  C  C550  1  0.831200  0.749810  0.276310  1.0  -0.0924
  C  C551  1  0.802100  0.773800  0.243200  1.0  -0.0912
  C  C552  1  0.708800  0.757700  0.225660  1.0  -0.0877
  C  C553  1  0.666200  0.721900  0.245870  1.0  -0.1085
  C  C554  1  0.569600  0.697740  0.237890  1.0  -0.0558
  C  C555  1  0.518400  0.667200  0.260550  1.0  -0.0802
  C  C556  1  0.424500  0.652500  0.243960  1.0  -0.0752
  C  C557  1  0.407300  0.671000  0.207800  1.0  -0.0244
  C  C558  1  0.318100  0.664880  0.183310  1.0  0.2827
  C  C559  1  0.176000  0.309200  0.840090  1.0  0.2981
  C  C560  1  0.085500  0.284000  0.830800  1.0  -0.0235
  C  C561  1  0.054700  0.244400  0.846740  1.0  -0.0747
  C  C562  1  0.961900  0.228300  0.829730  1.0  -0.0669
  C  C563  1  0.922800  0.255800  0.801010  1.0  -0.062
  C  C564  1  0.831200  0.249810  0.776310  1.0  -0.0924
  C  C565  1  0.802100  0.273800  0.743200  1.0  -0.0912
  C  C566  1  0.708800  0.257700  0.725660  1.0  -0.0877
  C  C567  1  0.666200  0.221900  0.745870  1.0  -0.1085
  C  C568  1  0.569600  0.197740  0.737890  1.0  -0.0558
  C  C569  1  0.518400  0.167200  0.760550  1.0  -0.0802
  C  C570  1  0.424500  0.152500  0.743960  1.0  -0.0752
  C  C571  1  0.407300  0.171000  0.707800  1.0  -0.0244
  C  C572  1  0.318100  0.164880  0.683310  1.0  0.2827
  C  C573  1  0.676000  0.809200  0.840090  1.0  0.2981
  C  C574  1  0.585500  0.784000  0.830800  1.0  -0.0235
  C  C575  1  0.554700  0.744400  0.846740  1.0  -0.0747
  C  C576  1  0.461900  0.728300  0.829730  1.0  -0.0669
  C  C577  1  0.422800  0.755800  0.801010  1.0  -0.062
  C  C578  1  0.331200  0.749810  0.776310  1.0  -0.0924
  C  C579  1  0.302100  0.773800  0.743200  1.0  -0.0912
  C  C580  1  0.208800  0.757700  0.725660  1.0  -0.0877
  C  C581  1  0.166200  0.721900  0.745870  1.0  -0.1085
  C  C582  1  0.069600  0.697740  0.737890  1.0  -0.0558
  C  C583  1  0.018400  0.667200  0.760550  1.0  -0.0802
  C  C584  1  0.924500  0.652500  0.743960  1.0  -0.0752
  C  C585  1  0.907300  0.671000  0.707800  1.0  -0.0244
  C  C586  1  0.818100  0.664880  0.683310  1.0  0.2827
  C  C587  1  0.676000  0.309200  0.340090  1.0  0.2981
  C  C588  1  0.585500  0.284000  0.330800  1.0  -0.0235
  C  C589  1  0.554700  0.244400  0.346740  1.0  -0.0747
  C  C590  1  0.461900  0.228300  0.329730  1.0  -0.0669
  C  C591  1  0.422800  0.255800  0.301010  1.0  -0.062
  C  C592  1  0.331200  0.249810  0.276310  1.0  -0.0924
  C  C593  1  0.302100  0.273800  0.243200  1.0  -0.0912
  C  C594  1  0.208800  0.257700  0.225660  1.0  -0.0877
  C  C595  1  0.166200  0.221900  0.245870  1.0  -0.1085
  C  C596  1  0.069600  0.197740  0.237890  1.0  -0.0558
  C  C597  1  0.018400  0.167200  0.260550  1.0  -0.0802
  C  C598  1  0.924500  0.152500  0.243960  1.0  -0.0752
  C  C599  1  0.907300  0.171000  0.207800  1.0  -0.0244
  C  C600  1  0.818100  0.164880  0.183310  1.0  0.2827
  C  C601  1  0.074000  0.440800  0.340090  1.0  0.2998
  C  C602  1  0.164500  0.466000  0.330800  1.0  -0.0243
  C  C603  1  0.195300  0.505600  0.346740  1.0  -0.0757
  C  C604  1  0.288100  0.521700  0.329730  1.0  -0.0666
  C  C605  1  0.327200  0.494200  0.301010  1.0  -0.0623
  C  C606  1  0.418800  0.500190  0.276310  1.0  -0.092
  C  C607  1  0.447900  0.476200  0.243200  1.0  -0.0915
  C  C608  1  0.541200  0.492300  0.225660  1.0  -0.0869
  C  C609  1  0.583800  0.528100  0.245870  1.0  -0.1079
  C  C610  1  0.680400  0.552260  0.237890  1.0  -0.0562
  C  C611  1  0.731600  0.582800  0.260550  1.0  -0.0815
  C  C612  1  0.825500  0.597500  0.243960  1.0  -0.0746
  C  C613  1  0.842700  0.579000  0.207800  1.0  -0.0249
  C  C614  1  0.931900  0.585120  0.183310  1.0  0.2858
  C  C615  1  0.074000  0.940800  0.840090  1.0  0.2998
  C  C616  1  0.164500  0.966000  0.830800  1.0  -0.0243
  C  C617  1  0.195300  0.005600  0.846740  1.0  -0.0757
  C  C618  1  0.288100  0.021700  0.829730  1.0  -0.0666
  C  C619  1  0.327200  0.994200  0.801010  1.0  -0.0623
  C  C620  1  0.418800  0.000190  0.776310  1.0  -0.092
  C  C621  1  0.447900  0.976200  0.743200  1.0  -0.0915
  C  C622  1  0.541200  0.992300  0.725660  1.0  -0.0869
  C  C623  1  0.583800  0.028100  0.745870  1.0  -0.1079
  C  C624  1  0.680400  0.052260  0.737890  1.0  -0.0562
  C  C625  1  0.731600  0.082800  0.760550  1.0  -0.0815
  C  C626  1  0.825500  0.097500  0.743960  1.0  -0.0746
  C  C627  1  0.842700  0.079000  0.707800  1.0  -0.0249
  C  C628  1  0.931900  0.085120  0.683310  1.0  0.2858
  C  C629  1  0.574000  0.440800  0.840090  1.0  0.2998
  C  C630  1  0.664500  0.466000  0.830800  1.0  -0.0243
  C  C631  1  0.695300  0.505600  0.846740  1.0  -0.0757
  C  C632  1  0.788100  0.521700  0.829730  1.0  -0.0666
  C  C633  1  0.827200  0.494200  0.801010  1.0  -0.0623
  C  C634  1  0.918800  0.500190  0.776310  1.0  -0.092
  C  C635  1  0.947900  0.476200  0.743200  1.0  -0.0915
  C  C636  1  0.041200  0.492300  0.725660  1.0  -0.0869
  C  C637  1  0.083800  0.528100  0.745870  1.0  -0.1079
  C  C638  1  0.180400  0.552260  0.737890  1.0  -0.0562
  C  C639  1  0.231600  0.582800  0.760550  1.0  -0.0815
  C  C640  1  0.325500  0.597500  0.743960  1.0  -0.0746
  C  C641  1  0.342700  0.579000  0.707800  1.0  -0.0249
  C  C642  1  0.431900  0.585120  0.683310  1.0  0.2858
  C  C643  1  0.574000  0.940800  0.340090  1.0  0.2998
  C  C644  1  0.664500  0.966000  0.330800  1.0  -0.0243
  C  C645  1  0.695300  0.005600  0.346740  1.0  -0.0757
  C  C646  1  0.788100  0.021700  0.329730  1.0  -0.0666
  C  C647  1  0.827200  0.994200  0.301010  1.0  -0.0623
  C  C648  1  0.918800  0.000190  0.276310  1.0  -0.092
  C  C649  1  0.947900  0.976200  0.243200  1.0  -0.0915
  C  C650  1  0.041200  0.992300  0.225660  1.0  -0.0869
  C  C651  1  0.083800  0.028100  0.245870  1.0  -0.1079
  C  C652  1  0.180400  0.052260  0.237890  1.0  -0.0562
  C  C653  1  0.231600  0.082800  0.260550  1.0  -0.0815
  C  C654  1  0.325500  0.097500  0.243960  1.0  -0.0746
  C  C655  1  0.342700  0.079000  0.207800  1.0  -0.0249
  C  C656  1  0.431900  0.085120  0.183310  1.0  0.2858
  S  S657  1  0.749930  0.197660  0.044970  1.0  0.1229
  S  S658  1  0.491170  0.291840  0.036810  1.0  0.1213
  S  S659  1  0.254200  0.292080  0.944190  1.0  0.1029
  S  S660  1  0.749930  0.697660  0.544970  1.0  0.1229
  S  S661  1  0.491170  0.791840  0.536810  1.0  0.1213
  S  S662  1  0.254200  0.792080  0.444190  1.0  0.1029
  S  S663  1  0.249930  0.197660  0.544970  1.0  0.1229
  S  S664  1  0.991170  0.291840  0.536810  1.0  0.1213
  S  S665  1  0.754200  0.292080  0.444190  1.0  0.1029
  S  S666  1  0.249930  0.697660  0.044970  1.0  0.1229
  S  S667  1  0.991170  0.791840  0.036810  1.0  0.1213
  S  S668  1  0.754200  0.792080  0.944190  1.0  0.1029
  S  S669  1  0.000070  0.552340  0.044970  1.0  0.1233
  S  S670  1  0.258830  0.458160  0.036810  1.0  0.1205
  S  S671  1  0.495800  0.457920  0.944190  1.0  0.1027
  S  S672  1  0.000070  0.052340  0.544970  1.0  0.1233
  S  S673  1  0.258830  0.958160  0.536810  1.0  0.1205
  S  S674  1  0.495800  0.957920  0.444190  1.0  0.1027
  S  S675  1  0.500070  0.552340  0.544970  1.0  0.1233
  S  S676  1  0.758830  0.458160  0.536810  1.0  0.1205
  S  S677  1  0.995800  0.457920  0.444190  1.0  0.1027
  S  S678  1  0.500070  0.052340  0.044970  1.0  0.1233
  S  S679  1  0.758830  0.958160  0.036810  1.0  0.1205
  S  S680  1  0.995800  0.957920  0.944190  1.0  0.1027
  S  S681  1  0.000070  0.197660  0.705030  1.0  0.1217
  S  S682  1  0.258830  0.291840  0.713190  1.0  0.1209
  S  S683  1  0.495800  0.292080  0.805810  1.0  0.1027
  S  S684  1  0.000070  0.697660  0.205030  1.0  0.1217
  S  S685  1  0.258830  0.791840  0.213190  1.0  0.1209
  S  S686  1  0.495800  0.792080  0.305810  1.0  0.1027
  S  S687  1  0.500070  0.197660  0.205030  1.0  0.1217
  S  S688  1  0.758830  0.291840  0.213190  1.0  0.1209
  S  S689  1  0.995800  0.292080  0.305810  1.0  0.1027
  S  S690  1  0.500070  0.697660  0.705030  1.0  0.1217
  S  S691  1  0.758830  0.791840  0.713190  1.0  0.1209
  S  S692  1  0.995800  0.792080  0.805810  1.0  0.1027
  S  S693  1  0.749930  0.552340  0.705030  1.0  0.1219
  S  S694  1  0.491170  0.458160  0.713190  1.0  0.1215
  S  S695  1  0.254200  0.457920  0.805810  1.0  0.1016
  S  S696  1  0.749930  0.052340  0.205030  1.0  0.1219
  S  S697  1  0.491170  0.958160  0.213190  1.0  0.1215
  S  S698  1  0.254200  0.957920  0.305810  1.0  0.1016
  S  S699  1  0.249930  0.552340  0.205030  1.0  0.1219
  S  S700  1  0.991170  0.458160  0.213190  1.0  0.1215
  S  S701  1  0.754200  0.457920  0.305810  1.0  0.1016
  S  S702  1  0.249930  0.052340  0.705030  1.0  0.1219
  S  S703  1  0.991170  0.958160  0.713190  1.0  0.1215
  S  S704  1  0.754200  0.957920  0.805810  1.0  0.1016
  S  S705  1  0.250070  0.802340  0.955030  1.0  0.1218
  S  S706  1  0.508830  0.708160  0.963190  1.0  0.1216
  S  S707  1  0.745800  0.707920  0.055810  1.0  0.1021
  S  S708  1  0.250070  0.302340  0.455030  1.0  0.1218
  S  S709  1  0.508830  0.208160  0.463190  1.0  0.1216
  S  S710  1  0.745800  0.207920  0.555810  1.0  0.1021
  S  S711  1  0.750070  0.802340  0.455030  1.0  0.1218
  S  S712  1  0.008830  0.708160  0.463190  1.0  0.1216
  S  S713  1  0.245800  0.707920  0.555810  1.0  0.1021
  S  S714  1  0.750070  0.302340  0.955030  1.0  0.1218
  S  S715  1  0.008830  0.208160  0.963190  1.0  0.1216
  S  S716  1  0.245800  0.207920  0.055810  1.0  0.1021
  S  S717  1  0.999930  0.447660  0.955030  1.0  0.1217
  S  S718  1  0.741170  0.541840  0.963190  1.0  0.1211
  S  S719  1  0.504200  0.542080  0.055810  1.0  0.1021
  S  S720  1  0.999930  0.947660  0.455030  1.0  0.1217
  S  S721  1  0.741170  0.041840  0.463190  1.0  0.1211
  S  S722  1  0.504200  0.042080  0.555810  1.0  0.1021
  S  S723  1  0.499930  0.447660  0.455030  1.0  0.1217
  S  S724  1  0.241170  0.541840  0.463190  1.0  0.1211
  S  S725  1  0.004200  0.542080  0.555810  1.0  0.1021
  S  S726  1  0.499930  0.947660  0.955030  1.0  0.1217
  S  S727  1  0.241170  0.041840  0.963190  1.0  0.1211
  S  S728  1  0.004200  0.042080  0.055810  1.0  0.1021
  S  S729  1  0.999930  0.802340  0.294970  1.0  0.1235
  S  S730  1  0.741170  0.708160  0.286810  1.0  0.1209
  S  S731  1  0.504200  0.707920  0.194190  1.0  0.1023
  S  S732  1  0.999930  0.302340  0.794970  1.0  0.1235
  S  S733  1  0.741170  0.208160  0.786810  1.0  0.1209
  S  S734  1  0.504200  0.207920  0.694190  1.0  0.1023
  S  S735  1  0.499930  0.802340  0.794970  1.0  0.1235
  S  S736  1  0.241170  0.708160  0.786810  1.0  0.1209
  S  S737  1  0.004200  0.707920  0.694190  1.0  0.1023
  S  S738  1  0.499930  0.302340  0.294970  1.0  0.1235
  S  S739  1  0.241170  0.208160  0.286810  1.0  0.1209
  S  S740  1  0.004200  0.207920  0.194190  1.0  0.1023
  S  S741  1  0.250070  0.447660  0.294970  1.0  0.123
  S  S742  1  0.508830  0.541840  0.286810  1.0  0.1211
  S  S743  1  0.745800  0.542080  0.194190  1.0  0.103
  S  S744  1  0.250070  0.947660  0.794970  1.0  0.123
  S  S745  1  0.508830  0.041840  0.786810  1.0  0.1211
  S  S746  1  0.745800  0.042080  0.694190  1.0  0.103
  S  S747  1  0.750070  0.447660  0.794970  1.0  0.123
  S  S748  1  0.008830  0.541840  0.786810  1.0  0.1211
  S  S749  1  0.245800  0.542080  0.694190  1.0  0.103
  S  S750  1  0.750070  0.947660  0.294970  1.0  0.123
  S  S751  1  0.008830  0.041840  0.286810  1.0  0.1211
  S  S752  1  0.245800  0.042080  0.194190  1.0  0.103
  N  N753  1  0.999200  0.170160  0.096910  1.0  -0.463
  N  N754  1  0.997200  0.340370  0.913680  1.0  -0.4469
  N  N755  1  0.999200  0.670160  0.596910  1.0  -0.463
  N  N756  1  0.997200  0.840370  0.413680  1.0  -0.4469
  N  N757  1  0.499200  0.170160  0.596910  1.0  -0.463
  N  N758  1  0.497200  0.340370  0.413680  1.0  -0.4469
  N  N759  1  0.499200  0.670160  0.096910  1.0  -0.463
  N  N760  1  0.497200  0.840370  0.913680  1.0  -0.4469
  N  N761  1  0.750800  0.579840  0.096910  1.0  -0.4645
  N  N762  1  0.752800  0.409630  0.913680  1.0  -0.4469
  N  N763  1  0.750800  0.079840  0.596910  1.0  -0.4645
  N  N764  1  0.752800  0.909630  0.413680  1.0  -0.4469
  N  N765  1  0.250800  0.579840  0.596910  1.0  -0.4645
  N  N766  1  0.252800  0.409630  0.413680  1.0  -0.4469
  N  N767  1  0.250800  0.079840  0.096910  1.0  -0.4645
  N  N768  1  0.252800  0.909630  0.913680  1.0  -0.4469
  N  N769  1  0.750800  0.170160  0.653090  1.0  -0.4646
  N  N770  1  0.752800  0.340370  0.836320  1.0  -0.4476
  N  N771  1  0.750800  0.670160  0.153090  1.0  -0.4646
  N  N772  1  0.752800  0.840370  0.336320  1.0  -0.4476
  N  N773  1  0.250800  0.170160  0.153090  1.0  -0.4646
  N  N774  1  0.252800  0.340370  0.336320  1.0  -0.4476
  N  N775  1  0.250800  0.670160  0.653090  1.0  -0.4646
  N  N776  1  0.252800  0.840370  0.836320  1.0  -0.4476
  N  N777  1  0.999200  0.579840  0.653090  1.0  -0.4644
  N  N778  1  0.997200  0.409630  0.836320  1.0  -0.4458
  N  N779  1  0.999200  0.079840  0.153090  1.0  -0.4644
  N  N780  1  0.997200  0.909630  0.336320  1.0  -0.4458
  N  N781  1  0.499200  0.579840  0.153090  1.0  -0.4644
  N  N782  1  0.497200  0.409630  0.336320  1.0  -0.4458
  N  N783  1  0.499200  0.079840  0.653090  1.0  -0.4644
  N  N784  1  0.497200  0.909630  0.836320  1.0  -0.4458
  N  N785  1  0.000800  0.829840  0.903090  1.0  -0.4649
  N  N786  1  0.002800  0.659630  0.086320  1.0  -0.4466
  N  N787  1  0.000800  0.329840  0.403090  1.0  -0.4649
  N  N788  1  0.002800  0.159630  0.586320  1.0  -0.4466
  N  N789  1  0.500800  0.829840  0.403090  1.0  -0.4649
  N  N790  1  0.502800  0.659630  0.586320  1.0  -0.4466
  N  N791  1  0.500800  0.329840  0.903090  1.0  -0.4649
  N  N792  1  0.502800  0.159630  0.086320  1.0  -0.4466
  N  N793  1  0.249200  0.420160  0.903090  1.0  -0.4637
  N  N794  1  0.247200  0.590370  0.086320  1.0  -0.447
  N  N795  1  0.249200  0.920160  0.403090  1.0  -0.4637
  N  N796  1  0.247200  0.090370  0.586320  1.0  -0.447
  N  N797  1  0.749200  0.420160  0.403090  1.0  -0.4637
  N  N798  1  0.747200  0.590370  0.586320  1.0  -0.447
  N  N799  1  0.749200  0.920160  0.903090  1.0  -0.4637
  N  N800  1  0.747200  0.090370  0.086320  1.0  -0.447
  N  N801  1  0.249200  0.829840  0.346910  1.0  -0.4642
  N  N802  1  0.247200  0.659630  0.163680  1.0  -0.4464
  N  N803  1  0.249200  0.329840  0.846910  1.0  -0.4642
  N  N804  1  0.247200  0.159630  0.663680  1.0  -0.4464
  N  N805  1  0.749200  0.829840  0.846910  1.0  -0.4642
  N  N806  1  0.747200  0.659630  0.663680  1.0  -0.4464
  N  N807  1  0.749200  0.329840  0.346910  1.0  -0.4642
  N  N808  1  0.747200  0.159630  0.163680  1.0  -0.4464
  N  N809  1  0.000800  0.420160  0.346910  1.0  -0.4638
  N  N810  1  0.002800  0.590370  0.163680  1.0  -0.4475
  N  N811  1  0.000800  0.920160  0.846910  1.0  -0.4638
  N  N812  1  0.002800  0.090370  0.663680  1.0  -0.4475
  N  N813  1  0.500800  0.420160  0.846910  1.0  -0.4638
  N  N814  1  0.502800  0.590370  0.663680  1.0  -0.4475
  N  N815  1  0.500800  0.920160  0.346910  1.0  -0.4638
  N  N816  1  0.502800  0.090370  0.163680  1.0  -0.4475
