# generated using pymatgen
data_Cu6H22C54(N3O8)3
_symmetry_space_group_name_H-M   'P 1'
_cell_length_a   26.95600000
_cell_length_b   26.95600000
_cell_length_c   39.14500000
_cell_angle_alpha   90.00000000
_cell_angle_beta   90.00000000
_cell_angle_gamma   90.00000000
_symmetry_Int_Tables_number   1
_chemical_formula_structural   Cu6H22C54(N3O8)3
_chemical_formula_sum   'Cu48 H176 C432 N72 O192'
_cell_volume   28443.77226472
_cell_formula_units_Z   8
loop_
 _symmetry_equiv_pos_site_id
 _symmetry_equiv_pos_as_xyz
  1  'x, y, z'
loop_
 _atom_site_type_symbol
 _atom_site_label
 _atom_site_symmetry_multiplicity
 _atom_site_fract_x
 _atom_site_fract_y
 _atom_site_fract_z
 _atom_site_occupancy
 _atom_site_charge
  Cu  Cu1  1  0.751770  0.122430  0.195890  1.0  0.9125
  Cu  Cu2  1  0.814880  0.091690  0.147670  1.0  0.9032
  Cu  Cu3  1  0.248230  0.877570  0.195890  1.0  0.9104
  Cu  Cu4  1  0.185120  0.908310  0.147670  1.0  0.905
  Cu  Cu5  1  0.877570  0.751770  0.195890  1.0  0.9119
  Cu  Cu6  1  0.908310  0.814880  0.147670  1.0  0.9046
  Cu  Cu7  1  0.122430  0.248230  0.195890  1.0  0.9115
  Cu  Cu8  1  0.091690  0.185120  0.147670  1.0  0.9062
  Cu  Cu9  1  0.748230  0.622430  0.304110  1.0  0.9101
  Cu  Cu10  1  0.685120  0.591690  0.352330  1.0  0.9048
  Cu  Cu11  1  0.251770  0.377570  0.304110  1.0  0.9122
  Cu  Cu12  1  0.314880  0.408310  0.352330  1.0  0.9047
  Cu  Cu13  1  0.622430  0.251770  0.304110  1.0  0.9102
  Cu  Cu14  1  0.591690  0.314880  0.352330  1.0  0.9062
  Cu  Cu15  1  0.377570  0.748230  0.304110  1.0  0.9119
  Cu  Cu16  1  0.408310  0.685120  0.352330  1.0  0.9043
  Cu  Cu17  1  0.248230  0.877570  0.804110  1.0  0.909
  Cu  Cu18  1  0.185120  0.908310  0.852330  1.0  0.9048
  Cu  Cu19  1  0.751770  0.122430  0.804110  1.0  0.9118
  Cu  Cu20  1  0.814880  0.091690  0.852330  1.0  0.9042
  Cu  Cu21  1  0.122430  0.248230  0.804110  1.0  0.9099
  Cu  Cu22  1  0.091690  0.185120  0.852330  1.0  0.9056
  Cu  Cu23  1  0.877570  0.751770  0.804110  1.0  0.9112
  Cu  Cu24  1  0.908310  0.814880  0.852330  1.0  0.9057
  Cu  Cu25  1  0.251770  0.377570  0.695890  1.0  0.9134
  Cu  Cu26  1  0.314880  0.408310  0.647670  1.0  0.9035
  Cu  Cu27  1  0.748230  0.622430  0.695890  1.0  0.9114
  Cu  Cu28  1  0.685120  0.591690  0.647670  1.0  0.9051
  Cu  Cu29  1  0.377570  0.748230  0.695890  1.0  0.9128
  Cu  Cu30  1  0.408310  0.685120  0.647670  1.0  0.9049
  Cu  Cu31  1  0.622430  0.251770  0.695890  1.0  0.9111
  Cu  Cu32  1  0.591690  0.314880  0.647670  1.0  0.9055
  Cu  Cu33  1  0.876040  0.368360  0.000000  1.0  0.8969
  Cu  Cu34  1  0.906690  0.274440  0.000000  1.0  0.9061
  Cu  Cu35  1  0.123960  0.631640  0.000000  1.0  0.8974
  Cu  Cu36  1  0.093310  0.725560  0.000000  1.0  0.9058
  Cu  Cu37  1  0.631640  0.876040  0.000000  1.0  0.8972
  Cu  Cu38  1  0.725560  0.906690  0.000000  1.0  0.9048
  Cu  Cu39  1  0.368360  0.123960  0.000000  1.0  0.8976
  Cu  Cu40  1  0.274440  0.093310  0.000000  1.0  0.9052
  Cu  Cu41  1  0.623960  0.868360  0.500000  1.0  0.8961
  Cu  Cu42  1  0.593310  0.774440  0.500000  1.0  0.9071
  Cu  Cu43  1  0.376040  0.131640  0.500000  1.0  0.897
  Cu  Cu44  1  0.406690  0.225560  0.500000  1.0  0.9055
  Cu  Cu45  1  0.868360  0.376040  0.500000  1.0  0.8968
  Cu  Cu46  1  0.774440  0.406690  0.500000  1.0  0.9073
  Cu  Cu47  1  0.131640  0.623960  0.500000  1.0  0.8974
  Cu  Cu48  1  0.225560  0.593310  0.500000  1.0  0.9057
  H  H49  1  0.742200  0.474500  0.175300  1.0  0.3473
  H  H50  1  0.786300  0.365300  0.088400  1.0  0.1187
  H  H51  1  0.811200  0.218300  0.081900  1.0  0.0895
  H  H52  1  0.743400  0.274400  0.164600  1.0  0.1087
  H  H53  1  0.735400  0.496900  0.233100  1.0  0.1165
  H  H54  1  0.659200  0.446000  0.314400  1.0  0.1062
  H  H55  1  0.685700  0.358000  0.235400  1.0  0.0842
  H  H56  1  0.968300  0.426100  0.079700  1.0  0.093
  H  H57  1  0.013100  0.285400  0.082800  1.0  0.1049
  H  H58  1  0.051000  0.384900  0.156700  1.0  0.1091
  H  H59  1  0.005600  0.456400  0.182100  1.0  0.282
  H  H60  1  0.257800  0.525500  0.175300  1.0  0.3519
  H  H61  1  0.213700  0.634700  0.088400  1.0  0.1187
  H  H62  1  0.188800  0.781700  0.081900  1.0  0.0898
  H  H63  1  0.256600  0.725600  0.164600  1.0  0.1082
  H  H64  1  0.264600  0.503100  0.233100  1.0  0.1162
  H  H65  1  0.340800  0.554000  0.314400  1.0  0.1059
  H  H66  1  0.314300  0.642000  0.235400  1.0  0.0843
  H  H67  1  0.031700  0.573900  0.079700  1.0  0.0926
  H  H68  1  0.986900  0.714600  0.082800  1.0  0.1043
  H  H69  1  0.949000  0.615100  0.156700  1.0  0.1096
  H  H70  1  0.994400  0.543600  0.182100  1.0  0.2817
  H  H71  1  0.525500  0.742200  0.175300  1.0  0.3449
  H  H72  1  0.634700  0.786300  0.088400  1.0  0.1185
  H  H73  1  0.781700  0.811200  0.081900  1.0  0.0909
  H  H74  1  0.725600  0.743400  0.164600  1.0  0.1083
  H  H75  1  0.503100  0.735400  0.233100  1.0  0.1176
  H  H76  1  0.554000  0.659200  0.314400  1.0  0.1065
  H  H77  1  0.642000  0.685700  0.235400  1.0  0.0847
  H  H78  1  0.573900  0.968300  0.079700  1.0  0.0925
  H  H79  1  0.714600  0.013100  0.082800  1.0  0.1045
  H  H80  1  0.615100  0.051000  0.156700  1.0  0.1097
  H  H81  1  0.543600  0.005600  0.182100  1.0  0.2818
  H  H82  1  0.474500  0.257800  0.175300  1.0  0.3456
  H  H83  1  0.365300  0.213700  0.088400  1.0  0.1189
  H  H84  1  0.218300  0.188800  0.081900  1.0  0.09
  H  H85  1  0.274400  0.256600  0.164600  1.0  0.1087
  H  H86  1  0.496900  0.264600  0.233100  1.0  0.1173
  H  H87  1  0.446000  0.340800  0.314400  1.0  0.1064
  H  H88  1  0.358000  0.314300  0.235400  1.0  0.0851
  H  H89  1  0.426100  0.031700  0.079700  1.0  0.093
  H  H90  1  0.285400  0.986900  0.082800  1.0  0.1042
  H  H91  1  0.384900  0.949000  0.156700  1.0  0.1093
  H  H92  1  0.456400  0.994400  0.182100  1.0  0.2823
  H  H93  1  0.757800  0.974500  0.324700  1.0  0.3463
  H  H94  1  0.713700  0.865300  0.411600  1.0  0.1184
  H  H95  1  0.688800  0.718300  0.418100  1.0  0.0897
  H  H96  1  0.756600  0.774400  0.335400  1.0  0.1084
  H  H97  1  0.764600  0.996900  0.266900  1.0  0.1168
  H  H98  1  0.840800  0.946000  0.185600  1.0  0.1069
  H  H99  1  0.814300  0.858000  0.264600  1.0  0.0846
  H  H100  1  0.531700  0.926100  0.420300  1.0  0.0924
  H  H101  1  0.486900  0.785400  0.417200  1.0  0.1047
  H  H102  1  0.449000  0.884900  0.343300  1.0  0.1097
  H  H103  1  0.494400  0.956400  0.317900  1.0  0.2827
  H  H104  1  0.242200  0.025500  0.324700  1.0  0.3501
  H  H105  1  0.286300  0.134700  0.411600  1.0  0.1189
  H  H106  1  0.311200  0.281700  0.418100  1.0  0.0896
  H  H107  1  0.243400  0.225600  0.335400  1.0  0.1083
  H  H108  1  0.235400  0.003100  0.266900  1.0  0.116
  H  H109  1  0.159200  0.054000  0.185600  1.0  0.1069
  H  H110  1  0.185700  0.142000  0.264600  1.0  0.0848
  H  H111  1  0.468300  0.073900  0.420300  1.0  0.0925
  H  H112  1  0.513100  0.214600  0.417200  1.0  0.1049
  H  H113  1  0.551000  0.115100  0.343300  1.0  0.1093
  H  H114  1  0.505600  0.043600  0.317900  1.0  0.2822
  H  H115  1  0.974500  0.242200  0.324700  1.0  0.3445
  H  H116  1  0.865300  0.286300  0.411600  1.0  0.1188
  H  H117  1  0.718300  0.311200  0.418100  1.0  0.0905
  H  H118  1  0.774400  0.243400  0.335400  1.0  0.1085
  H  H119  1  0.996900  0.235400  0.266900  1.0  0.1174
  H  H120  1  0.946000  0.159200  0.185600  1.0  0.1072
  H  H121  1  0.858000  0.185700  0.264600  1.0  0.0855
  H  H122  1  0.926100  0.468300  0.420300  1.0  0.0923
  H  H123  1  0.785400  0.513100  0.417200  1.0  0.1043
  H  H124  1  0.884900  0.551000  0.343300  1.0  0.1092
  H  H125  1  0.956400  0.505600  0.317900  1.0  0.283
  H  H126  1  0.025500  0.757800  0.324700  1.0  0.3433
  H  H127  1  0.134700  0.713700  0.411600  1.0  0.1187
  H  H128  1  0.281700  0.688800  0.418100  1.0  0.0906
  H  H129  1  0.225600  0.756600  0.335400  1.0  0.1082
  H  H130  1  0.003100  0.764600  0.266900  1.0  0.1173
  H  H131  1  0.054000  0.840800  0.185600  1.0  0.1071
  H  H132  1  0.142000  0.814300  0.264600  1.0  0.0854
  H  H133  1  0.073900  0.531700  0.420300  1.0  0.0922
  H  H134  1  0.214600  0.486900  0.417200  1.0  0.1045
  H  H135  1  0.115100  0.449000  0.343300  1.0  0.1096
  H  H136  1  0.043600  0.494400  0.317900  1.0  0.2828
  H  H137  1  0.257800  0.525500  0.824700  1.0  0.35
  H  H138  1  0.213700  0.634700  0.911600  1.0  0.1188
  H  H139  1  0.188800  0.781700  0.918100  1.0  0.0897
  H  H140  1  0.256600  0.725600  0.835400  1.0  0.1084
  H  H141  1  0.264600  0.503100  0.766900  1.0  0.116
  H  H142  1  0.340800  0.554000  0.685600  1.0  0.1068
  H  H143  1  0.314300  0.642000  0.764600  1.0  0.0847
  H  H144  1  0.031700  0.573900  0.920300  1.0  0.0927
  H  H145  1  0.986900  0.714600  0.917200  1.0  0.1044
  H  H146  1  0.949000  0.615100  0.843300  1.0  0.1093
  H  H147  1  0.994400  0.543600  0.817900  1.0  0.2823
  H  H148  1  0.742200  0.474500  0.824700  1.0  0.3463
  H  H149  1  0.786300  0.365300  0.911600  1.0  0.1185
  H  H150  1  0.811200  0.218300  0.918100  1.0  0.0899
  H  H151  1  0.743400  0.274400  0.835400  1.0  0.1082
  H  H152  1  0.735400  0.496900  0.766900  1.0  0.1167
  H  H153  1  0.659200  0.446000  0.685600  1.0  0.107
  H  H154  1  0.685700  0.358000  0.764600  1.0  0.0847
  H  H155  1  0.968300  0.426100  0.920300  1.0  0.0926
  H  H156  1  0.013100  0.285400  0.917200  1.0  0.1052
  H  H157  1  0.051000  0.384900  0.843300  1.0  0.1095
  H  H158  1  0.005600  0.456400  0.817900  1.0  0.2827
  H  H159  1  0.474500  0.257800  0.824700  1.0  0.3447
  H  H160  1  0.365300  0.213700  0.911600  1.0  0.1188
  H  H161  1  0.218300  0.188800  0.918100  1.0  0.0905
  H  H162  1  0.274400  0.256600  0.835400  1.0  0.1084
  H  H163  1  0.496900  0.264600  0.766900  1.0  0.1172
  H  H164  1  0.446000  0.340800  0.685600  1.0  0.1072
  H  H165  1  0.358000  0.314300  0.764600  1.0  0.0852
  H  H166  1  0.426100  0.031700  0.920300  1.0  0.0927
  H  H167  1  0.285400  0.986900  0.917200  1.0  0.1044
  H  H168  1  0.384900  0.949000  0.843300  1.0  0.1093
  H  H169  1  0.456400  0.994400  0.817900  1.0  0.283
  H  H170  1  0.525500  0.742200  0.824700  1.0  0.3431
  H  H171  1  0.634700  0.786300  0.911600  1.0  0.1187
  H  H172  1  0.781700  0.811200  0.918100  1.0  0.0907
  H  H173  1  0.725600  0.743400  0.835400  1.0  0.1082
  H  H174  1  0.503100  0.735400  0.766900  1.0  0.1174
  H  H175  1  0.554000  0.659200  0.685600  1.0  0.1071
  H  H176  1  0.642000  0.685700  0.764600  1.0  0.0856
  H  H177  1  0.573900  0.968300  0.920300  1.0  0.0926
  H  H178  1  0.714600  0.013100  0.917200  1.0  0.1044
  H  H179  1  0.615100  0.051000  0.843300  1.0  0.1095
  H  H180  1  0.543600  0.005600  0.817900  1.0  0.2828
  H  H181  1  0.242200  0.025500  0.675300  1.0  0.3519
  H  H182  1  0.286300  0.134700  0.588400  1.0  0.1188
  H  H183  1  0.311200  0.281700  0.581900  1.0  0.0898
  H  H184  1  0.243400  0.225600  0.664600  1.0  0.1085
  H  H185  1  0.235400  0.003100  0.733100  1.0  0.1163
  H  H186  1  0.159200  0.054000  0.814400  1.0  0.1063
  H  H187  1  0.185700  0.142000  0.735400  1.0  0.0844
  H  H188  1  0.468300  0.073900  0.579700  1.0  0.0922
  H  H189  1  0.513100  0.214600  0.582800  1.0  0.1048
  H  H190  1  0.551000  0.115100  0.656700  1.0  0.1091
  H  H191  1  0.505600  0.043600  0.682100  1.0  0.2815
  H  H192  1  0.757800  0.974500  0.675300  1.0  0.3471
  H  H193  1  0.713700  0.865300  0.588400  1.0  0.1184
  H  H194  1  0.688800  0.718300  0.581900  1.0  0.0893
  H  H195  1  0.756600  0.774400  0.664600  1.0  0.1084
  H  H196  1  0.764600  0.996900  0.733100  1.0  0.1167
  H  H197  1  0.840800  0.946000  0.814400  1.0  0.1059
  H  H198  1  0.814300  0.858000  0.735400  1.0  0.0843
  H  H199  1  0.531700  0.926100  0.579700  1.0  0.0926
  H  H200  1  0.486900  0.785400  0.582800  1.0  0.1043
  H  H201  1  0.449000  0.884900  0.656700  1.0  0.1099
  H  H202  1  0.494400  0.956400  0.682100  1.0  0.2824
  H  H203  1  0.025500  0.757800  0.675300  1.0  0.3449
  H  H204  1  0.134700  0.713700  0.588400  1.0  0.1186
  H  H205  1  0.281700  0.688800  0.581900  1.0  0.0903
  H  H206  1  0.225600  0.756600  0.664600  1.0  0.1084
  H  H207  1  0.003100  0.764600  0.733100  1.0  0.1175
  H  H208  1  0.054000  0.840800  0.814400  1.0  0.1066
  H  H209  1  0.142000  0.814300  0.735400  1.0  0.0848
  H  H210  1  0.073900  0.531700  0.579700  1.0  0.0922
  H  H211  1  0.214600  0.486900  0.582800  1.0  0.1043
  H  H212  1  0.115100  0.449000  0.656700  1.0  0.1099
  H  H213  1  0.043600  0.494400  0.682100  1.0  0.282
  H  H214  1  0.974500  0.242200  0.675300  1.0  0.3454
  H  H215  1  0.865300  0.286300  0.588400  1.0  0.1187
  H  H216  1  0.718300  0.311200  0.581900  1.0  0.0904
  H  H217  1  0.774400  0.243400  0.664600  1.0  0.1086
  H  H218  1  0.996900  0.235400  0.733100  1.0  0.1175
  H  H219  1  0.946000  0.159200  0.814400  1.0  0.1063
  H  H220  1  0.858000  0.185700  0.735400  1.0  0.085
  H  H221  1  0.926100  0.468300  0.579700  1.0  0.0926
  H  H222  1  0.785400  0.513100  0.582800  1.0  0.1043
  H  H223  1  0.884900  0.551000  0.656700  1.0  0.1093
  H  H224  1  0.956400  0.505600  0.682100  1.0  0.2821
  C  C225  1  0.751000  0.368900  0.153400  1.0  0.4121
  C  C226  1  0.727600  0.408200  0.194600  1.0  0.205
  C  C227  1  0.764200  0.328400  0.132200  1.0  -0.0729
  C  C228  1  0.785500  0.334000  0.098500  1.0  0.0157
  C  C229  1  0.805500  0.291800  0.080300  1.0  -0.1383
  C  C230  1  0.799700  0.245400  0.094200  1.0  0.0322
  C  C231  1  0.778200  0.237000  0.124600  1.0  -0.1021
  C  C232  1  0.759300  0.279900  0.143900  1.0  -0.0279
  C  C233  1  0.835800  0.302000  0.046900  1.0  0.6623
  C  C234  1  0.777200  0.185500  0.139400  1.0  0.6837
  C  C235  1  0.710800  0.424900  0.228100  1.0  -0.0756
  C  C236  1  0.717700  0.471900  0.244000  1.0  -0.0148
  C  C237  1  0.698300  0.479600  0.275300  1.0  -0.1716
  C  C238  1  0.672600  0.440500  0.292800  1.0  0.0113
  C  C239  1  0.667800  0.394900  0.277500  1.0  -0.1902
  C  C240  1  0.688000  0.389100  0.245600  1.0  -0.0564
  C  C241  1  0.706500  0.531100  0.294900  1.0  0.6576
  C  C242  1  0.643200  0.354000  0.298700  1.0  0.6857
  C  C243  1  0.003800  0.461000  0.132400  1.0  0.3069
  C  C244  1  0.006400  0.411600  0.120000  1.0  0.0998
  C  C245  1  0.984300  0.400700  0.091500  1.0  -0.0475
  C  C246  1  0.983000  0.352800  0.077200  1.0  -0.1461
  C  C247  1  0.011400  0.316600  0.092800  1.0  0.0091
  C  C248  1  0.038100  0.325100  0.123700  1.0  -0.1907
  C  C249  1  0.034300  0.376300  0.136800  1.0  -0.0774
  C  C250  1  0.951200  0.339100  0.046700  1.0  0.659
  C  C251  1  0.066100  0.283200  0.140600  1.0  0.7054
  C  C252  1  0.249000  0.631100  0.153400  1.0  0.4129
  C  C253  1  0.272400  0.591800  0.194600  1.0  0.2063
  C  C254  1  0.235800  0.671600  0.132200  1.0  -0.0731
  C  C255  1  0.214500  0.666000  0.098500  1.0  0.0176
  C  C256  1  0.194500  0.708200  0.080300  1.0  -0.1394
  C  C257  1  0.200300  0.754600  0.094200  1.0  0.0314
  C  C258  1  0.221800  0.763000  0.124600  1.0  -0.102
  C  C259  1  0.240700  0.720100  0.143900  1.0  -0.0274
  C  C260  1  0.164200  0.698000  0.046900  1.0  0.6632
  C  C261  1  0.222800  0.814500  0.139400  1.0  0.6838
  C  C262  1  0.289200  0.575100  0.228100  1.0  -0.0756
  C  C263  1  0.282300  0.528100  0.244000  1.0  -0.0129
  C  C264  1  0.301700  0.520400  0.275300  1.0  -0.1718
  C  C265  1  0.327400  0.559500  0.292800  1.0  0.0122
  C  C266  1  0.332200  0.605100  0.277500  1.0  -0.1905
  C  C267  1  0.312000  0.610900  0.245600  1.0  -0.0566
  C  C268  1  0.293500  0.468900  0.294900  1.0  0.6577
  C  C269  1  0.356800  0.646000  0.298700  1.0  0.6867
  C  C270  1  0.996200  0.539000  0.132400  1.0  0.3075
  C  C271  1  0.993600  0.588400  0.120000  1.0  0.1001
  C  C272  1  0.015700  0.599300  0.091500  1.0  -0.0465
  C  C273  1  0.017000  0.647200  0.077200  1.0  -0.1474
  C  C274  1  0.988600  0.683400  0.092800  1.0  0.008
  C  C275  1  0.961900  0.674900  0.123700  1.0  -0.1895
  C  C276  1  0.965700  0.623700  0.136800  1.0  -0.0782
  C  C277  1  0.048800  0.660900  0.046700  1.0  0.6596
  C  C278  1  0.933900  0.716800  0.140600  1.0  0.7052
  C  C279  1  0.631100  0.751000  0.153400  1.0  0.414
  C  C280  1  0.591800  0.727600  0.194600  1.0  0.2058
  C  C281  1  0.671600  0.764200  0.132200  1.0  -0.0732
  C  C282  1  0.666000  0.785500  0.098500  1.0  0.0128
  C  C283  1  0.708200  0.805500  0.080300  1.0  -0.14
  C  C284  1  0.754600  0.799700  0.094200  1.0  0.0295
  C  C285  1  0.763000  0.778200  0.124600  1.0  -0.1027
  C  C286  1  0.720100  0.759300  0.143900  1.0  -0.0273
  C  C287  1  0.698000  0.835800  0.046900  1.0  0.6628
  C  C288  1  0.814500  0.777200  0.139400  1.0  0.6811
  C  C289  1  0.575100  0.710800  0.228100  1.0  -0.075
  C  C290  1  0.528100  0.717700  0.244000  1.0  -0.0133
  C  C291  1  0.520400  0.698300  0.275300  1.0  -0.1718
  C  C292  1  0.559500  0.672600  0.292800  1.0  0.0119
  C  C293  1  0.605100  0.667800  0.277500  1.0  -0.1892
  C  C294  1  0.610900  0.688000  0.245600  1.0  -0.0564
  C  C295  1  0.468900  0.706500  0.294900  1.0  0.6556
  C  C296  1  0.646000  0.643200  0.298700  1.0  0.6839
  C  C297  1  0.539000  0.003800  0.132400  1.0  0.3077
  C  C298  1  0.588400  0.006400  0.120000  1.0  0.1002
  C  C299  1  0.599300  0.984300  0.091500  1.0  -0.0478
  C  C300  1  0.647200  0.983000  0.077200  1.0  -0.1454
  C  C301  1  0.683400  0.011400  0.092800  1.0  0.0087
  C  C302  1  0.674900  0.038100  0.123700  1.0  -0.1898
  C  C303  1  0.623700  0.034300  0.136800  1.0  -0.0776
  C  C304  1  0.660900  0.951200  0.046700  1.0  0.6592
  C  C305  1  0.716800  0.066100  0.140600  1.0  0.7029
  C  C306  1  0.368900  0.249000  0.153400  1.0  0.4112
  C  C307  1  0.408200  0.272400  0.194600  1.0  0.2059
  C  C308  1  0.328400  0.235800  0.132200  1.0  -0.0737
  C  C309  1  0.334000  0.214500  0.098500  1.0  0.0168
  C  C310  1  0.291800  0.194500  0.080300  1.0  -0.1392
  C  C311  1  0.245400  0.200300  0.094200  1.0  0.0303
  C  C312  1  0.237000  0.221800  0.124600  1.0  -0.1025
  C  C313  1  0.279900  0.240700  0.143900  1.0  -0.0281
  C  C314  1  0.302000  0.164200  0.046900  1.0  0.6631
  C  C315  1  0.185500  0.222800  0.139400  1.0  0.683
  C  C316  1  0.424900  0.289200  0.228100  1.0  -0.077
  C  C317  1  0.471900  0.282300  0.244000  1.0  -0.0127
  C  C318  1  0.479600  0.301700  0.275300  1.0  -0.1717
  C  C319  1  0.440500  0.327400  0.292800  1.0  0.0118
  C  C320  1  0.394900  0.332200  0.277500  1.0  -0.1894
  C  C321  1  0.389100  0.312000  0.245600  1.0  -0.0567
  C  C322  1  0.531100  0.293500  0.294900  1.0  0.656
  C  C323  1  0.354000  0.356800  0.298700  1.0  0.6847
  C  C324  1  0.461000  0.996200  0.132400  1.0  0.3057
  C  C325  1  0.411600  0.993600  0.120000  1.0  0.0999
  C  C326  1  0.400700  0.015700  0.091500  1.0  -0.0475
  C  C327  1  0.352800  0.017000  0.077200  1.0  -0.145
  C  C328  1  0.316600  0.988600  0.092800  1.0  0.0073
  C  C329  1  0.325100  0.961900  0.123700  1.0  -0.1898
  C  C330  1  0.376300  0.965700  0.136800  1.0  -0.0767
  C  C331  1  0.339100  0.048800  0.046700  1.0  0.6601
  C  C332  1  0.283200  0.933900  0.140600  1.0  0.7027
  C  C333  1  0.749000  0.868900  0.346600  1.0  0.4122
  C  C334  1  0.772400  0.908200  0.305400  1.0  0.2055
  C  C335  1  0.735800  0.828400  0.367800  1.0  -0.0728
  C  C336  1  0.714500  0.834000  0.401500  1.0  0.0154
  C  C337  1  0.694500  0.791800  0.419700  1.0  -0.1396
  C  C338  1  0.700300  0.745400  0.405800  1.0  0.0318
  C  C339  1  0.721800  0.737000  0.375400  1.0  -0.1015
  C  C340  1  0.740700  0.779900  0.356100  1.0  -0.0273
  C  C341  1  0.664200  0.802000  0.453100  1.0  0.6638
  C  C342  1  0.722800  0.685500  0.360600  1.0  0.6834
  C  C343  1  0.789200  0.924900  0.271900  1.0  -0.0762
  C  C344  1  0.782300  0.971900  0.256000  1.0  -0.0159
  C  C345  1  0.801700  0.979600  0.224700  1.0  -0.171
  C  C346  1  0.827400  0.940500  0.207200  1.0  0.0114
  C  C347  1  0.832200  0.894900  0.222500  1.0  -0.1897
  C  C348  1  0.812000  0.889100  0.254400  1.0  -0.0565
  C  C349  1  0.793500  0.031100  0.205100  1.0  0.6573
  C  C350  1  0.856800  0.854000  0.201300  1.0  0.6858
  C  C351  1  0.496200  0.961000  0.367600  1.0  0.3074
  C  C352  1  0.493600  0.911600  0.380000  1.0  0.1006
  C  C353  1  0.515700  0.900700  0.408500  1.0  -0.047
  C  C354  1  0.517000  0.852800  0.422800  1.0  -0.1491
  C  C355  1  0.488600  0.816600  0.407200  1.0  0.0095
  C  C356  1  0.461900  0.825100  0.376300  1.0  -0.1891
  C  C357  1  0.465700  0.876300  0.363200  1.0  -0.0795
  C  C358  1  0.548800  0.839100  0.453300  1.0  0.6596
  C  C359  1  0.433900  0.783200  0.359400  1.0  0.7053
  C  C360  1  0.251000  0.131100  0.346600  1.0  0.4123
  C  C361  1  0.227600  0.091800  0.305400  1.0  0.205
  C  C362  1  0.264200  0.171600  0.367800  1.0  -0.073
  C  C363  1  0.285500  0.166000  0.401500  1.0  0.016
  C  C364  1  0.305500  0.208200  0.419700  1.0  -0.1388
  C  C365  1  0.299700  0.254600  0.405800  1.0  0.0328
  C  C366  1  0.278200  0.263000  0.375400  1.0  -0.1022
  C  C367  1  0.259300  0.220100  0.356100  1.0  -0.0275
  C  C368  1  0.335800  0.198000  0.453100  1.0  0.663
  C  C369  1  0.277200  0.314500  0.360600  1.0  0.6842
  C  C370  1  0.210800  0.075100  0.271900  1.0  -0.0758
  C  C371  1  0.217700  0.028100  0.256000  1.0  -0.0117
  C  C372  1  0.198300  0.020400  0.224700  1.0  -0.171
  C  C373  1  0.172600  0.059500  0.207200  1.0  0.0111
  C  C374  1  0.167800  0.105100  0.222500  1.0  -0.1909
  C  C375  1  0.188000  0.110900  0.254400  1.0  -0.0571
  C  C376  1  0.206500  0.968900  0.205100  1.0  0.6575
  C  C377  1  0.143200  0.146000  0.201300  1.0  0.686
  C  C378  1  0.503800  0.039000  0.367600  1.0  0.3079
  C  C379  1  0.506400  0.088400  0.380000  1.0  0.1001
  C  C380  1  0.484300  0.099300  0.408500  1.0  -0.0475
  C  C381  1  0.483000  0.147200  0.422800  1.0  -0.1475
  C  C382  1  0.511400  0.183400  0.407200  1.0  0.009
  C  C383  1  0.538100  0.174900  0.376300  1.0  -0.19
  C  C384  1  0.534300  0.123700  0.363200  1.0  -0.079
  C  C385  1  0.451200  0.160900  0.453300  1.0  0.6595
  C  C386  1  0.566100  0.216800  0.359400  1.0  0.7055
  C  C387  1  0.868900  0.251000  0.346600  1.0  0.4115
  C  C388  1  0.908200  0.227600  0.305400  1.0  0.2049
  C  C389  1  0.828400  0.264200  0.367800  1.0  -0.0731
  C  C390  1  0.834000  0.285500  0.401500  1.0  0.0156
  C  C391  1  0.791800  0.305500  0.419700  1.0  -0.1395
  C  C392  1  0.745400  0.299700  0.405800  1.0  0.0298
  C  C393  1  0.737000  0.278200  0.375400  1.0  -0.1028
  C  C394  1  0.779900  0.259300  0.356100  1.0  -0.0272
  C  C395  1  0.802000  0.335800  0.453100  1.0  0.6634
  C  C396  1  0.685500  0.277200  0.360600  1.0  0.683
  C  C397  1  0.924900  0.210800  0.271900  1.0  -0.0764
  C  C398  1  0.971900  0.217700  0.256000  1.0  -0.0128
  C  C399  1  0.979600  0.198300  0.224700  1.0  -0.1705
  C  C400  1  0.940500  0.172600  0.207200  1.0  0.0115
  C  C401  1  0.894900  0.167800  0.222500  1.0  -0.1894
  C  C402  1  0.889100  0.188000  0.254400  1.0  -0.0568
  C  C403  1  0.031100  0.206500  0.205100  1.0  0.6558
  C  C404  1  0.854000  0.143200  0.201300  1.0  0.6842
  C  C405  1  0.961000  0.503800  0.367600  1.0  0.3069
  C  C406  1  0.911600  0.506400  0.380000  1.0  0.1002
  C  C407  1  0.900700  0.484300  0.408500  1.0  -0.0476
  C  C408  1  0.852800  0.483000  0.422800  1.0  -0.1464
  C  C409  1  0.816600  0.511400  0.407200  1.0  0.0076
  C  C410  1  0.825100  0.538100  0.376300  1.0  -0.1892
  C  C411  1  0.876300  0.534300  0.363200  1.0  -0.0789
  C  C412  1  0.839100  0.451200  0.453300  1.0  0.659
  C  C413  1  0.783200  0.566100  0.359400  1.0  0.703
  C  C414  1  0.131100  0.749000  0.346600  1.0  0.4134
  C  C415  1  0.091800  0.772400  0.305400  1.0  0.2057
  C  C416  1  0.171600  0.735800  0.367800  1.0  -0.0737
  C  C417  1  0.166000  0.714500  0.401500  1.0  0.0114
  C  C418  1  0.208200  0.694500  0.419700  1.0  -0.1393
  C  C419  1  0.254600  0.700300  0.405800  1.0  0.0305
  C  C420  1  0.263000  0.721800  0.375400  1.0  -0.1029
  C  C421  1  0.220100  0.740700  0.356100  1.0  -0.0268
  C  C422  1  0.198000  0.664200  0.453100  1.0  0.6635
  C  C423  1  0.314500  0.722800  0.360600  1.0  0.6811
  C  C424  1  0.075100  0.789200  0.271900  1.0  -0.0762
  C  C425  1  0.028100  0.782300  0.256000  1.0  -0.0125
  C  C426  1  0.020400  0.801700  0.224700  1.0  -0.1712
  C  C427  1  0.059500  0.827400  0.207200  1.0  0.0109
  C  C428  1  0.105100  0.832200  0.222500  1.0  -0.1889
  C  C429  1  0.110900  0.812000  0.254400  1.0  -0.0564
  C  C430  1  0.968900  0.793500  0.205100  1.0  0.6553
  C  C431  1  0.146000  0.856800  0.201300  1.0  0.6836
  C  C432  1  0.039000  0.496200  0.367600  1.0  0.3084
  C  C433  1  0.088400  0.493600  0.380000  1.0  0.1005
  C  C434  1  0.099300  0.515700  0.408500  1.0  -0.0484
  C  C435  1  0.147200  0.517000  0.422800  1.0  -0.1466
  C  C436  1  0.183400  0.488600  0.407200  1.0  0.0085
  C  C437  1  0.174900  0.461900  0.376300  1.0  -0.1893
  C  C438  1  0.123700  0.465700  0.363200  1.0  -0.0788
  C  C439  1  0.160900  0.548800  0.453300  1.0  0.6602
  C  C440  1  0.216800  0.433900  0.359400  1.0  0.7027
  C  C441  1  0.249000  0.631100  0.846600  1.0  0.4126
  C  C442  1  0.272400  0.591800  0.805400  1.0  0.2056
  C  C443  1  0.235800  0.671600  0.867800  1.0  -0.073
  C  C444  1  0.214500  0.666000  0.901500  1.0  0.0163
  C  C445  1  0.194500  0.708200  0.919700  1.0  -0.1395
  C  C446  1  0.200300  0.754600  0.905800  1.0  0.0323
  C  C447  1  0.221800  0.763000  0.875400  1.0  -0.1019
  C  C448  1  0.240700  0.720100  0.856100  1.0  -0.027
  C  C449  1  0.164200  0.698000  0.953100  1.0  0.6637
  C  C450  1  0.222800  0.814500  0.860600  1.0  0.6838
  C  C451  1  0.289200  0.575100  0.771900  1.0  -0.0761
  C  C452  1  0.282300  0.528100  0.756000  1.0  -0.0125
  C  C453  1  0.301700  0.520400  0.724700  1.0  -0.1712
  C  C454  1  0.327400  0.559500  0.707200  1.0  0.0111
  C  C455  1  0.332200  0.605100  0.722500  1.0  -0.1903
  C  C456  1  0.312000  0.610900  0.754400  1.0  -0.0569
  C  C457  1  0.293500  0.468900  0.705100  1.0  0.6574
  C  C458  1  0.356800  0.646000  0.701300  1.0  0.6864
  C  C459  1  0.996200  0.539000  0.867600  1.0  0.308
  C  C460  1  0.993600  0.588400  0.880000  1.0  0.1005
  C  C461  1  0.015700  0.599300  0.908500  1.0  -0.0471
  C  C462  1  0.017000  0.647200  0.922800  1.0  -0.149
  C  C463  1  0.988600  0.683400  0.907200  1.0  0.009
  C  C464  1  0.961900  0.674900  0.876300  1.0  -0.1893
  C  C465  1  0.965700  0.623700  0.863200  1.0  -0.0795
  C  C466  1  0.048800  0.660900  0.953300  1.0  0.6597
  C  C467  1  0.933900  0.716800  0.859400  1.0  0.7054
  C  C468  1  0.751000  0.368900  0.846600  1.0  0.412
  C  C469  1  0.727600  0.408200  0.805400  1.0  0.2048
  C  C470  1  0.764200  0.328400  0.867800  1.0  -0.0728
  C  C471  1  0.785500  0.334000  0.901500  1.0  0.0151
  C  C472  1  0.805500  0.291800  0.919700  1.0  -0.1388
  C  C473  1  0.799700  0.245400  0.905800  1.0  0.0325
  C  C474  1  0.778200  0.237000  0.875400  1.0  -0.1024
  C  C475  1  0.759300  0.279900  0.856100  1.0  -0.0277
  C  C476  1  0.835800  0.302000  0.953100  1.0  0.6628
  C  C477  1  0.777200  0.185500  0.860600  1.0  0.6838
  C  C478  1  0.710800  0.424900  0.771900  1.0  -0.0759
  C  C479  1  0.717700  0.471900  0.756000  1.0  -0.0148
  C  C480  1  0.698300  0.479600  0.724700  1.0  -0.1707
  C  C481  1  0.672600  0.440500  0.707200  1.0  0.0112
  C  C482  1  0.667800  0.394900  0.722500  1.0  -0.1904
  C  C483  1  0.688000  0.389100  0.754400  1.0  -0.0566
  C  C484  1  0.706500  0.531100  0.705100  1.0  0.6575
  C  C485  1  0.643200  0.354000  0.701300  1.0  0.6853
  C  C486  1  0.003800  0.461000  0.867600  1.0  0.3073
  C  C487  1  0.006400  0.411600  0.880000  1.0  0.1002
  C  C488  1  0.984300  0.400700  0.908500  1.0  -0.0472
  C  C489  1  0.983000  0.352800  0.922800  1.0  -0.1476
  C  C490  1  0.011400  0.316600  0.907200  1.0  0.0093
  C  C491  1  0.038100  0.325100  0.876300  1.0  -0.1897
  C  C492  1  0.034300  0.376300  0.863200  1.0  -0.0791
  C  C493  1  0.951200  0.339100  0.953300  1.0  0.6592
  C  C494  1  0.066100  0.283200  0.859400  1.0  0.7054
  C  C495  1  0.368900  0.249000  0.846600  1.0  0.4114
  C  C496  1  0.408200  0.272400  0.805400  1.0  0.2053
  C  C497  1  0.328400  0.235800  0.867800  1.0  -0.0736
  C  C498  1  0.334000  0.214500  0.901500  1.0  0.0153
  C  C499  1  0.291800  0.194500  0.919700  1.0  -0.1392
  C  C500  1  0.245400  0.200300  0.905800  1.0  0.0304
  C  C501  1  0.237000  0.221800  0.875400  1.0  -0.1027
  C  C502  1  0.279900  0.240700  0.856100  1.0  -0.0274
  C  C503  1  0.302000  0.164200  0.953100  1.0  0.6634
  C  C504  1  0.185500  0.222800  0.860600  1.0  0.6829
  C  C505  1  0.424900  0.289200  0.771900  1.0  -0.0773
  C  C506  1  0.471900  0.282300  0.756000  1.0  -0.0127
  C  C507  1  0.479600  0.301700  0.724700  1.0  -0.1706
  C  C508  1  0.440500  0.327400  0.707200  1.0  0.0114
  C  C509  1  0.394900  0.332200  0.722500  1.0  -0.1891
  C  C510  1  0.389100  0.312000  0.754400  1.0  -0.057
  C  C511  1  0.531100  0.293500  0.705100  1.0  0.6558
  C  C512  1  0.354000  0.356800  0.701300  1.0  0.6844
  C  C513  1  0.461000  0.996200  0.867600  1.0  0.307
  C  C514  1  0.411600  0.993600  0.880000  1.0  0.1002
  C  C515  1  0.400700  0.015700  0.908500  1.0  -0.0474
  C  C516  1  0.352800  0.017000  0.922800  1.0  -0.1465
  C  C517  1  0.316600  0.988600  0.907200  1.0  0.0082
  C  C518  1  0.325100  0.961900  0.876300  1.0  -0.1894
  C  C519  1  0.376300  0.965700  0.863200  1.0  -0.0788
  C  C520  1  0.339100  0.048800  0.953300  1.0  0.6601
  C  C521  1  0.283200  0.933900  0.859400  1.0  0.7028
  C  C522  1  0.631100  0.751000  0.846600  1.0  0.4136
  C  C523  1  0.591800  0.727600  0.805400  1.0  0.2053
  C  C524  1  0.671600  0.764200  0.867800  1.0  -0.0731
  C  C525  1  0.666000  0.785500  0.901500  1.0  0.0118
  C  C526  1  0.708200  0.805500  0.919700  1.0  -0.1399
  C  C527  1  0.754600  0.799700  0.905800  1.0  0.0301
  C  C528  1  0.763000  0.778200  0.875400  1.0  -0.1027
  C  C529  1  0.720100  0.759300  0.856100  1.0  -0.0271
  C  C530  1  0.698000  0.835800  0.953100  1.0  0.6634
  C  C531  1  0.814500  0.777200  0.860600  1.0  0.6811
  C  C532  1  0.575100  0.710800  0.771900  1.0  -0.0754
  C  C533  1  0.528100  0.717700  0.756000  1.0  -0.0125
  C  C534  1  0.520400  0.698300  0.724700  1.0  -0.1714
  C  C535  1  0.559500  0.672600  0.707200  1.0  0.0113
  C  C536  1  0.605100  0.667800  0.722500  1.0  -0.189
  C  C537  1  0.610900  0.688000  0.754400  1.0  -0.0564
  C  C538  1  0.468900  0.706500  0.705100  1.0  0.6553
  C  C539  1  0.646000  0.643200  0.701300  1.0  0.6835
  C  C540  1  0.539000  0.003800  0.867600  1.0  0.3083
  C  C541  1  0.588400  0.006400  0.880000  1.0  0.1005
  C  C542  1  0.599300  0.984300  0.908500  1.0  -0.048
  C  C543  1  0.647200  0.983000  0.922800  1.0  -0.1464
  C  C544  1  0.683400  0.011400  0.907200  1.0  0.0085
  C  C545  1  0.674900  0.038100  0.876300  1.0  -0.1893
  C  C546  1  0.623700  0.034300  0.863200  1.0  -0.0792
  C  C547  1  0.660900  0.951200  0.953300  1.0  0.6594
  C  C548  1  0.716800  0.066100  0.859400  1.0  0.703
  C  C549  1  0.251000  0.131100  0.653400  1.0  0.4127
  C  C550  1  0.227600  0.091800  0.694600  1.0  0.2054
  C  C551  1  0.264200  0.171600  0.632200  1.0  -0.073
  C  C552  1  0.285500  0.166000  0.598500  1.0  0.0172
  C  C553  1  0.305500  0.208200  0.580300  1.0  -0.1384
  C  C554  1  0.299700  0.254600  0.594200  1.0  0.0317
  C  C555  1  0.278200  0.263000  0.624600  1.0  -0.1021
  C  C556  1  0.259300  0.220100  0.643900  1.0  -0.0281
  C  C557  1  0.335800  0.198000  0.546900  1.0  0.6625
  C  C558  1  0.277200  0.314500  0.639400  1.0  0.6841
  C  C559  1  0.210800  0.075100  0.728100  1.0  -0.0755
  C  C560  1  0.217700  0.028100  0.744000  1.0  -0.0121
  C  C561  1  0.198300  0.020400  0.775300  1.0  -0.1715
  C  C562  1  0.172600  0.059500  0.792800  1.0  0.0116
  C  C563  1  0.167800  0.105100  0.777500  1.0  -0.1909
  C  C564  1  0.188000  0.110900  0.745600  1.0  -0.0567
  C  C565  1  0.206500  0.968900  0.794900  1.0  0.6578
  C  C566  1  0.143200  0.146000  0.798700  1.0  0.6862
  C  C567  1  0.503800  0.039000  0.632400  1.0  0.3074
  C  C568  1  0.506400  0.088400  0.620000  1.0  0.0997
  C  C569  1  0.484300  0.099300  0.591500  1.0  -0.0468
  C  C570  1  0.483000  0.147200  0.577200  1.0  -0.1459
  C  C571  1  0.511400  0.183400  0.592800  1.0  0.0084
  C  C572  1  0.538100  0.174900  0.623700  1.0  -0.1909
  C  C573  1  0.534300  0.123700  0.636800  1.0  -0.0777
  C  C574  1  0.451200  0.160900  0.546700  1.0  0.6593
  C  C575  1  0.566100  0.216800  0.640600  1.0  0.7054
  C  C576  1  0.749000  0.868900  0.653400  1.0  0.4124
  C  C577  1  0.772400  0.908200  0.694600  1.0  0.206
  C  C578  1  0.735800  0.828400  0.632200  1.0  -0.073
  C  C579  1  0.714500  0.834000  0.598500  1.0  0.0162
  C  C580  1  0.694500  0.791800  0.580300  1.0  -0.1392
  C  C581  1  0.700300  0.745400  0.594200  1.0  0.0315
  C  C582  1  0.721800  0.737000  0.624600  1.0  -0.1016
  C  C583  1  0.740700  0.779900  0.643900  1.0  -0.0274
  C  C584  1  0.664200  0.802000  0.546900  1.0  0.663
  C  C585  1  0.722800  0.685500  0.639400  1.0  0.6834
  C  C586  1  0.789200  0.924900  0.728100  1.0  -0.0758
  C  C587  1  0.782300  0.971900  0.744000  1.0  -0.0162
  C  C588  1  0.801700  0.979600  0.775300  1.0  -0.1719
  C  C589  1  0.827400  0.940500  0.792800  1.0  0.012
  C  C590  1  0.832200  0.894900  0.777500  1.0  -0.1897
  C  C591  1  0.812000  0.889100  0.745600  1.0  -0.0563
  C  C592  1  0.793500  0.031100  0.794900  1.0  0.6575
  C  C593  1  0.856800  0.854000  0.798700  1.0  0.6862
  C  C594  1  0.496200  0.961000  0.632400  1.0  0.307
  C  C595  1  0.493600  0.911600  0.620000  1.0  0.1003
  C  C596  1  0.515700  0.900700  0.591500  1.0  -0.0475
  C  C597  1  0.517000  0.852800  0.577200  1.0  -0.1477
  C  C598  1  0.488600  0.816600  0.592800  1.0  0.0091
  C  C599  1  0.461900  0.825100  0.623700  1.0  -0.1893
  C  C600  1  0.465700  0.876300  0.636800  1.0  -0.0777
  C  C601  1  0.548800  0.839100  0.546700  1.0  0.6595
  C  C602  1  0.433900  0.783200  0.640600  1.0  0.7052
  C  C603  1  0.131100  0.749000  0.653400  1.0  0.4136
  C  C604  1  0.091800  0.772400  0.694600  1.0  0.2063
  C  C605  1  0.171600  0.735800  0.632200  1.0  -0.0738
  C  C606  1  0.166000  0.714500  0.598500  1.0  0.0126
  C  C607  1  0.208200  0.694500  0.580300  1.0  -0.1394
  C  C608  1  0.254600  0.700300  0.594200  1.0  0.0301
  C  C609  1  0.263000  0.721800  0.624600  1.0  -0.1028
  C  C610  1  0.220100  0.740700  0.643900  1.0  -0.0276
  C  C611  1  0.198000  0.664200  0.546900  1.0  0.6629
  C  C612  1  0.314500  0.722800  0.639400  1.0  0.6811
  C  C613  1  0.075100  0.789200  0.728100  1.0  -0.0758
  C  C614  1  0.028100  0.782300  0.744000  1.0  -0.0131
  C  C615  1  0.020400  0.801700  0.775300  1.0  -0.1719
  C  C616  1  0.059500  0.827400  0.792800  1.0  0.0109
  C  C617  1  0.105100  0.832200  0.777500  1.0  -0.1892
  C  C618  1  0.110900  0.812000  0.745600  1.0  -0.0562
  C  C619  1  0.968900  0.793500  0.794900  1.0  0.6556
  C  C620  1  0.146000  0.856800  0.798700  1.0  0.6839
  C  C621  1  0.039000  0.496200  0.632400  1.0  0.3079
  C  C622  1  0.088400  0.493600  0.620000  1.0  0.1003
  C  C623  1  0.099300  0.515700  0.591500  1.0  -0.0479
  C  C624  1  0.147200  0.517000  0.577200  1.0  -0.145
  C  C625  1  0.183400  0.488600  0.592800  1.0  0.0085
  C  C626  1  0.174900  0.461900  0.623700  1.0  -0.1897
  C  C627  1  0.123700  0.465700  0.636800  1.0  -0.0777
  C  C628  1  0.160900  0.548800  0.546700  1.0  0.6601
  C  C629  1  0.216800  0.433900  0.640600  1.0  0.7025
  C  C630  1  0.868900  0.251000  0.653400  1.0  0.4115
  C  C631  1  0.908200  0.227600  0.694600  1.0  0.2053
  C  C632  1  0.828400  0.264200  0.632200  1.0  -0.0732
  C  C633  1  0.834000  0.285500  0.598500  1.0  0.017
  C  C634  1  0.791800  0.305500  0.580300  1.0  -0.1395
  C  C635  1  0.745400  0.299700  0.594200  1.0  0.0295
  C  C636  1  0.737000  0.278200  0.624600  1.0  -0.1026
  C  C637  1  0.779900  0.259300  0.643900  1.0  -0.0275
  C  C638  1  0.802000  0.335800  0.546900  1.0  0.6631
  C  C639  1  0.685500  0.277200  0.639400  1.0  0.6831
  C  C640  1  0.924900  0.210800  0.728100  1.0  -0.076
  C  C641  1  0.971900  0.217700  0.744000  1.0  -0.0129
  C  C642  1  0.979600  0.198300  0.775300  1.0  -0.1717
  C  C643  1  0.940500  0.172600  0.792800  1.0  0.0124
  C  C644  1  0.894900  0.167800  0.777500  1.0  -0.1894
  C  C645  1  0.889100  0.188000  0.745600  1.0  -0.0567
  C  C646  1  0.031100  0.206500  0.794900  1.0  0.656
  C  C647  1  0.854000  0.143200  0.798700  1.0  0.6846
  C  C648  1  0.961000  0.503800  0.632400  1.0  0.3056
  C  C649  1  0.911600  0.506400  0.620000  1.0  0.0998
  C  C650  1  0.900700  0.484300  0.591500  1.0  -0.0477
  C  C651  1  0.852800  0.483000  0.577200  1.0  -0.1455
  C  C652  1  0.816600  0.511400  0.592800  1.0  0.0071
  C  C653  1  0.825100  0.538100  0.623700  1.0  -0.1896
  C  C654  1  0.876300  0.534300  0.636800  1.0  -0.0767
  C  C655  1  0.839100  0.451200  0.546700  1.0  0.6589
  C  C656  1  0.783200  0.566100  0.640600  1.0  0.703
  N  N657  1  0.760100  0.416200  0.143400  1.0  -0.4066
  N  N658  1  0.742800  0.442900  0.172500  1.0  -0.2331
  N  N659  1  0.734600  0.364900  0.183100  1.0  -0.2427
  N  N660  1  0.003000  0.475200  0.164500  1.0  -0.1714
  N  N661  1  0.239900  0.583800  0.143400  1.0  -0.405
  N  N662  1  0.257200  0.557100  0.172500  1.0  -0.2398
  N  N663  1  0.265400  0.635100  0.183100  1.0  -0.2435
  N  N664  1  0.997000  0.524800  0.164500  1.0  -0.1719
  N  N665  1  0.583800  0.760100  0.143400  1.0  -0.4024
  N  N666  1  0.557100  0.742800  0.172500  1.0  -0.2376
  N  N667  1  0.635100  0.734600  0.183100  1.0  -0.2457
  N  N668  1  0.524800  0.003000  0.164500  1.0  -0.1704
  N  N669  1  0.416200  0.239900  0.143400  1.0  -0.4031
  N  N670  1  0.442900  0.257200  0.172500  1.0  -0.2368
  N  N671  1  0.364900  0.265400  0.183100  1.0  -0.2415
  N  N672  1  0.475200  0.997000  0.164500  1.0  -0.1715
  N  N673  1  0.739900  0.916200  0.356600  1.0  -0.4098
  N  N674  1  0.757200  0.942900  0.327500  1.0  -0.2326
  N  N675  1  0.765400  0.864900  0.316900  1.0  -0.2433
  N  N676  1  0.497000  0.975200  0.335500  1.0  -0.1701
  N  N677  1  0.260100  0.083800  0.356600  1.0  -0.408
  N  N678  1  0.242800  0.057100  0.327500  1.0  -0.2375
  N  N679  1  0.234600  0.135100  0.316900  1.0  -0.2444
  N  N680  1  0.503000  0.024800  0.335500  1.0  -0.1713
  N  N681  1  0.916200  0.260100  0.356600  1.0  -0.4079
  N  N682  1  0.942900  0.242800  0.327500  1.0  -0.236
  N  N683  1  0.864900  0.234600  0.316900  1.0  -0.242
  N  N684  1  0.975200  0.503000  0.335500  1.0  -0.1704
  N  N685  1  0.083800  0.739900  0.356600  1.0  -0.4065
  N  N686  1  0.057100  0.757200  0.327500  1.0  -0.237
  N  N687  1  0.135100  0.765400  0.316900  1.0  -0.2465
  N  N688  1  0.024800  0.497000  0.335500  1.0  -0.1696
  N  N689  1  0.239900  0.583800  0.856600  1.0  -0.4099
  N  N690  1  0.257200  0.557100  0.827500  1.0  -0.2383
  N  N691  1  0.265400  0.635100  0.816900  1.0  -0.2443
  N  N692  1  0.997000  0.524800  0.835500  1.0  -0.1713
  N  N693  1  0.760100  0.416200  0.856600  1.0  -0.4088
  N  N694  1  0.742800  0.442900  0.827500  1.0  -0.2321
  N  N695  1  0.734600  0.364900  0.816900  1.0  -0.2435
  N  N696  1  0.003000  0.475200  0.835500  1.0  -0.1701
  N  N697  1  0.416200  0.239900  0.856600  1.0  -0.407
  N  N698  1  0.442900  0.257200  0.827500  1.0  -0.2368
  N  N699  1  0.364900  0.265400  0.816900  1.0  -0.2415
  N  N700  1  0.475200  0.997000  0.835500  1.0  -0.1704
  N  N701  1  0.583800  0.760100  0.856600  1.0  -0.4071
  N  N702  1  0.557100  0.742800  0.827500  1.0  -0.2368
  N  N703  1  0.635100  0.734600  0.816900  1.0  -0.2472
  N  N704  1  0.524800  0.003000  0.835500  1.0  -0.1698
  N  N705  1  0.260100  0.083800  0.643400  1.0  -0.4035
  N  N706  1  0.242800  0.057100  0.672500  1.0  -0.2392
  N  N707  1  0.234600  0.135100  0.683100  1.0  -0.2439
  N  N708  1  0.503000  0.024800  0.664500  1.0  -0.1724
  N  N709  1  0.739900  0.916200  0.643400  1.0  -0.4071
  N  N710  1  0.757200  0.942900  0.672500  1.0  -0.2336
  N  N711  1  0.765400  0.864900  0.683100  1.0  -0.2423
  N  N712  1  0.497000  0.975200  0.664500  1.0  -0.1709
  N  N713  1  0.083800  0.739900  0.643400  1.0  -0.4021
  N  N714  1  0.057100  0.757200  0.672500  1.0  -0.2379
  N  N715  1  0.135100  0.765400  0.683100  1.0  -0.2457
  N  N716  1  0.024800  0.497000  0.664500  1.0  -0.1704
  N  N717  1  0.916200  0.260100  0.643400  1.0  -0.4046
  N  N718  1  0.942900  0.242800  0.672500  1.0  -0.2361
  N  N719  1  0.864900  0.234600  0.683100  1.0  -0.2414
  N  N720  1  0.975200  0.503000  0.664500  1.0  -0.1714
  N  N721  1  0.000000  0.500000  0.111700  1.0  -0.3819
  N  N722  1  0.500000  0.000000  0.111700  1.0  -0.3819
  N  N723  1  0.500000  0.000000  0.388300  1.0  -0.3832
  N  N724  1  0.000000  0.500000  0.388300  1.0  -0.3832
  N  N725  1  0.000000  0.500000  0.888300  1.0  -0.3832
  N  N726  1  0.500000  0.000000  0.888300  1.0  -0.3832
  N  N727  1  0.500000  0.000000  0.611700  1.0  -0.3819
  N  N728  1  0.000000  0.500000  0.611700  1.0  -0.3819
  O  O729  1  0.831700  0.346400  0.035650  1.0  -0.5719
  O  O730  1  0.858000  0.267100  0.035540  1.0  -0.5422
  O  O731  1  0.751100  0.182480  0.166890  1.0  -0.5971
  O  O732  1  0.800300  0.154300  0.124830  1.0  -0.5493
  O  O733  1  0.736200  0.560800  0.281350  1.0  -0.5725
  O  O734  1  0.680300  0.535600  0.321460  1.0  -0.5807
  O  O735  1  0.645900  0.312900  0.284070  1.0  -0.5922
  O  O736  1  0.624600  0.364800  0.325770  1.0  -0.5459
  O  O737  1  0.926100  0.376800  0.035610  1.0  -0.5869
  O  O738  1  0.951900  0.295400  0.036170  1.0  -0.5721
  O  O739  1  0.090300  0.297200  0.166680  1.0  -0.608
  O  O740  1  0.062400  0.242200  0.128280  1.0  -0.5434
  O  O741  1  0.168300  0.653600  0.035650  1.0  -0.572
  O  O742  1  0.142000  0.732900  0.035540  1.0  -0.541
  O  O743  1  0.248900  0.817520  0.166890  1.0  -0.5978
  O  O744  1  0.199700  0.845700  0.124830  1.0  -0.5488
  O  O745  1  0.263800  0.439200  0.281350  1.0  -0.5721
  O  O746  1  0.319700  0.464400  0.321460  1.0  -0.5816
  O  O747  1  0.354100  0.687100  0.284070  1.0  -0.5927
  O  O748  1  0.375400  0.635200  0.325770  1.0  -0.5464
  O  O749  1  0.073900  0.623200  0.035610  1.0  -0.587
  O  O750  1  0.048100  0.704600  0.036170  1.0  -0.5721
  O  O751  1  0.909700  0.702800  0.166680  1.0  -0.6082
  O  O752  1  0.937600  0.757800  0.128280  1.0  -0.543
  O  O753  1  0.653600  0.831700  0.035650  1.0  -0.5701
  O  O754  1  0.732900  0.858000  0.035540  1.0  -0.5442
  O  O755  1  0.817520  0.751100  0.166890  1.0  -0.6003
  O  O756  1  0.845700  0.800300  0.124830  1.0  -0.5493
  O  O757  1  0.439200  0.736200  0.281350  1.0  -0.5731
  O  O758  1  0.464400  0.680300  0.321460  1.0  -0.5814
  O  O759  1  0.687100  0.645900  0.284070  1.0  -0.592
  O  O760  1  0.635200  0.624600  0.325770  1.0  -0.5456
  O  O761  1  0.623200  0.926100  0.035610  1.0  -0.5885
  O  O762  1  0.704600  0.951900  0.036170  1.0  -0.5717
  O  O763  1  0.702800  0.090300  0.166680  1.0  -0.6079
  O  O764  1  0.757800  0.062400  0.128280  1.0  -0.5437
  O  O765  1  0.346400  0.168300  0.035650  1.0  -0.5691
  O  O766  1  0.267100  0.142000  0.035540  1.0  -0.5441
  O  O767  1  0.182480  0.248900  0.166890  1.0  -0.599
  O  O768  1  0.154300  0.199700  0.124830  1.0  -0.5489
  O  O769  1  0.560800  0.263800  0.281350  1.0  -0.5732
  O  O770  1  0.535600  0.319700  0.321460  1.0  -0.5811
  O  O771  1  0.312900  0.354100  0.284070  1.0  -0.592
  O  O772  1  0.364800  0.375400  0.325770  1.0  -0.5436
  O  O773  1  0.376800  0.073900  0.035610  1.0  -0.5871
  O  O774  1  0.295400  0.048100  0.036170  1.0  -0.5712
  O  O775  1  0.297200  0.909700  0.166680  1.0  -0.6073
  O  O776  1  0.242200  0.937600  0.128280  1.0  -0.5419
  O  O777  1  0.668300  0.846400  0.464350  1.0  -0.5705
  O  O778  1  0.642000  0.767100  0.464460  1.0  -0.5419
  O  O779  1  0.748900  0.682480  0.333110  1.0  -0.5973
  O  O780  1  0.699700  0.654300  0.375170  1.0  -0.5485
  O  O781  1  0.763800  0.060800  0.218650  1.0  -0.5719
  O  O782  1  0.819700  0.035600  0.178540  1.0  -0.5807
  O  O783  1  0.854100  0.812900  0.215930  1.0  -0.5932
  O  O784  1  0.875400  0.864800  0.174230  1.0  -0.546
  O  O785  1  0.573900  0.876800  0.464390  1.0  -0.5873
  O  O786  1  0.548100  0.795400  0.463830  1.0  -0.5715
  O  O787  1  0.409700  0.797200  0.333333  1.0  -0.6084
  O  O788  1  0.437600  0.742200  0.371720  1.0  -0.5431
  O  O789  1  0.331700  0.153600  0.464350  1.0  -0.5722
  O  O790  1  0.358000  0.232900  0.464460  1.0  -0.5415
  O  O791  1  0.251100  0.317520  0.333110  1.0  -0.5978
  O  O792  1  0.300300  0.345700  0.375170  1.0  -0.5486
  O  O793  1  0.236200  0.939200  0.218650  1.0  -0.572
  O  O794  1  0.180300  0.964400  0.178540  1.0  -0.5797
  O  O795  1  0.145900  0.187100  0.215930  1.0  -0.5926
  O  O796  1  0.124600  0.135200  0.174230  1.0  -0.5458
  O  O797  1  0.426100  0.123200  0.464390  1.0  -0.5866
  O  O798  1  0.451900  0.204600  0.463830  1.0  -0.5707
  O  O799  1  0.590300  0.202800  0.333333  1.0  -0.6072
  O  O800  1  0.562400  0.257800  0.371720  1.0  -0.5438
  O  O801  1  0.846400  0.331700  0.464350  1.0  -0.5701
  O  O802  1  0.767100  0.358000  0.464460  1.0  -0.5439
  O  O803  1  0.682480  0.251100  0.333110  1.0  -0.5983
  O  O804  1  0.654300  0.300300  0.375170  1.0  -0.5488
  O  O805  1  0.060800  0.236200  0.218650  1.0  -0.5724
  O  O806  1  0.035600  0.180300  0.178540  1.0  -0.581
  O  O807  1  0.812900  0.145900  0.215930  1.0  -0.5928
  O  O808  1  0.864800  0.124600  0.174230  1.0  -0.5453
  O  O809  1  0.876800  0.426100  0.464390  1.0  -0.5873
  O  O810  1  0.795400  0.451900  0.463830  1.0  -0.5717
  O  O811  1  0.797200  0.590300  0.333333  1.0  -0.6061
  O  O812  1  0.742200  0.562400  0.371720  1.0  -0.5425
  O  O813  1  0.153600  0.668300  0.464350  1.0  -0.5691
  O  O814  1  0.232900  0.642000  0.464460  1.0  -0.5443
  O  O815  1  0.317520  0.748900  0.333110  1.0  -0.5995
  O  O816  1  0.345700  0.699700  0.375170  1.0  -0.5482
  O  O817  1  0.939200  0.763800  0.218650  1.0  -0.5729
  O  O818  1  0.964400  0.819700  0.178540  1.0  -0.5805
  O  O819  1  0.187100  0.854100  0.215930  1.0  -0.5919
  O  O820  1  0.135200  0.875400  0.174230  1.0  -0.5459
  O  O821  1  0.123200  0.573900  0.464390  1.0  -0.588
  O  O822  1  0.204600  0.548100  0.463830  1.0  -0.5719
  O  O823  1  0.202800  0.409700  0.333333  1.0  -0.608
  O  O824  1  0.257800  0.437600  0.371720  1.0  -0.5436
  O  O825  1  0.168300  0.653600  0.964350  1.0  -0.5726
  O  O826  1  0.142000  0.732900  0.964460  1.0  -0.5408
  O  O827  1  0.248900  0.817520  0.833110  1.0  -0.5978
  O  O828  1  0.199700  0.845700  0.875170  1.0  -0.5485
  O  O829  1  0.263800  0.439200  0.718650  1.0  -0.5719
  O  O830  1  0.319700  0.464400  0.678540  1.0  -0.5814
  O  O831  1  0.354100  0.687100  0.715930  1.0  -0.5935
  O  O832  1  0.375400  0.635200  0.674230  1.0  -0.5462
  O  O833  1  0.073900  0.623200  0.964390  1.0  -0.5862
  O  O834  1  0.048100  0.704600  0.963830  1.0  -0.5717
  O  O835  1  0.909700  0.702800  0.833320  1.0  -0.6082
  O  O836  1  0.937600  0.757800  0.871720  1.0  -0.5431
  O  O837  1  0.831700  0.346400  0.964350  1.0  -0.5722
  O  O838  1  0.858000  0.267100  0.964460  1.0  -0.5422
  O  O839  1  0.751100  0.182480  0.833110  1.0  -0.5977
  O  O840  1  0.800300  0.154300  0.875170  1.0  -0.5488
  O  O841  1  0.736200  0.560800  0.718650  1.0  -0.5717
  O  O842  1  0.680300  0.535600  0.678540  1.0  -0.5809
  O  O843  1  0.645900  0.312900  0.715930  1.0  -0.5923
  O  O844  1  0.624600  0.364800  0.674230  1.0  -0.5454
  O  O845  1  0.926100  0.376800  0.964390  1.0  -0.5865
  O  O846  1  0.951900  0.295400  0.963830  1.0  -0.5719
  O  O847  1  0.090300  0.297200  0.833320  1.0  -0.6074
  O  O848  1  0.062400  0.242200  0.871720  1.0  -0.5437
  O  O849  1  0.346400  0.168300  0.964350  1.0  -0.5697
  O  O850  1  0.267100  0.142000  0.964460  1.0  -0.5439
  O  O851  1  0.182480  0.248900  0.833110  1.0  -0.5996
  O  O852  1  0.154300  0.199700  0.875170  1.0  -0.5481
  O  O853  1  0.560800  0.263800  0.718650  1.0  -0.5726
  O  O854  1  0.535600  0.319700  0.678540  1.0  -0.5812
  O  O855  1  0.312900  0.354100  0.715930  1.0  -0.5926
  O  O856  1  0.364800  0.375400  0.674230  1.0  -0.5437
  O  O857  1  0.376800  0.073900  0.964390  1.0  -0.587
  O  O858  1  0.295400  0.048100  0.963830  1.0  -0.5709
  O  O859  1  0.297200  0.909700  0.833320  1.0  -0.6071
  O  O860  1  0.242200  0.937600  0.871720  1.0  -0.5426
  O  O861  1  0.653600  0.831700  0.964350  1.0  -0.5705
  O  O862  1  0.732900  0.858000  0.964460  1.0  -0.5441
  O  O863  1  0.817520  0.751100  0.833110  1.0  -0.6002
  O  O864  1  0.845700  0.800300  0.875170  1.0  -0.5485
  O  O865  1  0.439200  0.736200  0.718650  1.0  -0.5727
  O  O866  1  0.464400  0.680300  0.678540  1.0  -0.5808
  O  O867  1  0.687100  0.645900  0.715930  1.0  -0.592
  O  O868  1  0.635200  0.624600  0.674230  1.0  -0.5454
  O  O869  1  0.623200  0.926100  0.964390  1.0  -0.5883
  O  O870  1  0.704600  0.951900  0.963830  1.0  -0.5716
  O  O871  1  0.702800  0.090300  0.833320  1.0  -0.6073
  O  O872  1  0.757800  0.062400  0.871720  1.0  -0.5434
  O  O873  1  0.331700  0.153600  0.535650  1.0  -0.5734
  O  O874  1  0.358000  0.232900  0.535540  1.0  -0.5416
  O  O875  1  0.251100  0.317520  0.666890  1.0  -0.5974
  O  O876  1  0.300300  0.345700  0.624830  1.0  -0.5494
  O  O877  1  0.236200  0.939200  0.781350  1.0  -0.5725
  O  O878  1  0.180300  0.964400  0.821460  1.0  -0.5797
  O  O879  1  0.145900  0.187100  0.784070  1.0  -0.5922
  O  O880  1  0.124600  0.135200  0.825770  1.0  -0.5468
  O  O881  1  0.426100  0.123200  0.535610  1.0  -0.5866
  O  O882  1  0.451900  0.204600  0.536170  1.0  -0.5709
  O  O883  1  0.590300  0.202800  0.666667  1.0  -0.6073
  O  O884  1  0.562400  0.257800  0.628280  1.0  -0.543
  O  O885  1  0.668300  0.846400  0.535650  1.0  -0.5713
  O  O886  1  0.642000  0.767100  0.535540  1.0  -0.5415
  O  O887  1  0.748900  0.682480  0.666890  1.0  -0.5975
  O  O888  1  0.699700  0.654300  0.624830  1.0  -0.5492
  O  O889  1  0.763800  0.060800  0.781350  1.0  -0.5715
  O  O890  1  0.819700  0.035600  0.821460  1.0  -0.581
  O  O891  1  0.854100  0.812900  0.784070  1.0  -0.5929
  O  O892  1  0.875400  0.864800  0.825770  1.0  -0.5452
  O  O893  1  0.573900  0.876800  0.535610  1.0  -0.5873
  O  O894  1  0.548100  0.795400  0.536170  1.0  -0.572
  O  O895  1  0.409700  0.797200  0.666667  1.0  -0.6092
  O  O896  1  0.437600  0.742200  0.628280  1.0  -0.5432
  O  O897  1  0.153600  0.668300  0.535650  1.0  -0.57
  O  O898  1  0.232900  0.642000  0.535540  1.0  -0.5445
  O  O899  1  0.317520  0.748900  0.666890  1.0  -0.5991
  O  O900  1  0.345700  0.699700  0.624830  1.0  -0.5487
  O  O901  1  0.939200  0.763800  0.781350  1.0  -0.5731
  O  O902  1  0.964400  0.819700  0.821460  1.0  -0.5806
  O  O903  1  0.187100  0.854100  0.784070  1.0  -0.5923
  O  O904  1  0.135200  0.875400  0.825770  1.0  -0.5462
  O  O905  1  0.123200  0.573900  0.535610  1.0  -0.5883
  O  O906  1  0.204600  0.548100  0.536170  1.0  -0.5718
  O  O907  1  0.202800  0.409700  0.666667  1.0  -0.6075
  O  O908  1  0.257800  0.437600  0.628280  1.0  -0.5435
  O  O909  1  0.846400  0.331700  0.535650  1.0  -0.5709
  O  O910  1  0.767100  0.358000  0.535540  1.0  -0.5443
  O  O911  1  0.682480  0.251100  0.666890  1.0  -0.5986
  O  O912  1  0.654300  0.300300  0.624830  1.0  -0.5492
  O  O913  1  0.060800  0.236200  0.781350  1.0  -0.5737
  O  O914  1  0.035600  0.180300  0.821460  1.0  -0.5812
  O  O915  1  0.812900  0.145900  0.784070  1.0  -0.5917
  O  O916  1  0.864800  0.124600  0.825770  1.0  -0.5455
  O  O917  1  0.876800  0.426100  0.535610  1.0  -0.5876
  O  O918  1  0.795400  0.451900  0.536170  1.0  -0.5719
  O  O919  1  0.797200  0.590300  0.666667  1.0  -0.6076
  O  O920  1  0.742200  0.562400  0.628280  1.0  -0.5425
