# generated using pymatgen
data_CuH8(C5O)4
_symmetry_space_group_name_H-M   'P 1'
_cell_length_a   42.33590000
_cell_length_b   42.33590000
_cell_length_c   42.33590000
_cell_angle_alpha   60.00000000
_cell_angle_beta   60.00000000
_cell_angle_gamma   60.00000000
_symmetry_Int_Tables_number   1
_chemical_formula_structural   CuH8(C5O)4
_chemical_formula_sum   'Cu24 H192 C480 O96'
_cell_volume   53655.14738943
_cell_formula_units_Z   24
loop_
 _symmetry_equiv_pos_site_id
 _symmetry_equiv_pos_as_xyz
  1  'x, y, z'
loop_
 _atom_site_type_symbol
 _atom_site_label
 _atom_site_symmetry_multiplicity
 _atom_site_fract_x
 _atom_site_fract_y
 _atom_site_fract_z
 _atom_site_occupancy
 _atom_site_charge
  Cu  Cu1  1  0.810730  0.000000  0.000000  1.0  0.8787
  Cu  Cu2  1  0.748110  0.000000  0.000000  1.0  0.8369
  Cu  Cu3  1  0.000000  0.810730  0.189270  1.0  0.8795
  Cu  Cu4  1  0.000000  0.748110  0.251890  1.0  0.8369
  Cu  Cu5  1  0.000000  0.189270  0.810730  1.0  0.8798
  Cu  Cu6  1  0.000000  0.251890  0.748110  1.0  0.8375
  Cu  Cu7  1  0.189270  0.000000  0.000000  1.0  0.8804
  Cu  Cu8  1  0.251890  0.000000  0.000000  1.0  0.8361
  Cu  Cu9  1  0.810730  0.000000  0.189270  1.0  0.8793
  Cu  Cu10  1  0.748110  0.000000  0.251890  1.0  0.8364
  Cu  Cu11  1  0.000000  0.189270  0.000000  1.0  0.88
  Cu  Cu12  1  0.000000  0.251890  0.000000  1.0  0.8367
  Cu  Cu13  1  0.000000  0.810730  0.000000  1.0  0.879
  Cu  Cu14  1  0.000000  0.748110  0.000000  1.0  0.8372
  Cu  Cu15  1  0.189270  0.000000  0.810730  1.0  0.8797
  Cu  Cu16  1  0.251890  0.000000  0.748110  1.0  0.8368
  Cu  Cu17  1  0.810730  0.189270  0.000000  1.0  0.8783
  Cu  Cu18  1  0.748110  0.251890  0.000000  1.0  0.8362
  Cu  Cu19  1  0.000000  0.000000  0.810730  1.0  0.8775
  Cu  Cu20  1  0.000000  0.000000  0.748110  1.0  0.8342
  Cu  Cu21  1  0.000000  0.000000  0.189270  1.0  0.8777
  Cu  Cu22  1  0.000000  0.000000  0.251890  1.0  0.8345
  Cu  Cu23  1  0.189270  0.810730  0.000000  1.0  0.8795
  Cu  Cu24  1  0.251890  0.748110  0.000000  1.0  0.8364
  H  H25  1  0.681700  0.980100  0.121100  1.0  0.0979
  H  H26  1  0.561400  0.974200  0.185400  1.0  0.1024
  H  H27  1  0.498300  0.968900  0.219300  1.0  0.1095
  H  H28  1  0.980100  0.681700  0.217100  1.0  0.0985
  H  H29  1  0.974200  0.561400  0.279000  1.0  0.1024
  H  H30  1  0.968900  0.498300  0.313500  1.0  0.1089
  H  H31  1  0.121100  0.217100  0.681700  1.0  0.0987
  H  H32  1  0.185400  0.279000  0.561400  1.0  0.1018
  H  H33  1  0.219300  0.313500  0.498300  1.0  0.109
  H  H34  1  0.217100  0.121100  0.980100  1.0  0.098
  H  H35  1  0.279000  0.185400  0.974200  1.0  0.103
  H  H36  1  0.313500  0.219300  0.968900  1.0  0.1081
  H  H37  1  0.681700  0.121100  0.217100  1.0  0.0975
  H  H38  1  0.561400  0.185400  0.279000  1.0  0.103
  H  H39  1  0.498300  0.219300  0.313500  1.0  0.1083
  H  H40  1  0.980100  0.217100  0.121100  1.0  0.0994
  H  H41  1  0.974200  0.279000  0.185400  1.0  0.1014
  H  H42  1  0.968900  0.313500  0.219300  1.0  0.11
  H  H43  1  0.121100  0.681700  0.980100  1.0  0.0978
  H  H44  1  0.185400  0.561400  0.974200  1.0  0.102
  H  H45  1  0.219300  0.498300  0.968900  1.0  0.1076
  H  H46  1  0.217100  0.980100  0.681700  1.0  0.0985
  H  H47  1  0.279000  0.974200  0.561400  1.0  0.1016
  H  H48  1  0.313500  0.968900  0.498300  1.0  0.1087
  H  H49  1  0.681700  0.217100  0.980100  1.0  0.0989
  H  H50  1  0.561400  0.279000  0.974200  1.0  0.1022
  H  H51  1  0.498300  0.313500  0.968900  1.0  0.1093
  H  H52  1  0.980100  0.121100  0.681700  1.0  0.0976
  H  H53  1  0.974200  0.185400  0.561400  1.0  0.1034
  H  H54  1  0.968900  0.219300  0.498300  1.0  0.1079
  H  H55  1  0.121100  0.980100  0.217100  1.0  0.0977
  H  H56  1  0.185400  0.974200  0.279000  1.0  0.1037
  H  H57  1  0.219300  0.968900  0.313500  1.0  0.109
  H  H58  1  0.217100  0.681700  0.121100  1.0  0.0977
  H  H59  1  0.279000  0.561400  0.185400  1.0  0.1029
  H  H60  1  0.313500  0.498300  0.219300  1.0  0.1093
  H  H61  1  0.019900  0.318300  0.878900  1.0  0.098
  H  H62  1  0.025800  0.438600  0.814600  1.0  0.1025
  H  H63  1  0.031100  0.501700  0.780700  1.0  0.108
  H  H64  1  0.318300  0.019900  0.782900  1.0  0.0981
  H  H65  1  0.438600  0.025800  0.721000  1.0  0.1023
  H  H66  1  0.501700  0.031100  0.686500  1.0  0.1093
  H  H67  1  0.782900  0.878900  0.318300  1.0  0.0982
  H  H68  1  0.721000  0.814600  0.438600  1.0  0.1021
  H  H69  1  0.686500  0.780700  0.501700  1.0  0.1068
  H  H70  1  0.878900  0.782900  0.019900  1.0  0.0988
  H  H71  1  0.814600  0.721000  0.025800  1.0  0.1023
  H  H72  1  0.780700  0.686500  0.031100  1.0  0.109
  H  H73  1  0.878900  0.318300  0.782900  1.0  0.0971
  H  H74  1  0.814600  0.438600  0.721000  1.0  0.1026
  H  H75  1  0.780700  0.501700  0.686500  1.0  0.1081
  H  H76  1  0.782900  0.019900  0.878900  1.0  0.0981
  H  H77  1  0.721000  0.025800  0.814600  1.0  0.1026
  H  H78  1  0.686500  0.031100  0.780700  1.0  0.108
  H  H79  1  0.318300  0.878900  0.019900  1.0  0.0973
  H  H80  1  0.438600  0.814600  0.025800  1.0  0.1023
  H  H81  1  0.501700  0.780700  0.031100  1.0  0.1078
  H  H82  1  0.019900  0.782900  0.318300  1.0  0.0994
  H  H83  1  0.025800  0.721000  0.438600  1.0  0.1017
  H  H84  1  0.031100  0.686500  0.501700  1.0  0.1096
  H  H85  1  0.782900  0.318300  0.019900  1.0  0.0981
  H  H86  1  0.721000  0.438600  0.025800  1.0  0.102
  H  H87  1  0.686500  0.501700  0.031100  1.0  0.1076
  H  H88  1  0.878900  0.019900  0.318300  1.0  0.0972
  H  H89  1  0.814600  0.025800  0.438600  1.0  0.1027
  H  H90  1  0.780700  0.031100  0.501700  1.0  0.1077
  H  H91  1  0.019900  0.878900  0.782900  1.0  0.0974
  H  H92  1  0.025800  0.814600  0.721000  1.0  0.1039
  H  H93  1  0.031100  0.780700  0.686500  1.0  0.1075
  H  H94  1  0.318300  0.782900  0.878900  1.0  0.0984
  H  H95  1  0.438600  0.721000  0.814600  1.0  0.1025
  H  H96  1  0.501700  0.686500  0.780700  1.0  0.1099
  H  H97  1  0.318300  0.019900  0.878900  1.0  0.0977
  H  H98  1  0.438600  0.025800  0.814600  1.0  0.1027
  H  H99  1  0.501700  0.031100  0.780700  1.0  0.1089
  H  H100  1  0.019900  0.318300  0.782900  1.0  0.0976
  H  H101  1  0.025800  0.438600  0.721000  1.0  0.1021
  H  H102  1  0.031100  0.501700  0.686500  1.0  0.1083
  H  H103  1  0.878900  0.782900  0.318300  1.0  0.0989
  H  H104  1  0.814600  0.721000  0.438600  1.0  0.1023
  H  H105  1  0.780700  0.686500  0.501700  1.0  0.1092
  H  H106  1  0.782900  0.878900  0.019900  1.0  0.098
  H  H107  1  0.721000  0.814600  0.025800  1.0  0.1024
  H  H108  1  0.686500  0.780700  0.031100  1.0  0.1072
  H  H109  1  0.318300  0.878900  0.782900  1.0  0.0979
  H  H110  1  0.438600  0.814600  0.721000  1.0  0.1023
  H  H111  1  0.501700  0.780700  0.686500  1.0  0.1076
  H  H112  1  0.019900  0.782900  0.878900  1.0  0.0993
  H  H113  1  0.025800  0.721000  0.814600  1.0  0.1024
  H  H114  1  0.031100  0.686500  0.780700  1.0  0.11
  H  H115  1  0.878900  0.318300  0.019900  1.0  0.0969
  H  H116  1  0.814600  0.438600  0.025800  1.0  0.1024
  H  H117  1  0.780700  0.501700  0.031100  1.0  0.1081
  H  H118  1  0.782900  0.019900  0.318300  1.0  0.0982
  H  H119  1  0.721000  0.025800  0.438600  1.0  0.1014
  H  H120  1  0.686500  0.031100  0.501700  1.0  0.1077
  H  H121  1  0.318300  0.782900  0.019900  1.0  0.0988
  H  H122  1  0.438600  0.721000  0.025800  1.0  0.1022
  H  H123  1  0.501700  0.686500  0.031100  1.0  0.11
  H  H124  1  0.019900  0.878900  0.318300  1.0  0.0971
  H  H125  1  0.025800  0.814600  0.438600  1.0  0.1038
  H  H126  1  0.031100  0.780700  0.501700  1.0  0.108
  H  H127  1  0.878900  0.019900  0.782900  1.0  0.0976
  H  H128  1  0.814600  0.025800  0.721000  1.0  0.1027
  H  H129  1  0.780700  0.031100  0.686500  1.0  0.1084
  H  H130  1  0.782900  0.318300  0.878900  1.0  0.0978
  H  H131  1  0.721000  0.438600  0.814600  1.0  0.1024
  H  H132  1  0.686500  0.501700  0.780700  1.0  0.1074
  H  H133  1  0.980100  0.681700  0.121100  1.0  0.0981
  H  H134  1  0.974200  0.561400  0.185400  1.0  0.102
  H  H135  1  0.968900  0.498300  0.219300  1.0  0.1088
  H  H136  1  0.681700  0.980100  0.217100  1.0  0.0986
  H  H137  1  0.561400  0.974200  0.279000  1.0  0.1024
  H  H138  1  0.498300  0.968900  0.313500  1.0  0.1093
  H  H139  1  0.217100  0.121100  0.681700  1.0  0.0977
  H  H140  1  0.279000  0.185400  0.561400  1.0  0.1029
  H  H141  1  0.313500  0.219300  0.498300  1.0  0.1083
  H  H142  1  0.121100  0.217100  0.980100  1.0  0.099
  H  H143  1  0.185400  0.279000  0.974200  1.0  0.1019
  H  H144  1  0.219300  0.313500  0.968900  1.0  0.1088
  H  H145  1  0.121100  0.681700  0.217100  1.0  0.0979
  H  H146  1  0.185400  0.561400  0.279000  1.0  0.1019
  H  H147  1  0.219300  0.498300  0.313500  1.0  0.1086
  H  H148  1  0.217100  0.980100  0.121100  1.0  0.0983
  H  H149  1  0.279000  0.974200  0.185400  1.0  0.102
  H  H150  1  0.313500  0.968900  0.219300  1.0  0.1085
  H  H151  1  0.681700  0.121100  0.980100  1.0  0.0973
  H  H152  1  0.561400  0.185400  0.974200  1.0  0.1032
  H  H153  1  0.498300  0.219300  0.968900  1.0  0.1074
  H  H154  1  0.980100  0.217100  0.681700  1.0  0.0995
  H  H155  1  0.974200  0.279000  0.561400  1.0  0.1022
  H  H156  1  0.968900  0.313500  0.498300  1.0  0.1101
  H  H157  1  0.217100  0.681700  0.980100  1.0  0.0973
  H  H158  1  0.279000  0.561400  0.974200  1.0  0.1026
  H  H159  1  0.313500  0.498300  0.968900  1.0  0.1089
  H  H160  1  0.121100  0.980100  0.681700  1.0  0.0977
  H  H161  1  0.185400  0.974200  0.561400  1.0  0.1037
  H  H162  1  0.219300  0.968900  0.498300  1.0  0.108
  H  H163  1  0.980100  0.121100  0.217100  1.0  0.0976
  H  H164  1  0.974200  0.185400  0.279000  1.0  0.1034
  H  H165  1  0.968900  0.219300  0.313500  1.0  0.1088
  H  H166  1  0.681700  0.217100  0.121100  1.0  0.0992
  H  H167  1  0.561400  0.279000  0.185400  1.0  0.1023
  H  H168  1  0.498300  0.313500  0.219300  1.0  0.1097
  H  H169  1  0.773600  0.988400  0.119000  1.0  0.0891
  H  H170  1  0.988400  0.773600  0.119000  1.0  0.0902
  H  H171  1  0.119000  0.119000  0.773600  1.0  0.0887
  H  H172  1  0.119000  0.119000  0.988400  1.0  0.0889
  H  H173  1  0.773600  0.119000  0.119000  1.0  0.0883
  H  H174  1  0.988400  0.119000  0.119000  1.0  0.0894
  H  H175  1  0.119000  0.773600  0.988400  1.0  0.0897
  H  H176  1  0.119000  0.988400  0.773600  1.0  0.0895
  H  H177  1  0.773600  0.119000  0.988400  1.0  0.0881
  H  H178  1  0.988400  0.119000  0.773600  1.0  0.0892
  H  H179  1  0.119000  0.988400  0.119000  1.0  0.0895
  H  H180  1  0.119000  0.773600  0.119000  1.0  0.09
  H  H181  1  0.011600  0.226400  0.881000  1.0  0.0904
  H  H182  1  0.226400  0.011600  0.881000  1.0  0.0889
  H  H183  1  0.881000  0.881000  0.226400  1.0  0.0889
  H  H184  1  0.881000  0.881000  0.011600  1.0  0.0888
  H  H185  1  0.881000  0.226400  0.881000  1.0  0.0895
  H  H186  1  0.881000  0.011600  0.881000  1.0  0.0893
  H  H187  1  0.226400  0.881000  0.011600  1.0  0.0885
  H  H188  1  0.011600  0.881000  0.226400  1.0  0.0888
  H  H189  1  0.881000  0.226400  0.011600  1.0  0.0898
  H  H190  1  0.881000  0.011600  0.226400  1.0  0.089
  H  H191  1  0.011600  0.881000  0.881000  1.0  0.0891
  H  H192  1  0.226400  0.881000  0.881000  1.0  0.088
  H  H193  1  0.376000  0.966800  0.281200  1.0  0.1079
  H  H194  1  0.966800  0.376000  0.376000  1.0  0.1087
  H  H195  1  0.281200  0.376000  0.376000  1.0  0.1054
  H  H196  1  0.376000  0.281200  0.966800  1.0  0.1091
  H  H197  1  0.376000  0.281200  0.376000  1.0  0.1081
  H  H198  1  0.966800  0.376000  0.281200  1.0  0.1081
  H  H199  1  0.281200  0.376000  0.966800  1.0  0.1067
  H  H200  1  0.376000  0.966800  0.376000  1.0  0.1082
  H  H201  1  0.376000  0.376000  0.966800  1.0  0.1087
  H  H202  1  0.966800  0.281200  0.376000  1.0  0.1101
  H  H203  1  0.281200  0.966800  0.376000  1.0  0.1059
  H  H204  1  0.376000  0.376000  0.281200  1.0  0.1062
  H  H205  1  0.033200  0.624000  0.718800  1.0  0.1082
  H  H206  1  0.624000  0.033200  0.624000  1.0  0.1074
  H  H207  1  0.624000  0.718800  0.624000  1.0  0.1089
  H  H208  1  0.718800  0.624000  0.033200  1.0  0.107
  H  H209  1  0.718800  0.624000  0.624000  1.0  0.1071
  H  H210  1  0.624000  0.033200  0.718800  1.0  0.1082
  H  H211  1  0.624000  0.718800  0.033200  1.0  0.1091
  H  H212  1  0.033200  0.624000  0.624000  1.0  0.1077
  H  H213  1  0.624000  0.624000  0.033200  1.0  0.1066
  H  H214  1  0.718800  0.033200  0.624000  1.0  0.1073
  H  H215  1  0.033200  0.718800  0.624000  1.0  0.1105
  H  H216  1  0.624000  0.624000  0.718800  1.0  0.1084
  C  C217  1  0.747940  0.985980  0.075380  1.0  0.638
  C  C218  1  0.730760  0.985400  0.113300  1.0  -0.0856
  C  C219  1  0.694420  0.980820  0.133840  1.0  -0.1138
  C  C220  1  0.549000  0.971600  0.212000  1.0  -0.1587
  C  C221  1  0.511600  0.968600  0.232200  1.0  -0.0649
  C  C222  1  0.985980  0.747940  0.190700  1.0  0.6348
  C  C223  1  0.985400  0.730760  0.170540  1.0  -0.0856
  C  C224  1  0.980820  0.694420  0.190920  1.0  -0.1133
  C  C225  1  0.971600  0.549000  0.267400  1.0  -0.1567
  C  C226  1  0.968600  0.511600  0.287600  1.0  -0.0642
  C  C227  1  0.075380  0.190700  0.747940  1.0  0.6367
  C  C228  1  0.113300  0.170540  0.730760  1.0  -0.0864
  C  C229  1  0.133840  0.190920  0.694420  1.0  -0.1118
  C  C230  1  0.212000  0.267400  0.549000  1.0  -0.158
  C  C231  1  0.232200  0.287600  0.511600  1.0  -0.0618
  C  C232  1  0.190700  0.075380  0.985980  1.0  0.6361
  C  C233  1  0.170540  0.113300  0.985400  1.0  -0.0863
  C  C234  1  0.190920  0.133840  0.980820  1.0  -0.1104
  C  C235  1  0.267400  0.212000  0.971600  1.0  -0.158
  C  C236  1  0.287600  0.232200  0.968600  1.0  -0.0641
  C  C237  1  0.747940  0.075380  0.190700  1.0  0.6362
  C  C238  1  0.730760  0.113300  0.170540  1.0  -0.0859
  C  C239  1  0.694420  0.133840  0.190920  1.0  -0.1112
  C  C240  1  0.549000  0.212000  0.267400  1.0  -0.1596
  C  C241  1  0.511600  0.232200  0.287600  1.0  -0.064
  C  C242  1  0.985980  0.190700  0.075380  1.0  0.6357
  C  C243  1  0.985400  0.170540  0.113300  1.0  -0.0848
  C  C244  1  0.980820  0.190920  0.133840  1.0  -0.1113
  C  C245  1  0.971600  0.267400  0.212000  1.0  -0.1593
  C  C246  1  0.968600  0.287600  0.232200  1.0  -0.0636
  C  C247  1  0.075380  0.747940  0.985980  1.0  0.6353
  C  C248  1  0.113300  0.730760  0.985400  1.0  -0.0855
  C  C249  1  0.133840  0.694420  0.980820  1.0  -0.1128
  C  C250  1  0.212000  0.549000  0.971600  1.0  -0.1591
  C  C251  1  0.232200  0.511600  0.968600  1.0  -0.066
  C  C252  1  0.190700  0.985980  0.747940  1.0  0.6379
  C  C253  1  0.170540  0.985400  0.730760  1.0  -0.0853
  C  C254  1  0.190920  0.980820  0.694420  1.0  -0.1081
  C  C255  1  0.267400  0.971600  0.549000  1.0  -0.1577
  C  C256  1  0.287600  0.968600  0.511600  1.0  -0.063
  C  C257  1  0.747940  0.190700  0.985980  1.0  0.636
  C  C258  1  0.730760  0.170540  0.985400  1.0  -0.0851
  C  C259  1  0.694420  0.190920  0.980820  1.0  -0.1116
  C  C260  1  0.549000  0.267400  0.971600  1.0  -0.1579
  C  C261  1  0.511600  0.287600  0.968600  1.0  -0.0661
  C  C262  1  0.985980  0.075380  0.747940  1.0  0.6337
  C  C263  1  0.985400  0.113300  0.730760  1.0  -0.0856
  C  C264  1  0.980820  0.133840  0.694420  1.0  -0.1117
  C  C265  1  0.971600  0.212000  0.549000  1.0  -0.1591
  C  C266  1  0.968600  0.232200  0.511600  1.0  -0.0646
  C  C267  1  0.075380  0.985980  0.190700  1.0  0.6363
  C  C268  1  0.113300  0.985400  0.170540  1.0  -0.0855
  C  C269  1  0.133840  0.980820  0.190920  1.0  -0.1114
  C  C270  1  0.212000  0.971600  0.267400  1.0  -0.1557
  C  C271  1  0.232200  0.968600  0.287600  1.0  -0.0667
  C  C272  1  0.190700  0.747940  0.075380  1.0  0.6354
  C  C273  1  0.170540  0.730760  0.113300  1.0  -0.0863
  C  C274  1  0.190920  0.694420  0.133840  1.0  -0.1103
  C  C275  1  0.267400  0.549000  0.212000  1.0  -0.1585
  C  C276  1  0.287600  0.511600  0.232200  1.0  -0.0614
  C  C277  1  0.014020  0.252060  0.924620  1.0  0.6363
  C  C278  1  0.014600  0.269240  0.886700  1.0  -0.0858
  C  C279  1  0.019180  0.305580  0.866160  1.0  -0.1126
  C  C280  1  0.028400  0.451000  0.788000  1.0  -0.1583
  C  C281  1  0.031400  0.488400  0.767800  1.0  -0.0637
  C  C282  1  0.252060  0.014020  0.809300  1.0  0.6371
  C  C283  1  0.269240  0.014600  0.829460  1.0  -0.0861
  C  C284  1  0.305580  0.019180  0.809080  1.0  -0.1119
  C  C285  1  0.451000  0.028400  0.732600  1.0  -0.1583
  C  C286  1  0.488400  0.031400  0.712400  1.0  -0.065
  C  C287  1  0.809300  0.924620  0.252060  1.0  0.6364
  C  C288  1  0.829460  0.886700  0.269240  1.0  -0.0859
  C  C289  1  0.809080  0.866160  0.305580  1.0  -0.1117
  C  C290  1  0.732600  0.788000  0.451000  1.0  -0.1569
  C  C291  1  0.712400  0.767800  0.488400  1.0  -0.0656
  C  C292  1  0.924620  0.809300  0.014020  1.0  0.6357
  C  C293  1  0.886700  0.829460  0.014600  1.0  -0.0859
  C  C294  1  0.866160  0.809080  0.019180  1.0  -0.1118
  C  C295  1  0.788000  0.732600  0.028400  1.0  -0.1574
  C  C296  1  0.767800  0.712400  0.031400  1.0  -0.065
  C  C297  1  0.924620  0.252060  0.809300  1.0  0.6317
  C  C298  1  0.886700  0.269240  0.829460  1.0  -0.0854
  C  C299  1  0.866160  0.305580  0.809080  1.0  -0.1122
  C  C300  1  0.788000  0.451000  0.732600  1.0  -0.1601
  C  C301  1  0.767800  0.488400  0.712400  1.0  -0.0646
  C  C302  1  0.809300  0.014020  0.924620  1.0  0.6376
  C  C303  1  0.829460  0.014600  0.886700  1.0  -0.0851
  C  C304  1  0.809080  0.019180  0.866160  1.0  -0.111
  C  C305  1  0.732600  0.028400  0.788000  1.0  -0.1576
  C  C306  1  0.712400  0.031400  0.767800  1.0  -0.0631
  C  C307  1  0.252060  0.924620  0.014020  1.0  0.6365
  C  C308  1  0.269240  0.886700  0.014600  1.0  -0.0863
  C  C309  1  0.305580  0.866160  0.019180  1.0  -0.1096
  C  C310  1  0.451000  0.788000  0.028400  1.0  -0.1595
  C  C311  1  0.488400  0.767800  0.031400  1.0  -0.0651
  C  C312  1  0.014020  0.809300  0.252060  1.0  0.6372
  C  C313  1  0.014600  0.829460  0.269240  1.0  -0.0856
  C  C314  1  0.019180  0.809080  0.305580  1.0  -0.1127
  C  C315  1  0.028400  0.732600  0.451000  1.0  -0.1589
  C  C316  1  0.031400  0.712400  0.488400  1.0  -0.0652
  C  C317  1  0.809300  0.252060  0.014020  1.0  0.6359
  C  C318  1  0.829460  0.269240  0.014600  1.0  -0.0852
  C  C319  1  0.809080  0.305580  0.019180  1.0  -0.1129
  C  C320  1  0.732600  0.451000  0.028400  1.0  -0.1586
  C  C321  1  0.712400  0.488400  0.031400  1.0  -0.0652
  C  C322  1  0.924620  0.014020  0.252060  1.0  0.6356
  C  C323  1  0.886700  0.014600  0.269240  1.0  -0.0855
  C  C324  1  0.866160  0.019180  0.305580  1.0  -0.1097
  C  C325  1  0.788000  0.028400  0.451000  1.0  -0.156
  C  C326  1  0.767800  0.031400  0.488400  1.0  -0.0637
  C  C327  1  0.014020  0.924620  0.809300  1.0  0.6356
  C  C328  1  0.014600  0.886700  0.829460  1.0  -0.0869
  C  C329  1  0.019180  0.866160  0.809080  1.0  -0.1126
  C  C330  1  0.028400  0.788000  0.732600  1.0  -0.1581
  C  C331  1  0.031400  0.767800  0.712400  1.0  -0.0674
  C  C332  1  0.252060  0.809300  0.924620  1.0  0.6357
  C  C333  1  0.269240  0.829460  0.886700  1.0  -0.0851
  C  C334  1  0.305580  0.809080  0.866160  1.0  -0.1107
  C  C335  1  0.451000  0.732600  0.788000  1.0  -0.1582
  C  C336  1  0.488400  0.712400  0.767800  1.0  -0.0652
  C  C337  1  0.252060  0.014020  0.924620  1.0  0.6364
  C  C338  1  0.269240  0.014600  0.886700  1.0  -0.0861
  C  C339  1  0.305580  0.019180  0.866160  1.0  -0.1097
  C  C340  1  0.451000  0.028400  0.788000  1.0  -0.1591
  C  C341  1  0.488400  0.031400  0.767800  1.0  -0.0657
  C  C342  1  0.014020  0.252060  0.809300  1.0  0.637
  C  C343  1  0.014600  0.269240  0.829460  1.0  -0.0859
  C  C344  1  0.019180  0.305580  0.809080  1.0  -0.1145
  C  C345  1  0.028400  0.451000  0.732600  1.0  -0.1569
  C  C346  1  0.031400  0.488400  0.712400  1.0  -0.0655
  C  C347  1  0.924620  0.809300  0.252060  1.0  0.6351
  C  C348  1  0.886700  0.829460  0.269240  1.0  -0.0857
  C  C349  1  0.866160  0.809080  0.305580  1.0  -0.1118
  C  C350  1  0.788000  0.732600  0.451000  1.0  -0.1572
  C  C351  1  0.767800  0.712400  0.488400  1.0  -0.0635
  C  C352  1  0.809300  0.924620  0.014020  1.0  0.6372
  C  C353  1  0.829460  0.886700  0.014600  1.0  -0.0861
  C  C354  1  0.809080  0.866160  0.019180  1.0  -0.1111
  C  C355  1  0.732600  0.788000  0.028400  1.0  -0.1555
  C  C356  1  0.712400  0.767800  0.031400  1.0  -0.0662
  C  C357  1  0.252060  0.924620  0.809300  1.0  0.6362
  C  C358  1  0.269240  0.886700  0.829460  1.0  -0.0862
  C  C359  1  0.305580  0.866160  0.809080  1.0  -0.1107
  C  C360  1  0.451000  0.788000  0.732600  1.0  -0.1604
  C  C361  1  0.488400  0.767800  0.712400  1.0  -0.0655
  C  C362  1  0.014020  0.809300  0.924620  1.0  0.6365
  C  C363  1  0.014600  0.829460  0.886700  1.0  -0.086
  C  C364  1  0.019180  0.809080  0.866160  1.0  -0.1128
  C  C365  1  0.028400  0.732600  0.788000  1.0  -0.1566
  C  C366  1  0.031400  0.712400  0.767800  1.0  -0.0661
  C  C367  1  0.924620  0.252060  0.014020  1.0  0.6315
  C  C368  1  0.886700  0.269240  0.014600  1.0  -0.0856
  C  C369  1  0.866160  0.305580  0.019180  1.0  -0.1104
  C  C370  1  0.788000  0.451000  0.028400  1.0  -0.1583
  C  C371  1  0.767800  0.488400  0.031400  1.0  -0.0625
  C  C372  1  0.809300  0.014020  0.252060  1.0  0.6383
  C  C373  1  0.829460  0.014600  0.269240  1.0  -0.0844
  C  C374  1  0.809080  0.019180  0.305580  1.0  -0.1107
  C  C375  1  0.732600  0.028400  0.451000  1.0  -0.1572
  C  C376  1  0.712400  0.031400  0.488400  1.0  -0.0643
  C  C377  1  0.252060  0.809300  0.014020  1.0  0.6356
  C  C378  1  0.269240  0.829460  0.014600  1.0  -0.0855
  C  C379  1  0.305580  0.809080  0.019180  1.0  -0.1106
  C  C380  1  0.451000  0.732600  0.028400  1.0  -0.1593
  C  C381  1  0.488400  0.712400  0.031400  1.0  -0.0652
  C  C382  1  0.014020  0.924620  0.252060  1.0  0.6354
  C  C383  1  0.014600  0.886700  0.269240  1.0  -0.087
  C  C384  1  0.019180  0.866160  0.305580  1.0  -0.1099
  C  C385  1  0.028400  0.788000  0.451000  1.0  -0.1571
  C  C386  1  0.031400  0.767800  0.488400  1.0  -0.065
  C  C387  1  0.924620  0.014020  0.809300  1.0  0.6359
  C  C388  1  0.886700  0.014600  0.829460  1.0  -0.0853
  C  C389  1  0.866160  0.019180  0.809080  1.0  -0.1112
  C  C390  1  0.788000  0.028400  0.732600  1.0  -0.1555
  C  C391  1  0.767800  0.031400  0.712400  1.0  -0.0636
  C  C392  1  0.809300  0.252060  0.924620  1.0  0.6357
  C  C393  1  0.829460  0.269240  0.886700  1.0  -0.0847
  C  C394  1  0.809080  0.305580  0.866160  1.0  -0.1128
  C  C395  1  0.732600  0.451000  0.788000  1.0  -0.1569
  C  C396  1  0.712400  0.488400  0.767800  1.0  -0.0668
  C  C397  1  0.985980  0.747940  0.075380  1.0  0.6358
  C  C398  1  0.985400  0.730760  0.113300  1.0  -0.0855
  C  C399  1  0.980820  0.694420  0.133840  1.0  -0.1144
  C  C400  1  0.971600  0.549000  0.212000  1.0  -0.1564
  C  C401  1  0.968600  0.511600  0.232200  1.0  -0.0649
  C  C402  1  0.747940  0.985980  0.190700  1.0  0.6371
  C  C403  1  0.730760  0.985400  0.170540  1.0  -0.0853
  C  C404  1  0.694420  0.980820  0.190920  1.0  -0.1128
  C  C405  1  0.549000  0.971600  0.267400  1.0  -0.1588
  C  C406  1  0.511600  0.968600  0.287600  1.0  -0.0676
  C  C407  1  0.190700  0.075380  0.747940  1.0  0.6364
  C  C408  1  0.170540  0.113300  0.730760  1.0  -0.0865
  C  C409  1  0.190920  0.133840  0.694420  1.0  -0.1102
  C  C410  1  0.267400  0.212000  0.549000  1.0  -0.158
  C  C411  1  0.287600  0.232200  0.511600  1.0  -0.0605
  C  C412  1  0.075380  0.190700  0.985980  1.0  0.6364
  C  C413  1  0.113300  0.170540  0.985400  1.0  -0.0861
  C  C414  1  0.133840  0.190920  0.980820  1.0  -0.1119
  C  C415  1  0.212000  0.267400  0.971600  1.0  -0.1564
  C  C416  1  0.232200  0.287600  0.968600  1.0  -0.0654
  C  C417  1  0.075380  0.747940  0.190700  1.0  0.6354
  C  C418  1  0.113300  0.730760  0.170540  1.0  -0.0856
  C  C419  1  0.133840  0.694420  0.190920  1.0  -0.1115
  C  C420  1  0.212000  0.549000  0.267400  1.0  -0.1566
  C  C421  1  0.232200  0.511600  0.287600  1.0  -0.0636
  C  C422  1  0.190700  0.985980  0.075380  1.0  0.6387
  C  C423  1  0.170540  0.985400  0.113300  1.0  -0.0849
  C  C424  1  0.190920  0.980820  0.133840  1.0  -0.108
  C  C425  1  0.267400  0.971600  0.212000  1.0  -0.1574
  C  C426  1  0.287600  0.968600  0.232200  1.0  -0.0613
  C  C427  1  0.747940  0.075380  0.985980  1.0  0.6364
  C  C428  1  0.730760  0.113300  0.985400  1.0  -0.0858
  C  C429  1  0.694420  0.133840  0.980820  1.0  -0.1117
  C  C430  1  0.549000  0.212000  0.971600  1.0  -0.1595
  C  C431  1  0.511600  0.232200  0.968600  1.0  -0.0649
  C  C432  1  0.985980  0.190700  0.747940  1.0  0.6345
  C  C433  1  0.985400  0.170540  0.730760  1.0  -0.0857
  C  C434  1  0.980820  0.190920  0.694420  1.0  -0.1113
  C  C435  1  0.971600  0.267400  0.549000  1.0  -0.1579
  C  C436  1  0.968600  0.287600  0.511600  1.0  -0.0635
  C  C437  1  0.190700  0.747940  0.985980  1.0  0.6355
  C  C438  1  0.170540  0.730760  0.985400  1.0  -0.0859
  C  C439  1  0.190920  0.694420  0.980820  1.0  -0.1097
  C  C440  1  0.267400  0.549000  0.971600  1.0  -0.1561
  C  C441  1  0.287600  0.511600  0.968600  1.0  -0.0639
  C  C442  1  0.075380  0.985980  0.747940  1.0  0.6365
  C  C443  1  0.113300  0.985400  0.730760  1.0  -0.0854
  C  C444  1  0.133840  0.980820  0.694420  1.0  -0.1119
  C  C445  1  0.212000  0.971600  0.549000  1.0  -0.1561
  C  C446  1  0.232200  0.968600  0.511600  1.0  -0.0659
  C  C447  1  0.985980  0.075380  0.190700  1.0  0.6336
  C  C448  1  0.985400  0.113300  0.170540  1.0  -0.0857
  C  C449  1  0.980820  0.133840  0.190920  1.0  -0.1107
  C  C450  1  0.971600  0.212000  0.267400  1.0  -0.1581
  C  C451  1  0.968600  0.232200  0.287600  1.0  -0.0644
  C  C452  1  0.747940  0.190700  0.075380  1.0  0.6361
  C  C453  1  0.730760  0.170540  0.113300  1.0  -0.0855
  C  C454  1  0.694420  0.190920  0.133840  1.0  -0.1113
  C  C455  1  0.549000  0.267400  0.212000  1.0  -0.1586
  C  C456  1  0.511600  0.287600  0.232200  1.0  -0.0651
  C  C457  1  0.748330  0.986610  0.132530  1.0  -0.025
  C  C458  1  0.676550  0.977390  0.173030  1.0  0.0703
  C  C459  1  0.637840  0.974960  0.193600  1.0  0.0093
  C  C460  1  0.607380  0.973020  0.209800  1.0  -0.0188
  C  C461  1  0.566060  0.970340  0.231800  1.0  0.3387
  C  C462  1  0.494520  0.965480  0.270000  1.0  0.0676
  C  C463  1  0.454560  0.964240  0.290600  1.0  -0.0588
  C  C464  1  0.420580  0.963220  0.308100  1.0  0.0172
  C  C465  1  0.383000  0.962000  0.327500  1.0  0.0938
  C  C466  1  0.986610  0.748330  0.132530  1.0  -0.0257
  C  C467  1  0.977390  0.676550  0.173030  1.0  0.0732
  C  C468  1  0.974960  0.637840  0.193600  1.0  0.0096
  C  C469  1  0.973020  0.607380  0.209800  1.0  -0.0195
  C  C470  1  0.970340  0.566060  0.231800  1.0  0.3414
  C  C471  1  0.965480  0.494520  0.270000  1.0  0.0676
  C  C472  1  0.964240  0.454560  0.290600  1.0  -0.0533
  C  C473  1  0.963220  0.420580  0.308100  1.0  0.0178
  C  C474  1  0.962000  0.383000  0.327500  1.0  0.0937
  C  C475  1  0.132530  0.132530  0.748330  1.0  -0.0266
  C  C476  1  0.173030  0.173030  0.676550  1.0  0.0723
  C  C477  1  0.193600  0.193600  0.637840  1.0  0.0103
  C  C478  1  0.209800  0.209800  0.607380  1.0  -0.0204
  C  C479  1  0.231800  0.231800  0.566060  1.0  0.3393
  C  C480  1  0.270000  0.270000  0.494520  1.0  0.0634
  C  C481  1  0.290600  0.290600  0.454560  1.0  -0.0611
  C  C482  1  0.308100  0.308100  0.420580  1.0  0.0194
  C  C483  1  0.327500  0.327500  0.383000  1.0  0.0869
  C  C484  1  0.132530  0.132530  0.986610  1.0  -0.0275
  C  C485  1  0.173030  0.173030  0.977390  1.0  0.0726
  C  C486  1  0.193600  0.193600  0.974960  1.0  0.0104
  C  C487  1  0.209800  0.209800  0.973020  1.0  -0.0211
  C  C488  1  0.231800  0.231800  0.970340  1.0  0.3396
  C  C489  1  0.270000  0.270000  0.965480  1.0  0.0682
  C  C490  1  0.290600  0.290600  0.964240  1.0  -0.0561
  C  C491  1  0.308100  0.308100  0.963220  1.0  0.0162
  C  C492  1  0.327500  0.327500  0.962000  1.0  0.0915
  C  C493  1  0.748330  0.132530  0.132530  1.0  -0.0258
  C  C494  1  0.676550  0.173030  0.173030  1.0  0.0712
  C  C495  1  0.637840  0.193600  0.193600  1.0  0.0098
  C  C496  1  0.607380  0.209800  0.209800  1.0  -0.0177
  C  C497  1  0.566060  0.231800  0.231800  1.0  0.3408
  C  C498  1  0.494520  0.270000  0.270000  1.0  0.0633
  C  C499  1  0.454560  0.290600  0.290600  1.0  -0.0644
  C  C500  1  0.420580  0.308100  0.308100  1.0  0.0204
  C  C501  1  0.383000  0.327500  0.327500  1.0  0.0894
  C  C502  1  0.986610  0.132530  0.132530  1.0  -0.0269
  C  C503  1  0.977390  0.173030  0.173030  1.0  0.0738
  C  C504  1  0.974960  0.193600  0.193600  1.0  0.0107
  C  C505  1  0.973020  0.209800  0.209800  1.0  -0.0183
  C  C506  1  0.970340  0.231800  0.231800  1.0  0.3399
  C  C507  1  0.965480  0.270000  0.270000  1.0  0.0706
  C  C508  1  0.964240  0.290600  0.290600  1.0  -0.0549
  C  C509  1  0.963220  0.308100  0.308100  1.0  0.0169
  C  C510  1  0.962000  0.327500  0.327500  1.0  0.0926
  C  C511  1  0.132530  0.748330  0.986610  1.0  -0.0265
  C  C512  1  0.173030  0.676550  0.977390  1.0  0.0722
  C  C513  1  0.193600  0.637840  0.974960  1.0  0.0113
  C  C514  1  0.209800  0.607380  0.973020  1.0  -0.019
  C  C515  1  0.231800  0.566060  0.970340  1.0  0.3414
  C  C516  1  0.270000  0.494520  0.965480  1.0  0.0697
  C  C517  1  0.290600  0.454560  0.964240  1.0  -0.0536
  C  C518  1  0.308100  0.420580  0.963220  1.0  0.0176
  C  C519  1  0.327500  0.383000  0.962000  1.0  0.0934
  C  C520  1  0.132530  0.986610  0.748330  1.0  -0.0261
  C  C521  1  0.173030  0.977390  0.676550  1.0  0.0729
  C  C522  1  0.193600  0.974960  0.637840  1.0  0.0084
  C  C523  1  0.209800  0.973020  0.607380  1.0  -0.0208
  C  C524  1  0.231800  0.970340  0.566060  1.0  0.3406
  C  C525  1  0.270000  0.965480  0.494520  1.0  0.0697
  C  C526  1  0.290600  0.964240  0.454560  1.0  -0.0557
  C  C527  1  0.308100  0.963220  0.420580  1.0  0.0172
  C  C528  1  0.327500  0.962000  0.383000  1.0  0.0936
  C  C529  1  0.748330  0.132530  0.986610  1.0  -0.0256
  C  C530  1  0.676550  0.173030  0.977390  1.0  0.0722
  C  C531  1  0.637840  0.193600  0.974960  1.0  0.009
  C  C532  1  0.607380  0.209800  0.973020  1.0  -0.0178
  C  C533  1  0.566060  0.231800  0.970340  1.0  0.341
  C  C534  1  0.494520  0.270000  0.965480  1.0  0.0672
  C  C535  1  0.454560  0.290600  0.964240  1.0  -0.0589
  C  C536  1  0.420580  0.308100  0.963220  1.0  0.0181
  C  C537  1  0.383000  0.327500  0.962000  1.0  0.094
  C  C538  1  0.986610  0.132530  0.748330  1.0  -0.026
  C  C539  1  0.977390  0.173030  0.676550  1.0  0.0736
  C  C540  1  0.974960  0.193600  0.637840  1.0  0.009
  C  C541  1  0.973020  0.209800  0.607380  1.0  -0.0174
  C  C542  1  0.970340  0.231800  0.566060  1.0  0.3399
  C  C543  1  0.965480  0.270000  0.494520  1.0  0.0693
  C  C544  1  0.964240  0.290600  0.454560  1.0  -0.0559
  C  C545  1  0.963220  0.308100  0.420580  1.0  0.0176
  C  C546  1  0.962000  0.327500  0.383000  1.0  0.0929
  C  C547  1  0.132530  0.986610  0.132530  1.0  -0.0264
  C  C548  1  0.173030  0.977390  0.173030  1.0  0.0724
  C  C549  1  0.193600  0.974960  0.193600  1.0  0.0101
  C  C550  1  0.209800  0.973020  0.209800  1.0  -0.0216
  C  C551  1  0.231800  0.970340  0.231800  1.0  0.3404
  C  C552  1  0.270000  0.965480  0.270000  1.0  0.0718
  C  C553  1  0.290600  0.964240  0.290600  1.0  -0.0546
  C  C554  1  0.308100  0.963220  0.308100  1.0  0.0168
  C  C555  1  0.327500  0.962000  0.327500  1.0  0.0934
  C  C556  1  0.132530  0.748330  0.132530  1.0  -0.0262
  C  C557  1  0.173030  0.676550  0.173030  1.0  0.072
  C  C558  1  0.193600  0.637840  0.193600  1.0  0.0121
  C  C559  1  0.209800  0.607380  0.209800  1.0  -0.0189
  C  C560  1  0.231800  0.566060  0.231800  1.0  0.3409
  C  C561  1  0.270000  0.494520  0.270000  1.0  0.0668
  C  C562  1  0.290600  0.454560  0.290600  1.0  -0.0587
  C  C563  1  0.308100  0.420580  0.308100  1.0  0.0202
  C  C564  1  0.327500  0.383000  0.327500  1.0  0.0886
  C  C565  1  0.013390  0.251670  0.867470  1.0  -0.0256
  C  C566  1  0.022610  0.323450  0.826970  1.0  0.0723
  C  C567  1  0.025040  0.362160  0.806400  1.0  0.0103
  C  C568  1  0.026980  0.392620  0.790200  1.0  -0.0195
  C  C569  1  0.029660  0.433940  0.768200  1.0  0.3404
  C  C570  1  0.034520  0.505480  0.730000  1.0  0.0703
  C  C571  1  0.035760  0.545440  0.709400  1.0  -0.0544
  C  C572  1  0.036780  0.579420  0.691900  1.0  0.0172
  C  C573  1  0.038000  0.617000  0.672500  1.0  0.0939
  C  C574  1  0.251670  0.013390  0.867470  1.0  -0.0261
  C  C575  1  0.323450  0.022610  0.826970  1.0  0.0713
  C  C576  1  0.362160  0.025040  0.806400  1.0  0.0112
  C  C577  1  0.392620  0.026980  0.790200  1.0  -0.0201
  C  C578  1  0.433940  0.029660  0.768200  1.0  0.3375
  C  C579  1  0.505480  0.034520  0.730000  1.0  0.0692
  C  C580  1  0.545440  0.035760  0.709400  1.0  -0.0555
  C  C581  1  0.579420  0.036780  0.691900  1.0  0.0184
  C  C582  1  0.617000  0.038000  0.672500  1.0  0.0913
  C  C583  1  0.867470  0.867470  0.251670  1.0  -0.0275
  C  C584  1  0.826970  0.826970  0.323450  1.0  0.0704
  C  C585  1  0.806400  0.806400  0.362160  1.0  0.0091
  C  C586  1  0.790200  0.790200  0.392620  1.0  -0.0199
  C  C587  1  0.768200  0.768200  0.433940  1.0  0.3435
  C  C588  1  0.730000  0.730000  0.505480  1.0  0.0664
  C  C589  1  0.709400  0.709400  0.545440  1.0  -0.0558
  C  C590  1  0.691900  0.691900  0.579420  1.0  0.0155
  C  C591  1  0.672500  0.672500  0.617000  1.0  0.0926
  C  C592  1  0.867470  0.867470  0.013390  1.0  -0.0271
  C  C593  1  0.826970  0.826970  0.022610  1.0  0.0699
  C  C594  1  0.806400  0.806400  0.025040  1.0  0.0091
  C  C595  1  0.790200  0.790200  0.026980  1.0  -0.0191
  C  C596  1  0.768200  0.768200  0.029660  1.0  0.3428
  C  C597  1  0.730000  0.730000  0.034520  1.0  0.0656
  C  C598  1  0.709400  0.709400  0.035760  1.0  -0.056
  C  C599  1  0.691900  0.691900  0.036780  1.0  0.0163
  C  C600  1  0.672500  0.672500  0.038000  1.0  0.0926
  C  C601  1  0.867470  0.251670  0.867470  1.0  -0.0251
  C  C602  1  0.826970  0.323450  0.826970  1.0  0.0709
  C  C603  1  0.806400  0.362160  0.806400  1.0  0.0107
  C  C604  1  0.790200  0.392620  0.790200  1.0  -0.0165
  C  C605  1  0.768200  0.433940  0.768200  1.0  0.3406
  C  C606  1  0.730000  0.505480  0.730000  1.0  0.0685
  C  C607  1  0.709400  0.545440  0.709400  1.0  -0.0543
  C  C608  1  0.691900  0.579420  0.691900  1.0  0.0166
  C  C609  1  0.672500  0.617000  0.672500  1.0  0.0942
  C  C610  1  0.867470  0.013390  0.867470  1.0  -0.026
  C  C611  1  0.826970  0.022610  0.826970  1.0  0.0718
  C  C612  1  0.806400  0.025040  0.806400  1.0  0.007
  C  C613  1  0.790200  0.026980  0.790200  1.0  -0.019
  C  C614  1  0.768200  0.029660  0.768200  1.0  0.3427
  C  C615  1  0.730000  0.034520  0.730000  1.0  0.069
  C  C616  1  0.709400  0.035760  0.709400  1.0  -0.0562
  C  C617  1  0.691900  0.036780  0.691900  1.0  0.0174
  C  C618  1  0.672500  0.038000  0.672500  1.0  0.0931
  C  C619  1  0.251670  0.867470  0.013390  1.0  -0.0257
  C  C620  1  0.323450  0.826970  0.022610  1.0  0.0718
  C  C621  1  0.362160  0.806400  0.025040  1.0  0.0106
  C  C622  1  0.392620  0.790200  0.026980  1.0  -0.0199
  C  C623  1  0.433940  0.768200  0.029660  1.0  0.3382
  C  C624  1  0.505480  0.730000  0.034520  1.0  0.0711
  C  C625  1  0.545440  0.709400  0.035760  1.0  -0.055
  C  C626  1  0.579420  0.691900  0.036780  1.0  0.0172
  C  C627  1  0.617000  0.672500  0.038000  1.0  0.0917
  C  C628  1  0.013390  0.867470  0.251670  1.0  -0.0272
  C  C629  1  0.022610  0.826970  0.323450  1.0  0.0731
  C  C630  1  0.025040  0.806400  0.362160  1.0  0.0106
  C  C631  1  0.026980  0.790200  0.392620  1.0  -0.0192
  C  C632  1  0.029660  0.768200  0.433940  1.0  0.3432
  C  C633  1  0.034520  0.730000  0.505480  1.0  0.0713
  C  C634  1  0.035760  0.709400  0.545440  1.0  -0.0546
  C  C635  1  0.036780  0.691900  0.579420  1.0  0.0165
  C  C636  1  0.038000  0.672500  0.617000  1.0  0.0933
  C  C637  1  0.867470  0.251670  0.013390  1.0  -0.0254
  C  C638  1  0.826970  0.323450  0.022610  1.0  0.0703
  C  C639  1  0.806400  0.362160  0.025040  1.0  0.0114
  C  C640  1  0.790200  0.392620  0.026980  1.0  -0.0168
  C  C641  1  0.768200  0.433940  0.029660  1.0  0.3402
  C  C642  1  0.730000  0.505480  0.034520  1.0  0.069
  C  C643  1  0.709400  0.545440  0.035760  1.0  -0.0543
  C  C644  1  0.691900  0.579420  0.036780  1.0  0.0167
  C  C645  1  0.672500  0.617000  0.038000  1.0  0.0945
  C  C646  1  0.867470  0.013390  0.251670  1.0  -0.0271
  C  C647  1  0.826970  0.022610  0.323450  1.0  0.0713
  C  C648  1  0.806400  0.025040  0.362160  1.0  0.0088
  C  C649  1  0.790200  0.026980  0.392620  1.0  -0.0199
  C  C650  1  0.768200  0.029660  0.433940  1.0  0.3433
  C  C651  1  0.730000  0.034520  0.505480  1.0  0.0703
  C  C652  1  0.709400  0.035760  0.545440  1.0  -0.055
  C  C653  1  0.691900  0.036780  0.579420  1.0  0.0167
  C  C654  1  0.672500  0.038000  0.617000  1.0  0.093
  C  C655  1  0.013390  0.867470  0.867470  1.0  -0.0263
  C  C656  1  0.022610  0.826970  0.826970  1.0  0.0732
  C  C657  1  0.025040  0.806400  0.806400  1.0  0.0087
  C  C658  1  0.026980  0.790200  0.790200  1.0  -0.0184
  C  C659  1  0.029660  0.768200  0.768200  1.0  0.3422
  C  C660  1  0.034520  0.730000  0.730000  1.0  0.0699
  C  C661  1  0.035760  0.709400  0.709400  1.0  -0.0559
  C  C662  1  0.036780  0.691900  0.691900  1.0  0.017
  C  C663  1  0.038000  0.672500  0.672500  1.0  0.0933
  C  C664  1  0.251670  0.867470  0.867470  1.0  -0.0255
  C  C665  1  0.323450  0.826970  0.826970  1.0  0.0721
  C  C666  1  0.362160  0.806400  0.806400  1.0  0.0099
  C  C667  1  0.392620  0.790200  0.790200  1.0  -0.0202
  C  C668  1  0.433940  0.768200  0.768200  1.0  0.3386
  C  C669  1  0.505480  0.730000  0.730000  1.0  0.0703
  C  C670  1  0.545440  0.709400  0.709400  1.0  -0.0549
  C  C671  1  0.579420  0.691900  0.691900  1.0  0.0174
  C  C672  1  0.617000  0.672500  0.672500  1.0  0.0914
  C  C673  1  0.364000  0.964040  0.307960  1.0  -0.1346
  C  C674  1  0.964040  0.364000  0.364000  1.0  -0.1349
  C  C675  1  0.307960  0.364000  0.364000  1.0  -0.1363
  C  C676  1  0.364000  0.307960  0.964040  1.0  -0.1369
  C  C677  1  0.364000  0.307960  0.364000  1.0  -0.1334
  C  C678  1  0.964040  0.364000  0.307960  1.0  -0.132
  C  C679  1  0.307960  0.364000  0.964040  1.0  -0.1325
  C  C680  1  0.364000  0.964040  0.364000  1.0  -0.1305
  C  C681  1  0.364000  0.364000  0.964040  1.0  -0.134
  C  C682  1  0.964040  0.307960  0.364000  1.0  -0.1375
  C  C683  1  0.307960  0.964040  0.364000  1.0  -0.1323
  C  C684  1  0.364000  0.364000  0.307960  1.0  -0.1355
  C  C685  1  0.035960  0.636000  0.692040  1.0  -0.135
  C  C686  1  0.636000  0.035960  0.636000  1.0  -0.1356
  C  C687  1  0.636000  0.692040  0.636000  1.0  -0.1374
  C  C688  1  0.692040  0.636000  0.035960  1.0  -0.1336
  C  C689  1  0.692040  0.636000  0.636000  1.0  -0.13
  C  C690  1  0.636000  0.035960  0.692040  1.0  -0.1328
  C  C691  1  0.636000  0.692040  0.035960  1.0  -0.1334
  C  C692  1  0.035960  0.636000  0.636000  1.0  -0.1306
  C  C693  1  0.636000  0.636000  0.035960  1.0  -0.1355
  C  C694  1  0.692040  0.035960  0.636000  1.0  -0.1308
  C  C695  1  0.035960  0.692040  0.636000  1.0  -0.136
  C  C696  1  0.636000  0.636000  0.692040  1.0  -0.134
  O  O697  1  0.782190  0.991090  0.055630  1.0  -0.6215
  O  O698  1  0.730060  0.990420  0.056220  1.0  -0.6108
  O  O699  1  0.991090  0.782190  0.171090  1.0  -0.6228
  O  O700  1  0.990420  0.730060  0.223300  1.0  -0.6139
  O  O701  1  0.055630  0.171090  0.782190  1.0  -0.623
  O  O702  1  0.056220  0.223300  0.730060  1.0  -0.6133
  O  O703  1  0.171090  0.055630  0.991090  1.0  -0.6235
  O  O704  1  0.223300  0.056220  0.990420  1.0  -0.6136
  O  O705  1  0.782190  0.055630  0.171090  1.0  -0.6209
  O  O706  1  0.730060  0.056220  0.223300  1.0  -0.6118
  O  O707  1  0.991090  0.171090  0.055630  1.0  -0.6249
  O  O708  1  0.990420  0.223300  0.056220  1.0  -0.6133
  O  O709  1  0.055630  0.782190  0.991090  1.0  -0.6225
  O  O710  1  0.056220  0.730060  0.990420  1.0  -0.6127
  O  O711  1  0.171090  0.991090  0.782190  1.0  -0.6216
  O  O712  1  0.223300  0.990420  0.730060  1.0  -0.6133
  O  O713  1  0.782190  0.171090  0.991090  1.0  -0.6236
  O  O714  1  0.730060  0.223300  0.990420  1.0  -0.6139
  O  O715  1  0.991090  0.055630  0.782190  1.0  -0.6231
  O  O716  1  0.990420  0.056220  0.730060  1.0  -0.611
  O  O717  1  0.055630  0.991090  0.171090  1.0  -0.6243
  O  O718  1  0.056220  0.990420  0.223300  1.0  -0.6123
  O  O719  1  0.171090  0.782190  0.055630  1.0  -0.6238
  O  O720  1  0.223300  0.730060  0.056220  1.0  -0.6144
  O  O721  1  0.008910  0.217810  0.944370  1.0  -0.6233
  O  O722  1  0.009580  0.269940  0.943780  1.0  -0.6144
  O  O723  1  0.217810  0.008910  0.828910  1.0  -0.6227
  O  O724  1  0.269940  0.009580  0.776700  1.0  -0.6113
  O  O725  1  0.828910  0.944370  0.217810  1.0  -0.6219
  O  O726  1  0.776700  0.943780  0.269940  1.0  -0.6117
  O  O727  1  0.944370  0.828910  0.008910  1.0  -0.6219
  O  O728  1  0.943780  0.776700  0.009580  1.0  -0.614
  O  O729  1  0.944370  0.217810  0.828910  1.0  -0.6228
  O  O730  1  0.943780  0.269940  0.776700  1.0  -0.6141
  O  O731  1  0.828910  0.008910  0.944370  1.0  -0.6211
  O  O732  1  0.776700  0.009580  0.943780  1.0  -0.6124
  O  O733  1  0.217810  0.944370  0.008910  1.0  -0.6221
  O  O734  1  0.269940  0.943780  0.009580  1.0  -0.613
  O  O735  1  0.008910  0.828910  0.217810  1.0  -0.6241
  O  O736  1  0.009580  0.776700  0.269940  1.0  -0.6135
  O  O737  1  0.828910  0.217810  0.008910  1.0  -0.6237
  O  O738  1  0.776700  0.269940  0.009580  1.0  -0.614
  O  O739  1  0.944370  0.008910  0.217810  1.0  -0.6233
  O  O740  1  0.943780  0.009580  0.269940  1.0  -0.6117
  O  O741  1  0.008910  0.944370  0.828910  1.0  -0.6222
  O  O742  1  0.009580  0.943780  0.776700  1.0  -0.6118
  O  O743  1  0.217810  0.828910  0.944370  1.0  -0.6238
  O  O744  1  0.269940  0.776700  0.943780  1.0  -0.6138
  O  O745  1  0.217810  0.008910  0.944370  1.0  -0.6235
  O  O746  1  0.269940  0.009580  0.943780  1.0  -0.6122
  O  O747  1  0.008910  0.217810  0.828910  1.0  -0.623
  O  O748  1  0.009580  0.269940  0.776700  1.0  -0.6134
  O  O749  1  0.944370  0.828910  0.217810  1.0  -0.6231
  O  O750  1  0.943780  0.776700  0.269940  1.0  -0.614
  O  O751  1  0.828910  0.944370  0.008910  1.0  -0.6209
  O  O752  1  0.776700  0.943780  0.009580  1.0  -0.612
  O  O753  1  0.217810  0.944370  0.828910  1.0  -0.6222
  O  O754  1  0.269940  0.943780  0.776700  1.0  -0.6128
  O  O755  1  0.008910  0.828910  0.944370  1.0  -0.6232
  O  O756  1  0.009580  0.776700  0.943780  1.0  -0.6132
  O  O757  1  0.944370  0.217810  0.008910  1.0  -0.6225
  O  O758  1  0.943780  0.269940  0.009580  1.0  -0.6143
  O  O759  1  0.828910  0.008910  0.217810  1.0  -0.6218
  O  O760  1  0.776700  0.009580  0.269940  1.0  -0.6128
  O  O761  1  0.217810  0.828910  0.008910  1.0  -0.6237
  O  O762  1  0.269940  0.776700  0.009580  1.0  -0.6139
  O  O763  1  0.008910  0.944370  0.217810  1.0  -0.6234
  O  O764  1  0.009580  0.943780  0.269940  1.0  -0.6123
  O  O765  1  0.944370  0.008910  0.828910  1.0  -0.6225
  O  O766  1  0.943780  0.009580  0.776700  1.0  -0.6113
  O  O767  1  0.828910  0.217810  0.944370  1.0  -0.6239
  O  O768  1  0.776700  0.269940  0.943780  1.0  -0.6134
  O  O769  1  0.991090  0.782190  0.055630  1.0  -0.6218
  O  O770  1  0.990420  0.730060  0.056220  1.0  -0.6133
  O  O771  1  0.782190  0.991090  0.171090  1.0  -0.622
  O  O772  1  0.730060  0.990420  0.223300  1.0  -0.6116
  O  O773  1  0.171090  0.055630  0.782190  1.0  -0.6224
  O  O774  1  0.223300  0.056220  0.730060  1.0  -0.6126
  O  O775  1  0.055630  0.171090  0.991090  1.0  -0.6236
  O  O776  1  0.056220  0.223300  0.990420  1.0  -0.6138
  O  O777  1  0.055630  0.782190  0.171090  1.0  -0.6222
  O  O778  1  0.056220  0.730060  0.223300  1.0  -0.6127
  O  O779  1  0.171090  0.991090  0.055630  1.0  -0.6229
  O  O780  1  0.223300  0.990420  0.056220  1.0  -0.6135
  O  O781  1  0.782190  0.055630  0.991090  1.0  -0.621
  O  O782  1  0.730060  0.056220  0.990420  1.0  -0.6116
  O  O783  1  0.991090  0.171090  0.782190  1.0  -0.6235
  O  O784  1  0.990420  0.223300  0.730060  1.0  -0.6133
  O  O785  1  0.171090  0.782190  0.991090  1.0  -0.6238
  O  O786  1  0.223300  0.730060  0.990420  1.0  -0.6145
  O  O787  1  0.055630  0.991090  0.782190  1.0  -0.6225
  O  O788  1  0.056220  0.990420  0.730060  1.0  -0.6119
  O  O789  1  0.991090  0.055630  0.171090  1.0  -0.6231
  O  O790  1  0.990420  0.056220  0.223300  1.0  -0.612
  O  O791  1  0.782190  0.171090  0.055630  1.0  -0.6235
  O  O792  1  0.730060  0.223300  0.056220  1.0  -0.6145
