# generated using pymatgen
data_Zn4H36C60N6O19
_symmetry_space_group_name_H-M   'P 1'
_cell_length_a   27.03300000
_cell_length_b   36.13000000
_cell_length_c   34.29100000
_cell_angle_alpha   108.81000000
_cell_angle_beta   90.00000000
_cell_angle_gamma   90.00000000
_symmetry_Int_Tables_number   1
_chemical_formula_structural   Zn4H36C60N6O19
_chemical_formula_sum   'Zn32 H288 C480 N48 O152'
_cell_volume   31703.38572714
_cell_formula_units_Z   8
loop_
 _symmetry_equiv_pos_site_id
 _symmetry_equiv_pos_as_xyz
  1  'x, y, z'
loop_
 _atom_site_type_symbol
 _atom_site_label
 _atom_site_symmetry_multiplicity
 _atom_site_fract_x
 _atom_site_fract_y
 _atom_site_fract_z
 _atom_site_occupancy
 _atom_site_charge
  Zn  Zn1  1  0.533120  0.599170  0.803170  1.0  1.088
  Zn  Zn2  1  0.501760  0.604860  0.716910  1.0  1.0893
  Zn  Zn3  1  0.986900  0.681190  0.291050  1.0  1.0689
  Zn  Zn4  1  0.423680  0.623490  0.789720  1.0  1.0513
  Zn  Zn5  1  0.995680  0.127260  0.364340  1.0  1.043
  Zn  Zn6  1  0.011220  0.049850  0.290920  1.0  1.1368
  Zn  Zn7  1  0.468360  0.133880  0.779910  1.0  1.0563
  Zn  Zn8  1  0.922850  0.105750  0.288380  1.0  1.0373
  Zn  Zn9  1  0.966880  0.599170  0.303170  1.0  1.0879
  Zn  Zn10  1  0.998240  0.604860  0.216910  1.0  1.0896
  Zn  Zn11  1  0.513100  0.681190  0.791050  1.0  1.0683
  Zn  Zn12  1  0.076320  0.623490  0.289720  1.0  1.0537
  Zn  Zn13  1  0.504320  0.127260  0.864340  1.0  1.0428
  Zn  Zn14  1  0.488780  0.049850  0.790920  1.0  1.1367
  Zn  Zn15  1  0.031640  0.133880  0.279910  1.0  1.0554
  Zn  Zn16  1  0.577150  0.105750  0.788380  1.0  1.0355
  Zn  Zn17  1  0.033120  0.400830  0.696830  1.0  1.0874
  Zn  Zn18  1  0.001760  0.395140  0.783090  1.0  1.0908
  Zn  Zn19  1  0.486900  0.318810  0.208950  1.0  1.0676
  Zn  Zn20  1  0.923680  0.376510  0.710280  1.0  1.0511
  Zn  Zn21  1  0.495680  0.872740  0.135660  1.0  1.0438
  Zn  Zn22  1  0.511220  0.950150  0.209080  1.0  1.1323
  Zn  Zn23  1  0.968360  0.866120  0.720090  1.0  1.0572
  Zn  Zn24  1  0.422850  0.894250  0.211620  1.0  1.037
  Zn  Zn25  1  0.466880  0.400830  0.196830  1.0  1.0869
  Zn  Zn26  1  0.498240  0.395140  0.283090  1.0  1.0907
  Zn  Zn27  1  0.013100  0.318810  0.708950  1.0  1.067
  Zn  Zn28  1  0.576320  0.376510  0.210280  1.0  1.0534
  Zn  Zn29  1  0.004320  0.872740  0.635660  1.0  1.0444
  Zn  Zn30  1  0.988780  0.950150  0.709080  1.0  1.1322
  Zn  Zn31  1  0.531640  0.866120  0.220090  1.0  1.0559
  Zn  Zn32  1  0.077150  0.894250  0.711620  1.0  1.035
  H  H33  1  0.644000  0.376300  0.655200  1.0  0.2545
  H  H34  1  0.718500  0.221300  0.482900  1.0  0.2072
  H  H35  1  0.599300  0.265600  0.639100  1.0  0.2653
  H  H36  1  0.869700  0.778100  0.119300  1.0  0.2555
  H  H37  1  0.740000  0.733400  0.978200  1.0  0.2618
  H  H38  1  0.894300  0.879500  0.096000  1.0  0.2504
  H  H39  1  0.124500  0.855700  0.470200  1.0  0.2282
  H  H40  1  0.154800  0.959200  0.451200  1.0  0.2797
  H  H41  1  0.291100  0.993800  0.583700  1.0  0.2698
  H  H42  1  0.404100  0.475300  0.952000  1.0  0.269
  H  H43  1  0.355100  0.354500  0.926800  1.0  0.226
  H  H44  1  0.217500  0.487200  0.057400  1.0  0.252
  H  H45  1  0.578100  0.508800  0.648500  1.0  0.0996
  H  H46  1  0.599200  0.447300  0.611100  1.0  0.1194
  H  H47  1  0.633300  0.426300  0.716600  1.0  0.1214
  H  H48  1  0.607900  0.489400  0.752900  1.0  0.106
  H  H49  1  0.702200  0.339000  0.539600  1.0  0.1197
  H  H50  1  0.713900  0.232400  0.554500  1.0  0.1134
  H  H51  1  0.626800  0.315300  0.630100  1.0  0.1088
  H  H52  1  0.843600  0.242800  0.482800  1.0  0.1155
  H  H53  1  0.899600  0.206500  0.437500  1.0  0.1071
  H  H54  1  0.793400  0.139300  0.369300  1.0  0.1034
  H  H55  1  0.733600  0.174100  0.414200  1.0  0.1228
  H  H56  1  0.672400  0.211500  0.682800  1.0  0.1219
  H  H57  1  0.640900  0.173500  0.723100  1.0  0.0875
  H  H58  1  0.507300  0.199100  0.704400  1.0  0.0984
  H  H59  1  0.529600  0.237700  0.663700  1.0  0.1184
  H  H60  1  0.944100  0.650400  0.124900  1.0  0.1007
  H  H61  1  0.913400  0.681800  0.082600  1.0  0.1208
  H  H62  1  0.886600  0.776000  0.180800  1.0  0.113
  H  H63  1  0.926400  0.745600  0.223800  1.0  0.1184
  H  H64  1  0.811200  0.737500  0.001300  1.0  0.1045
  H  H65  1  0.778500  0.850200  0.015000  1.0  0.1181
  H  H66  1  0.867600  0.825000  0.096900  1.0  0.1032
  H  H67  1  0.703500  0.762000  0.893400  1.0  0.1101
  H  H68  1  0.647100  0.725600  0.842200  1.0  0.1117
  H  H69  1  0.629300  0.650600  0.906200  1.0  0.1025
  H  H70  1  0.678500  0.687200  0.957000  1.0  0.1072
  H  H71  1  0.952600  0.919300  0.128900  1.0  0.1162
  H  H72  1  0.979200  0.978200  0.179700  1.0  0.1172
  H  H73  1  0.839500  0.013900  0.195100  1.0  0.0934
  H  H74  1  0.814500  0.957200  0.143000  1.0  0.1118
  H  H75  1  0.030400  0.774700  0.376500  1.0  0.1146
  H  H76  1  0.066100  0.828700  0.427800  1.0  0.1088
  H  H77  1  0.189900  0.765900  0.430400  1.0  0.1131
  H  H78  1  0.152100  0.713600  0.383000  1.0  0.0799
  H  H79  1  0.151600  0.911600  0.470200  1.0  0.1164
  H  H80  1  0.217000  0.992600  0.565500  1.0  0.0855
  H  H81  1  0.249400  0.878500  0.541600  1.0  0.103
  H  H82  1  0.122400  0.965600  0.390900  1.0  0.1153
  H  H83  1  0.106300  0.012600  0.357700  1.0  0.114
  H  H84  1  0.056900  0.085300  0.462100  1.0  0.1099
  H  H85  1  0.101100  0.049400  0.497600  1.0  0.1078
  H  H86  1  0.328600  0.051500  0.616800  1.0  0.1208
  H  H87  1  0.376000  0.088500  0.673200  1.0  0.0981
  H  H88  1  0.382000  0.997700  0.717400  1.0  0.1179
  H  H89  1  0.327900  0.962000  0.665600  1.0  0.1146
  H  H90  1  0.498800  0.535200  0.885800  1.0  0.1151
  H  H91  1  0.469200  0.501100  0.925800  1.0  0.1018
  H  H92  1  0.331200  0.530800  0.910200  1.0  0.1202
  H  H93  1  0.360700  0.563000  0.866900  1.0  0.0879
  H  H94  1  0.371500  0.419000  0.950600  1.0  0.115
  H  H95  1  0.307100  0.395600  0.047800  1.0  0.1145
  H  H96  1  0.286900  0.501000  0.032800  1.0  0.115
  H  H97  1  0.351800  0.299100  0.869800  1.0  0.1089
  H  H98  1  0.383100  0.237600  0.833400  1.0  0.1146
  H  H99  1  0.460200  0.237400  0.933200  1.0  0.12
  H  H100  1  0.424700  0.299100  0.971300  1.0  0.1073
  H  H101  1  0.152800  0.526700  0.074100  1.0  0.1194
  H  H102  1  0.088900  0.551100  0.122200  1.0  0.1128
  H  H103  1  0.171600  0.531100  0.212000  1.0  0.1257
  H  H104  1  0.224400  0.493800  0.158900  1.0  0.0897
  H  H105  1  0.856000  0.376300  0.155200  1.0  0.2542
  H  H106  1  0.781500  0.221300  0.982900  1.0  0.2016
  H  H107  1  0.900700  0.265600  0.139100  1.0  0.2653
  H  H108  1  0.630300  0.778100  0.619300  1.0  0.2563
  H  H109  1  0.760000  0.733400  0.478200  1.0  0.2595
  H  H110  1  0.605700  0.879500  0.596000  1.0  0.2506
  H  H111  1  0.375500  0.855700  0.970200  1.0  0.2288
  H  H112  1  0.345200  0.959200  0.951200  1.0  0.2795
  H  H113  1  0.208900  0.993800  0.083700  1.0  0.2706
  H  H114  1  0.095900  0.475300  0.452000  1.0  0.2685
  H  H115  1  0.144900  0.354500  0.426800  1.0  0.2224
  H  H116  1  0.282500  0.487200  0.557400  1.0  0.2515
  H  H117  1  0.921900  0.508800  0.148500  1.0  0.0996
  H  H118  1  0.900800  0.447300  0.111100  1.0  0.1192
  H  H119  1  0.866700  0.426300  0.216600  1.0  0.1216
  H  H120  1  0.892100  0.489400  0.252900  1.0  0.1056
  H  H121  1  0.797800  0.339000  0.039600  1.0  0.12
  H  H122  1  0.786100  0.232400  0.054500  1.0  0.1135
  H  H123  1  0.873200  0.315300  0.130100  1.0  0.1082
  H  H124  1  0.656400  0.242800  0.982800  1.0  0.1156
  H  H125  1  0.600400  0.206500  0.937500  1.0  0.1075
  H  H126  1  0.706600  0.139300  0.869300  1.0  0.1035
  H  H127  1  0.766400  0.174100  0.914200  1.0  0.1224
  H  H128  1  0.827600  0.211500  0.182800  1.0  0.1219
  H  H129  1  0.859100  0.173500  0.223100  1.0  0.0877
  H  H130  1  0.992700  0.199100  0.204400  1.0  0.1002
  H  H131  1  0.970400  0.237700  0.163700  1.0  0.1185
  H  H132  1  0.555900  0.650400  0.624900  1.0  0.1006
  H  H133  1  0.586600  0.681800  0.582600  1.0  0.1211
  H  H134  1  0.613400  0.776000  0.680800  1.0  0.1131
  H  H135  1  0.573600  0.745600  0.723800  1.0  0.1184
  H  H136  1  0.688800  0.737500  0.501300  1.0  0.1036
  H  H137  1  0.721500  0.850200  0.515000  1.0  0.118
  H  H138  1  0.632400  0.825000  0.596900  1.0  0.1032
  H  H139  1  0.796500  0.762000  0.393400  1.0  0.1096
  H  H140  1  0.852900  0.725600  0.342200  1.0  0.1117
  H  H141  1  0.870700  0.650600  0.406200  1.0  0.1027
  H  H142  1  0.821500  0.687200  0.457000  1.0  0.1072
  H  H143  1  0.547400  0.919300  0.628900  1.0  0.116
  H  H144  1  0.520800  0.978200  0.679700  1.0  0.1172
  H  H145  1  0.660500  0.013900  0.695100  1.0  0.0936
  H  H146  1  0.685500  0.957200  0.643000  1.0  0.1124
  H  H147  1  0.469600  0.774700  0.876500  1.0  0.1149
  H  H148  1  0.433900  0.828700  0.927800  1.0  0.1094
  H  H149  1  0.310100  0.765900  0.930400  1.0  0.1124
  H  H150  1  0.347900  0.713600  0.883000  1.0  0.0795
  H  H151  1  0.348400  0.911600  0.970200  1.0  0.1173
  H  H152  1  0.283000  0.992600  0.065500  1.0  0.0853
  H  H153  1  0.250600  0.878500  0.041600  1.0  0.1029
  H  H154  1  0.377600  0.965600  0.890900  1.0  0.1152
  H  H155  1  0.393700  0.012600  0.857700  1.0  0.1142
  H  H156  1  0.443100  0.085300  0.962100  1.0  0.1097
  H  H157  1  0.398900  0.049400  0.997600  1.0  0.1083
  H  H158  1  0.171400  0.051500  0.116800  1.0  0.1219
  H  H159  1  0.124000  0.088500  0.173200  1.0  0.0987
  H  H160  1  0.118000  0.997700  0.217400  1.0  0.1175
  H  H161  1  0.172100  0.962000  0.165600  1.0  0.1141
  H  H162  1  0.001200  0.535200  0.385800  1.0  0.1146
  H  H163  1  0.030800  0.501100  0.425800  1.0  0.102
  H  H164  1  0.168800  0.530800  0.410200  1.0  0.1217
  H  H165  1  0.139300  0.563000  0.366900  1.0  0.0884
  H  H166  1  0.128500  0.419000  0.450600  1.0  0.1153
  H  H167  1  0.192900  0.395600  0.547800  1.0  0.1154
  H  H168  1  0.213100  0.501000  0.532800  1.0  0.1148
  H  H169  1  0.148200  0.299100  0.369800  1.0  0.1095
  H  H170  1  0.116900  0.237600  0.333400  1.0  0.1147
  H  H171  1  0.039800  0.237400  0.433200  1.0  0.1201
  H  H172  1  0.075300  0.299100  0.471300  1.0  0.1083
  H  H173  1  0.347200  0.526700  0.574100  1.0  0.1197
  H  H174  1  0.411100  0.551100  0.622200  1.0  0.1129
  H  H175  1  0.328400  0.531100  0.712000  1.0  0.1257
  H  H176  1  0.275600  0.493800  0.658900  1.0  0.09
  H  H177  1  0.144000  0.623700  0.844800  1.0  0.2541
  H  H178  1  0.218500  0.778700  0.017100  1.0  0.2075
  H  H179  1  0.099300  0.734400  0.860900  1.0  0.2652
  H  H180  1  0.369700  0.221900  0.380700  1.0  0.2557
  H  H181  1  0.240000  0.266600  0.521800  1.0  0.2607
  H  H182  1  0.394300  0.120500  0.404000  1.0  0.2487
  H  H183  1  0.624500  0.144300  0.029800  1.0  0.2277
  H  H184  1  0.654800  0.040800  0.048800  1.0  0.2794
  H  H185  1  0.791100  0.006200  0.916300  1.0  0.2702
  H  H186  1  0.904100  0.524700  0.548000  1.0  0.2696
  H  H187  1  0.855100  0.645500  0.573200  1.0  0.2248
  H  H188  1  0.717500  0.512800  0.442600  1.0  0.2522
  H  H189  1  0.078100  0.491200  0.851500  1.0  0.0993
  H  H190  1  0.099200  0.552700  0.888900  1.0  0.1195
  H  H191  1  0.133300  0.573700  0.783400  1.0  0.1215
  H  H192  1  0.107900  0.510600  0.747100  1.0  0.1063
  H  H193  1  0.202200  0.661000  0.960400  1.0  0.1194
  H  H194  1  0.213900  0.767600  0.945500  1.0  0.1136
  H  H195  1  0.126800  0.684700  0.869900  1.0  0.1093
  H  H196  1  0.343600  0.757200  0.017200  1.0  0.1158
  H  H197  1  0.399600  0.793500  0.062500  1.0  0.1073
  H  H198  1  0.293400  0.860700  0.130700  1.0  0.1041
  H  H199  1  0.233600  0.825900  0.085800  1.0  0.1223
  H  H200  1  0.172400  0.788500  0.817200  1.0  0.1223
  H  H201  1  0.140900  0.826500  0.776900  1.0  0.0876
  H  H202  1  0.007300  0.800900  0.795600  1.0  0.0987
  H  H203  1  0.029600  0.762300  0.836300  1.0  0.1191
  H  H204  1  0.444100  0.349600  0.375100  1.0  0.1008
  H  H205  1  0.413400  0.318200  0.417400  1.0  0.1209
  H  H206  1  0.386600  0.224000  0.319200  1.0  0.1144
  H  H207  1  0.426400  0.254400  0.276200  1.0  0.1186
  H  H208  1  0.311200  0.262500  0.498700  1.0  0.1039
  H  H209  1  0.278500  0.149800  0.485000  1.0  0.1183
  H  H210  1  0.367600  0.175000  0.403100  1.0  0.1021
  H  H211  1  0.203500  0.238000  0.606600  1.0  0.1103
  H  H212  1  0.147100  0.274400  0.657800  1.0  0.1122
  H  H213  1  0.129300  0.349400  0.593800  1.0  0.1031
  H  H214  1  0.178500  0.312800  0.543000  1.0  0.108
  H  H215  1  0.452600  0.080700  0.371100  1.0  0.116
  H  H216  1  0.479200  0.021800  0.320300  1.0  0.1176
  H  H217  1  0.339500  0.986100  0.304900  1.0  0.0928
  H  H218  1  0.314500  0.042800  0.357000  1.0  0.1117
  H  H219  1  0.530400  0.225300  0.123500  1.0  0.1146
  H  H220  1  0.566100  0.171300  0.072200  1.0  0.1087
  H  H221  1  0.689900  0.234100  0.069600  1.0  0.1134
  H  H222  1  0.652100  0.286400  0.117000  1.0  0.0801
  H  H223  1  0.651600  0.088400  0.029800  1.0  0.118
  H  H224  1  0.717000  0.007400  0.934500  1.0  0.0858
  H  H225  1  0.749400  0.121500  0.958400  1.0  0.1051
  H  H226  1  0.622400  0.034400  0.109100  1.0  0.1154
  H  H227  1  0.606300  0.987400  0.142300  1.0  0.1145
  H  H228  1  0.556900  0.914700  0.037900  1.0  0.1089
  H  H229  1  0.601100  0.950600  0.002400  1.0  0.108
  H  H230  1  0.828600  0.948500  0.883200  1.0  0.1214
  H  H231  1  0.876000  0.911500  0.826800  1.0  0.0985
  H  H232  1  0.882000  0.002300  0.782600  1.0  0.1181
  H  H233  1  0.827900  0.038000  0.834400  1.0  0.1149
  H  H234  1  0.998800  0.464800  0.614200  1.0  0.1149
  H  H235  1  0.969200  0.498900  0.574200  1.0  0.102
  H  H236  1  0.831200  0.469200  0.589800  1.0  0.1199
  H  H237  1  0.860700  0.437000  0.633100  1.0  0.0879
  H  H238  1  0.871500  0.581000  0.549400  1.0  0.1156
  H  H239  1  0.807100  0.604400  0.452200  1.0  0.1143
  H  H240  1  0.786900  0.499000  0.467200  1.0  0.1146
  H  H241  1  0.851800  0.700900  0.630200  1.0  0.1096
  H  H242  1  0.883100  0.762400  0.666667  1.0  0.1146
  H  H243  1  0.960200  0.762600  0.566800  1.0  0.1197
  H  H244  1  0.924700  0.700900  0.528700  1.0  0.1077
  H  H245  1  0.652800  0.473300  0.425900  1.0  0.1189
  H  H246  1  0.588900  0.448900  0.377800  1.0  0.1128
  H  H247  1  0.671600  0.468900  0.288000  1.0  0.1258
  H  H248  1  0.724400  0.506200  0.341100  1.0  0.0896
  H  H249  1  0.356000  0.623700  0.344800  1.0  0.254
  H  H250  1  0.281500  0.778700  0.517100  1.0  0.2016
  H  H251  1  0.400700  0.734400  0.360900  1.0  0.2668
  H  H252  1  0.130300  0.221900  0.880700  1.0  0.256
  H  H253  1  0.260000  0.266600  0.021800  1.0  0.2607
  H  H254  1  0.105700  0.120500  0.904000  1.0  0.248
  H  H255  1  0.875500  0.144300  0.529800  1.0  0.228
  H  H256  1  0.845200  0.040800  0.548800  1.0  0.279
  H  H257  1  0.708900  0.006200  0.416300  1.0  0.2696
  H  H258  1  0.595900  0.524700  0.048000  1.0  0.2679
  H  H259  1  0.644900  0.645500  0.073200  1.0  0.2236
  H  H260  1  0.782500  0.512800  0.942600  1.0  0.2517
  H  H261  1  0.421900  0.491200  0.351500  1.0  0.0997
  H  H262  1  0.400800  0.552700  0.388900  1.0  0.1196
  H  H263  1  0.366700  0.573700  0.283400  1.0  0.1215
  H  H264  1  0.392100  0.510600  0.247100  1.0  0.1059
  H  H265  1  0.297800  0.661000  0.460400  1.0  0.1193
  H  H266  1  0.286100  0.767600  0.445500  1.0  0.114
  H  H267  1  0.373200  0.684700  0.369900  1.0  0.1087
  H  H268  1  0.156400  0.757200  0.517200  1.0  0.115
  H  H269  1  0.100400  0.793500  0.562500  1.0  0.1078
  H  H270  1  0.206600  0.860700  0.630700  1.0  0.1042
  H  H271  1  0.266400  0.825900  0.585800  1.0  0.1217
  H  H272  1  0.327600  0.788500  0.317200  1.0  0.122
  H  H273  1  0.359100  0.826500  0.276900  1.0  0.0877
  H  H274  1  0.492700  0.800900  0.295600  1.0  0.1009
  H  H275  1  0.470400  0.762300  0.336300  1.0  0.1181
  H  H276  1  0.055900  0.349600  0.875100  1.0  0.1008
  H  H277  1  0.086600  0.318200  0.917400  1.0  0.1212
  H  H278  1  0.113400  0.224000  0.819200  1.0  0.1144
  H  H279  1  0.073600  0.254400  0.776200  1.0  0.1187
  H  H280  1  0.188800  0.262500  0.998700  1.0  0.1042
  H  H281  1  0.221500  0.149800  0.985000  1.0  0.1182
  H  H282  1  0.132400  0.175000  0.903100  1.0  0.1013
  H  H283  1  0.296500  0.238000  0.106600  1.0  0.1101
  H  H284  1  0.352900  0.274400  0.157800  1.0  0.1122
  H  H285  1  0.370700  0.349400  0.093800  1.0  0.1029
  H  H286  1  0.321500  0.312800  0.043000  1.0  0.108
  H  H287  1  0.047400  0.080700  0.871100  1.0  0.1156
  H  H288  1  0.020800  0.021800  0.820300  1.0  0.1171
  H  H289  1  0.160500  0.986100  0.804900  1.0  0.0935
  H  H290  1  0.185500  0.042800  0.857000  1.0  0.1117
  H  H291  1  0.969600  0.225300  0.623500  1.0  0.1148
  H  H292  1  0.933900  0.171300  0.572200  1.0  0.1094
  H  H293  1  0.810100  0.234100  0.569600  1.0  0.113
  H  H294  1  0.847900  0.286400  0.617000  1.0  0.0803
  H  H295  1  0.848400  0.088400  0.529800  1.0  0.1183
  H  H296  1  0.783000  0.007400  0.434500  1.0  0.0855
  H  H297  1  0.750600  0.121500  0.458400  1.0  0.1039
  H  H298  1  0.877600  0.034400  0.609100  1.0  0.1154
  H  H299  1  0.893700  0.987400  0.642300  1.0  0.1145
  H  H300  1  0.943100  0.914700  0.537900  1.0  0.1093
  H  H301  1  0.898900  0.950600  0.502400  1.0  0.1087
  H  H302  1  0.671400  0.948500  0.383200  1.0  0.1204
  H  H303  1  0.624000  0.911500  0.326800  1.0  0.0978
  H  H304  1  0.618000  0.002300  0.282600  1.0  0.1179
  H  H305  1  0.672100  0.038000  0.334400  1.0  0.1142
  H  H306  1  0.501200  0.464800  0.114200  1.0  0.1145
  H  H307  1  0.530800  0.498900  0.074200  1.0  0.1012
  H  H308  1  0.668800  0.469200  0.089800  1.0  0.1212
  H  H309  1  0.639300  0.437000  0.133100  1.0  0.088
  H  H310  1  0.628500  0.581000  0.049400  1.0  0.1159
  H  H311  1  0.692900  0.604400  0.952200  1.0  0.1142
  H  H312  1  0.713100  0.499000  0.967200  1.0  0.1146
  H  H313  1  0.648200  0.700900  0.130200  1.0  0.1093
  H  H314  1  0.616900  0.762400  0.166600  1.0  0.1141
  H  H315  1  0.539800  0.762600  0.066800  1.0  0.1198
  H  H316  1  0.575300  0.700900  0.028700  1.0  0.1084
  H  H317  1  0.847200  0.473300  0.925900  1.0  0.1184
  H  H318  1  0.911100  0.448900  0.877800  1.0  0.1127
  H  H319  1  0.828400  0.468900  0.788000  1.0  0.1259
  H  H320  1  0.775600  0.506200  0.841100  1.0  0.0902
  C  C321  1  0.567400  0.542900  0.727000  1.0  0.6886
  C  C322  1  0.587500  0.504430  0.704100  1.0  -0.0961
  C  C323  1  0.588100  0.491300  0.662600  1.0  -0.0615
  C  C324  1  0.601500  0.455500  0.640300  1.0  -0.1751
  C  C325  1  0.619200  0.429980  0.660100  1.0  0.2149
  C  C326  1  0.621300  0.442930  0.702200  1.0  -0.1683
  C  C327  1  0.605700  0.480400  0.723700  1.0  -0.0544
  C  C328  1  0.644400  0.374140  0.598600  1.0  0.5517
  C  C329  1  0.661800  0.332560  0.586600  1.0  0.025
  C  C330  1  0.693200  0.321170  0.553500  1.0  -0.1077
  C  C331  1  0.712200  0.282210  0.540100  1.0  0.0421
  C  C332  1  0.700400  0.258000  0.562100  1.0  -0.181
  C  C333  1  0.668900  0.270730  0.595290  1.0  -0.0249
  C  C334  1  0.649100  0.307380  0.607460  1.0  -0.1662
  C  C335  1  0.747900  0.271200  0.506900  1.0  0.4244
  C  C336  1  0.780700  0.213750  0.452800  1.0  0.1993
  C  C337  1  0.832800  0.221970  0.459500  1.0  -0.1097
  C  C338  1  0.865400  0.200500  0.433170  1.0  -0.0546
  C  C339  1  0.851000  0.169110  0.399100  1.0  -0.1167
  C  C340  1  0.803000  0.160500  0.392700  1.0  -0.0485
  C  C341  1  0.767400  0.181440  0.419000  1.0  -0.181
  C  C342  1  0.889500  0.146600  0.370600  1.0  0.6983
  C  C343  1  0.659100  0.243140  0.619500  1.0  0.5196
  C  C344  1  0.601700  0.225110  0.666400  1.0  0.2326
  C  C345  1  0.637900  0.208600  0.686200  1.0  -0.1725
  C  C346  1  0.618100  0.187170  0.711700  1.0  -0.0497
  C  C347  1  0.572200  0.185170  0.720100  1.0  -0.0095
  C  C348  1  0.541600  0.202200  0.700500  1.0  -0.0418
  C  C349  1  0.553700  0.224400  0.674500  1.0  -0.1462
  C  C350  1  0.553600  0.162310  0.744640  1.0  0.7152
  C  C351  1  0.959400  0.674300  0.204720  1.0  0.7133
  C  C352  1  0.939900  0.694800  0.177510  1.0  -0.117
  C  C353  1  0.934200  0.676900  0.136400  1.0  -0.0462
  C  C354  1  0.915100  0.695100  0.111400  1.0  -0.1687
  C  C355  1  0.898300  0.732400  0.127000  1.0  0.273
  C  C356  1  0.900500  0.750600  0.169200  1.0  -0.1874
  C  C357  1  0.923000  0.732400  0.195100  1.0  -0.0892
  C  C358  1  0.867300  0.745800  0.065200  1.0  0.5236
  C  C359  1  0.845400  0.776000  0.048900  1.0  -0.0186
  C  C360  1  0.815100  0.764610  0.015900  1.0  -0.1233
  C  C361  1  0.789500  0.791590  0.002800  1.0  -0.0701
  C  C362  1  0.795800  0.831510  0.024000  1.0  -0.0558
  C  C363  1  0.825900  0.843900  0.056900  1.0  0.1007
  C  C364  1  0.849400  0.816600  0.071900  1.0  -0.1818
  C  C365  1  0.758200  0.780800  0.965200  1.0  0.3464
  C  C366  1  0.699400  0.726760  0.929100  1.0  0.1793
  C  C367  1  0.688200  0.739200  0.895900  1.0  -0.1408
  C  C368  1  0.653800  0.717930  0.865700  1.0  -0.0542
  C  C369  1  0.630500  0.686150  0.870900  1.0  -0.156
  C  C370  1  0.643100  0.674100  0.904100  1.0  -0.0598
  C  C371  1  0.673800  0.694580  0.933000  1.0  -0.1522
  C  C372  1  0.594700  0.663900  0.837800  1.0  0.7111
  C  C373  1  0.831600  0.883700  0.081300  1.0  0.3925
  C  C374  1  0.881000  0.933500  0.131700  1.0  0.2329
  C  C375  1  0.929100  0.938800  0.142400  1.0  -0.1572
  C  C376  1  0.945000  0.973300  0.173700  1.0  -0.0903
  C  C377  1  0.909400  0.999500  0.195300  1.0  -0.0597
  C  C378  1  0.863300  0.994340  0.182500  1.0  -0.0857
  C  C379  1  0.848400  0.960600  0.150800  1.0  -0.1194
  C  C380  1  0.927700  0.034500  0.227700  1.0  0.7209
  C  C381  1  0.070900  0.709100  0.340700  1.0  0.5704
  C  C382  1  0.092300  0.739300  0.374300  1.0  -0.0854
  C  C383  1  0.062400  0.773300  0.387400  1.0  -0.1102
  C  C384  1  0.084100  0.804900  0.418100  1.0  -0.1555
  C  C385  1  0.129800  0.803500  0.434900  1.0  0.1991
  C  C386  1  0.157600  0.768180  0.420500  1.0  -0.1958
  C  C387  1  0.135100  0.737940  0.391500  1.0  -0.0557
  C  C388  1  0.190800  0.846780  0.478100  1.0  0.6228
  C  C389  1  0.197300  0.888880  0.503030  1.0  -0.0488
  C  C390  1  0.173200  0.917930  0.493290  1.0  -0.1157
  C  C391  1  0.180300  0.957720  0.517700  1.0  0.0137
  C  C392  1  0.212400  0.966040  0.549330  1.0  -0.1518
  C  C393  1  0.238700  0.938040  0.559210  1.0  -0.0008
  C  C394  1  0.231300  0.898490  0.535520  1.0  -0.0592
  C  C395  1  0.155300  0.990100  0.508800  1.0  0.3528
  C  C396  1  0.120600  0.005000  0.448500  1.0  0.2921
  C  C397  1  0.115000  0.992000  0.406200  1.0  -0.1297
  C  C398  1  0.098500  0.017600  0.385900  1.0  -0.1082
  C  C399  1  0.071800  0.049000  0.406000  1.0  -0.0746
  C  C400  1  0.073100  0.061600  0.447100  1.0  -0.1022
  C  C401  1  0.099100  0.039460  0.468400  1.0  -0.1323
  C  C402  1  0.044400  0.070400  0.380400  1.0  0.6963
  C  C403  1  0.271700  0.946940  0.593900  1.0  0.4254
  C  C404  1  0.323800  0.003000  0.635700  1.0  0.2293
  C  C405  1  0.338200  0.040900  0.637700  1.0  -0.1866
  C  C406  1  0.366900  0.062500  0.671100  1.0  -0.0652
  C  C407  1  0.381800  0.047900  0.700200  1.0  -0.1536
  C  C408  1  0.369400  0.008700  0.697800  1.0  -0.0795
  C  C409  1  0.338800  0.987300  0.666400  1.0  -0.1834
  C  C410  1  0.411600  0.072400  0.735100  1.0  0.6962
  C  C411  1  0.452200  0.575050  0.844030  1.0  0.713
  C  C412  1  0.431800  0.552490  0.869970  1.0  -0.1414
  C  C413  1  0.464200  0.534030  0.889700  1.0  -0.1128
  C  C414  1  0.446500  0.514650  0.914070  1.0  -0.1224
  C  C415  1  0.399000  0.513470  0.922600  1.0  0.2478
  C  C416  1  0.365600  0.531400  0.904900  1.0  -0.2062
  C  C417  1  0.383800  0.550400  0.879200  1.0  -0.0507
  C  C418  1  0.339900  0.494780  0.967190  1.0  0.5713
  C  C419  1  0.332100  0.464510  0.987880  1.0  -0.0292
  C  C420  1  0.351500  0.427430  0.974640  1.0  -0.1172
  C  C421  1  0.340800  0.401510  0.997900  1.0  -0.0049
  C  C422  1  0.312500  0.412730  0.032220  1.0  -0.1219
  C  C423  1  0.291900  0.448900  0.044010  1.0  -0.0454
  C  C424  1  0.301100  0.475600  0.023300  1.0  -0.0921
  C  C425  1  0.364400  0.361710  0.984000  1.0  0.544
  C  C426  1  0.386400  0.305090  0.924000  1.0  0.2579
  C  C427  1  0.373600  0.286400  0.883100  1.0  -0.1031
  C  C428  1  0.391700  0.249880  0.861500  1.0  -0.0899
  C  C429  1  0.421800  0.231930  0.881000  1.0  -0.1002
  C  C430  1  0.436800  0.249690  0.920690  1.0  -0.0514
  C  C431  1  0.416700  0.287080  0.943070  1.0  -0.1846
  C  C432  1  0.441700  0.191100  0.858200  1.0  0.7174
  C  C433  1  0.262500  0.460700  0.083500  1.0  0.4989
  C  C434  1  0.192800  0.505900  0.113900  1.0  0.2488
  C  C435  1  0.154700  0.525800  0.101500  1.0  -0.0842
  C  C436  1  0.120100  0.544000  0.130400  1.0  -0.061
  C  C437  1  0.131600  0.552300  0.174100  1.0  -0.0993
  C  C438  1  0.167400  0.530900  0.184500  1.0  -0.1172
  C  C439  1  0.198200  0.508200  0.152100  1.0  -0.1183
  C  C440  1  0.095500  0.576600  0.203200  1.0  0.728
  C  C441  1  0.932600  0.542900  0.227000  1.0  0.6882
  C  C442  1  0.912500  0.504430  0.204100  1.0  -0.0965
  C  C443  1  0.911900  0.491300  0.162600  1.0  -0.0619
  C  C444  1  0.898500  0.455500  0.140300  1.0  -0.1767
  C  C445  1  0.880800  0.429980  0.160100  1.0  0.2145
  C  C446  1  0.878700  0.442930  0.202200  1.0  -0.1707
  C  C447  1  0.894300  0.480400  0.223700  1.0  -0.0586
  C  C448  1  0.855600  0.374140  0.098600  1.0  0.5527
  C  C449  1  0.838200  0.332560  0.086600  1.0  0.0296
  C  C450  1  0.806800  0.321170  0.053500  1.0  -0.1083
  C  C451  1  0.787800  0.282210  0.040100  1.0  0.0406
  C  C452  1  0.799600  0.258000  0.062100  1.0  -0.1806
  C  C453  1  0.831100  0.270730  0.095290  1.0  -0.0221
  C  C454  1  0.850900  0.307380  0.107460  1.0  -0.167
  C  C455  1  0.752100  0.271200  0.006900  1.0  0.4241
  C  C456  1  0.719300  0.213750  0.952800  1.0  0.1994
  C  C457  1  0.667200  0.221970  0.959500  1.0  -0.1114
  C  C458  1  0.634600  0.200500  0.933170  1.0  -0.0554
  C  C459  1  0.649000  0.169110  0.899100  1.0  -0.1191
  C  C460  1  0.697000  0.160500  0.892700  1.0  -0.0443
  C  C461  1  0.732600  0.181440  0.919000  1.0  -0.1747
  C  C462  1  0.610500  0.146600  0.870600  1.0  0.6988
  C  C463  1  0.840900  0.243140  0.119500  1.0  0.5206
  C  C464  1  0.898300  0.225110  0.166400  1.0  0.2315
  C  C465  1  0.862100  0.208600  0.186200  1.0  -0.1739
  C  C466  1  0.881900  0.187170  0.211700  1.0  -0.0512
  C  C467  1  0.927800  0.185170  0.220100  1.0  -0.0087
  C  C468  1  0.958400  0.202200  0.200500  1.0  -0.0351
  C  C469  1  0.946300  0.224400  0.174500  1.0  -0.1471
  C  C470  1  0.946400  0.162310  0.244640  1.0  0.7147
  C  C471  1  0.540600  0.674300  0.704720  1.0  0.7141
  C  C472  1  0.560100  0.694800  0.677510  1.0  -0.1176
  C  C473  1  0.565800  0.676900  0.636400  1.0  -0.0469
  C  C474  1  0.584900  0.695100  0.611400  1.0  -0.1652
  C  C475  1  0.601700  0.732400  0.627000  1.0  0.273
  C  C476  1  0.599500  0.750600  0.669200  1.0  -0.1865
  C  C477  1  0.577000  0.732400  0.695100  1.0  -0.0895
  C  C478  1  0.632700  0.745800  0.565200  1.0  0.5239
  C  C479  1  0.654600  0.776000  0.548900  1.0  -0.0188
  C  C480  1  0.684900  0.764610  0.515900  1.0  -0.1251
  C  C481  1  0.710500  0.791590  0.502800  1.0  -0.07
  C  C482  1  0.704200  0.831510  0.524000  1.0  -0.0535
  C  C483  1  0.674100  0.843900  0.556900  1.0  0.1001
  C  C484  1  0.650600  0.816600  0.571900  1.0  -0.1842
  C  C485  1  0.741800  0.780800  0.465200  1.0  0.3463
  C  C486  1  0.800600  0.726760  0.429100  1.0  0.1804
  C  C487  1  0.811800  0.739200  0.395900  1.0  -0.1393
  C  C488  1  0.846200  0.717930  0.365700  1.0  -0.0543
  C  C489  1  0.869500  0.686150  0.370900  1.0  -0.1553
  C  C490  1  0.856900  0.674100  0.404100  1.0  -0.0598
  C  C491  1  0.826200  0.694580  0.433000  1.0  -0.147
  C  C492  1  0.905300  0.663900  0.337800  1.0  0.7119
  C  C493  1  0.668400  0.883700  0.581300  1.0  0.3933
  C  C494  1  0.619000  0.933500  0.631700  1.0  0.2364
  C  C495  1  0.570900  0.938800  0.642400  1.0  -0.1555
  C  C496  1  0.555000  0.973300  0.673700  1.0  -0.0908
  C  C497  1  0.590600  0.999500  0.695300  1.0  -0.0601
  C  C498  1  0.636700  0.994340  0.682500  1.0  -0.0832
  C  C499  1  0.651600  0.960600  0.650800  1.0  -0.1215
  C  C500  1  0.572300  0.034500  0.727700  1.0  0.7209
  C  C501  1  0.429100  0.709100  0.840700  1.0  0.5687
  C  C502  1  0.407700  0.739300  0.874300  1.0  -0.0837
  C  C503  1  0.437600  0.773300  0.887400  1.0  -0.1107
  C  C504  1  0.415900  0.804900  0.918100  1.0  -0.1532
  C  C505  1  0.370200  0.803500  0.934900  1.0  0.1992
  C  C506  1  0.342400  0.768180  0.920500  1.0  -0.1982
  C  C507  1  0.364900  0.737940  0.891500  1.0  -0.0609
  C  C508  1  0.309200  0.846780  0.978100  1.0  0.6228
  C  C509  1  0.302700  0.888880  0.003030  1.0  -0.0491
  C  C510  1  0.326800  0.917930  0.993290  1.0  -0.1162
  C  C511  1  0.319700  0.957720  0.017700  1.0  0.0134
  C  C512  1  0.287600  0.966040  0.049330  1.0  -0.1523
  C  C513  1  0.261300  0.938040  0.059210  1.0  -0.0009
  C  C514  1  0.268700  0.898490  0.035520  1.0  -0.0589
  C  C515  1  0.344700  0.990100  0.008800  1.0  0.3531
  C  C516  1  0.379400  0.005000  0.948500  1.0  0.2922
  C  C517  1  0.385000  0.992000  0.906200  1.0  -0.1303
  C  C518  1  0.401500  0.017600  0.885900  1.0  -0.1082
  C  C519  1  0.428200  0.049000  0.906000  1.0  -0.0739
  C  C520  1  0.426900  0.061600  0.947100  1.0  -0.0993
  C  C521  1  0.400900  0.039460  0.968400  1.0  -0.1324
  C  C522  1  0.455600  0.070400  0.880400  1.0  0.6945
  C  C523  1  0.228300  0.946940  0.093900  1.0  0.4252
  C  C524  1  0.176200  0.003000  0.135700  1.0  0.2362
  C  C525  1  0.161800  0.040900  0.137700  1.0  -0.1862
  C  C526  1  0.133100  0.062500  0.171100  1.0  -0.0664
  C  C527  1  0.118200  0.047900  0.200200  1.0  -0.1536
  C  C528  1  0.130600  0.008700  0.197800  1.0  -0.0826
  C  C529  1  0.161200  0.987300  0.166400  1.0  -0.1804
  C  C530  1  0.088400  0.072400  0.235100  1.0  0.6966
  C  C531  1  0.047800  0.575050  0.344030  1.0  0.713
  C  C532  1  0.068200  0.552490  0.369970  1.0  -0.1417
  C  C533  1  0.035800  0.534030  0.389700  1.0  -0.1099
  C  C534  1  0.053500  0.514650  0.414070  1.0  -0.1213
  C  C535  1  0.101000  0.513470  0.422600  1.0  0.2537
  C  C536  1  0.134400  0.531400  0.404900  1.0  -0.2061
  C  C537  1  0.116200  0.550400  0.379200  1.0  -0.0423
  C  C538  1  0.160100  0.494780  0.467190  1.0  0.5685
  C  C539  1  0.167900  0.464510  0.487880  1.0  -0.0242
  C  C540  1  0.148500  0.427430  0.474640  1.0  -0.1169
  C  C541  1  0.159200  0.401510  0.497900  1.0  -0.005
  C  C542  1  0.187500  0.412730  0.532220  1.0  -0.1215
  C  C543  1  0.208100  0.448900  0.544010  1.0  -0.0456
  C  C544  1  0.198900  0.475600  0.523300  1.0  -0.0922
  C  C545  1  0.135600  0.361710  0.484000  1.0  0.5442
  C  C546  1  0.113600  0.305090  0.424000  1.0  0.2582
  C  C547  1  0.126400  0.286400  0.383100  1.0  -0.1026
  C  C548  1  0.108300  0.249880  0.361500  1.0  -0.0899
  C  C549  1  0.078200  0.231930  0.381000  1.0  -0.1006
  C  C550  1  0.063200  0.249690  0.420690  1.0  -0.0522
  C  C551  1  0.083300  0.287080  0.443070  1.0  -0.1837
  C  C552  1  0.058300  0.191100  0.358200  1.0  0.7181
  C  C553  1  0.237500  0.460700  0.583500  1.0  0.4983
  C  C554  1  0.307200  0.505900  0.613900  1.0  0.2488
  C  C555  1  0.345300  0.525800  0.601500  1.0  -0.0877
  C  C556  1  0.379900  0.544000  0.630400  1.0  -0.0589
  C  C557  1  0.368400  0.552300  0.674100  1.0  -0.0998
  C  C558  1  0.332600  0.530900  0.684500  1.0  -0.1178
  C  C559  1  0.301800  0.508200  0.652100  1.0  -0.1196
  C  C560  1  0.404500  0.576600  0.703200  1.0  0.7267
  C  C561  1  0.067400  0.457100  0.773000  1.0  0.6873
  C  C562  1  0.087500  0.495570  0.795900  1.0  -0.096
  C  C563  1  0.088100  0.508700  0.837400  1.0  -0.0566
  C  C564  1  0.101500  0.544500  0.859700  1.0  -0.1769
  C  C565  1  0.119200  0.570020  0.839900  1.0  0.2169
  C  C566  1  0.121300  0.557070  0.797800  1.0  -0.1689
  C  C567  1  0.105700  0.519600  0.776300  1.0  -0.054
  C  C568  1  0.144400  0.625860  0.901400  1.0  0.5527
  C  C569  1  0.161800  0.667440  0.913400  1.0  0.0205
  C  C570  1  0.193200  0.678830  0.946500  1.0  -0.1078
  C  C571  1  0.212200  0.717790  0.959900  1.0  0.0413
  C  C572  1  0.200400  0.742000  0.937900  1.0  -0.1798
  C  C573  1  0.168900  0.729270  0.904710  1.0  -0.023
  C  C574  1  0.149100  0.692620  0.892540  1.0  -0.166
  C  C575  1  0.247900  0.728800  0.993100  1.0  0.426
  C  C576  1  0.280700  0.786250  0.047200  1.0  0.2001
  C  C577  1  0.332800  0.778030  0.040500  1.0  -0.1126
  C  C578  1  0.365400  0.799500  0.066830  1.0  -0.0558
  C  C579  1  0.351000  0.830890  0.100900  1.0  -0.1183
  C  C580  1  0.303000  0.839500  0.107300  1.0  -0.0492
  C  C581  1  0.267400  0.818560  0.081000  1.0  -0.1831
  C  C582  1  0.389500  0.853400  0.129400  1.0  0.6982
  C  C583  1  0.159100  0.756860  0.880500  1.0  0.5194
  C  C584  1  0.101700  0.774890  0.833600  1.0  0.2338
  C  C585  1  0.137900  0.791400  0.813800  1.0  -0.173
  C  C586  1  0.118100  0.812830  0.788300  1.0  -0.0507
  C  C587  1  0.072200  0.814830  0.779900  1.0  -0.0083
  C  C588  1  0.041600  0.797800  0.799500  1.0  -0.042
  C  C589  1  0.053700  0.775600  0.825500  1.0  -0.1506
  C  C590  1  0.053600  0.837690  0.755360  1.0  0.7145
  C  C591  1  0.459400  0.325700  0.295280  1.0  0.7122
  C  C592  1  0.439900  0.305200  0.322490  1.0  -0.1185
  C  C593  1  0.434200  0.323100  0.363600  1.0  -0.039
  C  C594  1  0.415100  0.304900  0.388600  1.0  -0.1657
  C  C595  1  0.398300  0.267600  0.373000  1.0  0.2729
  C  C596  1  0.400500  0.249400  0.330800  1.0  -0.1882
  C  C597  1  0.423000  0.267600  0.304900  1.0  -0.0887
  C  C598  1  0.367300  0.254200  0.434800  1.0  0.5235
  C  C599  1  0.345400  0.224000  0.451100  1.0  -0.0198
  C  C600  1  0.315100  0.235390  0.484100  1.0  -0.1257
  C  C601  1  0.289500  0.208410  0.497200  1.0  -0.0697
  C  C602  1  0.295800  0.168490  0.476000  1.0  -0.0536
  C  C603  1  0.325900  0.156100  0.443100  1.0  0.1007
  C  C604  1  0.349400  0.183400  0.428100  1.0  -0.1813
  C  C605  1  0.258200  0.219200  0.534800  1.0  0.3529
  C  C606  1  0.199400  0.273240  0.570900  1.0  0.1792
  C  C607  1  0.188200  0.260800  0.604100  1.0  -0.1383
  C  C608  1  0.153800  0.282070  0.634300  1.0  -0.055
  C  C609  1  0.130500  0.313850  0.629100  1.0  -0.1555
  C  C610  1  0.143100  0.325900  0.595900  1.0  -0.0664
  C  C611  1  0.173800  0.305420  0.567000  1.0  -0.1525
  C  C612  1  0.094700  0.336100  0.662200  1.0  0.7111
  C  C613  1  0.331600  0.116300  0.418700  1.0  0.3933
  C  C614  1  0.381000  0.066500  0.368300  1.0  0.2368
  C  C615  1  0.429100  0.061200  0.357600  1.0  -0.1568
  C  C616  1  0.445000  0.026700  0.326300  1.0  -0.0912
  C  C617  1  0.409400  0.000500  0.304700  1.0  -0.059
  C  C618  1  0.363300  0.005660  0.317500  1.0  -0.0852
  C  C619  1  0.348400  0.039400  0.349200  1.0  -0.1191
  C  C620  1  0.427700  0.965500  0.272300  1.0  0.7195
  C  C621  1  0.570900  0.290900  0.159300  1.0  0.5684
  C  C622  1  0.592300  0.260700  0.125700  1.0  -0.0839
  C  C623  1  0.562400  0.226700  0.112600  1.0  -0.1105
  C  C624  1  0.584100  0.195100  0.081900  1.0  -0.156
  C  C625  1  0.629800  0.196500  0.065100  1.0  0.1993
  C  C626  1  0.657600  0.231820  0.079500  1.0  -0.1963
  C  C627  1  0.635100  0.262060  0.108500  1.0  -0.0523
  C  C628  1  0.690800  0.153220  0.021900  1.0  0.6234
  C  C629  1  0.697300  0.111120  0.996970  1.0  -0.0483
  C  C630  1  0.673200  0.082070  0.006710  1.0  -0.1155
  C  C631  1  0.680300  0.042280  0.982300  1.0  0.0135
  C  C632  1  0.712400  0.033960  0.950670  1.0  -0.1502
  C  C633  1  0.738700  0.061960  0.940790  1.0  -0.0003
  C  C634  1  0.731300  0.101510  0.964480  1.0  -0.0592
  C  C635  1  0.655300  0.009900  0.991200  1.0  0.3535
  C  C636  1  0.620600  0.995000  0.051500  1.0  0.2926
  C  C637  1  0.615000  0.008000  0.093800  1.0  -0.1301
  C  C638  1  0.598500  0.982400  0.114100  1.0  -0.1076
  C  C639  1  0.571800  0.951000  0.094000  1.0  -0.0736
  C  C640  1  0.573100  0.938400  0.052900  1.0  -0.1014
  C  C641  1  0.599100  0.960540  0.031600  1.0  -0.1321
  C  C642  1  0.544400  0.929600  0.119600  1.0  0.6976
  C  C643  1  0.771700  0.053060  0.906100  1.0  0.4255
  C  C644  1  0.823800  0.997000  0.864300  1.0  0.2365
  C  C645  1  0.838200  0.959100  0.862300  1.0  -0.1858
  C  C646  1  0.866900  0.937500  0.828900  1.0  -0.0671
  C  C647  1  0.881800  0.952100  0.799800  1.0  -0.1543
  C  C648  1  0.869400  0.991300  0.802200  1.0  -0.0821
  C  C649  1  0.838800  0.012700  0.833600  1.0  -0.1824
  C  C650  1  0.911600  0.927600  0.764900  1.0  0.695
  C  C651  1  0.952200  0.424950  0.655970  1.0  0.7131
  C  C652  1  0.931800  0.447510  0.630030  1.0  -0.1417
  C  C653  1  0.964200  0.465970  0.610300  1.0  -0.1164
  C  C654  1  0.946500  0.485350  0.585930  1.0  -0.1219
  C  C655  1  0.899000  0.486530  0.577400  1.0  0.2535
  C  C656  1  0.865600  0.468600  0.595100  1.0  -0.2056
  C  C657  1  0.883800  0.449600  0.620800  1.0  -0.0509
  C  C658  1  0.839900  0.505220  0.532810  1.0  0.5694
  C  C659  1  0.832100  0.535490  0.512120  1.0  -0.029
  C  C660  1  0.851500  0.572570  0.525360  1.0  -0.1178
  C  C661  1  0.840800  0.598490  0.502100  1.0  -0.0047
  C  C662  1  0.812500  0.587270  0.467780  1.0  -0.1225
  C  C663  1  0.791900  0.551100  0.455990  1.0  -0.046
  C  C664  1  0.801100  0.524400  0.476700  1.0  -0.0921
  C  C665  1  0.864400  0.638290  0.516000  1.0  0.544
  C  C666  1  0.886400  0.694910  0.576000  1.0  0.2575
  C  C667  1  0.873600  0.713600  0.616900  1.0  -0.1003
  C  C668  1  0.891700  0.750120  0.638500  1.0  -0.0874
  C  C669  1  0.921800  0.768070  0.619000  1.0  -0.0994
  C  C670  1  0.936800  0.750310  0.579310  1.0  -0.0518
  C  C671  1  0.916700  0.712920  0.556930  1.0  -0.1843
  C  C672  1  0.941700  0.808900  0.641800  1.0  0.7183
  C  C673  1  0.762500  0.539300  0.416500  1.0  0.498
  C  C674  1  0.692800  0.494100  0.386100  1.0  0.2487
  C  C675  1  0.654700  0.474200  0.398500  1.0  -0.0844
  C  C676  1  0.620100  0.456000  0.369600  1.0  -0.0603
  C  C677  1  0.631600  0.447700  0.325900  1.0  -0.1006
  C  C678  1  0.667400  0.469100  0.315500  1.0  -0.1142
  C  C679  1  0.698200  0.491800  0.347900  1.0  -0.119
  C  C680  1  0.595500  0.423400  0.296800  1.0  0.7246
  C  C681  1  0.432600  0.457100  0.273000  1.0  0.6872
  C  C682  1  0.412500  0.495570  0.295900  1.0  -0.096
  C  C683  1  0.411900  0.508700  0.337400  1.0  -0.0577
  C  C684  1  0.398500  0.544500  0.359700  1.0  -0.1762
  C  C685  1  0.380800  0.570020  0.339900  1.0  0.226
  C  C686  1  0.378700  0.557070  0.297800  1.0  -0.1684
  C  C687  1  0.394300  0.519600  0.276300  1.0  -0.0513
  C  C688  1  0.355600  0.625860  0.401400  1.0  0.5524
  C  C689  1  0.338200  0.667440  0.413400  1.0  0.0243
  C  C690  1  0.306800  0.678830  0.446500  1.0  -0.1094
  C  C691  1  0.287800  0.717790  0.459900  1.0  0.0408
  C  C692  1  0.299600  0.742000  0.437900  1.0  -0.1792
  C  C693  1  0.331100  0.729270  0.404710  1.0  -0.0192
  C  C694  1  0.350900  0.692620  0.392540  1.0  -0.1667
  C  C695  1  0.252100  0.728800  0.493100  1.0  0.425
  C  C696  1  0.219300  0.786250  0.547200  1.0  0.2007
  C  C697  1  0.167200  0.778030  0.540500  1.0  -0.1144
  C  C698  1  0.134600  0.799500  0.566830  1.0  -0.0561
  C  C699  1  0.149000  0.830890  0.600900  1.0  -0.1198
  C  C700  1  0.197000  0.839500  0.607300  1.0  -0.0432
  C  C701  1  0.232600  0.818560  0.581000  1.0  -0.1752
  C  C702  1  0.110500  0.853400  0.629400  1.0  0.6983
  C  C703  1  0.340900  0.756860  0.380500  1.0  0.52
  C  C704  1  0.398300  0.774890  0.333600  1.0  0.2307
  C  C705  1  0.362100  0.791400  0.313800  1.0  -0.1747
  C  C706  1  0.381900  0.812830  0.288300  1.0  -0.0522
  C  C707  1  0.427800  0.814830  0.279900  1.0  -0.0079
  C  C708  1  0.458400  0.797800  0.299500  1.0  -0.0368
  C  C709  1  0.446300  0.775600  0.325500  1.0  -0.1453
  C  C710  1  0.446400  0.837690  0.255360  1.0  0.7142
  C  C711  1  0.040600  0.325700  0.795280  1.0  0.7122
  C  C712  1  0.060100  0.305200  0.822490  1.0  -0.1187
  C  C713  1  0.065800  0.323100  0.863600  1.0  -0.0424
  C  C714  1  0.084900  0.304900  0.888600  1.0  -0.1671
  C  C715  1  0.101700  0.267600  0.873000  1.0  0.2728
  C  C716  1  0.099500  0.249400  0.830800  1.0  -0.1876
  C  C717  1  0.077000  0.267600  0.804900  1.0  -0.0887
  C  C718  1  0.132700  0.254200  0.934800  1.0  0.5221
  C  C719  1  0.154600  0.224000  0.951100  1.0  -0.0192
  C  C720  1  0.184900  0.235390  0.984100  1.0  -0.1261
  C  C721  1  0.210500  0.208410  0.997200  1.0  -0.0698
  C  C722  1  0.204200  0.168490  0.976000  1.0  -0.0554
  C  C723  1  0.174100  0.156100  0.943100  1.0  0.1004
  C  C724  1  0.150600  0.183400  0.928100  1.0  -0.1833
  C  C725  1  0.241800  0.219200  0.034800  1.0  0.3521
  C  C726  1  0.300600  0.273240  0.070900  1.0  0.1805
  C  C727  1  0.311800  0.260800  0.104100  1.0  -0.138
  C  C728  1  0.346200  0.282070  0.134300  1.0  -0.0548
  C  C729  1  0.369500  0.313850  0.129100  1.0  -0.1563
  C  C730  1  0.356900  0.325900  0.095900  1.0  -0.0572
  C  C731  1  0.326200  0.305420  0.067000  1.0  -0.1515
  C  C732  1  0.405300  0.336100  0.162200  1.0  0.712
  C  C733  1  0.168400  0.116300  0.918700  1.0  0.3935
  C  C734  1  0.119000  0.066500  0.868300  1.0  0.2396
  C  C735  1  0.070900  0.061200  0.857600  1.0  -0.156
  C  C736  1  0.055000  0.026700  0.826300  1.0  -0.091
  C  C737  1  0.090600  0.000500  0.804700  1.0  -0.0597
  C  C738  1  0.136700  0.005660  0.817500  1.0  -0.0819
  C  C739  1  0.151600  0.039400  0.849200  1.0  -0.1208
  C  C740  1  0.072300  0.965500  0.772300  1.0  0.7197
  C  C741  1  0.929100  0.290900  0.659300  1.0  0.567
  C  C742  1  0.907700  0.260700  0.625700  1.0  -0.0831
  C  C743  1  0.937600  0.226700  0.612600  1.0  -0.1096
  C  C744  1  0.915900  0.195100  0.581900  1.0  -0.1541
  C  C745  1  0.870200  0.196500  0.565100  1.0  0.1979
  C  C746  1  0.842400  0.231820  0.579500  1.0  -0.1983
  C  C747  1  0.864900  0.262060  0.608500  1.0  -0.0613
  C  C748  1  0.809200  0.153220  0.521900  1.0  0.6223
  C  C749  1  0.802700  0.111120  0.496970  1.0  -0.0482
  C  C750  1  0.826800  0.082070  0.506710  1.0  -0.1159
  C  C751  1  0.819700  0.042280  0.482300  1.0  0.0135
  C  C752  1  0.787600  0.033960  0.450670  1.0  -0.15
  C  C753  1  0.761300  0.061960  0.440790  1.0  -0.0007
  C  C754  1  0.768700  0.101510  0.464480  1.0  -0.0584
  C  C755  1  0.844700  0.009900  0.491200  1.0  0.3534
  C  C756  1  0.879400  0.995000  0.551500  1.0  0.2909
  C  C757  1  0.885000  0.008000  0.593800  1.0  -0.1328
  C  C758  1  0.901500  0.982400  0.614100  1.0  -0.1085
  C  C759  1  0.928200  0.951000  0.594000  1.0  -0.0735
  C  C760  1  0.926900  0.938400  0.552900  1.0  -0.1009
  C  C761  1  0.900900  0.960540  0.531600  1.0  -0.1328
  C  C762  1  0.955600  0.929600  0.619600  1.0  0.6962
  C  C763  1  0.728300  0.053060  0.406100  1.0  0.4258
  C  C764  1  0.676200  0.997000  0.364300  1.0  0.237
  C  C765  1  0.661800  0.959100  0.362300  1.0  -0.1817
  C  C766  1  0.633100  0.937500  0.328900  1.0  -0.0684
  C  C767  1  0.618200  0.952100  0.299800  1.0  -0.1547
  C  C768  1  0.630600  0.991300  0.302200  1.0  -0.0842
  C  C769  1  0.661200  0.012700  0.333600  1.0  -0.1803
  C  C770  1  0.588400  0.927600  0.264900  1.0  0.6964
  C  C771  1  0.547800  0.424950  0.155970  1.0  0.7129
  C  C772  1  0.568200  0.447510  0.130030  1.0  -0.142
  C  C773  1  0.535800  0.465970  0.110300  1.0  -0.1195
  C  C774  1  0.553500  0.485350  0.085930  1.0  -0.1239
  C  C775  1  0.601000  0.486530  0.077400  1.0  0.2617
  C  C776  1  0.634400  0.468600  0.095100  1.0  -0.2055
  C  C777  1  0.616200  0.449600  0.120800  1.0  -0.0492
  C  C778  1  0.660100  0.505220  0.032810  1.0  0.5678
  C  C779  1  0.667900  0.535490  0.012120  1.0  -0.0256
  C  C780  1  0.648500  0.572570  0.025360  1.0  -0.1177
  C  C781  1  0.659200  0.598490  0.002100  1.0  -0.0047
  C  C782  1  0.687500  0.587270  0.967780  1.0  -0.1222
  C  C783  1  0.708100  0.551100  0.955990  1.0  -0.0461
  C  C784  1  0.698900  0.524400  0.976700  1.0  -0.0925
  C  C785  1  0.635600  0.638290  0.016000  1.0  0.5436
  C  C786  1  0.613600  0.694910  0.076000  1.0  0.2578
  C  C787  1  0.626400  0.713600  0.116900  1.0  -0.0996
  C  C788  1  0.608300  0.750120  0.138500  1.0  -0.0912
  C  C789  1  0.578200  0.768070  0.119000  1.0  -0.1009
  C  C790  1  0.563200  0.750310  0.079310  1.0  -0.0514
  C  C791  1  0.583300  0.712920  0.056930  1.0  -0.1855
  C  C792  1  0.558300  0.808900  0.141800  1.0  0.7187
  C  C793  1  0.737500  0.539300  0.916500  1.0  0.4977
  C  C794  1  0.807200  0.494100  0.886100  1.0  0.2486
  C  C795  1  0.845300  0.474200  0.898500  1.0  -0.0843
  C  C796  1  0.879900  0.456000  0.869600  1.0  -0.0583
  C  C797  1  0.868400  0.447700  0.825900  1.0  -0.1002
  C  C798  1  0.832600  0.469100  0.815500  1.0  -0.114
  C  C799  1  0.801800  0.491800  0.847900  1.0  -0.1206
  C  C800  1  0.904500  0.423400  0.796800  1.0  0.7238
  N  N801  1  0.637100  0.390730  0.639510  1.0  -0.4218
  N  N802  1  0.745600  0.234230  0.481380  1.0  -0.4172
  N  N803  1  0.619100  0.246780  0.640660  1.0  -0.3924
  N  N804  1  0.877500  0.754090  0.104410  1.0  -0.3742
  N  N805  1  0.733400  0.745240  0.960060  1.0  -0.3637
  N  N806  1  0.869700  0.896340  0.101300  1.0  -0.3734
  N  N807  1  0.146800  0.837040  0.461900  1.0  -0.2489
  N  N808  1  0.144700  0.982090  0.467520  1.0  -0.3452
  N  N809  1  0.295100  0.982320  0.602500  1.0  -0.3177
  N  N810  1  0.382900  0.492340  0.948150  1.0  -0.4044
  N  N811  1  0.366980  0.342320  0.943200  1.0  -0.4094
  N  N812  1  0.223600  0.484800  0.081650  1.0  -0.2963
  N  N813  1  0.862900  0.390730  0.139510  1.0  -0.4223
  N  N814  1  0.754400  0.234230  0.981380  1.0  -0.4165
  N  N815  1  0.880900  0.246780  0.140660  1.0  -0.393
  N  N816  1  0.622500  0.754090  0.604410  1.0  -0.3733
  N  N817  1  0.766600  0.745240  0.460060  1.0  -0.3624
  N  N818  1  0.630300  0.896340  0.601300  1.0  -0.375
  N  N819  1  0.353200  0.837040  0.961900  1.0  -0.2507
  N  N820  1  0.355300  0.982090  0.967520  1.0  -0.3461
  N  N821  1  0.204900  0.982320  0.102500  1.0  -0.3182
  N  N822  1  0.117100  0.492340  0.448150  1.0  -0.4041
  N  N823  1  0.133020  0.342320  0.443200  1.0  -0.4097
  N  N824  1  0.276400  0.484800  0.581650  1.0  -0.2985
  N  N825  1  0.137100  0.609270  0.860490  1.0  -0.4251
  N  N826  1  0.245600  0.765770  0.018620  1.0  -0.4143
  N  N827  1  0.119100  0.753220  0.859340  1.0  -0.3934
  N  N828  1  0.377500  0.245910  0.395590  1.0  -0.3755
  N  N829  1  0.233400  0.254760  0.539940  1.0  -0.3647
  N  N830  1  0.369700  0.103660  0.398700  1.0  -0.3693
  N  N831  1  0.646800  0.162960  0.038100  1.0  -0.2488
  N  N832  1  0.644700  0.017910  0.032480  1.0  -0.3452
  N  N833  1  0.795100  0.017680  0.897500  1.0  -0.3162
  N  N834  1  0.882900  0.507660  0.551850  1.0  -0.4059
  N  N835  1  0.866980  0.657680  0.556800  1.0  -0.4074
  N  N836  1  0.723600  0.515200  0.418350  1.0  -0.2959
  N  N837  1  0.362900  0.609270  0.360490  1.0  -0.4223
  N  N838  1  0.254400  0.765770  0.518620  1.0  -0.4141
  N  N839  1  0.380900  0.753220  0.359340  1.0  -0.3934
  N  N840  1  0.122500  0.245910  0.895590  1.0  -0.3737
  N  N841  1  0.266600  0.254760  0.039940  1.0  -0.3641
  N  N842  1  0.130300  0.103660  0.898700  1.0  -0.373
  N  N843  1  0.853200  0.162960  0.538100  1.0  -0.2494
  N  N844  1  0.855300  0.017910  0.532480  1.0  -0.3462
  N  N845  1  0.704900  0.017680  0.397500  1.0  -0.317
  N  N846  1  0.617100  0.507660  0.051850  1.0  -0.4056
  N  N847  1  0.633020  0.657680  0.056800  1.0  -0.4073
  N  N848  1  0.776400  0.515200  0.918350  1.0  -0.2979
  O  O849  1  0.567160  0.554310  0.766620  1.0  -0.6088
  O  O850  1  0.549100  0.563630  0.705850  1.0  -0.6462
  O  O851  1  0.931900  0.148790  0.385540  1.0  -0.6058
  O  O852  1  0.875930  0.125180  0.333560  1.0  -0.5901
  O  O853  1  0.506130  0.161760  0.750650  1.0  -0.6259
  O  O854  1  0.584800  0.145340  0.760130  1.0  -0.6081
  O  O855  1  0.639500  0.390240  0.572970  1.0  -0.4275
  O  O856  1  0.779500  0.293660  0.502440  1.0  -0.4849
  O  O857  1  0.691000  0.219180  0.620080  1.0  -0.474
  O  O858  1  0.969450  0.694610  0.242460  1.0  -0.6431
  O  O859  1  0.971130  0.639060  0.188910  1.0  -0.584
  O  O860  1  0.579350  0.679200  0.812440  1.0  -0.6156
  O  O861  1  0.579190  0.631800  0.841270  1.0  -0.6079
  O  O862  1  0.896300  0.059260  0.246880  1.0  -0.5832
  O  O863  1  0.974000  0.036670  0.235590  1.0  -0.6156
  O  O864  1  0.877700  0.713310  0.039800  1.0  -0.4636
  O  O865  1  0.750700  0.800610  0.943890  1.0  -0.4189
  O  O866  1  0.795300  0.906070  0.082500  1.0  -0.4692
  O  O867  1  0.033200  0.712230  0.321000  1.0  -0.6213
  O  O868  1  0.096500  0.672990  0.328320  1.0  -0.6046
  O  O869  1  0.022180  0.100630  0.400090  1.0  -0.58
  O  O870  1  0.052700  0.058600  0.343300  1.0  -0.6173
  O  O871  1  0.424200  0.056110  0.762010  1.0  -0.6363
  O  O872  1  0.424870  0.105280  0.737360  1.0  -0.6074
  O  O873  1  0.225280  0.822980  0.472610  1.0  -0.539
  O  O874  1  0.143700  0.019940  0.533990  1.0  -0.4144
  O  O875  1  0.280550  0.924480  0.614110  1.0  -0.4721
  O  O876  1  0.497560  0.575830  0.838400  1.0  -0.5874
  O  O877  1  0.420000  0.590320  0.827280  1.0  -0.6274
  O  O878  1  0.434070  0.178260  0.820100  1.0  -0.5995
  O  O879  1  0.464940  0.174660  0.880060  1.0  -0.6038
  O  O880  1  0.055200  0.586200  0.188900  1.0  -0.6177
  O  O881  1  0.105100  0.584300  0.239200  1.0  -0.581
  O  O882  1  0.308330  0.517470  0.966120  1.0  -0.4262
  O  O883  1  0.381180  0.348500  0.010180  1.0  -0.4966
  O  O884  1  0.271600  0.450950  0.112780  1.0  -0.4184
  O  O885  1  0.493430  0.626540  0.775690  1.0  -1.2555
  O  O886  1  0.989610  0.106320  0.305920  1.0  -1.2525
  O  O887  1  0.932840  0.554310  0.266620  1.0  -0.6106
  O  O888  1  0.950900  0.563630  0.205850  1.0  -0.6466
  O  O889  1  0.568100  0.148790  0.885540  1.0  -0.6064
  O  O890  1  0.624070  0.125180  0.833560  1.0  -0.5897
  O  O891  1  0.993870  0.161760  0.250650  1.0  -0.6251
  O  O892  1  0.915200  0.145340  0.260130  1.0  -0.6065
  O  O893  1  0.860500  0.390240  0.072970  1.0  -0.4271
  O  O894  1  0.720500  0.293660  0.002440  1.0  -0.4887
  O  O895  1  0.809000  0.219180  0.120080  1.0  -0.4749
  O  O896  1  0.530550  0.694610  0.742460  1.0  -0.6435
  O  O897  1  0.528870  0.639060  0.688910  1.0  -0.584
  O  O898  1  0.920650  0.679200  0.312440  1.0  -0.6156
  O  O899  1  0.920810  0.631800  0.341270  1.0  -0.6086
  O  O900  1  0.603700  0.059260  0.746880  1.0  -0.5835
  O  O901  1  0.526000  0.036670  0.735590  1.0  -0.6149
  O  O902  1  0.622300  0.713310  0.539800  1.0  -0.4625
  O  O903  1  0.749300  0.800610  0.443890  1.0  -0.4189
  O  O904  1  0.704700  0.906070  0.582500  1.0  -0.4716
  O  O905  1  0.466800  0.712230  0.821000  1.0  -0.6212
  O  O906  1  0.403500  0.672990  0.828320  1.0  -0.6047
  O  O907  1  0.477820  0.100630  0.900090  1.0  -0.5799
  O  O908  1  0.447300  0.058600  0.843300  1.0  -0.6177
  O  O909  1  0.075800  0.056110  0.262010  1.0  -0.635
  O  O910  1  0.075130  0.105280  0.237360  1.0  -0.6055
  O  O911  1  0.274720  0.822980  0.972610  1.0  -0.539
  O  O912  1  0.356300  0.019940  0.033990  1.0  -0.4127
  O  O913  1  0.219450  0.924480  0.114110  1.0  -0.4725
  O  O914  1  0.002440  0.575830  0.338400  1.0  -0.5884
  O  O915  1  0.080000  0.590320  0.327280  1.0  -0.6271
  O  O916  1  0.065930  0.178260  0.320100  1.0  -0.5999
  O  O917  1  0.035060  0.174660  0.380060  1.0  -0.604
  O  O918  1  0.444800  0.586200  0.688900  1.0  -0.6168
  O  O919  1  0.394900  0.584300  0.739200  1.0  -0.5816
  O  O920  1  0.191670  0.517470  0.466120  1.0  -0.4272
  O  O921  1  0.118820  0.348500  0.510180  1.0  -0.4964
  O  O922  1  0.228400  0.450950  0.612780  1.0  -0.4189
  O  O923  1  0.006570  0.626540  0.275690  1.0  -1.256
  O  O924  1  0.510390  0.106320  0.805920  1.0  -1.2523
  O  O925  1  0.067160  0.445690  0.733380  1.0  -0.61
  O  O926  1  0.049100  0.436370  0.794150  1.0  -0.6481
  O  O927  1  0.431900  0.851210  0.114460  1.0  -0.6046
  O  O928  1  0.375930  0.874820  0.166440  1.0  -0.5892
  O  O929  1  0.006130  0.838240  0.749350  1.0  -0.6269
  O  O930  1  0.084800  0.854660  0.739870  1.0  -0.6069
  O  O931  1  0.139500  0.609760  0.927030  1.0  -0.4271
  O  O932  1  0.279500  0.706340  0.997560  1.0  -0.4859
  O  O933  1  0.191000  0.780820  0.879920  1.0  -0.474
  O  O934  1  0.469450  0.305390  0.257540  1.0  -0.644
  O  O935  1  0.471130  0.360940  0.311090  1.0  -0.5837
  O  O936  1  0.079350  0.320800  0.687560  1.0  -0.6164
  O  O937  1  0.079190  0.368200  0.658730  1.0  -0.6087
  O  O938  1  0.396300  0.940740  0.253120  1.0  -0.5843
  O  O939  1  0.474000  0.963330  0.264410  1.0  -0.6161
  O  O940  1  0.377700  0.286690  0.460200  1.0  -0.4628
  O  O941  1  0.250700  0.199390  0.556110  1.0  -0.4201
  O  O942  1  0.295300  0.093930  0.417500  1.0  -0.4685
  O  O943  1  0.533200  0.287770  0.179000  1.0  -0.622
  O  O944  1  0.596500  0.327010  0.171680  1.0  -0.6046
  O  O945  1  0.522180  0.899370  0.099910  1.0  -0.5802
  O  O946  1  0.552700  0.941400  0.156700  1.0  -0.6176
  O  O947  1  0.924200  0.943890  0.737990  1.0  -0.6342
  O  O948  1  0.924870  0.894720  0.762640  1.0  -0.6078
  O  O949  1  0.725280  0.177020  0.027390  1.0  -0.5414
  O  O950  1  0.643700  0.980060  0.966010  1.0  -0.4127
  O  O951  1  0.780550  0.075520  0.885890  1.0  -0.4721
  O  O952  1  0.997560  0.424170  0.661600  1.0  -0.5874
  O  O953  1  0.920000  0.409680  0.672720  1.0  -0.6277
  O  O954  1  0.934070  0.821740  0.679900  1.0  -0.6007
  O  O955  1  0.964940  0.825340  0.619940  1.0  -0.6037
  O  O956  1  0.555200  0.413800  0.311100  1.0  -0.6182
  O  O957  1  0.605100  0.415700  0.260800  1.0  -0.5798
  O  O958  1  0.808330  0.482530  0.533880  1.0  -0.426
  O  O959  1  0.881180  0.651500  0.489820  1.0  -0.4954
  O  O960  1  0.771600  0.549050  0.387220  1.0  -0.4197
  O  O961  1  0.993430  0.373460  0.724310  1.0  -1.2556
  O  O962  1  0.489610  0.893680  0.194080  1.0  -1.2525
  O  O963  1  0.432840  0.445690  0.233380  1.0  -0.6104
  O  O964  1  0.450900  0.436370  0.294150  1.0  -0.6497
  O  O965  1  0.068100  0.851210  0.614460  1.0  -0.6048
  O  O966  1  0.124070  0.874820  0.666440  1.0  -0.5876
  O  O967  1  0.493870  0.838240  0.249350  1.0  -0.6264
  O  O968  1  0.415200  0.854660  0.239870  1.0  -0.6065
  O  O969  1  0.360500  0.609760  0.427030  1.0  -0.4268
  O  O970  1  0.220500  0.706340  0.497560  1.0  -0.4831
  O  O971  1  0.309000  0.780820  0.379920  1.0  -0.4747
  O  O972  1  0.030550  0.305390  0.757540  1.0  -0.6443
  O  O973  1  0.028870  0.360940  0.811090  1.0  -0.5837
  O  O974  1  0.420650  0.320800  0.187560  1.0  -0.6162
  O  O975  1  0.420810  0.368200  0.158730  1.0  -0.6094
  O  O976  1  0.103700  0.940740  0.753120  1.0  -0.5828
  O  O977  1  0.026000  0.963330  0.764410  1.0  -0.6153
  O  O978  1  0.122300  0.286690  0.960200  1.0  -0.4633
  O  O979  1  0.249300  0.199390  0.056110  1.0  -0.4193
  O  O980  1  0.204700  0.093930  0.917500  1.0  -0.4698
  O  O981  1  0.966800  0.287770  0.679000  1.0  -0.6195
  O  O982  1  0.903500  0.327010  0.671680  1.0  -0.6042
  O  O983  1  0.977820  0.899370  0.599910  1.0  -0.5798
  O  O984  1  0.947300  0.941400  0.656700  1.0  -0.6185
  O  O985  1  0.575800  0.943890  0.237990  1.0  -0.6332
  O  O986  1  0.575130  0.894720  0.262640  1.0  -0.6063
  O  O987  1  0.774720  0.177020  0.527390  1.0  -0.539
  O  O988  1  0.856300  0.980060  0.466010  1.0  -0.4122
  O  O989  1  0.719450  0.075520  0.385890  1.0  -0.4724
  O  O990  1  0.502440  0.424170  0.161600  1.0  -0.5883
  O  O991  1  0.580000  0.409680  0.172720  1.0  -0.6275
  O  O992  1  0.565930  0.821740  0.179900  1.0  -0.6004
  O  O993  1  0.535060  0.825340  0.119940  1.0  -0.6038
  O  O994  1  0.944800  0.413800  0.811100  1.0  -0.617
  O  O995  1  0.894900  0.415700  0.760800  1.0  -0.5801
  O  O996  1  0.691670  0.482530  0.033880  1.0  -0.4278
  O  O997  1  0.618820  0.651500  0.989820  1.0  -0.4949
  O  O998  1  0.728400  0.549050  0.887220  1.0  -0.4201
  O  O999  1  0.506570  0.373460  0.224310  1.0  -1.256
  O  O1000  1  0.010390  0.893680  0.694080  1.0  -1.2523
