# generated using pymatgen
data_Cd3H24(C3N2)4
_symmetry_space_group_name_H-M   'P 1'
_cell_length_a   34.60660000
_cell_length_b   34.60660000
_cell_length_c   34.60660000
_cell_angle_alpha   60.00000000
_cell_angle_beta   60.00000000
_cell_angle_gamma   60.00000000
_symmetry_Int_Tables_number   1
_chemical_formula_structural   Cd3H24(C3N2)4
_chemical_formula_sum   'Cd48 H384 C192 N128'
_cell_volume   29306.35470662
_cell_formula_units_Z   16
loop_
 _symmetry_equiv_pos_site_id
 _symmetry_equiv_pos_as_xyz
  1  'x, y, z'
loop_
 _atom_site_type_symbol
 _atom_site_label
 _atom_site_symmetry_multiplicity
 _atom_site_fract_x
 _atom_site_fract_y
 _atom_site_fract_z
 _atom_site_occupancy
 _atom_site_charge
  Cd  Cd1  1  0.205600  0.705600  0.196630  1.0  0.5194
  Cd  Cd2  1  0.205600  0.705600  0.892170  1.0  0.5199
  Cd  Cd3  1  0.696630  0.892170  0.705600  1.0  0.5197
  Cd  Cd4  1  0.392170  0.196630  0.705600  1.0  0.5198
  Cd  Cd5  1  0.205600  0.196630  0.892170  1.0  0.5197
  Cd  Cd6  1  0.205600  0.892170  0.196630  1.0  0.5195
  Cd  Cd7  1  0.696630  0.705600  0.705600  1.0  0.5194
  Cd  Cd8  1  0.392170  0.705600  0.705600  1.0  0.5195
  Cd  Cd9  1  0.205600  0.892170  0.705600  1.0  0.5195
  Cd  Cd10  1  0.205600  0.196630  0.705600  1.0  0.5195
  Cd  Cd11  1  0.696630  0.705600  0.892170  1.0  0.5197
  Cd  Cd12  1  0.392170  0.705600  0.196630  1.0  0.5196
  Cd  Cd13  1  0.794400  0.294400  0.803370  1.0  0.5199
  Cd  Cd14  1  0.794400  0.294400  0.107830  1.0  0.5193
  Cd  Cd15  1  0.607830  0.803370  0.294400  1.0  0.5197
  Cd  Cd16  1  0.303370  0.107830  0.294400  1.0  0.5197
  Cd  Cd17  1  0.303370  0.294400  0.107830  1.0  0.5191
  Cd  Cd18  1  0.607830  0.294400  0.803370  1.0  0.5198
  Cd  Cd19  1  0.794400  0.803370  0.294400  1.0  0.5195
  Cd  Cd20  1  0.794400  0.107830  0.294400  1.0  0.5197
  Cd  Cd21  1  0.607830  0.294400  0.294400  1.0  0.5198
  Cd  Cd22  1  0.303370  0.294400  0.294400  1.0  0.5193
  Cd  Cd23  1  0.794400  0.803370  0.107830  1.0  0.5192
  Cd  Cd24  1  0.794400  0.107830  0.803370  1.0  0.5197
  Cd  Cd25  1  0.000000  0.689640  0.310360  1.0  0.5233
  Cd  Cd26  1  0.189640  0.500000  0.000000  1.0  0.5249
  Cd  Cd27  1  0.810360  0.000000  0.500000  1.0  0.524
  Cd  Cd28  1  0.500000  0.310360  0.689640  1.0  0.5252
  Cd  Cd29  1  0.000000  0.310360  0.000000  1.0  0.5247
  Cd  Cd30  1  0.189640  0.000000  0.310360  1.0  0.5244
  Cd  Cd31  1  0.810360  0.500000  0.689640  1.0  0.5245
  Cd  Cd32  1  0.500000  0.689640  0.500000  1.0  0.5237
  Cd  Cd33  1  0.000000  0.000000  0.689640  1.0  0.5248
  Cd  Cd34  1  0.189640  0.310360  0.500000  1.0  0.5247
  Cd  Cd35  1  0.810360  0.689640  0.000000  1.0  0.5232
  Cd  Cd36  1  0.500000  0.500000  0.310360  1.0  0.5231
  Cd  Cd37  1  0.000000  0.310360  0.689640  1.0  0.5252
  Cd  Cd38  1  0.810360  0.500000  0.000000  1.0  0.524
  Cd  Cd39  1  0.189640  0.000000  0.500000  1.0  0.5249
  Cd  Cd40  1  0.500000  0.689640  0.310360  1.0  0.5233
  Cd  Cd41  1  0.000000  0.689640  0.000000  1.0  0.5237
  Cd  Cd42  1  0.810360  0.000000  0.689640  1.0  0.5245
  Cd  Cd43  1  0.189640  0.500000  0.310360  1.0  0.5244
  Cd  Cd44  1  0.500000  0.310360  0.500000  1.0  0.5247
  Cd  Cd45  1  0.000000  0.000000  0.310360  1.0  0.5231
  Cd  Cd46  1  0.810360  0.689640  0.500000  1.0  0.5232
  Cd  Cd47  1  0.189640  0.310360  0.000000  1.0  0.5247
  Cd  Cd48  1  0.500000  0.500000  0.689640  1.0  0.5248
  H  H49  1  0.291300  0.745700  0.103900  1.0  0.0144
  H  H50  1  0.144900  0.690500  0.154700  1.0  0.0335
  H  H51  1  0.095300  0.711500  0.229900  1.0  0.0364
  H  H52  1  0.109000  0.681200  0.276000  1.0  0.043
  H  H53  1  0.061900  0.633700  0.227500  1.0  0.0339
  H  H54  1  0.070200  0.682600  0.200200  1.0  0.0143
  H  H55  1  0.245700  0.791300  0.859100  1.0  0.0153
  H  H56  1  0.190500  0.644900  0.009900  1.0  0.0286
  H  H57  1  0.211500  0.595300  0.963300  1.0  0.0324
  H  H58  1  0.181200  0.609000  0.933800  1.0  0.0427
  H  H59  1  0.133700  0.561900  0.076900  1.0  0.0394
  H  H60  1  0.182600  0.570200  0.047000  1.0  0.0135
  H  H61  1  0.603900  0.859100  0.791300  1.0  0.0151
  H  H62  1  0.654700  0.009900  0.644900  1.0  0.0332
  H  H63  1  0.729900  0.963300  0.595300  1.0  0.0346
  H  H64  1  0.776000  0.933800  0.609000  1.0  0.0408
  H  H65  1  0.727500  0.076900  0.561900  1.0  0.0386
  H  H66  1  0.700200  0.047000  0.570200  1.0  0.0148
  H  H67  1  0.359100  0.103900  0.745700  1.0  0.0156
  H  H68  1  0.509900  0.154700  0.690500  1.0  0.035
  H  H69  1  0.463300  0.229900  0.711500  1.0  0.0374
  H  H70  1  0.433800  0.276000  0.681200  1.0  0.042
  H  H71  1  0.576900  0.227500  0.633700  1.0  0.0353
  H  H72  1  0.547000  0.200200  0.682600  1.0  0.0135
  H  H73  1  0.291300  0.103900  0.859100  1.0  0.0149
  H  H74  1  0.144900  0.154700  0.009900  1.0  0.0332
  H  H75  1  0.095300  0.229900  0.963300  1.0  0.0349
  H  H76  1  0.109000  0.276000  0.933800  1.0  0.0416
  H  H77  1  0.061900  0.227500  0.076900  1.0  0.0401
  H  H78  1  0.070200  0.200200  0.047000  1.0  0.0148
  H  H79  1  0.245700  0.859100  0.103900  1.0  0.0157
  H  H80  1  0.190500  0.009900  0.154700  1.0  0.0316
  H  H81  1  0.211500  0.963300  0.229900  1.0  0.0319
  H  H82  1  0.181200  0.933800  0.276000  1.0  0.0419
  H  H83  1  0.133700  0.076900  0.227500  1.0  0.0375
  H  H84  1  0.182600  0.047000  0.200200  1.0  0.0138
  H  H85  1  0.603900  0.791300  0.745700  1.0  0.0163
  H  H86  1  0.654700  0.644900  0.690500  1.0  0.0334
  H  H87  1  0.729900  0.595300  0.711500  1.0  0.0364
  H  H88  1  0.776000  0.609000  0.681200  1.0  0.0401
  H  H89  1  0.727500  0.561900  0.633700  1.0  0.0384
  H  H90  1  0.700200  0.570200  0.682600  1.0  0.0152
  H  H91  1  0.359100  0.745700  0.791300  1.0  0.0153
  H  H92  1  0.509900  0.690500  0.644900  1.0  0.0333
  H  H93  1  0.463300  0.711500  0.595300  1.0  0.037
  H  H94  1  0.433800  0.681200  0.609000  1.0  0.0387
  H  H95  1  0.576900  0.633700  0.561900  1.0  0.0383
  H  H96  1  0.547000  0.682600  0.570200  1.0  0.0151
  H  H97  1  0.291300  0.859100  0.745700  1.0  0.0161
  H  H98  1  0.144900  0.009900  0.690500  1.0  0.0345
  H  H99  1  0.095300  0.963300  0.711500  1.0  0.0364
  H  H100  1  0.109000  0.933800  0.681200  1.0  0.0407
  H  H101  1  0.061900  0.076900  0.633700  1.0  0.039
  H  H102  1  0.070200  0.047000  0.682600  1.0  0.0162
  H  H103  1  0.245700  0.103900  0.791300  1.0  0.0144
  H  H104  1  0.190500  0.154700  0.644900  1.0  0.0346
  H  H105  1  0.211500  0.229900  0.595300  1.0  0.032
  H  H106  1  0.181200  0.276000  0.609000  1.0  0.0413
  H  H107  1  0.133700  0.227500  0.561900  1.0  0.0387
  H  H108  1  0.182600  0.200200  0.570200  1.0  0.0144
  H  H109  1  0.603900  0.745700  0.859100  1.0  0.0148
  H  H110  1  0.654700  0.690500  0.009900  1.0  0.0354
  H  H111  1  0.729900  0.711500  0.963300  1.0  0.0359
  H  H112  1  0.776000  0.681200  0.933800  1.0  0.0404
  H  H113  1  0.727500  0.633700  0.076900  1.0  0.0391
  H  H114  1  0.700200  0.682600  0.047000  1.0  0.0144
  H  H115  1  0.359100  0.791300  0.103900  1.0  0.0139
  H  H116  1  0.509900  0.644900  0.154700  1.0  0.0336
  H  H117  1  0.463300  0.595300  0.229900  1.0  0.0365
  H  H118  1  0.433800  0.609000  0.276000  1.0  0.0403
  H  H119  1  0.576900  0.561900  0.227500  1.0  0.0392
  H  H120  1  0.547000  0.570200  0.200200  1.0  0.0145
  H  H121  1  0.754300  0.208700  0.896100  1.0  0.0143
  H  H122  1  0.809500  0.355100  0.845300  1.0  0.0304
  H  H123  1  0.788500  0.404700  0.770100  1.0  0.0346
  H  H124  1  0.818800  0.391000  0.724000  1.0  0.0433
  H  H125  1  0.866300  0.438100  0.772500  1.0  0.0391
  H  H126  1  0.817400  0.429800  0.799800  1.0  0.0137
  H  H127  1  0.708700  0.254300  0.140900  1.0  0.0157
  H  H128  1  0.855100  0.309500  0.990100  1.0  0.0327
  H  H129  1  0.904700  0.288500  0.036700  1.0  0.0334
  H  H130  1  0.891000  0.318800  0.066200  1.0  0.0426
  H  H131  1  0.938100  0.366300  0.923100  1.0  0.0351
  H  H132  1  0.929800  0.317400  0.953000  1.0  0.0141
  H  H133  1  0.640900  0.896100  0.208700  1.0  0.0158
  H  H134  1  0.490100  0.845300  0.355100  1.0  0.0345
  H  H135  1  0.536700  0.770100  0.404700  1.0  0.0361
  H  H136  1  0.566200  0.724000  0.391000  1.0  0.0417
  H  H137  1  0.423100  0.772500  0.438100  1.0  0.0358
  H  H138  1  0.453000  0.799800  0.429800  1.0  0.0146
  H  H139  1  0.396100  0.140900  0.254300  1.0  0.0155
  H  H140  1  0.345300  0.990100  0.309500  1.0  0.0331
  H  H141  1  0.270100  0.036700  0.288500  1.0  0.036
  H  H142  1  0.224000  0.066200  0.318800  1.0  0.0418
  H  H143  1  0.272500  0.923100  0.366300  1.0  0.0349
  H  H144  1  0.299800  0.953000  0.317400  1.0  0.0133
  H  H145  1  0.396100  0.208700  0.140900  1.0  0.0156
  H  H146  1  0.345300  0.355100  0.990100  1.0  0.0334
  H  H147  1  0.270100  0.404700  0.036700  1.0  0.0365
  H  H148  1  0.224000  0.391000  0.066200  1.0  0.0424
  H  H149  1  0.272500  0.438100  0.923100  1.0  0.0389
  H  H150  1  0.299800  0.429800  0.953000  1.0  0.0144
  H  H151  1  0.640900  0.254300  0.896100  1.0  0.0161
  H  H152  1  0.490100  0.309500  0.845300  1.0  0.0337
  H  H153  1  0.536700  0.288500  0.770100  1.0  0.0341
  H  H154  1  0.566200  0.318800  0.724000  1.0  0.0402
  H  H155  1  0.423100  0.366300  0.772500  1.0  0.0377
  H  H156  1  0.453000  0.317400  0.799800  1.0  0.0151
  H  H157  1  0.708700  0.896100  0.254300  1.0  0.0146
  H  H158  1  0.855100  0.845300  0.309500  1.0  0.0338
  H  H159  1  0.904700  0.770100  0.288500  1.0  0.0364
  H  H160  1  0.891000  0.724000  0.318800  1.0  0.0416
  H  H161  1  0.938100  0.772500  0.366300  1.0  0.0374
  H  H162  1  0.929800  0.799800  0.317400  1.0  0.0148
  H  H163  1  0.754300  0.140900  0.208700  1.0  0.0145
  H  H164  1  0.809500  0.990100  0.355100  1.0  0.0305
  H  H165  1  0.788500  0.036700  0.404700  1.0  0.0345
  H  H166  1  0.818800  0.066200  0.391000  1.0  0.042
  H  H167  1  0.866300  0.923100  0.438100  1.0  0.0365
  H  H168  1  0.817400  0.953000  0.429800  1.0  0.0147
  H  H169  1  0.640900  0.208700  0.254300  1.0  0.0132
  H  H170  1  0.490100  0.355100  0.309500  1.0  0.0337
  H  H171  1  0.536700  0.404700  0.288500  1.0  0.0381
  H  H172  1  0.566200  0.391000  0.318800  1.0  0.04
  H  H173  1  0.423100  0.438100  0.366300  1.0  0.0385
  H  H174  1  0.453000  0.429800  0.317400  1.0  0.0145
  H  H175  1  0.396100  0.254300  0.208700  1.0  0.016
  H  H176  1  0.345300  0.309500  0.355100  1.0  0.0353
  H  H177  1  0.270100  0.288500  0.404700  1.0  0.0342
  H  H178  1  0.224000  0.318800  0.391000  1.0  0.0392
  H  H179  1  0.272500  0.366300  0.438100  1.0  0.0385
  H  H180  1  0.299800  0.317400  0.429800  1.0  0.0138
  H  H181  1  0.754300  0.896100  0.140900  1.0  0.0137
  H  H182  1  0.809500  0.845300  0.990100  1.0  0.0344
  H  H183  1  0.788500  0.770100  0.036700  1.0  0.0333
  H  H184  1  0.818800  0.724000  0.066200  1.0  0.0435
  H  H185  1  0.866300  0.772500  0.923100  1.0  0.039
  H  H186  1  0.817400  0.799800  0.953000  1.0  0.0136
  H  H187  1  0.708700  0.140900  0.896100  1.0  0.0152
  H  H188  1  0.855100  0.990100  0.845300  1.0  0.0349
  H  H189  1  0.904700  0.036700  0.770100  1.0  0.0357
  H  H190  1  0.891000  0.066200  0.724000  1.0  0.0421
  H  H191  1  0.938100  0.923100  0.772500  1.0  0.0358
  H  H192  1  0.929800  0.953000  0.799800  1.0  0.0137
  H  H193  1  0.708700  0.254300  0.896100  1.0  0.0152
  H  H194  1  0.855100  0.309500  0.845300  1.0  0.0346
  H  H195  1  0.904700  0.288500  0.770100  1.0  0.0333
  H  H196  1  0.891000  0.318800  0.724000  1.0  0.0421
  H  H197  1  0.938100  0.366300  0.772500  1.0  0.0349
  H  H198  1  0.929800  0.317400  0.799800  1.0  0.0147
  H  H199  1  0.754300  0.208700  0.140900  1.0  0.0143
  H  H200  1  0.809500  0.355100  0.990100  1.0  0.0301
  H  H201  1  0.788500  0.404700  0.036700  1.0  0.0354
  H  H202  1  0.818800  0.391000  0.066200  1.0  0.0438
  H  H203  1  0.866300  0.438100  0.923100  1.0  0.0384
  H  H204  1  0.817400  0.429800  0.953000  1.0  0.0119
  H  H205  1  0.396100  0.140900  0.208700  1.0  0.0161
  H  H206  1  0.345300  0.990100  0.355100  1.0  0.0333
  H  H207  1  0.270100  0.036700  0.404700  1.0  0.0353
  H  H208  1  0.224000  0.066200  0.391000  1.0  0.0425
  H  H209  1  0.272500  0.923100  0.438100  1.0  0.0356
  H  H210  1  0.299800  0.953000  0.429800  1.0  0.0135
  H  H211  1  0.640900  0.896100  0.254300  1.0  0.0153
  H  H212  1  0.490100  0.845300  0.309500  1.0  0.0335
  H  H213  1  0.536700  0.770100  0.288500  1.0  0.0369
  H  H214  1  0.566200  0.724000  0.318800  1.0  0.0421
  H  H215  1  0.423100  0.772500  0.366300  1.0  0.0354
  H  H216  1  0.453000  0.799800  0.317400  1.0  0.014
  H  H217  1  0.708700  0.896100  0.140900  1.0  0.016
  H  H218  1  0.855100  0.845300  0.990100  1.0  0.0345
  H  H219  1  0.904700  0.770100  0.036700  1.0  0.0358
  H  H220  1  0.891000  0.724000  0.066200  1.0  0.0431
  H  H221  1  0.938100  0.772500  0.923100  1.0  0.038
  H  H222  1  0.929800  0.799800  0.953000  1.0  0.0144
  H  H223  1  0.754300  0.140900  0.896100  1.0  0.0149
  H  H224  1  0.809500  0.990100  0.845300  1.0  0.0316
  H  H225  1  0.788500  0.036700  0.770100  1.0  0.0345
  H  H226  1  0.818800  0.066200  0.724000  1.0  0.0421
  H  H227  1  0.866300  0.923100  0.772500  1.0  0.035
  H  H228  1  0.817400  0.953000  0.799800  1.0  0.0146
  H  H229  1  0.396100  0.208700  0.254300  1.0  0.0144
  H  H230  1  0.345300  0.355100  0.309500  1.0  0.0335
  H  H231  1  0.270100  0.404700  0.288500  1.0  0.0365
  H  H232  1  0.224000  0.391000  0.318800  1.0  0.0415
  H  H233  1  0.272500  0.438100  0.366300  1.0  0.0391
  H  H234  1  0.299800  0.429800  0.317400  1.0  0.0146
  H  H235  1  0.640900  0.254300  0.208700  1.0  0.017
  H  H236  1  0.490100  0.309500  0.355100  1.0  0.0332
  H  H237  1  0.536700  0.288500  0.404700  1.0  0.0337
  H  H238  1  0.566200  0.318800  0.391000  1.0  0.0385
  H  H239  1  0.423100  0.366300  0.438100  1.0  0.0384
  H  H240  1  0.453000  0.317400  0.429800  1.0  0.0147
  H  H241  1  0.708700  0.140900  0.254300  1.0  0.0146
  H  H242  1  0.855100  0.990100  0.309500  1.0  0.0346
  H  H243  1  0.904700  0.036700  0.288500  1.0  0.0366
  H  H244  1  0.891000  0.066200  0.318800  1.0  0.0417
  H  H245  1  0.938100  0.923100  0.366300  1.0  0.0369
  H  H246  1  0.929800  0.953000  0.317400  1.0  0.0144
  H  H247  1  0.754300  0.896100  0.208700  1.0  0.0126
  H  H248  1  0.809500  0.845300  0.355100  1.0  0.0343
  H  H249  1  0.788500  0.770100  0.404700  1.0  0.0332
  H  H250  1  0.818800  0.724000  0.391000  1.0  0.043
  H  H251  1  0.866300  0.772500  0.438100  1.0  0.0393
  H  H252  1  0.817400  0.799800  0.429800  1.0  0.0142
  H  H253  1  0.396100  0.254300  0.140900  1.0  0.0173
  H  H254  1  0.345300  0.309500  0.990100  1.0  0.0352
  H  H255  1  0.270100  0.288500  0.036700  1.0  0.0339
  H  H256  1  0.224000  0.318800  0.066200  1.0  0.0403
  H  H257  1  0.272500  0.366300  0.923100  1.0  0.0385
  H  H258  1  0.299800  0.317400  0.953000  1.0  0.0134
  H  H259  1  0.640900  0.208700  0.896100  1.0  0.0137
  H  H260  1  0.490100  0.355100  0.845300  1.0  0.034
  H  H261  1  0.536700  0.404700  0.770100  1.0  0.0374
  H  H262  1  0.566200  0.391000  0.724000  1.0  0.0401
  H  H263  1  0.423100  0.438100  0.772500  1.0  0.0387
  H  H264  1  0.453000  0.429800  0.799800  1.0  0.0146
  H  H265  1  0.245700  0.791300  0.103900  1.0  0.0151
  H  H266  1  0.190500  0.644900  0.154700  1.0  0.0304
  H  H267  1  0.211500  0.595300  0.229900  1.0  0.0328
  H  H268  1  0.181200  0.609000  0.276000  1.0  0.0419
  H  H269  1  0.133700  0.561900  0.227500  1.0  0.0372
  H  H270  1  0.182600  0.570200  0.200200  1.0  0.013
  H  H271  1  0.291300  0.745700  0.859100  1.0  0.0155
  H  H272  1  0.144900  0.690500  0.009900  1.0  0.0327
  H  H273  1  0.095300  0.711500  0.963300  1.0  0.0356
  H  H274  1  0.109000  0.681200  0.933800  1.0  0.0429
  H  H275  1  0.061900  0.633700  0.076900  1.0  0.0363
  H  H276  1  0.070200  0.682600  0.047000  1.0  0.0154
  H  H277  1  0.359100  0.103900  0.791300  1.0  0.0145
  H  H278  1  0.509900  0.154700  0.644900  1.0  0.0338
  H  H279  1  0.463300  0.229900  0.595300  1.0  0.0359
  H  H280  1  0.433800  0.276000  0.609000  1.0  0.0415
  H  H281  1  0.576900  0.227500  0.561900  1.0  0.0356
  H  H282  1  0.547000  0.200200  0.570200  1.0  0.0137
  H  H283  1  0.603900  0.859100  0.745700  1.0  0.016
  H  H284  1  0.654700  0.009900  0.690500  1.0  0.0345
  H  H285  1  0.729900  0.963300  0.711500  1.0  0.0362
  H  H286  1  0.776000  0.933800  0.681200  1.0  0.0411
  H  H287  1  0.727500  0.076900  0.633700  1.0  0.038
  H  H288  1  0.700200  0.047000  0.682600  1.0  0.0153
  H  H289  1  0.603900  0.791300  0.859100  1.0  0.0166
  H  H290  1  0.654700  0.644900  0.009900  1.0  0.0323
  H  H291  1  0.729900  0.595300  0.963300  1.0  0.0348
  H  H292  1  0.776000  0.609000  0.933800  1.0  0.0404
  H  H293  1  0.727500  0.561900  0.076900  1.0  0.0398
  H  H294  1  0.700200  0.570200  0.047000  1.0  0.0148
  H  H295  1  0.359100  0.745700  0.103900  1.0  0.0154
  H  H296  1  0.509900  0.690500  0.154700  1.0  0.034
  H  H297  1  0.463300  0.711500  0.229900  1.0  0.0365
  H  H298  1  0.433800  0.681200  0.276000  1.0  0.0403
  H  H299  1  0.576900  0.633700  0.227500  1.0  0.0382
  H  H300  1  0.547000  0.682600  0.200200  1.0  0.0146
  H  H301  1  0.291300  0.103900  0.745700  1.0  0.0146
  H  H302  1  0.144900  0.154700  0.690500  1.0  0.0344
  H  H303  1  0.095300  0.229900  0.711500  1.0  0.0366
  H  H304  1  0.109000  0.276000  0.681200  1.0  0.042
  H  H305  1  0.061900  0.227500  0.633700  1.0  0.0376
  H  H306  1  0.070200  0.200200  0.682600  1.0  0.0152
  H  H307  1  0.245700  0.859100  0.791300  1.0  0.015
  H  H308  1  0.190500  0.009900  0.644900  1.0  0.0296
  H  H309  1  0.211500  0.963300  0.595300  1.0  0.0319
  H  H310  1  0.181200  0.933800  0.609000  1.0  0.0409
  H  H311  1  0.133700  0.076900  0.561900  1.0  0.039
  H  H312  1  0.182600  0.047000  0.570200  1.0  0.0142
  H  H313  1  0.359100  0.791300  0.745700  1.0  0.0145
  H  H314  1  0.509900  0.644900  0.690500  1.0  0.0339
  H  H315  1  0.463300  0.595300  0.711500  1.0  0.0374
  H  H316  1  0.433800  0.609000  0.681200  1.0  0.0399
  H  H317  1  0.576900  0.561900  0.633700  1.0  0.039
  H  H318  1  0.547000  0.570200  0.682600  1.0  0.0138
  H  H319  1  0.603900  0.745700  0.791300  1.0  0.0151
  H  H320  1  0.654700  0.690500  0.644900  1.0  0.0356
  H  H321  1  0.729900  0.711500  0.595300  1.0  0.0363
  H  H322  1  0.776000  0.681200  0.609000  1.0  0.0401
  H  H323  1  0.727500  0.633700  0.561900  1.0  0.0383
  H  H324  1  0.700200  0.682600  0.570200  1.0  0.0145
  H  H325  1  0.245700  0.103900  0.859100  1.0  0.0136
  H  H326  1  0.190500  0.154700  0.009900  1.0  0.0343
  H  H327  1  0.211500  0.229900  0.963300  1.0  0.0316
  H  H328  1  0.181200  0.276000  0.933800  1.0  0.0414
  H  H329  1  0.133700  0.227500  0.076900  1.0  0.0387
  H  H330  1  0.182600  0.200200  0.047000  1.0  0.0144
  H  H331  1  0.291300  0.859100  0.103900  1.0  0.0155
  H  H332  1  0.144900  0.009900  0.154700  1.0  0.0344
  H  H333  1  0.095300  0.963300  0.229900  1.0  0.0352
  H  H334  1  0.109000  0.933800  0.276000  1.0  0.0414
  H  H335  1  0.061900  0.076900  0.227500  1.0  0.0387
  H  H336  1  0.070200  0.047000  0.200200  1.0  0.0156
  H  H337  1  0.082300  0.582300  0.306100  1.0  0.0397
  H  H338  1  0.102600  0.602600  0.320800  1.0  0.0298
  H  H339  1  0.082300  0.582300  0.029300  1.0  0.0395
  H  H340  1  0.102600  0.602600  0.974000  1.0  0.0278
  H  H341  1  0.806100  0.029300  0.582300  1.0  0.0379
  H  H342  1  0.820800  0.974000  0.602600  1.0  0.0287
  H  H343  1  0.529300  0.306100  0.582300  1.0  0.0347
  H  H344  1  0.474000  0.320800  0.602600  1.0  0.0275
  H  H345  1  0.082300  0.306100  0.029300  1.0  0.0385
  H  H346  1  0.102600  0.320800  0.974000  1.0  0.0279
  H  H347  1  0.082300  0.029300  0.306100  1.0  0.0388
  H  H348  1  0.102600  0.974000  0.320800  1.0  0.0309
  H  H349  1  0.806100  0.582300  0.582300  1.0  0.0402
  H  H350  1  0.820800  0.602600  0.602600  1.0  0.0238
  H  H351  1  0.529300  0.582300  0.582300  1.0  0.0377
  H  H352  1  0.474000  0.602600  0.602600  1.0  0.0263
  H  H353  1  0.082300  0.029300  0.582300  1.0  0.0384
  H  H354  1  0.102600  0.974000  0.602600  1.0  0.0285
  H  H355  1  0.082300  0.306100  0.582300  1.0  0.0382
  H  H356  1  0.102600  0.320800  0.602600  1.0  0.0271
  H  H357  1  0.806100  0.582300  0.029300  1.0  0.0399
  H  H358  1  0.820800  0.602600  0.974000  1.0  0.0242
  H  H359  1  0.529300  0.582300  0.306100  1.0  0.0395
  H  H360  1  0.474000  0.602600  0.320800  1.0  0.0289
  H  H361  1  0.917700  0.417700  0.693900  1.0  0.04
  H  H362  1  0.897400  0.397400  0.679200  1.0  0.0275
  H  H363  1  0.917700  0.417700  0.970700  1.0  0.0396
  H  H364  1  0.897400  0.397400  0.026000  1.0  0.0269
  H  H365  1  0.470700  0.693900  0.417700  1.0  0.0365
  H  H366  1  0.526000  0.679200  0.397400  1.0  0.0263
  H  H367  1  0.193900  0.970700  0.417700  1.0  0.0376
  H  H368  1  0.179200  0.026000  0.397400  1.0  0.0296
  H  H369  1  0.193900  0.417700  0.970700  1.0  0.0389
  H  H370  1  0.179200  0.397400  0.026000  1.0  0.025
  H  H371  1  0.470700  0.417700  0.693900  1.0  0.0382
  H  H372  1  0.526000  0.397400  0.679200  1.0  0.028
  H  H373  1  0.917700  0.693900  0.417700  1.0  0.0384
  H  H374  1  0.897400  0.679200  0.397400  1.0  0.0272
  H  H375  1  0.917700  0.970700  0.417700  1.0  0.0384
  H  H376  1  0.897400  0.026000  0.397400  1.0  0.0287
  H  H377  1  0.470700  0.417700  0.417700  1.0  0.0383
  H  H378  1  0.526000  0.397400  0.397400  1.0  0.0266
  H  H379  1  0.193900  0.417700  0.417700  1.0  0.0397
  H  H380  1  0.179200  0.397400  0.397400  1.0  0.0251
  H  H381  1  0.917700  0.693900  0.970700  1.0  0.0384
  H  H382  1  0.897400  0.679200  0.026000  1.0  0.0273
  H  H383  1  0.917700  0.970700  0.693900  1.0  0.0379
  H  H384  1  0.897400  0.026000  0.679200  1.0  0.0296
  H  H385  1  0.314100  0.694700  0.177100  1.0  0.0301
  H  H386  1  0.283500  0.710700  0.222300  1.0  0.0374
  H  H387  1  0.194700  0.814100  0.814100  1.0  0.0318
  H  H388  1  0.210700  0.783500  0.783500  1.0  0.0391
  H  H389  1  0.677100  0.814100  0.814100  1.0  0.0309
  H  H390  1  0.722300  0.783500  0.783500  1.0  0.032
  H  H391  1  0.314100  0.177100  0.694700  1.0  0.0321
  H  H392  1  0.283500  0.222300  0.710700  1.0  0.0383
  H  H393  1  0.314100  0.177100  0.814100  1.0  0.0309
  H  H394  1  0.283500  0.222300  0.783500  1.0  0.0382
  H  H395  1  0.194700  0.814100  0.177100  1.0  0.0323
  H  H396  1  0.210700  0.783500  0.222300  1.0  0.0391
  H  H397  1  0.677100  0.814100  0.694700  1.0  0.0318
  H  H398  1  0.722300  0.783500  0.710700  1.0  0.0344
  H  H399  1  0.314100  0.694700  0.814100  1.0  0.0305
  H  H400  1  0.283500  0.710700  0.783500  1.0  0.0365
  H  H401  1  0.314100  0.814100  0.694700  1.0  0.033
  H  H402  1  0.283500  0.783500  0.710700  1.0  0.0362
  H  H403  1  0.194700  0.177100  0.814100  1.0  0.0291
  H  H404  1  0.210700  0.222300  0.783500  1.0  0.0384
  H  H405  1  0.677100  0.694700  0.814100  1.0  0.0304
  H  H406  1  0.722300  0.710700  0.783500  1.0  0.0365
  H  H407  1  0.314100  0.814100  0.177100  1.0  0.0314
  H  H408  1  0.283500  0.783500  0.222300  1.0  0.0363
  H  H409  1  0.805300  0.185900  0.822900  1.0  0.0319
  H  H410  1  0.789300  0.216500  0.777700  1.0  0.0383
  H  H411  1  0.685900  0.305300  0.185900  1.0  0.0321
  H  H412  1  0.716500  0.289300  0.216500  1.0  0.0371
  H  H413  1  0.685900  0.822900  0.185900  1.0  0.0313
  H  H414  1  0.716500  0.777700  0.216500  1.0  0.0359
  H  H415  1  0.322900  0.185900  0.305300  1.0  0.0333
  H  H416  1  0.277700  0.216500  0.289300  1.0  0.0353
  H  H417  1  0.322900  0.185900  0.185900  1.0  0.0319
  H  H418  1  0.277700  0.216500  0.216500  1.0  0.0349
  H  H419  1  0.685900  0.305300  0.822900  1.0  0.0313
  H  H420  1  0.716500  0.289300  0.777700  1.0  0.0377
  H  H421  1  0.685900  0.822900  0.305300  1.0  0.0321
  H  H422  1  0.716500  0.777700  0.289300  1.0  0.0361
  H  H423  1  0.805300  0.185900  0.185900  1.0  0.0322
  H  H424  1  0.789300  0.216500  0.216500  1.0  0.0373
  H  H425  1  0.685900  0.185900  0.305300  1.0  0.0334
  H  H426  1  0.716500  0.216500  0.289300  1.0  0.0362
  H  H427  1  0.322900  0.305300  0.185900  1.0  0.0318
  H  H428  1  0.277700  0.289300  0.216500  1.0  0.0336
  H  H429  1  0.805300  0.822900  0.185900  1.0  0.0292
  H  H430  1  0.789300  0.777700  0.216500  1.0  0.0362
  H  H431  1  0.685900  0.185900  0.822900  1.0  0.0319
  H  H432  1  0.716500  0.216500  0.777700  1.0  0.0358
  C  C433  1  0.109280  0.679600  0.248720  1.0  -0.0088
  C  C434  1  0.081920  0.650280  0.219720  1.0  0.0116
  C  C435  1  0.179600  0.609280  0.962400  1.0  -0.0074
  C  C436  1  0.150280  0.581920  0.048080  1.0  0.0113
  C  C437  1  0.748720  0.962400  0.609280  1.0  -0.0058
  C  C438  1  0.719720  0.048080  0.581920  1.0  0.0122
  C  C439  1  0.462400  0.248720  0.679600  1.0  -0.0056
  C  C440  1  0.548080  0.219720  0.650280  1.0  0.012
  C  C441  1  0.109280  0.248720  0.962400  1.0  -0.0044
  C  C442  1  0.081920  0.219720  0.048080  1.0  0.0109
  C  C443  1  0.179600  0.962400  0.248720  1.0  -0.0066
  C  C444  1  0.150280  0.048080  0.219720  1.0  0.0084
  C  C445  1  0.748720  0.609280  0.679600  1.0  -0.0045
  C  C446  1  0.719720  0.581920  0.650280  1.0  0.0094
  C  C447  1  0.462400  0.679600  0.609280  1.0  -0.0054
  C  C448  1  0.548080  0.650280  0.581920  1.0  0.0102
  C  C449  1  0.109280  0.962400  0.679600  1.0  -0.0058
  C  C450  1  0.081920  0.048080  0.650280  1.0  0.0091
  C  C451  1  0.179600  0.248720  0.609280  1.0  -0.0036
  C  C452  1  0.150280  0.219720  0.581920  1.0  0.0111
  C  C453  1  0.748720  0.679600  0.962400  1.0  -0.0068
  C  C454  1  0.719720  0.650280  0.048080  1.0  0.0122
  C  C455  1  0.462400  0.609280  0.248720  1.0  -0.0084
  C  C456  1  0.548080  0.581920  0.219720  1.0  0.0084
  C  C457  1  0.820400  0.390720  0.751280  1.0  -0.0071
  C  C458  1  0.849720  0.418080  0.780280  1.0  0.0089
  C  C459  1  0.890720  0.320400  0.037600  1.0  -0.0063
  C  C460  1  0.918080  0.349720  0.951920  1.0  0.0114
  C  C461  1  0.537600  0.751280  0.390720  1.0  -0.0062
  C  C462  1  0.451920  0.780280  0.418080  1.0  0.0122
  C  C463  1  0.251280  0.037600  0.320400  1.0  -0.0058
  C  C464  1  0.280280  0.951920  0.349720  1.0  0.0121
  C  C465  1  0.251280  0.390720  0.037600  1.0  -0.0062
  C  C466  1  0.280280  0.418080  0.951920  1.0  0.0083
  C  C467  1  0.537600  0.320400  0.751280  1.0  -0.0061
  C  C468  1  0.451920  0.349720  0.780280  1.0  0.0099
  C  C469  1  0.890720  0.751280  0.320400  1.0  -0.005
  C  C470  1  0.918080  0.780280  0.349720  1.0  0.0106
  C  C471  1  0.820400  0.037600  0.390720  1.0  -0.0056
  C  C472  1  0.849720  0.951920  0.418080  1.0  0.0091
  C  C473  1  0.537600  0.390720  0.320400  1.0  -0.0069
  C  C474  1  0.451920  0.418080  0.349720  1.0  0.01
  C  C475  1  0.251280  0.320400  0.390720  1.0  -0.006
  C  C476  1  0.280280  0.349720  0.418080  1.0  0.0147
  C  C477  1  0.820400  0.751280  0.037600  1.0  -0.0081
  C  C478  1  0.849720  0.780280  0.951920  1.0  0.0121
  C  C479  1  0.890720  0.037600  0.751280  1.0  -0.0056
  C  C480  1  0.918080  0.951920  0.780280  1.0  0.0081
  C  C481  1  0.890720  0.320400  0.751280  1.0  -0.0063
  C  C482  1  0.918080  0.349720  0.780280  1.0  0.0117
  C  C483  1  0.820400  0.390720  0.037600  1.0  -0.0079
  C  C484  1  0.849720  0.418080  0.951920  1.0  0.0121
  C  C485  1  0.251280  0.037600  0.390720  1.0  -0.0074
  C  C486  1  0.280280  0.951920  0.418080  1.0  0.0114
  C  C487  1  0.537600  0.751280  0.320400  1.0  -0.0058
  C  C488  1  0.451920  0.780280  0.349720  1.0  0.0125
  C  C489  1  0.890720  0.751280  0.037600  1.0  -0.0045
  C  C490  1  0.918080  0.780280  0.951920  1.0  0.0098
  C  C491  1  0.820400  0.037600  0.751280  1.0  -0.0045
  C  C492  1  0.849720  0.951920  0.780280  1.0  0.0091
  C  C493  1  0.251280  0.390720  0.320400  1.0  -0.006
  C  C494  1  0.280280  0.418080  0.349720  1.0  0.0089
  C  C495  1  0.537600  0.320400  0.390720  1.0  -0.0062
  C  C496  1  0.451920  0.349720  0.418080  1.0  0.0106
  C  C497  1  0.890720  0.037600  0.320400  1.0  -0.0058
  C  C498  1  0.918080  0.951920  0.349720  1.0  0.0069
  C  C499  1  0.820400  0.751280  0.390720  1.0  -0.009
  C  C500  1  0.849720  0.780280  0.418080  1.0  0.0128
  C  C501  1  0.251280  0.320400  0.037600  1.0  -0.0051
  C  C502  1  0.280280  0.349720  0.951920  1.0  0.0114
  C  C503  1  0.537600  0.390720  0.751280  1.0  -0.0066
  C  C504  1  0.451920  0.418080  0.780280  1.0  0.0099
  C  C505  1  0.179600  0.609280  0.248720  1.0  -0.0068
  C  C506  1  0.150280  0.581920  0.219720  1.0  0.0114
  C  C507  1  0.109280  0.679600  0.962400  1.0  -0.0067
  C  C508  1  0.081920  0.650280  0.048080  1.0  0.0111
  C  C509  1  0.462400  0.248720  0.609280  1.0  -0.0055
  C  C510  1  0.548080  0.219720  0.581920  1.0  0.0125
  C  C511  1  0.748720  0.962400  0.679600  1.0  -0.0062
  C  C512  1  0.719720  0.048080  0.650280  1.0  0.0094
  C  C513  1  0.748720  0.609280  0.962400  1.0  -0.0069
  C  C514  1  0.719720  0.581920  0.048080  1.0  0.01
  C  C515  1  0.462400  0.679600  0.248720  1.0  -0.0063
  C  C516  1  0.548080  0.650280  0.219720  1.0  0.0103
  C  C517  1  0.109280  0.248720  0.679600  1.0  -0.0047
  C  C518  1  0.081920  0.219720  0.650280  1.0  0.0101
  C  C519  1  0.179600  0.962400  0.609280  1.0  -0.0064
  C  C520  1  0.150280  0.048080  0.581920  1.0  0.0088
  C  C521  1  0.462400  0.609280  0.679600  1.0  -0.0074
  C  C522  1  0.548080  0.581920  0.650280  1.0  0.0102
  C  C523  1  0.748720  0.679600  0.609280  1.0  -0.0067
  C  C524  1  0.719720  0.650280  0.581920  1.0  0.0124
  C  C525  1  0.179600  0.248720  0.962400  1.0  -0.0041
  C  C526  1  0.150280  0.219720  0.048080  1.0  0.013
  C  C527  1  0.109280  0.962400  0.248720  1.0  -0.006
  C  C528  1  0.081920  0.048080  0.219720  1.0  0.009
  C  C529  1  0.271900  0.771900  0.116100  1.0  0.079
  C  C530  1  0.158700  0.658700  0.173900  1.0  -0.1722
  C  C531  1  0.101430  0.601430  0.294050  1.0  0.0436
  C  C532  1  0.271900  0.771900  0.840100  1.0  0.0776
  C  C533  1  0.158700  0.658700  0.008700  1.0  -0.1753
  C  C534  1  0.101430  0.601430  0.003090  1.0  0.0426
  C  C535  1  0.616100  0.840100  0.771900  1.0  0.082
  C  C536  1  0.673900  0.008700  0.658700  1.0  -0.1748
  C  C537  1  0.794050  0.003090  0.601430  1.0  0.0467
  C  C538  1  0.340100  0.116100  0.771900  1.0  0.0806
  C  C539  1  0.508700  0.173900  0.658700  1.0  -0.1713
  C  C540  1  0.503090  0.294050  0.601430  1.0  0.0432
  C  C541  1  0.271900  0.116100  0.840100  1.0  0.0777
  C  C542  1  0.158700  0.173900  0.008700  1.0  -0.1711
  C  C543  1  0.101430  0.294050  0.003090  1.0  0.0429
  C  C544  1  0.271900  0.840100  0.116100  1.0  0.0784
  C  C545  1  0.158700  0.008700  0.173900  1.0  -0.1704
  C  C546  1  0.101430  0.003090  0.294050  1.0  0.0447
  C  C547  1  0.616100  0.771900  0.771900  1.0  0.082
  C  C548  1  0.673900  0.658700  0.658700  1.0  -0.175
  C  C549  1  0.794050  0.601430  0.601430  1.0  0.0415
  C  C550  1  0.340100  0.771900  0.771900  1.0  0.0787
  C  C551  1  0.508700  0.658700  0.658700  1.0  -0.1744
  C  C552  1  0.503090  0.601430  0.601430  1.0  0.0459
  C  C553  1  0.271900  0.840100  0.771900  1.0  0.0776
  C  C554  1  0.158700  0.008700  0.658700  1.0  -0.1718
  C  C555  1  0.101430  0.003090  0.601430  1.0  0.0468
  C  C556  1  0.271900  0.116100  0.771900  1.0  0.0806
  C  C557  1  0.158700  0.173900  0.658700  1.0  -0.171
  C  C558  1  0.101430  0.294050  0.601430  1.0  0.0434
  C  C559  1  0.616100  0.771900  0.840100  1.0  0.08
  C  C560  1  0.673900  0.658700  0.008700  1.0  -0.1744
  C  C561  1  0.794050  0.601430  0.003090  1.0  0.0437
  C  C562  1  0.340100  0.771900  0.116100  1.0  0.0788
  C  C563  1  0.508700  0.658700  0.173900  1.0  -0.1725
  C  C564  1  0.503090  0.601430  0.294050  1.0  0.0433
  C  C565  1  0.728100  0.228100  0.883900  1.0  0.0755
  C  C566  1  0.841300  0.341300  0.826100  1.0  -0.1743
  C  C567  1  0.898570  0.398570  0.705950  1.0  0.0423
  C  C568  1  0.728100  0.228100  0.159900  1.0  0.0769
  C  C569  1  0.841300  0.341300  0.991300  1.0  -0.1736
  C  C570  1  0.898570  0.398570  0.996910  1.0  0.0412
  C  C571  1  0.659900  0.883900  0.228100  1.0  0.0808
  C  C572  1  0.491300  0.826100  0.341300  1.0  -0.1753
  C  C573  1  0.496910  0.705950  0.398570  1.0  0.0465
  C  C574  1  0.383900  0.159900  0.228100  1.0  0.0818
  C  C575  1  0.326100  0.991300  0.341300  1.0  -0.1723
  C  C576  1  0.205950  0.996910  0.398570  1.0  0.0479
  C  C577  1  0.383900  0.228100  0.159900  1.0  0.0794
  C  C578  1  0.326100  0.341300  0.991300  1.0  -0.1744
  C  C579  1  0.205950  0.398570  0.996910  1.0  0.0445
  C  C580  1  0.659900  0.228100  0.883900  1.0  0.0816
  C  C581  1  0.491300  0.341300  0.826100  1.0  -0.1715
  C  C582  1  0.496910  0.398570  0.705950  1.0  0.0439
  C  C583  1  0.728100  0.883900  0.228100  1.0  0.0745
  C  C584  1  0.841300  0.826100  0.341300  1.0  -0.1747
  C  C585  1  0.898570  0.705950  0.398570  1.0  0.0447
  C  C586  1  0.728100  0.159900  0.228100  1.0  0.0801
  C  C587  1  0.841300  0.991300  0.341300  1.0  -0.1723
  C  C588  1  0.898570  0.996910  0.398570  1.0  0.0431
  C  C589  1  0.659900  0.228100  0.228100  1.0  0.0828
  C  C590  1  0.491300  0.341300  0.341300  1.0  -0.171
  C  C591  1  0.496910  0.398570  0.398570  1.0  0.0417
  C  C592  1  0.383900  0.228100  0.228100  1.0  0.0768
  C  C593  1  0.326100  0.341300  0.341300  1.0  -0.1742
  C  C594  1  0.205950  0.398570  0.398570  1.0  0.0443
  C  C595  1  0.728100  0.883900  0.159900  1.0  0.0778
  C  C596  1  0.841300  0.826100  0.991300  1.0  -0.1759
  C  C597  1  0.898570  0.705950  0.996910  1.0  0.0427
  C  C598  1  0.728100  0.159900  0.883900  1.0  0.0803
  C  C599  1  0.841300  0.991300  0.826100  1.0  -0.1718
  C  C600  1  0.898570  0.996910  0.705950  1.0  0.0451
  C  C601  1  0.295100  0.721880  0.187920  1.0  -0.1039
  C  C602  1  0.221880  0.795100  0.795100  1.0  -0.106
  C  C603  1  0.687920  0.795100  0.795100  1.0  -0.1068
  C  C604  1  0.295100  0.187920  0.721880  1.0  -0.1057
  C  C605  1  0.295100  0.187920  0.795100  1.0  -0.1091
  C  C606  1  0.221880  0.795100  0.187920  1.0  -0.1063
  C  C607  1  0.687920  0.795100  0.721880  1.0  -0.1034
  C  C608  1  0.295100  0.721880  0.795100  1.0  -0.1042
  C  C609  1  0.295100  0.795100  0.721880  1.0  -0.1034
  C  C610  1  0.221880  0.187920  0.795100  1.0  -0.1086
  C  C611  1  0.687920  0.721880  0.795100  1.0  -0.1038
  C  C612  1  0.295100  0.795100  0.187920  1.0  -0.1071
  C  C613  1  0.778120  0.204900  0.812080  1.0  -0.1068
  C  C614  1  0.704900  0.278120  0.204900  1.0  -0.1078
  C  C615  1  0.704900  0.812080  0.204900  1.0  -0.1028
  C  C616  1  0.312080  0.204900  0.278120  1.0  -0.1051
  C  C617  1  0.312080  0.204900  0.204900  1.0  -0.1026
  C  C618  1  0.704900  0.278120  0.812080  1.0  -0.1072
  C  C619  1  0.704900  0.812080  0.278120  1.0  -0.105
  C  C620  1  0.778120  0.204900  0.204900  1.0  -0.1064
  C  C621  1  0.704900  0.204900  0.278120  1.0  -0.1067
  C  C622  1  0.312080  0.278120  0.204900  1.0  -0.1056
  C  C623  1  0.778120  0.812080  0.204900  1.0  -0.1088
  C  C624  1  0.704900  0.204900  0.812080  1.0  -0.1019
  N  N625  1  0.079460  0.649900  0.265480  1.0  -0.2243
  N  N626  1  0.149900  0.579460  0.005160  1.0  -0.2297
  N  N627  1  0.765480  0.005160  0.579460  1.0  -0.223
  N  N628  1  0.505160  0.265480  0.649900  1.0  -0.2255
  N  N629  1  0.079460  0.265480  0.005160  1.0  -0.226
  N  N630  1  0.149900  0.005160  0.265480  1.0  -0.2279
  N  N631  1  0.765480  0.579460  0.649900  1.0  -0.2292
  N  N632  1  0.505160  0.649900  0.579460  1.0  -0.2266
  N  N633  1  0.079460  0.005160  0.649900  1.0  -0.223
  N  N634  1  0.149900  0.265480  0.579460  1.0  -0.2271
  N  N635  1  0.765480  0.649900  0.005160  1.0  -0.2283
  N  N636  1  0.505160  0.579460  0.265480  1.0  -0.2279
  N  N637  1  0.850100  0.420540  0.734520  1.0  -0.2311
  N  N638  1  0.920540  0.350100  0.994840  1.0  -0.2254
  N  N639  1  0.494840  0.734520  0.420540  1.0  -0.2266
  N  N640  1  0.234520  0.994840  0.350100  1.0  -0.225
  N  N641  1  0.234520  0.420540  0.994840  1.0  -0.2302
  N  N642  1  0.494840  0.350100  0.734520  1.0  -0.2294
  N  N643  1  0.920540  0.734520  0.350100  1.0  -0.2276
  N  N644  1  0.850100  0.994840  0.420540  1.0  -0.2278
  N  N645  1  0.494840  0.420540  0.350100  1.0  -0.2294
  N  N646  1  0.234520  0.350100  0.420540  1.0  -0.2274
  N  N647  1  0.850100  0.734520  0.994840  1.0  -0.2305
  N  N648  1  0.920540  0.994840  0.734520  1.0  -0.2229
  N  N649  1  0.920540  0.350100  0.734520  1.0  -0.2265
  N  N650  1  0.850100  0.420540  0.994840  1.0  -0.2299
  N  N651  1  0.234520  0.994840  0.420540  1.0  -0.226
  N  N652  1  0.494840  0.734520  0.350100  1.0  -0.2278
  N  N653  1  0.920540  0.734520  0.994840  1.0  -0.2276
  N  N654  1  0.850100  0.994840  0.734520  1.0  -0.2265
  N  N655  1  0.234520  0.420540  0.350100  1.0  -0.2308
  N  N656  1  0.494840  0.350100  0.420540  1.0  -0.2291
  N  N657  1  0.920540  0.994840  0.350100  1.0  -0.2231
  N  N658  1  0.850100  0.734520  0.420540  1.0  -0.2279
  N  N659  1  0.234520  0.350100  0.994840  1.0  -0.23
  N  N660  1  0.494840  0.420540  0.734520  1.0  -0.2292
  N  N661  1  0.149900  0.579460  0.265480  1.0  -0.2276
  N  N662  1  0.079460  0.649900  0.005160  1.0  -0.2257
  N  N663  1  0.505160  0.265480  0.579460  1.0  -0.224
  N  N664  1  0.765480  0.005160  0.649900  1.0  -0.2262
  N  N665  1  0.765480  0.579460  0.005160  1.0  -0.2292
  N  N666  1  0.505160  0.649900  0.265480  1.0  -0.2281
  N  N667  1  0.079460  0.265480  0.649900  1.0  -0.2254
  N  N668  1  0.149900  0.005160  0.579460  1.0  -0.2256
  N  N669  1  0.505160  0.579460  0.649900  1.0  -0.2286
  N  N670  1  0.765480  0.649900  0.579460  1.0  -0.2277
  N  N671  1  0.149900  0.265480  0.005160  1.0  -0.2277
  N  N672  1  0.079460  0.005160  0.265480  1.0  -0.2231
  N  N673  1  0.253550  0.753550  0.168530  1.0  -0.2425
  N  N674  1  0.159490  0.659490  0.219770  1.0  -0.2402
  N  N675  1  0.128620  0.628620  0.193860  1.0  -0.3146
  N  N676  1  0.253550  0.753550  0.824370  1.0  -0.2404
  N  N677  1  0.159490  0.659490  0.961250  1.0  -0.2409
  N  N678  1  0.128620  0.628620  0.048900  1.0  -0.317
  N  N679  1  0.668530  0.824370  0.753550  1.0  -0.2446
  N  N680  1  0.719770  0.961250  0.659490  1.0  -0.2429
  N  N681  1  0.693860  0.048900  0.628620  1.0  -0.3138
  N  N682  1  0.324370  0.168530  0.753550  1.0  -0.2402
  N  N683  1  0.461250  0.219770  0.659490  1.0  -0.2365
  N  N684  1  0.548900  0.193860  0.628620  1.0  -0.3141
  N  N685  1  0.253550  0.168530  0.824370  1.0  -0.2462
  N  N686  1  0.159490  0.219770  0.961250  1.0  -0.2426
  N  N687  1  0.128620  0.193860  0.048900  1.0  -0.3217
  N  N688  1  0.253550  0.824370  0.168530  1.0  -0.248
  N  N689  1  0.159490  0.961250  0.219770  1.0  -0.2454
  N  N690  1  0.128620  0.048900  0.193860  1.0  -0.3195
  N  N691  1  0.668530  0.753550  0.753550  1.0  -0.2399
  N  N692  1  0.719770  0.659490  0.659490  1.0  -0.2386
  N  N693  1  0.693860  0.628620  0.628620  1.0  -0.3141
  N  N694  1  0.324370  0.753550  0.753550  1.0  -0.2443
  N  N695  1  0.461250  0.659490  0.659490  1.0  -0.2383
  N  N696  1  0.548900  0.628620  0.628620  1.0  -0.3131
  N  N697  1  0.253550  0.824370  0.753550  1.0  -0.2477
  N  N698  1  0.159490  0.961250  0.659490  1.0  -0.2434
  N  N699  1  0.128620  0.048900  0.628620  1.0  -0.3167
  N  N700  1  0.253550  0.168530  0.753550  1.0  -0.2427
  N  N701  1  0.159490  0.219770  0.659490  1.0  -0.2409
  N  N702  1  0.128620  0.193860  0.628620  1.0  -0.3228
  N  N703  1  0.668530  0.753550  0.824370  1.0  -0.2401
  N  N704  1  0.719770  0.659490  0.961250  1.0  -0.2371
  N  N705  1  0.693860  0.628620  0.048900  1.0  -0.3122
  N  N706  1  0.324370  0.753550  0.168530  1.0  -0.2437
  N  N707  1  0.461250  0.659490  0.219770  1.0  -0.2406
  N  N708  1  0.548900  0.628620  0.193860  1.0  -0.3156
  N  N709  1  0.746450  0.246450  0.831470  1.0  -0.2433
  N  N710  1  0.840510  0.340510  0.780230  1.0  -0.2383
  N  N711  1  0.871380  0.371380  0.806140  1.0  -0.3179
  N  N712  1  0.746450  0.246450  0.175630  1.0  -0.2434
  N  N713  1  0.840510  0.340510  0.038750  1.0  -0.2357
  N  N714  1  0.871380  0.371380  0.951100  1.0  -0.3155
  N  N715  1  0.675630  0.831470  0.246450  1.0  -0.2401
  N  N716  1  0.538750  0.780230  0.340510  1.0  -0.2398
  N  N717  1  0.451100  0.806140  0.371380  1.0  -0.3128
  N  N718  1  0.331470  0.175630  0.246450  1.0  -0.2434
  N  N719  1  0.280230  0.038750  0.340510  1.0  -0.2437
  N  N720  1  0.306140  0.951100  0.371380  1.0  -0.3129
  N  N721  1  0.331470  0.246450  0.175630  1.0  -0.2399
  N  N722  1  0.280230  0.340510  0.038750  1.0  -0.2359
  N  N723  1  0.306140  0.371380  0.951100  1.0  -0.3161
  N  N724  1  0.675630  0.246450  0.831470  1.0  -0.2451
  N  N725  1  0.538750  0.340510  0.780230  1.0  -0.2386
  N  N726  1  0.451100  0.371380  0.806140  1.0  -0.3134
  N  N727  1  0.746450  0.831470  0.246450  1.0  -0.2441
  N  N728  1  0.840510  0.780230  0.340510  1.0  -0.2398
  N  N729  1  0.871380  0.806140  0.371380  1.0  -0.3164
  N  N730  1  0.746450  0.175630  0.246450  1.0  -0.2453
  N  N731  1  0.840510  0.038750  0.340510  1.0  -0.2423
  N  N732  1  0.871380  0.951100  0.371380  1.0  -0.3229
  N  N733  1  0.675630  0.246450  0.246450  1.0  -0.2451
  N  N734  1  0.538750  0.340510  0.340510  1.0  -0.2414
  N  N735  1  0.451100  0.371380  0.371380  1.0  -0.3149
  N  N736  1  0.331470  0.246450  0.246450  1.0  -0.2431
  N  N737  1  0.280230  0.340510  0.340510  1.0  -0.2389
  N  N738  1  0.306140  0.371380  0.371380  1.0  -0.314
  N  N739  1  0.746450  0.831470  0.175630  1.0  -0.2428
  N  N740  1  0.840510  0.780230  0.038750  1.0  -0.2403
  N  N741  1  0.871380  0.806140  0.951100  1.0  -0.319
  N  N742  1  0.746450  0.175630  0.831470  1.0  -0.2458
  N  N743  1  0.840510  0.038750  0.780230  1.0  -0.2396
  N  N744  1  0.871380  0.951100  0.806140  1.0  -0.3225
  N  N745  1  0.299600  0.799600  0.101200  1.0  -0.3929
  N  N746  1  0.299600  0.799600  0.799600  1.0  -0.3952
  N  N747  1  0.601200  0.799600  0.799600  1.0  -0.3909
  N  N748  1  0.299600  0.101200  0.799600  1.0  -0.3938
  N  N749  1  0.700400  0.200400  0.898800  1.0  -0.3954
  N  N750  1  0.700400  0.200400  0.200400  1.0  -0.3975
  N  N751  1  0.700400  0.898800  0.200400  1.0  -0.3922
  N  N752  1  0.398800  0.200400  0.200400  1.0  -0.3902
