# generated using pymatgen
data_ZnH22C24(NO)4
_symmetry_space_group_name_H-M   'P 1'
_cell_length_a   36.63500000
_cell_length_b   36.63500000
_cell_length_c   12.12780000
_cell_angle_alpha   90.00000000
_cell_angle_beta   90.00000000
_cell_angle_gamma   120.00000000
_symmetry_Int_Tables_number   1
_chemical_formula_structural   ZnH22C24(NO)4
_chemical_formula_sum   'Zn18 H396 C432 N72 O72'
_cell_volume   14096.29727115
_cell_formula_units_Z   18
loop_
 _symmetry_equiv_pos_site_id
 _symmetry_equiv_pos_as_xyz
  1  'x, y, z'
loop_
 _atom_site_type_symbol
 _atom_site_label
 _atom_site_symmetry_multiplicity
 _atom_site_fract_x
 _atom_site_fract_y
 _atom_site_fract_z
 _atom_site_occupancy
 _atom_site_charge
  Zn  Zn1  1  0.135300  0.648830  0.443340  1.0  0.9213
  Zn  Zn2  1  0.801970  0.982160  0.776670  1.0  0.9213
  Zn  Zn3  1  0.468630  0.315500  0.110010  1.0  0.9213
  Zn  Zn4  1  0.351170  0.486470  0.443340  1.0  0.9201
  Zn  Zn5  1  0.017840  0.819800  0.776670  1.0  0.9201
  Zn  Zn6  1  0.684500  0.153140  0.110010  1.0  0.9204
  Zn  Zn7  1  0.513530  0.864700  0.443340  1.0  0.9209
  Zn  Zn8  1  0.180200  0.198030  0.776670  1.0  0.9209
  Zn  Zn9  1  0.846860  0.531370  0.110010  1.0  0.9209
  Zn  Zn10  1  0.864700  0.351170  0.556660  1.0  0.9215
  Zn  Zn11  1  0.531370  0.684500  0.889990  1.0  0.9215
  Zn  Zn12  1  0.198030  0.017840  0.223330  1.0  0.9215
  Zn  Zn13  1  0.648830  0.513530  0.556660  1.0  0.9194
  Zn  Zn14  1  0.315500  0.846860  0.889990  1.0  0.9198
  Zn  Zn15  1  0.982160  0.180200  0.223330  1.0  0.9194
  Zn  Zn16  1  0.486470  0.135300  0.556660  1.0  0.9206
  Zn  Zn17  1  0.153140  0.468630  0.889990  1.0  0.9206
  Zn  Zn18  1  0.819800  0.801970  0.223330  1.0  0.9206
  H  H19  1  0.121100  0.621700  0.198900  1.0  0.2908
  H  H20  1  0.172800  0.728200  0.587900  1.0  0.3079
  H  H21  1  0.077000  0.764800  0.923700  1.0  0.1164
  H  H22  1  0.106100  0.727900  0.006200  1.0  0.1245
  H  H23  1  0.007400  0.673400  0.217300  1.0  0.1077
  H  H24  1  0.976900  0.708400  0.130200  1.0  0.1094
  H  H25  1  0.071400  0.718600  0.343500  1.0  0.1331
  H  H26  1  0.069000  0.685800  0.434500  1.0  0.1361
  H  H27  1  0.113500  0.725700  0.402900  1.0  0.1462
  H  H28  1  0.074200  0.644700  0.966900  1.0  0.1318
  H  H29  1  0.116200  0.642100  0.982100  1.0  0.1283
  H  H30  1  0.071400  0.602300  0.012300  1.0  0.1375
  H  H31  1  0.393900  0.836000  0.553400  1.0  0.1077
  H  H32  1  0.322900  0.800100  0.597000  1.0  0.1071
  H  H33  1  0.293700  0.777300  0.273700  1.0  0.1073
  H  H34  1  0.365100  0.814800  0.230100  1.0  0.1068
  H  H35  1  0.273400  0.823100  0.604400  1.0  0.1227
  H  H36  1  0.225900  0.813700  0.597800  1.0  0.1384
  H  H37  1  0.239700  0.793300  0.694300  1.0  0.1274
  H  H38  1  0.235700  0.665800  0.387100  1.0  0.1382
  H  H39  1  0.263500  0.706400  0.312300  1.0  0.1337
  H  H40  1  0.213800  0.678100  0.291400  1.0  0.1373
  H  H41  1  0.787770  0.955030  0.532230  1.0  0.2909
  H  H42  1  0.839470  0.061530  0.921230  1.0  0.3079
  H  H43  1  0.743670  0.098130  0.257030  1.0  0.1191
  H  H44  1  0.772770  0.061230  0.339530  1.0  0.1246
  H  H45  1  0.674070  0.006730  0.550630  1.0  0.1078
  H  H46  1  0.643570  0.041730  0.463530  1.0  0.1094
  H  H47  1  0.738070  0.051930  0.676830  1.0  0.1332
  H  H48  1  0.735670  0.019130  0.767830  1.0  0.1379
  H  H49  1  0.780170  0.059030  0.736230  1.0  0.1462
  H  H50  1  0.740870  0.978030  0.300230  1.0  0.1317
  H  H51  1  0.782870  0.975430  0.315430  1.0  0.1285
  H  H52  1  0.738070  0.935630  0.345630  1.0  0.1374
  H  H53  1  0.060570  0.169330  0.886730  1.0  0.1076
  H  H54  1  0.989570  0.133430  0.930330  1.0  0.1071
  H  H55  1  0.960370  0.110630  0.607030  1.0  0.1073
  H  H56  1  0.031770  0.148130  0.563430  1.0  0.1068
  H  H57  1  0.940070  0.156430  0.937730  1.0  0.1227
  H  H58  1  0.892570  0.147030  0.931130  1.0  0.1384
  H  H59  1  0.906370  0.126630  0.027630  1.0  0.1274
  H  H60  1  0.902370  0.999130  0.720430  1.0  0.1401
  H  H61  1  0.930170  0.039730  0.645630  1.0  0.1339
  H  H62  1  0.880470  0.011430  0.624730  1.0  0.1373
  H  H63  1  0.454430  0.288370  0.865570  1.0  0.2908
  H  H64  1  0.506130  0.394870  0.254570  1.0  0.3079
  H  H65  1  0.410330  0.431470  0.590370  1.0  0.1191
  H  H66  1  0.439430  0.394570  0.672870  1.0  0.1245
  H  H67  1  0.340730  0.340070  0.883970  1.0  0.1081
  H  H68  1  0.310230  0.375070  0.796870  1.0  0.1094
  H  H69  1  0.404730  0.385270  0.010170  1.0  0.1331
  H  H70  1  0.402330  0.352470  0.101170  1.0  0.1379
  H  H71  1  0.446830  0.392370  0.069570  1.0  0.1462
  H  H72  1  0.407530  0.311370  0.633570  1.0  0.1317
  H  H73  1  0.449530  0.308770  0.648770  1.0  0.1283
  H  H74  1  0.404730  0.268970  0.678970  1.0  0.1374
  H  H75  1  0.727230  0.502670  0.220070  1.0  0.1077
  H  H76  1  0.656230  0.466770  0.263670  1.0  0.1071
  H  H77  1  0.627030  0.443970  0.940370  1.0  0.1073
  H  H78  1  0.698430  0.481470  0.896770  1.0  0.1068
  H  H79  1  0.606730  0.489770  0.271070  1.0  0.1227
  H  H80  1  0.559230  0.480370  0.264470  1.0  0.1384
  H  H81  1  0.573030  0.459970  0.360970  1.0  0.1274
  H  H82  1  0.569030  0.332470  0.053770  1.0  0.1382
  H  H83  1  0.596830  0.373070  0.978970  1.0  0.1337
  H  H84  1  0.547130  0.344770  0.958070  1.0  0.1373
  H  H85  1  0.378300  0.499400  0.198900  1.0  0.2865
  H  H86  1  0.271800  0.444600  0.587900  1.0  0.3072
  H  H87  1  0.235200  0.312200  0.923700  1.0  0.119
  H  H88  1  0.272100  0.378200  0.006200  1.0  0.1229
  H  H89  1  0.326600  0.334000  0.217300  1.0  0.1079
  H  H90  1  0.291600  0.268500  0.130200  1.0  0.1076
  H  H91  1  0.281400  0.352800  0.343500  1.0  0.1346
  H  H92  1  0.314200  0.383200  0.434500  1.0  0.138
  H  H93  1  0.274300  0.387800  0.402900  1.0  0.1487
  H  H94  1  0.355300  0.429500  0.966900  1.0  0.1323
  H  H95  1  0.357900  0.474100  0.982100  1.0  0.1285
  H  H96  1  0.397700  0.469100  0.012300  1.0  0.1425
  H  H97  1  0.164000  0.557900  0.553400  1.0  0.1072
  H  H98  1  0.199900  0.522800  0.597000  1.0  0.1068
  H  H99  1  0.222700  0.516400  0.273700  1.0  0.1079
  H  H100  1  0.185200  0.550300  0.230100  1.0  0.107
  H  H101  1  0.176900  0.450300  0.604400  1.0  0.1202
  H  H102  1  0.186300  0.412200  0.597800  1.0  0.1352
  H  H103  1  0.206700  0.446400  0.694300  1.0  0.1246
  H  H104  1  0.334200  0.569900  0.387100  1.0  0.1395
  H  H105  1  0.293600  0.557100  0.312300  1.0  0.133
  H  H106  1  0.321900  0.535700  0.291400  1.0  0.136
  H  H107  1  0.044970  0.832730  0.532230  1.0  0.2864
  H  H108  1  0.938470  0.777930  0.921230  1.0  0.3072
  H  H109  1  0.901870  0.645530  0.257030  1.0  0.1191
  H  H110  1  0.938770  0.711530  0.339530  1.0  0.1228
  H  H111  1  0.993270  0.667330  0.550630  1.0  0.1075
  H  H112  1  0.958270  0.601830  0.463530  1.0  0.1076
  H  H113  1  0.948070  0.686130  0.676830  1.0  0.1345
  H  H114  1  0.980870  0.716530  0.767830  1.0  0.1362
  H  H115  1  0.940970  0.721130  0.736230  1.0  0.1487
  H  H116  1  0.021970  0.762830  0.300230  1.0  0.1323
  H  H117  1  0.024570  0.807430  0.315430  1.0  0.1282
  H  H118  1  0.064370  0.802430  0.345630  1.0  0.1425
  H  H119  1  0.830670  0.891230  0.886730  1.0  0.1072
  H  H120  1  0.866570  0.856130  0.930330  1.0  0.1068
  H  H121  1  0.889370  0.849730  0.607030  1.0  0.1079
  H  H122  1  0.851870  0.883630  0.563430  1.0  0.1069
  H  H123  1  0.843570  0.783630  0.937730  1.0  0.1201
  H  H124  1  0.852970  0.745530  0.931130  1.0  0.1351
  H  H125  1  0.873370  0.779730  0.027630  1.0  0.1246
  H  H126  1  0.000870  0.903230  0.720430  1.0  0.1383
  H  H127  1  0.960270  0.890430  0.645630  1.0  0.1329
  H  H128  1  0.988570  0.869030  0.624730  1.0  0.136
  H  H129  1  0.711630  0.166070  0.865570  1.0  0.2864
  H  H130  1  0.605130  0.111270  0.254570  1.0  0.3075
  H  H131  1  0.568530  0.978870  0.590370  1.0  0.1187
  H  H132  1  0.605430  0.044870  0.672870  1.0  0.1228
  H  H133  1  0.659930  0.000670  0.883970  1.0  0.1075
  H  H134  1  0.624930  0.935170  0.796870  1.0  0.1076
  H  H135  1  0.614730  0.019470  0.010170  1.0  0.1346
  H  H136  1  0.647530  0.049870  0.101170  1.0  0.138
  H  H137  1  0.607630  0.054470  0.069570  1.0  0.1488
  H  H138  1  0.688630  0.096170  0.633570  1.0  0.1323
  H  H139  1  0.691230  0.140770  0.648770  1.0  0.1285
  H  H140  1  0.731030  0.135770  0.678970  1.0  0.1425
  H  H141  1  0.497330  0.224570  0.220070  1.0  0.1072
  H  H142  1  0.533230  0.189470  0.263670  1.0  0.1068
  H  H143  1  0.556030  0.183070  0.940370  1.0  0.1079
  H  H144  1  0.518530  0.216970  0.896770  1.0  0.107
  H  H145  1  0.510230  0.116970  0.271070  1.0  0.1202
  H  H146  1  0.519630  0.078870  0.264470  1.0  0.1352
  H  H147  1  0.540030  0.113070  0.360970  1.0  0.1246
  H  H148  1  0.667530  0.236570  0.053770  1.0  0.1395
  H  H149  1  0.626930  0.223770  0.978970  1.0  0.133
  H  H150  1  0.655230  0.202370  0.958070  1.0  0.136
  H  H151  1  0.500600  0.878900  0.198900  1.0  0.2911
  H  H152  1  0.555400  0.827200  0.587900  1.0  0.3063
  H  H153  1  0.687800  0.923000  0.923700  1.0  0.1199
  H  H154  1  0.621800  0.893900  0.006200  1.0  0.1218
  H  H155  1  0.666000  0.992600  0.217300  1.0  0.1076
  H  H156  1  0.731500  0.023100  0.130200  1.0  0.1092
  H  H157  1  0.647200  0.928600  0.343500  1.0  0.1311
  H  H158  1  0.616800  0.931000  0.434500  1.0  0.1372
  H  H159  1  0.612200  0.886500  0.402900  1.0  0.1472
  H  H160  1  0.570500  0.925800  0.966900  1.0  0.1324
  H  H161  1  0.525900  0.883800  0.982100  1.0  0.1291
  H  H162  1  0.530900  0.928600  0.012300  1.0  0.1401
  H  H163  1  0.442100  0.606100  0.553400  1.0  0.1071
  H  H164  1  0.477200  0.677100  0.597000  1.0  0.1073
  H  H165  1  0.483600  0.706300  0.273700  1.0  0.1078
  H  H166  1  0.449700  0.634900  0.230100  1.0  0.1068
  H  H167  1  0.549700  0.726600  0.604400  1.0  0.1234
  H  H168  1  0.587800  0.774100  0.597800  1.0  0.1367
  H  H169  1  0.553600  0.760300  0.694300  1.0  0.1243
  H  H170  1  0.430100  0.764300  0.387100  1.0  0.1388
  H  H171  1  0.442900  0.736500  0.312300  1.0  0.132
  H  H172  1  0.464300  0.786200  0.291400  1.0  0.1368
  H  H173  1  0.167270  0.212230  0.532230  1.0  0.2912
  H  H174  1  0.222070  0.160530  0.921230  1.0  0.3063
  H  H175  1  0.354470  0.256330  0.257030  1.0  0.1194
  H  H176  1  0.288470  0.227230  0.339530  1.0  0.1218
  H  H177  1  0.332670  0.325930  0.550630  1.0  0.1081
  H  H178  1  0.398170  0.356430  0.463530  1.0  0.1091
  H  H179  1  0.313870  0.261930  0.676830  1.0  0.131
  H  H180  1  0.283470  0.264330  0.767830  1.0  0.137
  H  H181  1  0.278870  0.219830  0.736230  1.0  0.1472
  H  H182  1  0.237170  0.259130  0.300230  1.0  0.1324
  H  H183  1  0.192570  0.217130  0.315430  1.0  0.1291
  H  H184  1  0.197570  0.261930  0.345630  1.0  0.1401
  H  H185  1  0.108770  0.939430  0.886730  1.0  0.1071
  H  H186  1  0.143870  0.010430  0.930330  1.0  0.1073
  H  H187  1  0.150270  0.039630  0.607030  1.0  0.1079
  H  H188  1  0.116370  0.968230  0.563430  1.0  0.1068
  H  H189  1  0.216370  0.059930  0.937730  1.0  0.1235
  H  H190  1  0.254470  0.107430  0.931130  1.0  0.1367
  H  H191  1  0.220270  0.093630  0.027630  1.0  0.1243
  H  H192  1  0.096770  0.097630  0.720430  1.0  0.1388
  H  H193  1  0.109570  0.069830  0.645630  1.0  0.1321
  H  H194  1  0.130970  0.119530  0.624730  1.0  0.1368
  H  H195  1  0.833930  0.545570  0.865570  1.0  0.2911
  H  H196  1  0.888730  0.493870  0.254570  1.0  0.3063
  H  H197  1  0.021130  0.589670  0.590370  1.0  0.1173
  H  H198  1  0.955130  0.560570  0.672870  1.0  0.1218
  H  H199  1  0.999330  0.659270  0.883970  1.0  0.1076
  H  H200  1  0.064830  0.689770  0.796870  1.0  0.1092
  H  H201  1  0.980530  0.595270  0.010170  1.0  0.1311
  H  H202  1  0.950130  0.597670  0.101170  1.0  0.1372
  H  H203  1  0.945530  0.553170  0.069570  1.0  0.1472
  H  H204  1  0.903830  0.592470  0.633570  1.0  0.1324
  H  H205  1  0.859230  0.550470  0.648770  1.0  0.129
  H  H206  1  0.864230  0.595270  0.678970  1.0  0.1402
  H  H207  1  0.775430  0.272770  0.220070  1.0  0.1071
  H  H208  1  0.810530  0.343770  0.263670  1.0  0.1073
  H  H209  1  0.816930  0.372970  0.940370  1.0  0.1078
  H  H210  1  0.783030  0.301570  0.896770  1.0  0.1068
  H  H211  1  0.883030  0.393270  0.271070  1.0  0.1234
  H  H212  1  0.921130  0.440770  0.264470  1.0  0.1366
  H  H213  1  0.886930  0.426970  0.360970  1.0  0.1243
  H  H214  1  0.763430  0.430970  0.053770  1.0  0.1388
  H  H215  1  0.776230  0.403170  0.978970  1.0  0.132
  H  H216  1  0.797630  0.452870  0.958070  1.0  0.1368
  H  H217  1  0.878900  0.378300  0.801100  1.0  0.2896
  H  H218  1  0.827200  0.271800  0.412100  1.0  0.3088
  H  H219  1  0.923000  0.235200  0.076300  1.0  0.1164
  H  H220  1  0.893900  0.272100  0.993800  1.0  0.1238
  H  H221  1  0.992600  0.326600  0.782700  1.0  0.1072
  H  H222  1  0.023100  0.291600  0.869800  1.0  0.1104
  H  H223  1  0.928600  0.281400  0.656500  1.0  0.1323
  H  H224  1  0.931000  0.314200  0.565500  1.0  0.1341
  H  H225  1  0.886500  0.274300  0.597100  1.0  0.1465
  H  H226  1  0.925800  0.355300  0.033100  1.0  0.1312
  H  H227  1  0.883800  0.357900  0.017900  1.0  0.1281
  H  H228  1  0.928600  0.397700  0.987700  1.0  0.1394
  H  H229  1  0.606100  0.164000  0.446600  1.0  0.1076
  H  H230  1  0.677100  0.199900  0.403000  1.0  0.1082
  H  H231  1  0.706300  0.222700  0.726300  1.0  0.1082
  H  H232  1  0.634900  0.185200  0.769900  1.0  0.1066
  H  H233  1  0.726600  0.176900  0.395600  1.0  0.1231
  H  H234  1  0.774100  0.186300  0.402200  1.0  0.1361
  H  H235  1  0.760300  0.206700  0.305700  1.0  0.1276
  H  H236  1  0.764300  0.334200  0.612900  1.0  0.1391
  H  H237  1  0.736500  0.293600  0.687700  1.0  0.1328
  H  H238  1  0.786200  0.321900  0.708600  1.0  0.138
  H  H239  1  0.545570  0.711630  0.134430  1.0  0.2897
  H  H240  1  0.493870  0.605130  0.745430  1.0  0.3088
  H  H241  1  0.589670  0.568530  0.409630  1.0  0.1189
  H  H242  1  0.560570  0.605430  0.327130  1.0  0.1238
  H  H243  1  0.659270  0.659930  0.116030  1.0  0.1076
  H  H244  1  0.689770  0.624930  0.203130  1.0  0.1104
  H  H245  1  0.595270  0.614730  0.989830  1.0  0.1323
  H  H246  1  0.597670  0.647530  0.898830  1.0  0.1365
  H  H247  1  0.553170  0.607630  0.930430  1.0  0.1465
  H  H248  1  0.592470  0.688630  0.366430  1.0  0.1312
  H  H249  1  0.550470  0.691230  0.351230  1.0  0.128
  H  H250  1  0.595270  0.731030  0.321030  1.0  0.1394
  H  H251  1  0.272770  0.497330  0.779930  1.0  0.1076
  H  H252  1  0.343770  0.533230  0.736330  1.0  0.1082
  H  H253  1  0.372970  0.556030  0.059630  1.0  0.1082
  H  H254  1  0.301570  0.518530  0.103230  1.0  0.1066
  H  H255  1  0.393270  0.510230  0.728930  1.0  0.1231
  H  H256  1  0.440770  0.519630  0.735530  1.0  0.1361
  H  H257  1  0.426970  0.540030  0.639030  1.0  0.1276
  H  H258  1  0.430970  0.667530  0.946230  1.0  0.1391
  H  H259  1  0.403170  0.626930  0.021030  1.0  0.1328
  H  H260  1  0.452870  0.655230  0.041930  1.0  0.1381
  H  H261  1  0.212230  0.044970  0.467770  1.0  0.2897
  H  H262  1  0.160530  0.938470  0.078770  1.0  0.3088
  H  H263  1  0.256330  0.901870  0.742970  1.0  0.1189
  H  H264  1  0.227230  0.938770  0.660470  1.0  0.1238
  H  H265  1  0.325930  0.993270  0.449370  1.0  0.1073
  H  H266  1  0.356430  0.958270  0.536470  1.0  0.1104
  H  H267  1  0.261930  0.948070  0.323170  1.0  0.1325
  H  H268  1  0.264330  0.980870  0.232170  1.0  0.1365
  H  H269  1  0.219830  0.940970  0.263770  1.0  0.1465
  H  H270  1  0.259130  0.021970  0.699770  1.0  0.1312
  H  H271  1  0.217130  0.024570  0.684570  1.0  0.1282
  H  H272  1  0.261930  0.064370  0.654370  1.0  0.1394
  H  H273  1  0.939430  0.830670  0.113270  1.0  0.1075
  H  H274  1  0.010430  0.866570  0.069670  1.0  0.1082
  H  H275  1  0.039630  0.889370  0.392970  1.0  0.1082
  H  H276  1  0.968230  0.851870  0.436570  1.0  0.1066
  H  H277  1  0.059930  0.843570  0.062270  1.0  0.1231
  H  H278  1  0.107430  0.852970  0.068870  1.0  0.1361
  H  H279  1  0.093630  0.873370  0.972370  1.0  0.1276
  H  H280  1  0.097630  0.000870  0.279570  1.0  0.1407
  H  H281  1  0.069830  0.960270  0.354370  1.0  0.1332
  H  H282  1  0.119530  0.988570  0.375270  1.0  0.138
  H  H283  1  0.621700  0.500600  0.801100  1.0  0.2873
  H  H284  1  0.728200  0.555400  0.412100  1.0  0.3057
  H  H285  1  0.764800  0.687800  0.076300  1.0  0.1189
  H  H286  1  0.727900  0.621800  0.993800  1.0  0.1224
  H  H287  1  0.673400  0.666000  0.782700  1.0  0.1077
  H  H288  1  0.708400  0.731500  0.869800  1.0  0.1084
  H  H289  1  0.718600  0.647200  0.656500  1.0  0.1348
  H  H290  1  0.685800  0.616800  0.565500  1.0  0.1368
  H  H291  1  0.725700  0.612200  0.597100  1.0  0.1481
  H  H292  1  0.644700  0.570500  0.033100  1.0  0.1315
  H  H293  1  0.642100  0.525900  0.017900  1.0  0.1285
  H  H294  1  0.602300  0.530900  0.987700  1.0  0.1429
  H  H295  1  0.836000  0.442100  0.446600  1.0  0.1072
  H  H296  1  0.800100  0.477200  0.403000  1.0  0.1075
  H  H297  1  0.777300  0.483600  0.726300  1.0  0.1083
  H  H298  1  0.814800  0.449700  0.769900  1.0  0.1069
  H  H299  1  0.823100  0.549700  0.395600  1.0  0.1212
  H  H300  1  0.813700  0.587800  0.402200  1.0  0.1368
  H  H301  1  0.793300  0.553600  0.305700  1.0  0.1245
  H  H302  1  0.665800  0.430100  0.612900  1.0  0.1406
  H  H303  1  0.706400  0.442900  0.687700  1.0  0.133
  H  H304  1  0.678100  0.464300  0.708600  1.0  0.1373
  H  H305  1  0.288370  0.833930  0.134430  1.0  0.2872
  H  H306  1  0.394870  0.888730  0.745430  1.0  0.3057
  H  H307  1  0.431470  0.021130  0.409630  1.0  0.1186
  H  H308  1  0.394570  0.955130  0.327130  1.0  0.1223
  H  H309  1  0.340070  0.999330  0.116030  1.0  0.1073
  H  H310  1  0.375070  0.064830  0.203130  1.0  0.1083
  H  H311  1  0.385270  0.980530  0.989830  1.0  0.1348
  H  H312  1  0.352470  0.950130  0.898830  1.0  0.1369
  H  H313  1  0.392370  0.945530  0.930430  1.0  0.1482
  H  H314  1  0.311370  0.903830  0.366430  1.0  0.1315
  H  H315  1  0.308770  0.859230  0.351230  1.0  0.1286
  H  H316  1  0.268970  0.864230  0.321030  1.0  0.1429
  H  H317  1  0.502670  0.775430  0.779930  1.0  0.1072
  H  H318  1  0.466770  0.810530  0.736330  1.0  0.1075
  H  H319  1  0.443970  0.816930  0.059630  1.0  0.1083
  H  H320  1  0.481470  0.783030  0.103230  1.0  0.1069
  H  H321  1  0.489770  0.883030  0.728930  1.0  0.1212
  H  H322  1  0.480370  0.921130  0.735530  1.0  0.1368
  H  H323  1  0.459970  0.886930  0.639030  1.0  0.1245
  H  H324  1  0.332470  0.763430  0.946230  1.0  0.1406
  H  H325  1  0.373070  0.776230  0.021030  1.0  0.133
  H  H326  1  0.344770  0.797630  0.041930  1.0  0.1373
  H  H327  1  0.955030  0.167270  0.467770  1.0  0.2873
  H  H328  1  0.061530  0.222070  0.078770  1.0  0.3056
  H  H329  1  0.098130  0.354470  0.742970  1.0  0.1191
  H  H330  1  0.061230  0.288470  0.660470  1.0  0.1223
  H  H331  1  0.006730  0.332670  0.449370  1.0  0.1073
  H  H332  1  0.041730  0.398170  0.536470  1.0  0.1084
  H  H333  1  0.051930  0.313870  0.323170  1.0  0.1346
  H  H334  1  0.019130  0.283470  0.232170  1.0  0.1343
  H  H335  1  0.059030  0.278870  0.263770  1.0  0.1481
  H  H336  1  0.978030  0.237170  0.699770  1.0  0.1315
  H  H337  1  0.975430  0.192570  0.684570  1.0  0.1283
  H  H338  1  0.935630  0.197570  0.654370  1.0  0.1429
  H  H339  1  0.169330  0.108770  0.113270  1.0  0.1072
  H  H340  1  0.133430  0.143870  0.069670  1.0  0.1075
  H  H341  1  0.110630  0.150270  0.392970  1.0  0.1083
  H  H342  1  0.148130  0.116370  0.436570  1.0  0.1068
  H  H343  1  0.156430  0.216370  0.062270  1.0  0.1212
  H  H344  1  0.147030  0.254470  0.068870  1.0  0.1368
  H  H345  1  0.126630  0.220270  0.972370  1.0  0.1245
  H  H346  1  0.999130  0.096770  0.279570  1.0  0.1393
  H  H347  1  0.039730  0.109570  0.354370  1.0  0.1326
  H  H348  1  0.011430  0.130970  0.375270  1.0  0.1373
  H  H349  1  0.499400  0.121100  0.801100  1.0  0.2898
  H  H350  1  0.444600  0.172800  0.412100  1.0  0.3105
  H  H351  1  0.312200  0.077000  0.076300  1.0  0.1197
  H  H352  1  0.378200  0.106100  0.993800  1.0  0.1212
  H  H353  1  0.334000  0.007400  0.782700  1.0  0.1077
  H  H354  1  0.268500  0.976900  0.869800  1.0  0.109
  H  H355  1  0.352800  0.071400  0.656500  1.0  0.1304
  H  H356  1  0.383200  0.069000  0.565500  1.0  0.1365
  H  H357  1  0.387800  0.113500  0.597100  1.0  0.1458
  H  H358  1  0.429500  0.074200  0.033100  1.0  0.1325
  H  H359  1  0.474100  0.116200  0.017900  1.0  0.129
  H  H360  1  0.469100  0.071400  0.987700  1.0  0.1398
  H  H361  1  0.557900  0.393900  0.446600  1.0  0.1071
  H  H362  1  0.522800  0.322900  0.403000  1.0  0.1084
  H  H363  1  0.516400  0.293700  0.726300  1.0  0.109
  H  H364  1  0.550300  0.365100  0.769900  1.0  0.1064
  H  H365  1  0.450300  0.273400  0.395600  1.0  0.1234
  H  H366  1  0.412200  0.225900  0.402200  1.0  0.1361
  H  H367  1  0.446400  0.239700  0.305700  1.0  0.1256
  H  H368  1  0.569900  0.235700  0.612900  1.0  0.1394
  H  H369  1  0.557100  0.263500  0.687700  1.0  0.1317
  H  H370  1  0.535700  0.213800  0.708600  1.0  0.1384
  H  H371  1  0.166070  0.454430  0.134430  1.0  0.2898
  H  H372  1  0.111270  0.506130  0.745430  1.0  0.3105
  H  H373  1  0.978870  0.410330  0.409630  1.0  0.1172
  H  H374  1  0.044870  0.439430  0.327130  1.0  0.1212
  H  H375  1  0.000670  0.340730  0.116030  1.0  0.1077
  H  H376  1  0.935170  0.310230  0.203130  1.0  0.1089
  H  H377  1  0.019470  0.404730  0.989830  1.0  0.1304
  H  H378  1  0.049870  0.402330  0.898830  1.0  0.1365
  H  H379  1  0.054470  0.446830  0.930430  1.0  0.1459
  H  H380  1  0.096170  0.407530  0.366430  1.0  0.1325
  H  H381  1  0.140770  0.449530  0.351230  1.0  0.1289
  H  H382  1  0.135770  0.404730  0.321030  1.0  0.1398
  H  H383  1  0.224570  0.727230  0.779930  1.0  0.1071
  H  H384  1  0.189470  0.656230  0.736330  1.0  0.1084
  H  H385  1  0.183070  0.627030  0.059630  1.0  0.109
  H  H386  1  0.216970  0.698430  0.103230  1.0  0.1064
  H  H387  1  0.116970  0.606730  0.728930  1.0  0.1234
  H  H388  1  0.078870  0.559230  0.735530  1.0  0.136
  H  H389  1  0.113070  0.573030  0.639030  1.0  0.1256
  H  H390  1  0.236570  0.569030  0.946230  1.0  0.1394
  H  H391  1  0.223770  0.596830  0.021030  1.0  0.1317
  H  H392  1  0.202370  0.547130  0.041930  1.0  0.1384
  H  H393  1  0.832730  0.787770  0.467770  1.0  0.2899
  H  H394  1  0.777930  0.839470  0.078770  1.0  0.3105
  H  H395  1  0.645530  0.743670  0.742970  1.0  0.1192
  H  H396  1  0.711530  0.772770  0.660470  1.0  0.1212
  H  H397  1  0.667330  0.674070  0.449370  1.0  0.1082
  H  H398  1  0.601830  0.643570  0.536470  1.0  0.109
  H  H399  1  0.686130  0.738070  0.323170  1.0  0.1303
  H  H400  1  0.716530  0.735670  0.232170  1.0  0.1363
  H  H401  1  0.721130  0.780170  0.263770  1.0  0.1458
  H  H402  1  0.762830  0.740870  0.699770  1.0  0.1325
  H  H403  1  0.807430  0.782870  0.684570  1.0  0.129
  H  H404  1  0.802430  0.738070  0.654370  1.0  0.1398
  H  H405  1  0.891230  0.060570  0.113270  1.0  0.1071
  H  H406  1  0.856130  0.989570  0.069670  1.0  0.1084
  H  H407  1  0.849730  0.960370  0.392970  1.0  0.1091
  H  H408  1  0.883630  0.031770  0.436570  1.0  0.1064
  H  H409  1  0.783630  0.940070  0.062270  1.0  0.1234
  H  H410  1  0.745530  0.892570  0.068870  1.0  0.1361
  H  H411  1  0.779730  0.906370  0.972370  1.0  0.1256
  H  H412  1  0.903230  0.902370  0.279570  1.0  0.1394
  H  H413  1  0.890430  0.930170  0.354370  1.0  0.1318
  H  H414  1  0.869030  0.880470  0.375270  1.0  0.1384
  C  C415  1  0.059850  0.697010  0.120000  1.0  0.0373
  C  C416  1  0.004530  0.762740  0.962300  1.0  0.6446
  C  C417  1  0.023900  0.739930  0.018500  1.0  -0.1284
  C  C418  1  0.062580  0.745880  0.982500  1.0  -0.0404
  C  C419  1  0.080040  0.724180  0.032200  1.0  -0.1304
  C  C420  1  0.021370  0.691620  0.156900  1.0  -0.1112
  C  C421  1  0.003320  0.712670  0.105600  1.0  -0.0792
  C  C422  1  0.079820  0.675460  0.175100  1.0  -0.1852
  C  C423  1  0.091610  0.679150  0.286300  1.0  0.2251
  C  C424  1  0.092420  0.649100  0.127600  1.0  0.1687
  C  C425  1  0.085890  0.704500  0.374400  1.0  -0.4074
  C  C426  1  0.088190  0.633180  0.012300  1.0  -0.4038
  C  C427  1  0.432650  0.847100  0.359200  1.0  0.6695
  C  C428  1  0.386670  0.827560  0.387100  1.0  -0.1298
  C  C429  1  0.373630  0.823700  0.496300  1.0  -0.035
  C  C430  1  0.331300  0.802050  0.522100  1.0  -0.1279
  C  C431  1  0.300650  0.783010  0.440800  1.0  0.0476
  C  C432  1  0.314000  0.788760  0.331200  1.0  -0.1192
  C  C433  1  0.356610  0.810990  0.305200  1.0  -0.0439
  C  C434  1  0.255740  0.756390  0.469600  1.0  -0.1985
  C  C435  1  0.232530  0.764560  0.546000  1.0  0.1743
  C  C436  1  0.228170  0.715970  0.428100  1.0  0.2032
  C  C437  1  0.243840  0.801850  0.616700  1.0  -0.3726
  C  C438  1  0.235990  0.689230  0.347700  1.0  -0.4012
  C  C439  1  0.726520  0.030340  0.453330  1.0  0.0374
  C  C440  1  0.671200  0.096070  0.295630  1.0  0.6445
  C  C441  1  0.690570  0.073260  0.351830  1.0  -0.1283
  C  C442  1  0.729250  0.079210  0.315830  1.0  -0.0404
  C  C443  1  0.746710  0.057510  0.365530  1.0  -0.1304
  C  C444  1  0.688040  0.024950  0.490230  1.0  -0.1112
  C  C445  1  0.669990  0.046000  0.438930  1.0  -0.0793
  C  C446  1  0.746490  0.008790  0.508430  1.0  -0.185
  C  C447  1  0.758280  0.012480  0.619630  1.0  0.2265
  C  C448  1  0.759090  0.982430  0.460930  1.0  0.1689
  C  C449  1  0.752560  0.037830  0.707730  1.0  -0.4074
  C  C450  1  0.754860  0.966510  0.345630  1.0  -0.4029
  C  C451  1  0.099320  0.180430  0.692530  1.0  0.6695
  C  C452  1  0.053340  0.160890  0.720430  1.0  -0.1299
  C  C453  1  0.040300  0.157030  0.829630  1.0  -0.035
  C  C454  1  0.997970  0.135380  0.855430  1.0  -0.1279
  C  C455  1  0.967320  0.116340  0.774130  1.0  0.0476
  C  C456  1  0.980670  0.122090  0.664530  1.0  -0.1192
  C  C457  1  0.023280  0.144320  0.638530  1.0  -0.0439
  C  C458  1  0.922410  0.089720  0.802930  1.0  -0.1985
  C  C459  1  0.899200  0.097890  0.879330  1.0  0.1743
  C  C460  1  0.894840  0.049300  0.761430  1.0  0.2032
  C  C461  1  0.910510  0.135180  0.950030  1.0  -0.3726
  C  C462  1  0.902660  0.022560  0.681030  1.0  -0.4015
  C  C463  1  0.393180  0.363680  0.786670  1.0  0.0373
  C  C464  1  0.337860  0.429410  0.628970  1.0  0.6445
  C  C465  1  0.357230  0.406600  0.685170  1.0  -0.1283
  C  C466  1  0.395910  0.412550  0.649170  1.0  -0.0407
  C  C467  1  0.413370  0.390850  0.698870  1.0  -0.1304
  C  C468  1  0.354700  0.358290  0.823570  1.0  -0.1111
  C  C469  1  0.336650  0.379340  0.772270  1.0  -0.0793
  C  C470  1  0.413150  0.342130  0.841770  1.0  -0.1851
  C  C471  1  0.424940  0.345820  0.952970  1.0  0.2276
  C  C472  1  0.425750  0.315770  0.794270  1.0  0.1686
  C  C473  1  0.419220  0.371170  0.041070  1.0  -0.4074
  C  C474  1  0.421520  0.299850  0.678970  1.0  -0.4032
  C  C475  1  0.765980  0.513770  0.025870  1.0  0.6695
  C  C476  1  0.720000  0.494230  0.053770  1.0  -0.1298
  C  C477  1  0.706960  0.490370  0.162970  1.0  -0.035
  C  C478  1  0.664630  0.468720  0.188770  1.0  -0.1279
  C  C479  1  0.633980  0.449680  0.107470  1.0  0.0476
  C  C480  1  0.647330  0.455430  0.997870  1.0  -0.1192
  C  C481  1  0.689940  0.477660  0.971870  1.0  -0.0439
  C  C482  1  0.589070  0.423060  0.136270  1.0  -0.1985
  C  C483  1  0.565860  0.431230  0.212670  1.0  0.1742
  C  C484  1  0.561500  0.382640  0.094770  1.0  0.2032
  C  C485  1  0.577170  0.468520  0.283370  1.0  -0.3726
  C  C486  1  0.569320  0.355900  0.014370  1.0  -0.4012
  C  C487  1  0.302990  0.362840  0.120000  1.0  0.0377
  C  C488  1  0.237260  0.241790  0.962300  1.0  0.6467
  C  C489  1  0.260070  0.283970  0.018500  1.0  -0.1315
  C  C490  1  0.254120  0.316700  0.982500  1.0  -0.0382
  C  C491  1  0.275820  0.355860  0.032200  1.0  -0.1299
  C  C492  1  0.308380  0.329750  0.156900  1.0  -0.1111
  C  C493  1  0.287330  0.290650  0.105600  1.0  -0.0811
  C  C494  1  0.324540  0.404360  0.175100  1.0  -0.1846
  C  C495  1  0.320850  0.412460  0.286300  1.0  0.2266
  C  C496  1  0.350900  0.443320  0.127600  1.0  0.1716
  C  C497  1  0.295500  0.381390  0.374400  1.0  -0.4071
  C  C498  1  0.366820  0.455010  0.012300  1.0  -0.4065
  C  C499  1  0.152900  0.585550  0.359200  1.0  0.6698
  C  C500  1  0.172440  0.559110  0.387100  1.0  -0.1293
  C  C501  1  0.176300  0.549930  0.496300  1.0  -0.0347
  C  C502  1  0.197950  0.529250  0.522100  1.0  -0.1284
  C  C503  1  0.216990  0.517640  0.440800  1.0  0.0484
  C  C504  1  0.211240  0.525240  0.331200  1.0  -0.1193
  C  C505  1  0.189010  0.545620  0.305200  1.0  -0.0422
  C  C506  1  0.243610  0.499350  0.469600  1.0  -0.1983
  C  C507  1  0.235440  0.467970  0.546000  1.0  0.174
  C  C508  1  0.284030  0.512200  0.428100  1.0  0.2038
  C  C509  1  0.198150  0.441990  0.616700  1.0  -0.374
  C  C510  1  0.310770  0.546760  0.347700  1.0  -0.4007
  C  C511  1  0.969660  0.696170  0.453330  1.0  0.0376
  C  C512  1  0.903930  0.575120  0.295630  1.0  0.6466
  C  C513  1  0.926740  0.617300  0.351830  1.0  -0.1315
  C  C514  1  0.920790  0.650030  0.315830  1.0  -0.0385
  C  C515  1  0.942490  0.689190  0.365530  1.0  -0.1299
  C  C516  1  0.975050  0.663080  0.490230  1.0  -0.111
  C  C517  1  0.954000  0.623980  0.438930  1.0  -0.0811
  C  C518  1  0.991210  0.737690  0.508430  1.0  -0.1848
  C  C519  1  0.987520  0.745790  0.619630  1.0  0.2251
  C  C520  1  0.017570  0.776650  0.460930  1.0  0.1714
  C  C521  1  0.962170  0.714720  0.707730  1.0  -0.4072
  C  C522  1  0.033490  0.788340  0.345630  1.0  -0.4074
  C  C523  1  0.819570  0.918880  0.692530  1.0  0.6698
  C  C524  1  0.839110  0.892440  0.720430  1.0  -0.1292
  C  C525  1  0.842970  0.883260  0.829630  1.0  -0.0347
  C  C526  1  0.864620  0.862580  0.855430  1.0  -0.1284
  C  C527  1  0.883660  0.850970  0.774130  1.0  0.0484
  C  C528  1  0.877910  0.858570  0.664530  1.0  -0.1193
  C  C529  1  0.855680  0.878950  0.638530  1.0  -0.0422
  C  C530  1  0.910280  0.832680  0.802930  1.0  -0.1983
  C  C531  1  0.902110  0.801300  0.879330  1.0  0.1741
  C  C532  1  0.950700  0.845530  0.761430  1.0  0.2038
  C  C533  1  0.864820  0.775320  0.950030  1.0  -0.3741
  C  C534  1  0.977440  0.880090  0.681030  1.0  -0.4007
  C  C535  1  0.636320  0.029510  0.786670  1.0  0.0377
  C  C536  1  0.570590  0.908460  0.628970  1.0  0.6466
  C  C537  1  0.593400  0.950640  0.685170  1.0  -0.1315
  C  C538  1  0.587450  0.983370  0.649170  1.0  -0.0382
  C  C539  1  0.609150  0.022530  0.698870  1.0  -0.1299
  C  C540  1  0.641710  0.996420  0.823570  1.0  -0.111
  C  C541  1  0.620660  0.957320  0.772270  1.0  -0.0811
  C  C542  1  0.657870  0.071030  0.841770  1.0  -0.1847
  C  C543  1  0.654180  0.079130  0.952970  1.0  0.2266
  C  C544  1  0.684230  0.109990  0.794270  1.0  0.1716
  C  C545  1  0.628830  0.048060  0.041070  1.0  -0.4071
  C  C546  1  0.700150  0.121680  0.678970  1.0  -0.4068
  C  C547  1  0.486230  0.252220  0.025870  1.0  0.6698
  C  C548  1  0.505770  0.225780  0.053770  1.0  -0.1293
  C  C549  1  0.509630  0.216600  0.162970  1.0  -0.0347
  C  C550  1  0.531280  0.195920  0.188770  1.0  -0.1284
  C  C551  1  0.550320  0.184310  0.107470  1.0  0.0484
  C  C552  1  0.544570  0.191910  0.997870  1.0  -0.1193
  C  C553  1  0.522340  0.212290  0.971870  1.0  -0.0422
  C  C554  1  0.576940  0.166020  0.136270  1.0  -0.1983
  C  C555  1  0.568770  0.134640  0.212670  1.0  0.1741
  C  C556  1  0.617360  0.178870  0.094770  1.0  0.2038
  C  C557  1  0.531480  0.108660  0.283370  1.0  -0.3741
  C  C558  1  0.644100  0.213430  0.014370  1.0  -0.4007
  C  C559  1  0.637160  0.940150  0.120000  1.0  0.0376
  C  C560  1  0.758210  0.995470  0.962300  1.0  0.6462
  C  C561  1  0.716030  0.976100  0.018500  1.0  -0.1314
  C  C562  1  0.683300  0.937420  0.982500  1.0  -0.0429
  C  C563  1  0.644140  0.919960  0.032200  1.0  -0.1306
  C  C564  1  0.670250  0.978630  0.156900  1.0  -0.1122
  C  C565  1  0.709350  0.996680  0.105600  1.0  -0.0825
  C  C566  1  0.595640  0.920180  0.175100  1.0  -0.1841
  C  C567  1  0.587540  0.908390  0.286300  1.0  0.23
  C  C568  1  0.556680  0.907580  0.127600  1.0  0.1696
  C  C569  1  0.618610  0.914110  0.374400  1.0  -0.4061
  C  C570  1  0.544990  0.911810  0.012300  1.0  -0.4051
  C  C571  1  0.414450  0.567350  0.359200  1.0  0.6695
  C  C572  1  0.440890  0.613330  0.387100  1.0  -0.1277
  C  C573  1  0.450070  0.626370  0.496300  1.0  -0.0338
  C  C574  1  0.470750  0.668700  0.522100  1.0  -0.1272
  C  C575  1  0.482360  0.699350  0.440800  1.0  0.0496
  C  C576  1  0.474760  0.686000  0.331200  1.0  -0.1189
  C  C577  1  0.454380  0.643390  0.305200  1.0  -0.0418
  C  C578  1  0.500650  0.744260  0.469600  1.0  -0.199
  C  C579  1  0.532030  0.767470  0.546000  1.0  0.1757
  C  C580  1  0.487800  0.771830  0.428100  1.0  0.2038
  C  C581  1  0.558010  0.756160  0.616700  1.0  -0.3752
  C  C582  1  0.453240  0.764010  0.347700  1.0  -0.3983
  C  C583  1  0.303830  0.273480  0.453330  1.0  0.0376
  C  C584  1  0.424880  0.328800  0.295630  1.0  0.6462
  C  C585  1  0.382700  0.309430  0.351830  1.0  -0.1314
  C  C586  1  0.349970  0.270750  0.315830  1.0  -0.0429
  C  C587  1  0.310810  0.253290  0.365530  1.0  -0.1306
  C  C588  1  0.336920  0.311960  0.490230  1.0  -0.1122
  C  C589  1  0.376020  0.330010  0.438930  1.0  -0.0825
  C  C590  1  0.262310  0.253510  0.508430  1.0  -0.184
  C  C591  1  0.254210  0.241720  0.619630  1.0  0.2289
  C  C592  1  0.223350  0.240910  0.460930  1.0  0.1698
  C  C593  1  0.285280  0.247440  0.707730  1.0  -0.4061
  C  C594  1  0.211660  0.245140  0.345630  1.0  -0.4051
  C  C595  1  0.081120  0.900680  0.692530  1.0  0.6695
  C  C596  1  0.107560  0.946660  0.720430  1.0  -0.1276
  C  C597  1  0.116740  0.959700  0.829630  1.0  -0.0338
  C  C598  1  0.137420  0.002030  0.855430  1.0  -0.1272
  C  C599  1  0.149030  0.032680  0.774130  1.0  0.0496
  C  C600  1  0.141430  0.019330  0.664530  1.0  -0.1188
  C  C601  1  0.121050  0.976720  0.638530  1.0  -0.0418
  C  C602  1  0.167320  0.077590  0.802930  1.0  -0.1991
  C  C603  1  0.198700  0.100800  0.879330  1.0  0.1757
  C  C604  1  0.154470  0.105160  0.761430  1.0  0.2038
  C  C605  1  0.224680  0.089490  0.950030  1.0  -0.3752
  C  C606  1  0.119910  0.097340  0.681030  1.0  -0.3983
  C  C607  1  0.970490  0.606820  0.786670  1.0  0.0376
  C  C608  1  0.091540  0.662140  0.628970  1.0  0.6462
  C  C609  1  0.049360  0.642770  0.685170  1.0  -0.1314
  C  C610  1  0.016630  0.604090  0.649170  1.0  -0.0425
  C  C611  1  0.977470  0.586630  0.698870  1.0  -0.1306
  C  C612  1  0.003580  0.645300  0.823570  1.0  -0.1122
  C  C613  1  0.042680  0.663350  0.772270  1.0  -0.0826
  C  C614  1  0.928970  0.586850  0.841770  1.0  -0.184
  C  C615  1  0.920870  0.575060  0.952970  1.0  0.2284
  C  C616  1  0.890010  0.574250  0.794270  1.0  0.1699
  C  C617  1  0.951940  0.580780  0.041070  1.0  -0.4061
  C  C618  1  0.878320  0.578480  0.678970  1.0  -0.4051
  C  C619  1  0.747780  0.234020  0.025870  1.0  0.6695
  C  C620  1  0.774220  0.280000  0.053770  1.0  -0.1277
  C  C621  1  0.783400  0.293040  0.162970  1.0  -0.0338
  C  C622  1  0.804080  0.335370  0.188770  1.0  -0.1272
  C  C623  1  0.815690  0.366020  0.107470  1.0  0.0496
  C  C624  1  0.808090  0.352670  0.997870  1.0  -0.1189
  C  C625  1  0.787710  0.310060  0.971870  1.0  -0.0418
  C  C626  1  0.833980  0.410930  0.136270  1.0  -0.199
  C  C627  1  0.865360  0.434140  0.212670  1.0  0.1757
  C  C628  1  0.821130  0.438500  0.094770  1.0  0.2038
  C  C629  1  0.891340  0.422830  0.283370  1.0  -0.3752
  C  C630  1  0.786570  0.430680  0.014370  1.0  -0.3983
  C  C631  1  0.940150  0.302990  0.880000  1.0  0.0361
  C  C632  1  0.995470  0.237260  0.037700  1.0  0.646
  C  C633  1  0.976100  0.260070  0.981500  1.0  -0.1281
  C  C634  1  0.937420  0.254120  0.017500  1.0  -0.0412
  C  C635  1  0.919960  0.275820  0.967800  1.0  -0.1301
  C  C636  1  0.978630  0.308380  0.843100  1.0  -0.1104
  C  C637  1  0.996680  0.287330  0.894400  1.0  -0.0827
  C  C638  1  0.920180  0.324540  0.824900  1.0  -0.1853
  C  C639  1  0.908390  0.320850  0.713700  1.0  0.2261
  C  C640  1  0.907580  0.350900  0.872400  1.0  0.1698
  C  C641  1  0.914110  0.295500  0.625600  1.0  -0.4076
  C  C642  1  0.911810  0.366820  0.987700  1.0  -0.4036
  C  C643  1  0.567350  0.152900  0.640800  1.0  0.6693
  C  C644  1  0.613330  0.172440  0.612900  1.0  -0.1293
  C  C645  1  0.626370  0.176300  0.503700  1.0  -0.0344
  C  C646  1  0.668700  0.197950  0.477900  1.0  -0.1264
  C  C647  1  0.699350  0.216990  0.559200  1.0  0.0482
  C  C648  1  0.686000  0.211240  0.668800  1.0  -0.1201
  C  C649  1  0.643390  0.189010  0.694800  1.0  -0.0442
  C  C650  1  0.744260  0.243610  0.530400  1.0  -0.199
  C  C651  1  0.767470  0.235440  0.454000  1.0  0.1748
  C  C652  1  0.771830  0.284030  0.571900  1.0  0.2039
  C  C653  1  0.756160  0.198150  0.383300  1.0  -0.3753
  C  C654  1  0.764010  0.310770  0.652300  1.0  -0.4022
  C  C655  1  0.606820  0.636320  0.213330  1.0  0.0361
  C  C656  1  0.662140  0.570590  0.371030  1.0  0.6459
  C  C657  1  0.642770  0.593400  0.314830  1.0  -0.1281
  C  C658  1  0.604090  0.587450  0.350830  1.0  -0.0415
  C  C659  1  0.586630  0.609150  0.301130  1.0  -0.1301
  C  C660  1  0.645300  0.641710  0.176430  1.0  -0.1104
  C  C661  1  0.663350  0.620660  0.227730  1.0  -0.0827
  C  C662  1  0.586850  0.657870  0.158230  1.0  -0.1852
  C  C663  1  0.575060  0.654180  0.047030  1.0  0.228
  C  C664  1  0.574250  0.684230  0.205730  1.0  0.1697
  C  C665  1  0.580780  0.628830  0.958930  1.0  -0.4076
  C  C666  1  0.578480  0.700150  0.321030  1.0  -0.4031
  C  C667  1  0.234020  0.486230  0.974130  1.0  0.6693
  C  C668  1  0.280000  0.505770  0.946230  1.0  -0.1293
  C  C669  1  0.293040  0.509630  0.837030  1.0  -0.0344
  C  C670  1  0.335370  0.531280  0.811230  1.0  -0.1264
  C  C671  1  0.366020  0.550320  0.892530  1.0  0.0482
  C  C672  1  0.352670  0.544570  0.002130  1.0  -0.1201
  C  C673  1  0.310060  0.522340  0.028130  1.0  -0.0442
  C  C674  1  0.410930  0.576940  0.863730  1.0  -0.199
  C  C675  1  0.434140  0.568770  0.787330  1.0  0.1748
  C  C676  1  0.438500  0.617360  0.905230  1.0  0.2039
  C  C677  1  0.422830  0.531480  0.716630  1.0  -0.3753
  C  C678  1  0.430680  0.644100  0.985630  1.0  -0.4022
  C  C679  1  0.273480  0.969660  0.546670  1.0  0.0361
  C  C680  1  0.328800  0.903930  0.704370  1.0  0.6458
  C  C681  1  0.309430  0.926740  0.648170  1.0  -0.1281
  C  C682  1  0.270750  0.920790  0.684170  1.0  -0.0412
  C  C683  1  0.253290  0.942490  0.634470  1.0  -0.13
  C  C684  1  0.311960  0.975050  0.509770  1.0  -0.1105
  C  C685  1  0.330010  0.954000  0.561070  1.0  -0.0827
  C  C686  1  0.253510  0.991210  0.491570  1.0  -0.1851
  C  C687  1  0.241720  0.987520  0.380370  1.0  0.227
  C  C688  1  0.240910  0.017570  0.539070  1.0  0.17
  C  C689  1  0.247440  0.962170  0.292270  1.0  -0.4075
  C  C690  1  0.245140  0.033490  0.654370  1.0  -0.4027
  C  C691  1  0.900680  0.819570  0.307470  1.0  0.6693
  C  C692  1  0.946660  0.839110  0.279570  1.0  -0.1294
  C  C693  1  0.959700  0.842970  0.170370  1.0  -0.0344
  C  C694  1  0.002030  0.864620  0.144570  1.0  -0.1264
  C  C695  1  0.032680  0.883660  0.225870  1.0  0.0482
  C  C696  1  0.019330  0.877910  0.335470  1.0  -0.1201
  C  C697  1  0.976720  0.855680  0.361470  1.0  -0.0442
  C  C698  1  0.077590  0.910280  0.197070  1.0  -0.199
  C  C699  1  0.100800  0.902110  0.120670  1.0  0.1748
  C  C700  1  0.105160  0.950700  0.238570  1.0  0.2039
  C  C701  1  0.089490  0.864820  0.049970  1.0  -0.3753
  C  C702  1  0.097340  0.977440  0.318970  1.0  -0.4025
  C  C703  1  0.697010  0.637160  0.880000  1.0  0.038
  C  C704  1  0.762740  0.758210  0.037700  1.0  0.647
  C  C705  1  0.739930  0.716030  0.981500  1.0  -0.1301
  C  C706  1  0.745880  0.683300  0.017500  1.0  -0.0381
  C  C707  1  0.724180  0.644140  0.967800  1.0  -0.1295
  C  C708  1  0.691620  0.670250  0.843100  1.0  -0.1107
  C  C709  1  0.712670  0.709350  0.894400  1.0  -0.0808
  C  C710  1  0.675460  0.595640  0.824900  1.0  -0.1842
  C  C711  1  0.679150  0.587540  0.713700  1.0  0.2264
  C  C712  1  0.649100  0.556680  0.872400  1.0  0.172
  C  C713  1  0.704500  0.618610  0.625600  1.0  -0.4082
  C  C714  1  0.633180  0.544990  0.987700  1.0  -0.4047
  C  C715  1  0.847100  0.414450  0.640800  1.0  0.6696
  C  C716  1  0.827560  0.440890  0.612900  1.0  -0.1299
  C  C717  1  0.823700  0.450070  0.503700  1.0  -0.034
  C  C718  1  0.802050  0.470750  0.477900  1.0  -0.1287
  C  C719  1  0.783010  0.482360  0.559200  1.0  0.0472
  C  C720  1  0.788760  0.474760  0.668800  1.0  -0.1202
  C  C721  1  0.810990  0.454380  0.694800  1.0  -0.0421
  C  C722  1  0.756390  0.500650  0.530400  1.0  -0.199
  C  C723  1  0.764560  0.532030  0.454000  1.0  0.1737
  C  C724  1  0.715970  0.487800  0.571900  1.0  0.2042
  C  C725  1  0.801850  0.558010  0.383300  1.0  -0.3736
  C  C726  1  0.689230  0.453240  0.652300  1.0  -0.4034
  C  C727  1  0.363680  0.970490  0.213330  1.0  0.038
  C  C728  1  0.429410  0.091540  0.371030  1.0  0.6469
  C  C729  1  0.406600  0.049360  0.314830  1.0  -0.1301
  C  C730  1  0.412550  0.016630  0.350830  1.0  -0.0382
  C  C731  1  0.390850  0.977470  0.301130  1.0  -0.1295
  C  C732  1  0.358290  0.003580  0.176430  1.0  -0.1106
  C  C733  1  0.379340  0.042680  0.227730  1.0  -0.0809
  C  C734  1  0.342130  0.928970  0.158230  1.0  -0.1843
  C  C735  1  0.345820  0.920870  0.047030  1.0  0.2264
  C  C736  1  0.315770  0.890010  0.205730  1.0  0.1719
  C  C737  1  0.371170  0.951940  0.958930  1.0  -0.4082
  C  C738  1  0.299850  0.878320  0.321030  1.0  -0.405
  C  C739  1  0.513770  0.747780  0.974130  1.0  0.6696
  C  C740  1  0.494230  0.774220  0.946230  1.0  -0.1299
  C  C741  1  0.490370  0.783400  0.837030  1.0  -0.034
  C  C742  1  0.468720  0.804080  0.811230  1.0  -0.1287
  C  C743  1  0.449680  0.815690  0.892530  1.0  0.0472
  C  C744  1  0.455430  0.808090  0.002130  1.0  -0.1202
  C  C745  1  0.477660  0.787710  0.028130  1.0  -0.0421
  C  C746  1  0.423060  0.833980  0.863730  1.0  -0.199
  C  C747  1  0.431230  0.865360  0.787330  1.0  0.1738
  C  C748  1  0.382640  0.821130  0.905230  1.0  0.2042
  C  C749  1  0.468520  0.891340  0.716630  1.0  -0.3737
  C  C750  1  0.355900  0.786570  0.985630  1.0  -0.4034
  C  C751  1  0.030340  0.303830  0.546670  1.0  0.038
  C  C752  1  0.096070  0.424880  0.704370  1.0  0.6469
  C  C753  1  0.073260  0.382700  0.648170  1.0  -0.1301
  C  C754  1  0.079210  0.349970  0.684170  1.0  -0.0385
  C  C755  1  0.057510  0.310810  0.634470  1.0  -0.1295
  C  C756  1  0.024950  0.336920  0.509770  1.0  -0.1106
  C  C757  1  0.046000  0.376020  0.561070  1.0  -0.0808
  C  C758  1  0.008790  0.262310  0.491570  1.0  -0.1843
  C  C759  1  0.012480  0.254210  0.380370  1.0  0.2253
  C  C760  1  0.982430  0.223350  0.539070  1.0  0.1717
  C  C761  1  0.037830  0.285280  0.292270  1.0  -0.4082
  C  C762  1  0.966510  0.211660  0.654370  1.0  -0.4056
  C  C763  1  0.180430  0.081120  0.307470  1.0  0.6696
  C  C764  1  0.160890  0.107560  0.279570  1.0  -0.1299
  C  C765  1  0.157030  0.116740  0.170370  1.0  -0.034
  C  C766  1  0.135380  0.137420  0.144570  1.0  -0.1287
  C  C767  1  0.116340  0.149030  0.225870  1.0  0.0472
  C  C768  1  0.122090  0.141430  0.335470  1.0  -0.1202
  C  C769  1  0.144320  0.121050  0.361470  1.0  -0.0421
  C  C770  1  0.089720  0.167320  0.197070  1.0  -0.199
  C  C771  1  0.097890  0.198700  0.120670  1.0  0.1738
  C  C772  1  0.049300  0.154470  0.238570  1.0  0.2042
  C  C773  1  0.135180  0.224680  0.049970  1.0  -0.3736
  C  C774  1  0.022560  0.119910  0.318970  1.0  -0.4034
  C  C775  1  0.362840  0.059850  0.880000  1.0  0.0371
  C  C776  1  0.241790  0.004530  0.037700  1.0  0.646
  C  C777  1  0.283970  0.023900  0.981500  1.0  -0.1313
  C  C778  1  0.316700  0.062580  0.017500  1.0  -0.0431
  C  C779  1  0.355860  0.080040  0.967800  1.0  -0.1279
  C  C780  1  0.329750  0.021370  0.843100  1.0  -0.1114
  C  C781  1  0.290650  0.003320  0.894400  1.0  -0.0801
  C  C782  1  0.404360  0.079820  0.824900  1.0  -0.1833
  C  C783  1  0.412460  0.091610  0.713700  1.0  0.2282
  C  C784  1  0.443320  0.092420  0.872400  1.0  0.1706
  C  C785  1  0.381390  0.085890  0.625600  1.0  -0.4059
  C  C786  1  0.455010  0.088190  0.987700  1.0  -0.4049
  C  C787  1  0.585550  0.432650  0.640800  1.0  0.6701
  C  C788  1  0.559110  0.386670  0.612900  1.0  -0.1273
  C  C789  1  0.549930  0.373630  0.503700  1.0  -0.0333
  C  C790  1  0.529250  0.331300  0.477900  1.0  -0.1267
  C  C791  1  0.517640  0.300650  0.559200  1.0  0.0497
  C  C792  1  0.525240  0.314000  0.668800  1.0  -0.1202
  C  C793  1  0.545620  0.356610  0.694800  1.0  -0.0421
  C  C794  1  0.499350  0.255740  0.530400  1.0  -0.1991
  C  C795  1  0.467970  0.232530  0.454000  1.0  0.1743
  C  C796  1  0.512200  0.228170  0.571900  1.0  0.2037
  C  C797  1  0.441990  0.243840  0.383300  1.0  -0.3729
  C  C798  1  0.546760  0.235990  0.652300  1.0  -0.4012
  C  C799  1  0.029510  0.393180  0.213330  1.0  0.0371
  C  C800  1  0.908460  0.337860  0.371030  1.0  0.646
  C  C801  1  0.950640  0.357230  0.314830  1.0  -0.1313
  C  C802  1  0.983370  0.395910  0.350830  1.0  -0.0427
  C  C803  1  0.022530  0.413370  0.301130  1.0  -0.1279
  C  C804  1  0.996420  0.354700  0.176430  1.0  -0.1114
  C  C805  1  0.957320  0.336650  0.227730  1.0  -0.0801
  C  C806  1  0.071030  0.413150  0.158230  1.0  -0.1832
  C  C807  1  0.079130  0.424940  0.047030  1.0  0.2266
  C  C808  1  0.109990  0.425750  0.205730  1.0  0.171
  C  C809  1  0.048060  0.419220  0.958930  1.0  -0.4059
  C  C810  1  0.121680  0.421520  0.321030  1.0  -0.4049
  C  C811  1  0.252220  0.765980  0.974130  1.0  0.6701
  C  C812  1  0.225780  0.720000  0.946230  1.0  -0.1273
  C  C813  1  0.216600  0.706960  0.837030  1.0  -0.0333
  C  C814  1  0.195920  0.664630  0.811230  1.0  -0.1267
  C  C815  1  0.184310  0.633980  0.892530  1.0  0.0497
  C  C816  1  0.191910  0.647330  0.002130  1.0  -0.1202
  C  C817  1  0.212290  0.689940  0.028130  1.0  -0.0421
  C  C818  1  0.166020  0.589070  0.863730  1.0  -0.1991
  C  C819  1  0.134640  0.565860  0.787330  1.0  0.1743
  C  C820  1  0.178870  0.561500  0.905230  1.0  0.2037
  C  C821  1  0.108660  0.577170  0.716630  1.0  -0.3729
  C  C822  1  0.213430  0.569320  0.985630  1.0  -0.4012
  C  C823  1  0.696170  0.726520  0.546670  1.0  0.0371
  C  C824  1  0.575120  0.671200  0.704370  1.0  0.6459
  C  C825  1  0.617300  0.690570  0.648170  1.0  -0.1313
  C  C826  1  0.650030  0.729250  0.684170  1.0  -0.0431
  C  C827  1  0.689190  0.746710  0.634470  1.0  -0.1279
  C  C828  1  0.663080  0.688040  0.509770  1.0  -0.1114
  C  C829  1  0.623980  0.669990  0.561070  1.0  -0.0801
  C  C830  1  0.737690  0.746490  0.491570  1.0  -0.1831
  C  C831  1  0.745790  0.758280  0.380370  1.0  0.2271
  C  C832  1  0.776650  0.759090  0.539070  1.0  0.1709
  C  C833  1  0.714720  0.752560  0.292270  1.0  -0.4059
  C  C834  1  0.788340  0.754860  0.654370  1.0  -0.4049
  C  C835  1  0.918880  0.099320  0.307470  1.0  0.6701
  C  C836  1  0.892440  0.053340  0.279570  1.0  -0.1272
  C  C837  1  0.883260  0.040300  0.170370  1.0  -0.0333
  C  C838  1  0.862580  0.997970  0.144570  1.0  -0.1267
  C  C839  1  0.850970  0.967320  0.225870  1.0  0.0496
  C  C840  1  0.858570  0.980670  0.335470  1.0  -0.1202
  C  C841  1  0.878950  0.023280  0.361470  1.0  -0.0421
  C  C842  1  0.832680  0.922410  0.197070  1.0  -0.1992
  C  C843  1  0.801300  0.899200  0.120670  1.0  0.1743
  C  C844  1  0.845530  0.894840  0.238570  1.0  0.2037
  C  C845  1  0.775320  0.910510  0.049970  1.0  -0.3729
  C  C846  1  0.880090  0.902660  0.318970  1.0  -0.4012
  N  N847  1  0.110480  0.656620  0.305670  1.0  -0.3313
  N  N848  1  0.110550  0.638380  0.208190  1.0  -0.1201
  N  N849  1  0.193610  0.730580  0.546560  1.0  -0.1303
  N  N850  1  0.190310  0.700450  0.475680  1.0  -0.32
  N  N851  1  0.777150  0.989950  0.639000  1.0  -0.334
  N  N852  1  0.777220  0.971710  0.541520  1.0  -0.12
  N  N853  1  0.860280  0.063910  0.879890  1.0  -0.1302
  N  N854  1  0.856980  0.033780  0.809010  1.0  -0.32
  N  N855  1  0.443810  0.323290  0.972340  1.0  -0.334
  N  N856  1  0.443880  0.305050  0.874860  1.0  -0.1201
  N  N857  1  0.526940  0.397250  0.213230  1.0  -0.1302
  N  N858  1  0.523640  0.367120  0.142350  1.0  -0.32
  N  N859  1  0.343380  0.453860  0.305670  1.0  -0.3352
  N  N860  1  0.361620  0.472170  0.208190  1.0  -0.1195
  N  N861  1  0.269420  0.463030  0.546560  1.0  -0.129
  N  N862  1  0.299550  0.489860  0.475680  1.0  -0.3223
  N  N863  1  0.010050  0.787190  0.639000  1.0  -0.3326
  N  N864  1  0.028290  0.805500  0.541520  1.0  -0.1195
  N  N865  1  0.936090  0.796360  0.879890  1.0  -0.129
  N  N866  1  0.966220  0.823190  0.809010  1.0  -0.3223
  N  N867  1  0.676710  0.120530  0.972340  1.0  -0.3352
  N  N868  1  0.694950  0.138840  0.874860  1.0  -0.1195
  N  N869  1  0.602750  0.129700  0.213230  1.0  -0.129
  N  N870  1  0.632880  0.156530  0.142350  1.0  -0.3223
  N  N871  1  0.546140  0.889520  0.305670  1.0  -0.3341
  N  N872  1  0.527830  0.889450  0.208190  1.0  -0.1202
  N  N873  1  0.536970  0.806390  0.546560  1.0  -0.1307
  N  N874  1  0.510140  0.809690  0.475680  1.0  -0.3209
  N  N875  1  0.212810  0.222850  0.639000  1.0  -0.3341
  N  N876  1  0.194500  0.222780  0.541520  1.0  -0.1202
  N  N877  1  0.203640  0.139720  0.879890  1.0  -0.1307
  N  N878  1  0.176810  0.143020  0.809010  1.0  -0.3208
  N  N879  1  0.879470  0.556190  0.972340  1.0  -0.3345
  N  N880  1  0.861160  0.556120  0.874860  1.0  -0.1202
  N  N881  1  0.870300  0.473060  0.213230  1.0  -0.1307
  N  N882  1  0.843470  0.476360  0.142350  1.0  -0.3209
  N  N883  1  0.889520  0.343380  0.694330  1.0  -0.3325
  N  N884  1  0.889450  0.361620  0.791810  1.0  -0.1206
  N  N885  1  0.806390  0.269420  0.453440  1.0  -0.1315
  N  N886  1  0.809690  0.299550  0.524320  1.0  -0.32
  N  N887  1  0.556190  0.676710  0.027660  1.0  -0.335
  N  N888  1  0.556120  0.694950  0.125140  1.0  -0.1206
  N  N889  1  0.473060  0.602750  0.786770  1.0  -0.1314
  N  N890  1  0.476360  0.632880  0.857650  1.0  -0.32
  N  N891  1  0.222850  0.010050  0.361000  1.0  -0.335
  N  N892  1  0.222780  0.028290  0.458480  1.0  -0.1205
  N  N893  1  0.139720  0.936090  0.120110  1.0  -0.1314
  N  N894  1  0.143020  0.966220  0.190990  1.0  -0.32
  N  N895  1  0.656620  0.546140  0.694330  1.0  -0.3363
  N  N896  1  0.638380  0.527830  0.791810  1.0  -0.1206
  N  N897  1  0.730580  0.536970  0.453440  1.0  -0.1281
  N  N898  1  0.700450  0.510140  0.524320  1.0  -0.3215
  N  N899  1  0.323290  0.879470  0.027660  1.0  -0.3363
  N  N900  1  0.305050  0.861160  0.125140  1.0  -0.1206
  N  N901  1  0.397250  0.870300  0.786770  1.0  -0.1281
  N  N902  1  0.367120  0.843470  0.857650  1.0  -0.3215
  N  N903  1  0.989950  0.212810  0.361000  1.0  -0.3337
  N  N904  1  0.971710  0.194500  0.458480  1.0  -0.1207
  N  N905  1  0.063910  0.203640  0.120110  1.0  -0.1281
  N  N906  1  0.033780  0.176810  0.190990  1.0  -0.3215
  N  N907  1  0.453860  0.110480  0.694330  1.0  -0.3338
  N  N908  1  0.472170  0.110550  0.791810  1.0  -0.1202
  N  N909  1  0.463030  0.193610  0.453440  1.0  -0.1315
  N  N910  1  0.489860  0.190310  0.524320  1.0  -0.3207
  N  N911  1  0.120530  0.443810  0.027660  1.0  -0.334
  N  N912  1  0.138840  0.443880  0.125140  1.0  -0.1202
  N  N913  1  0.129700  0.526940  0.786770  1.0  -0.1314
  N  N914  1  0.156530  0.523640  0.857650  1.0  -0.3207
  N  N915  1  0.787190  0.777150  0.361000  1.0  -0.3338
  N  N916  1  0.805500  0.777220  0.458480  1.0  -0.1201
  N  N917  1  0.796360  0.860280  0.120110  1.0  -0.1314
  N  N918  1  0.823190  0.856980  0.190990  1.0  -0.3206
  O  O919  1  0.028130  0.789120  0.888580  1.0  -0.5999
  O  O920  1  0.968740  0.755060  0.988460  1.0  -0.5637
  O  O921  1  0.457110  0.855660  0.442460  1.0  -0.621
  O  O922  1  0.443750  0.852050  0.261100  1.0  -0.5874
  O  O923  1  0.694800  0.122450  0.221910  1.0  -0.5998
  O  O924  1  0.635410  0.088390  0.321790  1.0  -0.5635
  O  O925  1  0.123780  0.188990  0.775790  1.0  -0.621
  O  O926  1  0.110420  0.185380  0.594430  1.0  -0.5874
  O  O927  1  0.361460  0.455790  0.555250  1.0  -0.5999
  O  O928  1  0.302070  0.421730  0.655130  1.0  -0.5631
  O  O929  1  0.790440  0.522330  0.109130  1.0  -0.621
  O  O930  1  0.777080  0.518720  0.927770  1.0  -0.5874
  O  O931  1  0.210880  0.239010  0.888580  1.0  -0.5995
  O  O932  1  0.244940  0.213680  0.988460  1.0  -0.566
  O  O933  1  0.144340  0.601450  0.442460  1.0  -0.6203
  O  O934  1  0.147950  0.591700  0.261100  1.0  -0.5863
  O  O935  1  0.877550  0.572340  0.221910  1.0  -0.5995
  O  O936  1  0.911610  0.547010  0.321790  1.0  -0.5662
  O  O937  1  0.811010  0.934780  0.775790  1.0  -0.6203
  O  O938  1  0.814620  0.925030  0.594430  1.0  -0.5863
  O  O939  1  0.544210  0.905680  0.555250  1.0  -0.5995
  O  O940  1  0.578270  0.880350  0.655130  1.0  -0.5664
  O  O941  1  0.477670  0.268120  0.109130  1.0  -0.6203
  O  O942  1  0.481280  0.258370  0.927770  1.0  -0.5863
  O  O943  1  0.760990  0.971870  0.888580  1.0  -0.6012
  O  O944  1  0.786320  0.031260  0.988460  1.0  -0.5655
  O  O945  1  0.398550  0.542890  0.442460  1.0  -0.6194
  O  O946  1  0.408300  0.556250  0.261100  1.0  -0.5858
  O  O947  1  0.427660  0.305200  0.221910  1.0  -0.601
  O  O948  1  0.452990  0.364590  0.321790  1.0  -0.5649
  O  O949  1  0.065220  0.876220  0.775790  1.0  -0.6194
  O  O950  1  0.074970  0.889580  0.594430  1.0  -0.5859
  O  O951  1  0.094320  0.638540  0.555250  1.0  -0.6012
  O  O952  1  0.119650  0.697930  0.655130  1.0  -0.5657
  O  O953  1  0.731880  0.209560  0.109130  1.0  -0.6194
  O  O954  1  0.741630  0.222920  0.927770  1.0  -0.5858
  O  O955  1  0.971870  0.210880  0.111420  1.0  -0.6003
  O  O956  1  0.031260  0.244940  0.011540  1.0  -0.5679
  O  O957  1  0.542890  0.144340  0.557540  1.0  -0.6209
  O  O958  1  0.556250  0.147950  0.738900  1.0  -0.585
  O  O959  1  0.638540  0.544210  0.444750  1.0  -0.6003
  O  O960  1  0.697930  0.578270  0.344870  1.0  -0.5673
  O  O961  1  0.209560  0.477670  0.890870  1.0  -0.6209
  O  O962  1  0.222920  0.481280  0.072230  1.0  -0.585
  O  O963  1  0.305200  0.877550  0.778090  1.0  -0.6003
  O  O964  1  0.364590  0.911610  0.678210  1.0  -0.5678
  O  O965  1  0.876220  0.811010  0.224210  1.0  -0.6209
  O  O966  1  0.889580  0.814620  0.405570  1.0  -0.585
  O  O967  1  0.789120  0.760990  0.111420  1.0  -0.6002
  O  O968  1  0.755060  0.786320  0.011540  1.0  -0.5642
  O  O969  1  0.855660  0.398550  0.557540  1.0  -0.6201
  O  O970  1  0.852050  0.408300  0.738900  1.0  -0.5849
  O  O971  1  0.455790  0.094320  0.444750  1.0  -0.6003
  O  O972  1  0.421730  0.119650  0.344870  1.0  -0.5647
  O  O973  1  0.522330  0.731880  0.890870  1.0  -0.6201
  O  O974  1  0.518720  0.741630  0.072230  1.0  -0.5849
  O  O975  1  0.122450  0.427660  0.778090  1.0  -0.6002
  O  O976  1  0.088390  0.452990  0.678210  1.0  -0.5643
  O  O977  1  0.188990  0.065220  0.224210  1.0  -0.6201
  O  O978  1  0.185380  0.074970  0.405570  1.0  -0.585
  O  O979  1  0.239010  0.028130  0.111420  1.0  -0.6009
  O  O980  1  0.213680  0.968740  0.011540  1.0  -0.5681
  O  O981  1  0.601450  0.457110  0.557540  1.0  -0.6199
  O  O982  1  0.591700  0.443750  0.738900  1.0  -0.585
  O  O983  1  0.905680  0.361460  0.444750  1.0  -0.6008
  O  O984  1  0.880350  0.302070  0.344870  1.0  -0.5682
  O  O985  1  0.268120  0.790440  0.890870  1.0  -0.6199
  O  O986  1  0.258370  0.777080  0.072230  1.0  -0.585
  O  O987  1  0.572340  0.694800  0.778090  1.0  -0.6008
  O  O988  1  0.547010  0.635410  0.678210  1.0  -0.5674
  O  O989  1  0.934780  0.123780  0.224210  1.0  -0.6199
  O  O990  1  0.925030  0.110420  0.405570  1.0  -0.585
