# generated using pymatgen
data_Zn7GaP10H10O30F
_symmetry_space_group_name_H-M   'P 1'
_cell_length_a   9.97300000
_cell_length_b   48.48500000
_cell_length_c   54.89200000
_cell_angle_alpha   90.00000000
_cell_angle_beta   90.00000000
_cell_angle_gamma   90.00000000
_symmetry_Int_Tables_number   1
_chemical_formula_structural   Zn7GaP10H10O30F
_chemical_formula_sum   'Zn112 Ga16 P160 H160 O480 F16'
_cell_volume   26542.52735726
_cell_formula_units_Z   16
loop_
 _symmetry_equiv_pos_site_id
 _symmetry_equiv_pos_as_xyz
  1  'x, y, z'
loop_
 _atom_site_type_symbol
 _atom_site_label
 _atom_site_symmetry_multiplicity
 _atom_site_fract_x
 _atom_site_fract_y
 _atom_site_fract_z
 _atom_site_occupancy
 _atom_site_charge
  Zn  Zn1  1  0.668220  0.432480  0.220270  1.0  1.0584
  Zn  Zn2  1  0.704500  0.362440  0.133340  1.0  1.0982
  Zn  Zn3  1  0.547800  0.349790  0.068150  1.0  1.1309
  Zn  Zn4  1  0.045700  0.396790  0.107150  1.0  1.127
  Zn  Zn5  1  0.990640  0.466100  0.194350  1.0  1.0727
  Zn  Zn6  1  0.202350  0.324490  0.088120  1.0  1.145
  Zn  Zn7  1  0.351630  0.414710  0.165290  1.0  0.837
  Zn  Zn8  1  0.168220  0.932480  0.720270  1.0  1.0584
  Zn  Zn9  1  0.204500  0.862440  0.633340  1.0  1.0982
  Zn  Zn10  1  0.047800  0.849790  0.568150  1.0  1.1309
  Zn  Zn11  1  0.545700  0.896790  0.607150  1.0  1.127
  Zn  Zn12  1  0.490640  0.966100  0.694350  1.0  1.0727
  Zn  Zn13  1  0.702350  0.824490  0.588120  1.0  1.145
  Zn  Zn14  1  0.851630  0.914710  0.665290  1.0  0.837
  Zn  Zn15  1  0.831780  0.567520  0.720270  1.0  1.0595
  Zn  Zn16  1  0.795500  0.637560  0.633340  1.0  1.0979
  Zn  Zn17  1  0.952200  0.650210  0.568150  1.0  1.1309
  Zn  Zn18  1  0.454300  0.603210  0.607150  1.0  1.1272
  Zn  Zn19  1  0.509360  0.533900  0.694350  1.0  1.072
  Zn  Zn20  1  0.297650  0.675510  0.588120  1.0  1.1462
  Zn  Zn21  1  0.148370  0.585290  0.665290  1.0  0.8371
  Zn  Zn22  1  0.331780  0.067520  0.220270  1.0  1.0595
  Zn  Zn23  1  0.295500  0.137560  0.133340  1.0  1.0979
  Zn  Zn24  1  0.452200  0.150210  0.068150  1.0  1.1309
  Zn  Zn25  1  0.954300  0.103210  0.107150  1.0  1.1272
  Zn  Zn26  1  0.009360  0.033900  0.194350  1.0  1.072
  Zn  Zn27  1  0.797650  0.175510  0.088120  1.0  1.1462
  Zn  Zn28  1  0.648370  0.085290  0.165290  1.0  0.8371
  Zn  Zn29  1  0.331780  0.932480  0.279730  1.0  1.0584
  Zn  Zn30  1  0.295500  0.862440  0.366660  1.0  1.0969
  Zn  Zn31  1  0.452200  0.849790  0.431850  1.0  1.1327
  Zn  Zn32  1  0.954300  0.896790  0.392850  1.0  1.1273
  Zn  Zn33  1  0.009360  0.966100  0.305650  1.0  1.0733
  Zn  Zn34  1  0.797650  0.824490  0.411880  1.0  1.1456
  Zn  Zn35  1  0.648370  0.914710  0.334710  1.0  0.837
  Zn  Zn36  1  0.831780  0.432480  0.779730  1.0  1.0584
  Zn  Zn37  1  0.795500  0.362440  0.866660  1.0  1.0969
  Zn  Zn38  1  0.952200  0.349790  0.931850  1.0  1.1327
  Zn  Zn39  1  0.454300  0.396790  0.892850  1.0  1.1273
  Zn  Zn40  1  0.509360  0.466100  0.805650  1.0  1.0733
  Zn  Zn41  1  0.297650  0.324490  0.911880  1.0  1.1456
  Zn  Zn42  1  0.148370  0.414710  0.834710  1.0  0.837
  Zn  Zn43  1  0.168220  0.067520  0.779730  1.0  1.0593
  Zn  Zn44  1  0.204500  0.137560  0.866660  1.0  1.0969
  Zn  Zn45  1  0.047800  0.150210  0.931850  1.0  1.1325
  Zn  Zn46  1  0.545700  0.103210  0.892850  1.0  1.1269
  Zn  Zn47  1  0.490640  0.033900  0.805650  1.0  1.0735
  Zn  Zn48  1  0.702350  0.175510  0.911880  1.0  1.1459
  Zn  Zn49  1  0.851630  0.085290  0.834710  1.0  0.8369
  Zn  Zn50  1  0.668220  0.567520  0.279730  1.0  1.0593
  Zn  Zn51  1  0.704500  0.637560  0.366660  1.0  1.0969
  Zn  Zn52  1  0.547800  0.650210  0.431850  1.0  1.1325
  Zn  Zn53  1  0.045700  0.603210  0.392850  1.0  1.1269
  Zn  Zn54  1  0.990640  0.533900  0.305650  1.0  1.0735
  Zn  Zn55  1  0.202350  0.675510  0.411880  1.0  1.1459
  Zn  Zn56  1  0.351630  0.585290  0.334710  1.0  0.8369
  Zn  Zn57  1  0.331780  0.567520  0.779730  1.0  1.0593
  Zn  Zn58  1  0.295500  0.637560  0.866660  1.0  1.0968
  Zn  Zn59  1  0.452200  0.650210  0.931850  1.0  1.1326
  Zn  Zn60  1  0.954300  0.603210  0.892850  1.0  1.127
  Zn  Zn61  1  0.009360  0.533900  0.805650  1.0  1.0731
  Zn  Zn62  1  0.797650  0.675510  0.911880  1.0  1.1464
  Zn  Zn63  1  0.648370  0.585290  0.834710  1.0  0.837
  Zn  Zn64  1  0.831780  0.067520  0.279730  1.0  1.0593
  Zn  Zn65  1  0.795500  0.137560  0.366660  1.0  1.0968
  Zn  Zn66  1  0.952200  0.150210  0.431850  1.0  1.1326
  Zn  Zn67  1  0.454300  0.103210  0.392850  1.0  1.127
  Zn  Zn68  1  0.509360  0.033900  0.305650  1.0  1.0731
  Zn  Zn69  1  0.297650  0.175510  0.411880  1.0  1.1464
  Zn  Zn70  1  0.148370  0.085290  0.334710  1.0  0.837
  Zn  Zn71  1  0.168220  0.432480  0.279730  1.0  1.0583
  Zn  Zn72  1  0.204500  0.362440  0.366660  1.0  1.097
  Zn  Zn73  1  0.047800  0.349790  0.431850  1.0  1.1327
  Zn  Zn74  1  0.545700  0.396790  0.392850  1.0  1.1268
  Zn  Zn75  1  0.490640  0.466100  0.305650  1.0  1.0737
  Zn  Zn76  1  0.702350  0.324490  0.411880  1.0  1.1451
  Zn  Zn77  1  0.851630  0.414710  0.334710  1.0  0.8368
  Zn  Zn78  1  0.668220  0.932480  0.779730  1.0  1.0583
  Zn  Zn79  1  0.704500  0.862440  0.866660  1.0  1.097
  Zn  Zn80  1  0.547800  0.849790  0.931850  1.0  1.1327
  Zn  Zn81  1  0.045700  0.896790  0.892850  1.0  1.1268
  Zn  Zn82  1  0.990640  0.966100  0.805650  1.0  1.0737
  Zn  Zn83  1  0.202350  0.824490  0.911880  1.0  1.1451
  Zn  Zn84  1  0.351630  0.914710  0.834710  1.0  0.8368
  Zn  Zn85  1  0.668220  0.067520  0.720270  1.0  1.0596
  Zn  Zn86  1  0.704500  0.137560  0.633340  1.0  1.0981
  Zn  Zn87  1  0.547800  0.150210  0.568150  1.0  1.1307
  Zn  Zn88  1  0.045700  0.103210  0.607150  1.0  1.1271
  Zn  Zn89  1  0.990640  0.033900  0.694350  1.0  1.0726
  Zn  Zn90  1  0.202350  0.175510  0.588120  1.0  1.1458
  Zn  Zn91  1  0.351630  0.085290  0.665290  1.0  0.837
  Zn  Zn92  1  0.168220  0.567520  0.220270  1.0  1.0596
  Zn  Zn93  1  0.204500  0.637560  0.133340  1.0  1.0981
  Zn  Zn94  1  0.047800  0.650210  0.068150  1.0  1.1307
  Zn  Zn95  1  0.545700  0.603210  0.107150  1.0  1.1271
  Zn  Zn96  1  0.490640  0.533900  0.194350  1.0  1.0726
  Zn  Zn97  1  0.702350  0.675510  0.088120  1.0  1.1458
  Zn  Zn98  1  0.851630  0.585290  0.165290  1.0  0.837
  Zn  Zn99  1  0.831780  0.932480  0.220270  1.0  1.0584
  Zn  Zn100  1  0.795500  0.862440  0.133340  1.0  1.098
  Zn  Zn101  1  0.952200  0.849790  0.068150  1.0  1.131
  Zn  Zn102  1  0.454300  0.896790  0.107150  1.0  1.1273
  Zn  Zn103  1  0.509360  0.966100  0.194350  1.0  1.0721
  Zn  Zn104  1  0.297650  0.824490  0.088120  1.0  1.1455
  Zn  Zn105  1  0.148370  0.914710  0.165290  1.0  0.8371
  Zn  Zn106  1  0.331780  0.432480  0.720270  1.0  1.0584
  Zn  Zn107  1  0.295500  0.362440  0.633340  1.0  1.098
  Zn  Zn108  1  0.452200  0.349790  0.568150  1.0  1.131
  Zn  Zn109  1  0.954300  0.396790  0.607150  1.0  1.1273
  Zn  Zn110  1  0.009360  0.466100  0.694350  1.0  1.0721
  Zn  Zn111  1  0.797650  0.324490  0.588120  1.0  1.1455
  Zn  Zn112  1  0.648370  0.414710  0.665290  1.0  0.8371
  Ga  Ga113  1  0.876800  0.276880  0.022770  1.0  1.5021
  Ga  Ga114  1  0.376800  0.776880  0.522770  1.0  1.5021
  Ga  Ga115  1  0.623200  0.723120  0.522770  1.0  1.5025
  Ga  Ga116  1  0.123200  0.223120  0.022770  1.0  1.5025
  Ga  Ga117  1  0.123200  0.776880  0.477230  1.0  1.5027
  Ga  Ga118  1  0.623200  0.276880  0.977230  1.0  1.5027
  Ga  Ga119  1  0.376800  0.223120  0.977230  1.0  1.5009
  Ga  Ga120  1  0.876800  0.723120  0.477230  1.0  1.5009
  Ga  Ga121  1  0.123200  0.723120  0.977230  1.0  1.5017
  Ga  Ga122  1  0.623200  0.223120  0.477230  1.0  1.5017
  Ga  Ga123  1  0.376800  0.276880  0.477230  1.0  1.5016
  Ga  Ga124  1  0.876800  0.776880  0.977230  1.0  1.5016
  Ga  Ga125  1  0.876800  0.223120  0.522770  1.0  1.5018
  Ga  Ga126  1  0.376800  0.723120  0.022770  1.0  1.5018
  Ga  Ga127  1  0.623200  0.776880  0.022770  1.0  1.503
  Ga  Ga128  1  0.123200  0.276880  0.522770  1.0  1.503
  P  P129  1  0.160700  0.281350  0.046280  1.0  1.6683
  P  P130  1  0.713200  0.492570  0.205370  1.0  1.5384
  P  P131  1  0.065300  0.442120  0.145760  1.0  1.4446
  P  P132  1  0.939900  0.444630  0.244800  1.0  1.5315
  P  P133  1  0.764800  0.391910  0.083670  1.0  1.5847
  P  P134  1  0.641400  0.386780  0.183720  1.0  1.4756
  P  P135  1  0.277000  0.383980  0.071920  1.0  1.4729
  P  P136  1  0.594400  0.304800  0.028330  1.0  1.4976
  P  P137  1  0.985400  0.336460  0.126330  1.0  1.4701
  P  P138  1  0.471000  0.324940  0.118370  1.0  1.4646
  P  P139  1  0.660700  0.781350  0.546280  1.0  1.6683
  P  P140  1  0.213200  0.992570  0.705370  1.0  1.5384
  P  P141  1  0.565300  0.942120  0.645760  1.0  1.4446
  P  P142  1  0.439900  0.944630  0.744800  1.0  1.5315
  P  P143  1  0.264800  0.891910  0.583670  1.0  1.5847
  P  P144  1  0.141400  0.886780  0.683720  1.0  1.4756
  P  P145  1  0.777000  0.883980  0.571920  1.0  1.4729
  P  P146  1  0.094400  0.804800  0.528330  1.0  1.4976
  P  P147  1  0.485400  0.836460  0.626330  1.0  1.4701
  P  P148  1  0.971000  0.824940  0.618370  1.0  1.4646
  P  P149  1  0.339300  0.718650  0.546280  1.0  1.6691
  P  P150  1  0.786800  0.507430  0.705370  1.0  1.5392
  P  P151  1  0.434700  0.557880  0.645760  1.0  1.4497
  P  P152  1  0.560100  0.555370  0.744800  1.0  1.5349
  P  P153  1  0.735200  0.608090  0.583670  1.0  1.5857
  P  P154  1  0.858600  0.613220  0.683720  1.0  1.4749
  P  P155  1  0.223000  0.616020  0.571920  1.0  1.4723
  P  P156  1  0.905600  0.695200  0.528330  1.0  1.4869
  P  P157  1  0.514600  0.663540  0.626330  1.0  1.4716
  P  P158  1  0.029000  0.675060  0.618370  1.0  1.4617
  P  P159  1  0.839300  0.218650  0.046280  1.0  1.6691
  P  P160  1  0.286800  0.007430  0.205370  1.0  1.5392
  P  P161  1  0.934700  0.057880  0.145760  1.0  1.4497
  P  P162  1  0.060100  0.055370  0.244800  1.0  1.5349
  P  P163  1  0.235200  0.108090  0.083670  1.0  1.5857
  P  P164  1  0.358600  0.113220  0.183720  1.0  1.4749
  P  P165  1  0.723000  0.116020  0.071920  1.0  1.4723
  P  P166  1  0.405600  0.195200  0.028330  1.0  1.4869
  P  P167  1  0.014600  0.163540  0.126330  1.0  1.4716
  P  P168  1  0.529000  0.175060  0.118370  1.0  1.4617
  P  P169  1  0.839300  0.781350  0.453720  1.0  1.6681
  P  P170  1  0.286800  0.992570  0.294630  1.0  1.5397
  P  P171  1  0.934700  0.942120  0.354240  1.0  1.4451
  P  P172  1  0.060100  0.944630  0.255200  1.0  1.5284
  P  P173  1  0.235200  0.891910  0.416330  1.0  1.5863
  P  P174  1  0.358600  0.886780  0.316280  1.0  1.4747
  P  P175  1  0.723000  0.883980  0.428080  1.0  1.4717
  P  P176  1  0.405600  0.804800  0.471670  1.0  1.4914
  P  P177  1  0.014600  0.836460  0.373670  1.0  1.4683
  P  P178  1  0.529000  0.824940  0.381630  1.0  1.465
  P  P179  1  0.339300  0.281350  0.953720  1.0  1.6681
  P  P180  1  0.786800  0.492570  0.794630  1.0  1.5397
  P  P181  1  0.434700  0.442120  0.854240  1.0  1.4451
  P  P182  1  0.560100  0.444630  0.755200  1.0  1.5284
  P  P183  1  0.735200  0.391910  0.916330  1.0  1.5863
  P  P184  1  0.858600  0.386780  0.816280  1.0  1.4747
  P  P185  1  0.223000  0.383980  0.928080  1.0  1.4717
  P  P186  1  0.905600  0.304800  0.971670  1.0  1.4914
  P  P187  1  0.514600  0.336460  0.873670  1.0  1.4683
  P  P188  1  0.029000  0.324940  0.881630  1.0  1.465
  P  P189  1  0.660700  0.218650  0.953720  1.0  1.6683
  P  P190  1  0.213200  0.007430  0.794630  1.0  1.5391
  P  P191  1  0.565300  0.057880  0.854240  1.0  1.4481
  P  P192  1  0.439900  0.055370  0.755200  1.0  1.5353
  P  P193  1  0.264800  0.108090  0.916330  1.0  1.5874
  P  P194  1  0.141400  0.113220  0.816280  1.0  1.4732
  P  P195  1  0.777000  0.116020  0.928080  1.0  1.4704
  P  P196  1  0.094400  0.195200  0.971670  1.0  1.4934
  P  P197  1  0.485400  0.163540  0.873670  1.0  1.47
  P  P198  1  0.971000  0.175060  0.881630  1.0  1.462
  P  P199  1  0.160700  0.718650  0.453720  1.0  1.6683
  P  P200  1  0.713200  0.507430  0.294630  1.0  1.5391
  P  P201  1  0.065300  0.557880  0.354240  1.0  1.4481
  P  P202  1  0.939900  0.555370  0.255200  1.0  1.5353
  P  P203  1  0.764800  0.608090  0.416330  1.0  1.5874
  P  P204  1  0.641400  0.613220  0.316280  1.0  1.4732
  P  P205  1  0.277000  0.616020  0.428080  1.0  1.4704
  P  P206  1  0.594400  0.695200  0.471670  1.0  1.4934
  P  P207  1  0.985400  0.663540  0.373670  1.0  1.47
  P  P208  1  0.471000  0.675060  0.381630  1.0  1.462
  P  P209  1  0.839300  0.718650  0.953720  1.0  1.6687
  P  P210  1  0.286800  0.507430  0.794630  1.0  1.5397
  P  P211  1  0.934700  0.557880  0.854240  1.0  1.4466
  P  P212  1  0.060100  0.555370  0.755200  1.0  1.5339
  P  P213  1  0.235200  0.608090  0.916330  1.0  1.5874
  P  P214  1  0.358600  0.613220  0.816280  1.0  1.4732
  P  P215  1  0.723000  0.616020  0.928080  1.0  1.4704
  P  P216  1  0.405600  0.695200  0.971670  1.0  1.4868
  P  P217  1  0.014600  0.663540  0.873670  1.0  1.4699
  P  P218  1  0.529000  0.675060  0.881630  1.0  1.462
  P  P219  1  0.339300  0.218650  0.453720  1.0  1.6687
  P  P220  1  0.786800  0.007430  0.294630  1.0  1.5397
  P  P221  1  0.434700  0.057880  0.354240  1.0  1.4466
  P  P222  1  0.560100  0.055370  0.255200  1.0  1.5339
  P  P223  1  0.735200  0.108090  0.416330  1.0  1.5874
  P  P224  1  0.858600  0.113220  0.316280  1.0  1.4732
  P  P225  1  0.223000  0.116020  0.428080  1.0  1.4704
  P  P226  1  0.905600  0.195200  0.471670  1.0  1.4868
  P  P227  1  0.514600  0.163540  0.373670  1.0  1.4699
  P  P228  1  0.029000  0.175060  0.381630  1.0  1.462
  P  P229  1  0.660700  0.281350  0.453720  1.0  1.668
  P  P230  1  0.213200  0.492570  0.294630  1.0  1.5391
  P  P231  1  0.565300  0.442120  0.354240  1.0  1.4415
  P  P232  1  0.439900  0.444630  0.255200  1.0  1.5302
  P  P233  1  0.264800  0.391910  0.416330  1.0  1.5862
  P  P234  1  0.141400  0.386780  0.316280  1.0  1.4735
  P  P235  1  0.777000  0.383980  0.428080  1.0  1.4712
  P  P236  1  0.094400  0.304800  0.471670  1.0  1.4976
  P  P237  1  0.485400  0.336460  0.373670  1.0  1.4692
  P  P238  1  0.971000  0.324940  0.381630  1.0  1.4651
  P  P239  1  0.160700  0.781350  0.953720  1.0  1.668
  P  P240  1  0.713200  0.992570  0.794630  1.0  1.5391
  P  P241  1  0.065300  0.942120  0.854240  1.0  1.4415
  P  P242  1  0.939900  0.944630  0.755200  1.0  1.5302
  P  P243  1  0.764800  0.891910  0.916330  1.0  1.5862
  P  P244  1  0.641400  0.886780  0.816280  1.0  1.4735
  P  P245  1  0.277000  0.883980  0.928080  1.0  1.4712
  P  P246  1  0.594400  0.804800  0.971670  1.0  1.4976
  P  P247  1  0.985400  0.836460  0.873670  1.0  1.4692
  P  P248  1  0.471000  0.824940  0.881630  1.0  1.4651
  P  P249  1  0.160700  0.218650  0.546280  1.0  1.6688
  P  P250  1  0.713200  0.007430  0.705370  1.0  1.5385
  P  P251  1  0.065300  0.057880  0.645760  1.0  1.4449
  P  P252  1  0.939900  0.055370  0.744800  1.0  1.5364
  P  P253  1  0.764800  0.108090  0.583670  1.0  1.5858
  P  P254  1  0.641400  0.113220  0.683720  1.0  1.4752
  P  P255  1  0.277000  0.116020  0.571920  1.0  1.4722
  P  P256  1  0.594400  0.195200  0.528330  1.0  1.4935
  P  P257  1  0.985400  0.163540  0.626330  1.0  1.4713
  P  P258  1  0.471000  0.175060  0.618370  1.0  1.4617
  P  P259  1  0.660700  0.718650  0.046280  1.0  1.6688
  P  P260  1  0.213200  0.507430  0.205370  1.0  1.5385
  P  P261  1  0.565300  0.557880  0.145760  1.0  1.4449
  P  P262  1  0.439900  0.555370  0.244800  1.0  1.5364
  P  P263  1  0.264800  0.608090  0.083670  1.0  1.5858
  P  P264  1  0.141400  0.613220  0.183720  1.0  1.4752
  P  P265  1  0.777000  0.616020  0.071920  1.0  1.4722
  P  P266  1  0.094400  0.695200  0.028330  1.0  1.4935
  P  P267  1  0.485400  0.663540  0.126330  1.0  1.4713
  P  P268  1  0.971000  0.675060  0.118370  1.0  1.4617
  P  P269  1  0.339300  0.781350  0.046280  1.0  1.6684
  P  P270  1  0.786800  0.992570  0.205370  1.0  1.5391
  P  P271  1  0.434700  0.942120  0.145760  1.0  1.4422
  P  P272  1  0.560100  0.944630  0.244800  1.0  1.5297
  P  P273  1  0.735200  0.891910  0.083670  1.0  1.5845
  P  P274  1  0.858600  0.886780  0.183720  1.0  1.4764
  P  P275  1  0.223000  0.883980  0.071920  1.0  1.4732
  P  P276  1  0.905600  0.804800  0.028330  1.0  1.4914
  P  P277  1  0.514600  0.836460  0.126330  1.0  1.4697
  P  P278  1  0.029000  0.824940  0.118370  1.0  1.4645
  P  P279  1  0.839300  0.281350  0.546280  1.0  1.6684
  P  P280  1  0.286800  0.492570  0.705370  1.0  1.5391
  P  P281  1  0.934700  0.442120  0.645760  1.0  1.4422
  P  P282  1  0.060100  0.444630  0.744800  1.0  1.5297
  P  P283  1  0.235200  0.391910  0.583670  1.0  1.5845
  P  P284  1  0.358600  0.386780  0.683720  1.0  1.4764
  P  P285  1  0.723000  0.383980  0.571920  1.0  1.4732
  P  P286  1  0.405600  0.304800  0.528330  1.0  1.4914
  P  P287  1  0.014600  0.336460  0.626330  1.0  1.4697
  P  P288  1  0.529000  0.324940  0.618370  1.0  1.4645
  H  H289  1  0.232800  0.290900  0.026000  1.0  -0.129
  H  H290  1  0.662200  0.496900  0.228000  1.0  -0.1484
  H  H291  1  0.126600  0.463800  0.142500  1.0  0.0271
  H  H292  1  0.976100  0.467000  0.248400  1.0  0.0901
  H  H293  1  0.711000  0.417900  0.072900  1.0  -0.0553
  H  H294  1  0.599600  0.358300  0.186600  1.0  -0.0293
  H  H295  1  0.221900  0.396700  0.052900  1.0  -0.0297
  H  H296  1  0.598600  0.284600  0.033200  1.0  0.2481
  H  H297  1  0.984600  0.327600  0.142800  1.0  0.2069
  H  H298  1  0.486300  0.306700  0.133700  1.0  0.0792
  H  H299  1  0.732800  0.790900  0.526000  1.0  -0.129
  H  H300  1  0.162200  0.996900  0.728000  1.0  -0.1484
  H  H301  1  0.626600  0.963800  0.642500  1.0  0.0271
  H  H302  1  0.476100  0.967000  0.748400  1.0  0.0901
  H  H303  1  0.211000  0.917900  0.572900  1.0  -0.0553
  H  H304  1  0.099600  0.858300  0.686600  1.0  -0.0293
  H  H305  1  0.721900  0.896700  0.552900  1.0  -0.0297
  H  H306  1  0.098600  0.784600  0.533200  1.0  0.2481
  H  H307  1  0.484600  0.827600  0.642800  1.0  0.2069
  H  H308  1  0.986300  0.806700  0.633700  1.0  0.0792
  H  H309  1  0.267200  0.709100  0.526000  1.0  -0.1277
  H  H310  1  0.837800  0.503100  0.728000  1.0  -0.1488
  H  H311  1  0.373400  0.536200  0.642500  1.0  0.0266
  H  H312  1  0.523900  0.533000  0.748400  1.0  0.0907
  H  H313  1  0.789000  0.582100  0.572900  1.0  -0.054
  H  H314  1  0.900400  0.641700  0.686600  1.0  -0.0296
  H  H315  1  0.278100  0.603300  0.552900  1.0  -0.028
  H  H316  1  0.901400  0.715400  0.533200  1.0  0.2484
  H  H317  1  0.515400  0.672400  0.642800  1.0  0.2067
  H  H318  1  0.013700  0.693300  0.633700  1.0  0.0811
  H  H319  1  0.767200  0.209100  0.026000  1.0  -0.1277
  H  H320  1  0.337800  0.003100  0.228000  1.0  -0.1488
  H  H321  1  0.873400  0.036200  0.142500  1.0  0.0266
  H  H322  1  0.023900  0.033000  0.248400  1.0  0.0907
  H  H323  1  0.289000  0.082100  0.072900  1.0  -0.0512
  H  H324  1  0.400400  0.141700  0.186600  1.0  -0.0296
  H  H325  1  0.778100  0.103300  0.052900  1.0  -0.0327
  H  H326  1  0.401400  0.215400  0.033200  1.0  0.2484
  H  H327  1  0.015400  0.172400  0.142800  1.0  0.2067
  H  H328  1  0.513700  0.193300  0.133700  1.0  0.0811
  H  H329  1  0.767200  0.790900  0.474000  1.0  -0.1288
  H  H330  1  0.337800  0.996900  0.272000  1.0  -0.146
  H  H331  1  0.873400  0.963800  0.357500  1.0  0.0278
  H  H332  1  0.023900  0.967000  0.251600  1.0  0.0901
  H  H333  1  0.289000  0.917900  0.427100  1.0  -0.0543
  H  H334  1  0.400400  0.858300  0.313400  1.0  -0.0293
  H  H335  1  0.778100  0.896700  0.447100  1.0  -0.0307
  H  H336  1  0.401400  0.784600  0.466800  1.0  0.2471
  H  H337  1  0.015400  0.827600  0.357200  1.0  0.2051
  H  H338  1  0.513700  0.806700  0.366300  1.0  0.081
  H  H339  1  0.267200  0.290900  0.974000  1.0  -0.1288
  H  H340  1  0.837800  0.496900  0.772000  1.0  -0.146
  H  H341  1  0.373400  0.463800  0.857500  1.0  0.0278
  H  H342  1  0.523900  0.467000  0.751600  1.0  0.0901
  H  H343  1  0.789000  0.417900  0.927100  1.0  -0.0543
  H  H344  1  0.900400  0.358300  0.813400  1.0  -0.0293
  H  H345  1  0.278100  0.396700  0.947100  1.0  -0.0307
  H  H346  1  0.901400  0.284600  0.966800  1.0  0.2471
  H  H347  1  0.515400  0.327600  0.857200  1.0  0.2051
  H  H348  1  0.013700  0.306700  0.866300  1.0  0.081
  H  H349  1  0.732800  0.209100  0.974000  1.0  -0.1298
  H  H350  1  0.162200  0.003100  0.772000  1.0  -0.1466
  H  H351  1  0.626600  0.036200  0.857500  1.0  0.0278
  H  H352  1  0.476100  0.033000  0.751600  1.0  0.0913
  H  H353  1  0.211000  0.082100  0.927100  1.0  -0.0518
  H  H354  1  0.099600  0.141700  0.813400  1.0  -0.0303
  H  H355  1  0.721900  0.103300  0.947100  1.0  -0.0358
  H  H356  1  0.098600  0.215400  0.966800  1.0  0.2471
  H  H357  1  0.484600  0.172400  0.857200  1.0  0.2043
  H  H358  1  0.986300  0.193300  0.866300  1.0  0.082
  H  H359  1  0.232800  0.709100  0.474000  1.0  -0.1298
  H  H360  1  0.662200  0.503100  0.272000  1.0  -0.1466
  H  H361  1  0.126600  0.536200  0.357500  1.0  0.0278
  H  H362  1  0.976100  0.533000  0.251600  1.0  0.0913
  H  H363  1  0.711000  0.582100  0.427100  1.0  -0.0553
  H  H364  1  0.599600  0.641700  0.313400  1.0  -0.0303
  H  H365  1  0.221900  0.603300  0.447100  1.0  -0.0315
  H  H366  1  0.598600  0.715400  0.466800  1.0  0.2471
  H  H367  1  0.984600  0.672400  0.357200  1.0  0.2043
  H  H368  1  0.486300  0.693300  0.366300  1.0  0.082
  H  H369  1  0.767200  0.709100  0.974000  1.0  -0.1289
  H  H370  1  0.337800  0.503100  0.772000  1.0  -0.1462
  H  H371  1  0.873400  0.536200  0.857500  1.0  0.0279
  H  H372  1  0.023900  0.533000  0.751600  1.0  0.091
  H  H373  1  0.289000  0.582100  0.927100  1.0  -0.0547
  H  H374  1  0.400400  0.641700  0.813400  1.0  -0.0307
  H  H375  1  0.778100  0.603300  0.947100  1.0  -0.0303
  H  H376  1  0.401400  0.715400  0.966800  1.0  0.2472
  H  H377  1  0.015400  0.672400  0.857200  1.0  0.2039
  H  H378  1  0.513700  0.693300  0.866300  1.0  0.0816
  H  H379  1  0.267200  0.209100  0.474000  1.0  -0.1289
  H  H380  1  0.837800  0.003100  0.272000  1.0  -0.1462
  H  H381  1  0.373400  0.036200  0.357500  1.0  0.0279
  H  H382  1  0.523900  0.033000  0.251600  1.0  0.091
  H  H383  1  0.789000  0.082100  0.427100  1.0  -0.0547
  H  H384  1  0.900400  0.141700  0.313400  1.0  -0.0307
  H  H385  1  0.278100  0.103300  0.447100  1.0  -0.0303
  H  H386  1  0.901400  0.215400  0.466800  1.0  0.2472
  H  H387  1  0.515400  0.172400  0.357200  1.0  0.2039
  H  H388  1  0.013700  0.193300  0.366300  1.0  0.0816
  H  H389  1  0.732800  0.290900  0.474000  1.0  -0.1294
  H  H390  1  0.162200  0.496900  0.272000  1.0  -0.1464
  H  H391  1  0.626600  0.463800  0.357500  1.0  0.0285
  H  H392  1  0.476100  0.467000  0.251600  1.0  0.0903
  H  H393  1  0.211000  0.417900  0.427100  1.0  -0.0545
  H  H394  1  0.099600  0.358300  0.313400  1.0  -0.0291
  H  H395  1  0.721900  0.396700  0.447100  1.0  -0.0319
  H  H396  1  0.098600  0.284600  0.466800  1.0  0.2472
  H  H397  1  0.484600  0.327600  0.357200  1.0  0.2056
  H  H398  1  0.986300  0.306700  0.366300  1.0  0.0813
  H  H399  1  0.232800  0.790900  0.974000  1.0  -0.1294
  H  H400  1  0.662200  0.996900  0.772000  1.0  -0.1464
  H  H401  1  0.126600  0.963800  0.857500  1.0  0.0285
  H  H402  1  0.976100  0.967000  0.751600  1.0  0.0903
  H  H403  1  0.711000  0.917900  0.927100  1.0  -0.0515
  H  H404  1  0.599600  0.858300  0.813400  1.0  -0.0291
  H  H405  1  0.221900  0.896700  0.947100  1.0  -0.036
  H  H406  1  0.598600  0.784600  0.966800  1.0  0.2472
  H  H407  1  0.984600  0.827600  0.857200  1.0  0.2056
  H  H408  1  0.486300  0.806700  0.866300  1.0  0.0813
  H  H409  1  0.232800  0.209100  0.526000  1.0  -0.1287
  H  H410  1  0.662200  0.003100  0.728000  1.0  -0.149
  H  H411  1  0.126600  0.036200  0.642500  1.0  0.027
  H  H412  1  0.976100  0.033000  0.748400  1.0  0.091
  H  H413  1  0.711000  0.082100  0.572900  1.0  -0.0549
  H  H414  1  0.599600  0.141700  0.686600  1.0  -0.0295
  H  H415  1  0.221900  0.103300  0.552900  1.0  -0.0287
  H  H416  1  0.598600  0.215400  0.533200  1.0  0.2477
  H  H417  1  0.984600  0.172400  0.642800  1.0  0.2067
  H  H418  1  0.486300  0.193300  0.633700  1.0  0.0813
  H  H419  1  0.732800  0.709100  0.026000  1.0  -0.1287
  H  H420  1  0.162200  0.503100  0.228000  1.0  -0.149
  H  H421  1  0.626600  0.536200  0.142500  1.0  0.027
  H  H422  1  0.476100  0.533000  0.248400  1.0  0.091
  H  H423  1  0.211000  0.582100  0.072900  1.0  -0.0549
  H  H424  1  0.099600  0.641700  0.186600  1.0  -0.0295
  H  H425  1  0.721900  0.603300  0.052900  1.0  -0.0287
  H  H426  1  0.098600  0.715400  0.033200  1.0  0.2477
  H  H427  1  0.484600  0.672400  0.142800  1.0  0.2067
  H  H428  1  0.986300  0.693300  0.133700  1.0  0.0813
  H  H429  1  0.267200  0.790900  0.026000  1.0  -0.1282
  H  H430  1  0.837800  0.996900  0.228000  1.0  -0.148
  H  H431  1  0.373400  0.963800  0.142500  1.0  0.0269
  H  H432  1  0.523900  0.967000  0.248400  1.0  0.0901
  H  H433  1  0.789000  0.917900  0.072900  1.0  -0.0527
  H  H434  1  0.900400  0.858300  0.186600  1.0  -0.0297
  H  H435  1  0.278100  0.896700  0.052900  1.0  -0.034
  H  H436  1  0.901400  0.784600  0.033200  1.0  0.2484
  H  H437  1  0.515400  0.827600  0.142800  1.0  0.207
  H  H438  1  0.013700  0.806700  0.133700  1.0  0.0791
  H  H439  1  0.767200  0.290900  0.526000  1.0  -0.1282
  H  H440  1  0.337800  0.496900  0.728000  1.0  -0.148
  H  H441  1  0.873400  0.463800  0.642500  1.0  0.0269
  H  H442  1  0.023900  0.467000  0.748400  1.0  0.0901
  H  H443  1  0.289000  0.417900  0.572900  1.0  -0.0547
  H  H444  1  0.400400  0.358300  0.686600  1.0  -0.0297
  H  H445  1  0.778100  0.396700  0.552900  1.0  -0.0294
  H  H446  1  0.401400  0.284600  0.533200  1.0  0.2484
  H  H447  1  0.015400  0.327600  0.642800  1.0  0.207
  H  H448  1  0.513700  0.306700  0.633700  1.0  0.0791
  O  O449  1  0.173700  0.250200  0.046790  1.0  -0.8139
  O  O450  1  0.015600  0.291210  0.044450  1.0  -0.8351
  O  O451  1  0.231200  0.292780  0.068350  1.0  -0.8096
  O  O452  1  0.655000  0.464660  0.198420  1.0  -0.7847
  O  O453  1  0.661700  0.515960  0.189810  1.0  -0.8015
  O  O454  1  0.864000  0.493090  0.205370  1.0  -0.8321
  O  O455  1  0.006400  0.431370  0.122900  1.0  -0.717
  O  O456  1  0.951600  0.450220  0.163040  1.0  -0.7563
  O  O457  1  0.160200  0.422400  0.158050  1.0  -0.7508
  O  O458  1  0.996300  0.426380  0.264580  1.0  -0.7896
  O  O459  1  0.791500  0.443670  0.245550  1.0  -0.7846
  O  O460  1  0.999400  0.438190  0.219850  1.0  -0.7936
  O  O461  1  0.708100  0.392310  0.109560  1.0  -0.7596
  O  O462  1  0.915300  0.394500  0.081880  1.0  -0.7857
  O  O463  1  0.723900  0.366900  0.069620  1.0  -0.7555
  O  O464  1  0.715300  0.398000  0.205290  1.0  -0.732
  O  O465  1  0.743200  0.377600  0.165220  1.0  -0.7641
  O  O466  1  0.542600  0.406790  0.173150  1.0  -0.7967
  O  O467  1  0.425600  0.379970  0.073390  1.0  -0.7958
  O  O468  1  0.225600  0.399420  0.093990  1.0  -0.7876
  O  O469  1  0.199200  0.357590  0.067530  1.0  -0.779
  O  O470  1  0.741600  0.301710  0.036120  1.0  -0.9074
  O  O471  1  0.573900  0.303710  0.001190  1.0  -0.8296
  O  O472  1  0.533400  0.331200  0.037870  1.0  -0.8114
  O  O473  1  0.834900  0.334400  0.128350  1.0  -0.8069
  O  O474  1  0.041800  0.365570  0.129760  1.0  -0.81
  O  O475  1  0.028800  0.322220  0.103180  1.0  -0.793
  O  O476  1  0.521400  0.347500  0.134910  1.0  -0.7936
  O  O477  1  0.548700  0.323000  0.094790  1.0  -0.7563
  O  O478  1  0.322200  0.327150  0.115640  1.0  -0.7884
  O  O479  1  0.673700  0.750200  0.546790  1.0  -0.8139
  O  O480  1  0.515600  0.791210  0.544450  1.0  -0.8351
  O  O481  1  0.731200  0.792780  0.568350  1.0  -0.8096
  O  O482  1  0.155000  0.964660  0.698420  1.0  -0.7847
  O  O483  1  0.161700  0.015960  0.689810  1.0  -0.8015
  O  O484  1  0.364000  0.993090  0.705370  1.0  -0.8321
  O  O485  1  0.506400  0.931370  0.622900  1.0  -0.717
  O  O486  1  0.451600  0.950220  0.663040  1.0  -0.7563
  O  O487  1  0.660200  0.922400  0.658050  1.0  -0.7508
  O  O488  1  0.496300  0.926380  0.764580  1.0  -0.7896
  O  O489  1  0.291500  0.943670  0.745550  1.0  -0.7846
  O  O490  1  0.499400  0.938190  0.719850  1.0  -0.7936
  O  O491  1  0.208100  0.892310  0.609560  1.0  -0.7596
  O  O492  1  0.415300  0.894500  0.581880  1.0  -0.7857
  O  O493  1  0.223900  0.866900  0.569620  1.0  -0.7555
  O  O494  1  0.215300  0.898000  0.705290  1.0  -0.732
  O  O495  1  0.243200  0.877600  0.665220  1.0  -0.7641
  O  O496  1  0.042600  0.906790  0.673150  1.0  -0.7967
  O  O497  1  0.925600  0.879970  0.573390  1.0  -0.7958
  O  O498  1  0.725600  0.899420  0.593990  1.0  -0.7876
  O  O499  1  0.699200  0.857590  0.567530  1.0  -0.779
  O  O500  1  0.241600  0.801710  0.536120  1.0  -0.9074
  O  O501  1  0.073900  0.803710  0.501190  1.0  -0.8296
  O  O502  1  0.033400  0.831200  0.537870  1.0  -0.8114
  O  O503  1  0.334900  0.834400  0.628350  1.0  -0.8069
  O  O504  1  0.541800  0.865570  0.629760  1.0  -0.81
  O  O505  1  0.528800  0.822220  0.603180  1.0  -0.793
  O  O506  1  0.021400  0.847500  0.634910  1.0  -0.7936
  O  O507  1  0.048700  0.823000  0.594790  1.0  -0.7563
  O  O508  1  0.822200  0.827150  0.615640  1.0  -0.7884
  O  O509  1  0.326300  0.749800  0.546790  1.0  -0.8142
  O  O510  1  0.484400  0.708790  0.544450  1.0  -0.8362
  O  O511  1  0.268800  0.707220  0.568350  1.0  -0.8088
  O  O512  1  0.845000  0.535340  0.698420  1.0  -0.7855
  O  O513  1  0.838300  0.484040  0.689810  1.0  -0.8011
  O  O514  1  0.636000  0.506910  0.705370  1.0  -0.833
  O  O515  1  0.493600  0.568630  0.622900  1.0  -0.7177
  O  O516  1  0.548400  0.549780  0.663040  1.0  -0.7567
  O  O517  1  0.339800  0.577600  0.658050  1.0  -0.7504
  O  O518  1  0.503700  0.573620  0.764580  1.0  -0.7904
  O  O519  1  0.708500  0.556330  0.745550  1.0  -0.7862
  O  O520  1  0.500600  0.561810  0.719850  1.0  -0.7959
  O  O521  1  0.791900  0.607690  0.609560  1.0  -0.7595
  O  O522  1  0.584700  0.605500  0.581880  1.0  -0.7856
  O  O523  1  0.776100  0.633100  0.569620  1.0  -0.7561
  O  O524  1  0.784700  0.602000  0.705290  1.0  -0.7294
  O  O525  1  0.756800  0.622400  0.665220  1.0  -0.7635
  O  O526  1  0.957400  0.593210  0.673150  1.0  -0.794
  O  O527  1  0.074400  0.620030  0.573390  1.0  -0.7991
  O  O528  1  0.274400  0.600580  0.593990  1.0  -0.7874
  O  O529  1  0.300800  0.642410  0.567530  1.0  -0.7785
  O  O530  1  0.758400  0.698290  0.536120  1.0  -0.9127
  O  O531  1  0.926100  0.696290  0.501190  1.0  -0.8303
  O  O532  1  0.966600  0.668800  0.537870  1.0  -0.8132
  O  O533  1  0.665100  0.665600  0.628350  1.0  -0.8021
  O  O534  1  0.458200  0.634430  0.629760  1.0  -0.8111
  O  O535  1  0.471200  0.677780  0.603180  1.0  -0.7959
  O  O536  1  0.978600  0.652500  0.634910  1.0  -0.7924
  O  O537  1  0.951300  0.677000  0.594790  1.0  -0.7574
  O  O538  1  0.177800  0.672850  0.615640  1.0  -0.7883
  O  O539  1  0.826300  0.249800  0.046790  1.0  -0.8142
  O  O540  1  0.984400  0.208790  0.044450  1.0  -0.8362
  O  O541  1  0.768800  0.207220  0.068350  1.0  -0.8088
  O  O542  1  0.345000  0.035340  0.198420  1.0  -0.7855
  O  O543  1  0.338300  0.984040  0.189810  1.0  -0.8011
  O  O544  1  0.136000  0.006910  0.205370  1.0  -0.833
  O  O545  1  0.993600  0.068630  0.122900  1.0  -0.7177
  O  O546  1  0.048400  0.049780  0.163040  1.0  -0.7567
  O  O547  1  0.839800  0.077600  0.158050  1.0  -0.7504
  O  O548  1  0.003700  0.073620  0.264580  1.0  -0.7904
  O  O549  1  0.208500  0.056330  0.245550  1.0  -0.7862
  O  O550  1  0.000600  0.061810  0.219850  1.0  -0.7959
  O  O551  1  0.291900  0.107690  0.109560  1.0  -0.7595
  O  O552  1  0.084700  0.105500  0.081880  1.0  -0.7856
  O  O553  1  0.276100  0.133100  0.069620  1.0  -0.7561
  O  O554  1  0.284700  0.102000  0.205290  1.0  -0.7294
  O  O555  1  0.256800  0.122400  0.165220  1.0  -0.7635
  O  O556  1  0.457400  0.093210  0.173150  1.0  -0.794
  O  O557  1  0.574400  0.120030  0.073390  1.0  -0.7991
  O  O558  1  0.774400  0.100580  0.093990  1.0  -0.7874
  O  O559  1  0.800800  0.142410  0.067530  1.0  -0.7785
  O  O560  1  0.258400  0.198290  0.036120  1.0  -0.9127
  O  O561  1  0.426100  0.196290  0.001190  1.0  -0.8303
  O  O562  1  0.466600  0.168800  0.037870  1.0  -0.8132
  O  O563  1  0.165100  0.165600  0.128350  1.0  -0.8021
  O  O564  1  0.958200  0.134430  0.129760  1.0  -0.8111
  O  O565  1  0.971200  0.177780  0.103180  1.0  -0.7959
  O  O566  1  0.478600  0.152500  0.134910  1.0  -0.7924
  O  O567  1  0.451300  0.177000  0.094790  1.0  -0.7574
  O  O568  1  0.677800  0.172850  0.115640  1.0  -0.7883
  O  O569  1  0.826300  0.750200  0.453210  1.0  -0.814
  O  O570  1  0.984400  0.791210  0.455550  1.0  -0.8353
  O  O571  1  0.768800  0.792780  0.431650  1.0  -0.8095
  O  O572  1  0.345000  0.964660  0.301580  1.0  -0.7842
  O  O573  1  0.338300  0.015960  0.310190  1.0  -0.8018
  O  O574  1  0.136000  0.993090  0.294630  1.0  -0.8326
  O  O575  1  0.993600  0.931370  0.377100  1.0  -0.7165
  O  O576  1  0.048400  0.950220  0.336960  1.0  -0.7555
  O  O577  1  0.839800  0.922400  0.341950  1.0  -0.7507
  O  O578  1  0.003700  0.926380  0.235420  1.0  -0.7882
  O  O579  1  0.208500  0.943670  0.254450  1.0  -0.7845
  O  O580  1  0.000600  0.938190  0.280150  1.0  -0.7952
  O  O581  1  0.291900  0.892310  0.390440  1.0  -0.759
  O  O582  1  0.084700  0.894500  0.418120  1.0  -0.7822
  O  O583  1  0.276100  0.866900  0.430380  1.0  -0.7553
  O  O584  1  0.284700  0.898000  0.294710  1.0  -0.7312
  O  O585  1  0.256800  0.877600  0.334780  1.0  -0.7656
  O  O586  1  0.457400  0.906790  0.326850  1.0  -0.7951
  O  O587  1  0.574400  0.879970  0.426610  1.0  -0.7961
  O  O588  1  0.774400  0.899420  0.406010  1.0  -0.7902
  O  O589  1  0.800800  0.857590  0.432470  1.0  -0.7781
  O  O590  1  0.258400  0.801710  0.463880  1.0  -0.9131
  O  O591  1  0.426100  0.803710  0.498810  1.0  -0.8307
  O  O592  1  0.466600  0.831200  0.462130  1.0  -0.8132
  O  O593  1  0.165100  0.834400  0.371650  1.0  -0.8038
  O  O594  1  0.958200  0.865570  0.370240  1.0  -0.8104
  O  O595  1  0.971200  0.822220  0.396820  1.0  -0.795
  O  O596  1  0.478600  0.847500  0.365090  1.0  -0.7934
  O  O597  1  0.451300  0.823000  0.405210  1.0  -0.7554
  O  O598  1  0.677800  0.827150  0.384360  1.0  -0.7871
  O  O599  1  0.326300  0.250200  0.953210  1.0  -0.814
  O  O600  1  0.484400  0.291210  0.955550  1.0  -0.8353
  O  O601  1  0.268800  0.292780  0.931650  1.0  -0.8095
  O  O602  1  0.845000  0.464660  0.801580  1.0  -0.7842
  O  O603  1  0.838300  0.515960  0.810190  1.0  -0.8018
  O  O604  1  0.636000  0.493090  0.794630  1.0  -0.8326
  O  O605  1  0.493600  0.431370  0.877100  1.0  -0.7165
  O  O606  1  0.548400  0.450220  0.836960  1.0  -0.7555
  O  O607  1  0.339800  0.422400  0.841950  1.0  -0.7507
  O  O608  1  0.503700  0.426380  0.735420  1.0  -0.7882
  O  O609  1  0.708500  0.443670  0.754450  1.0  -0.7845
  O  O610  1  0.500600  0.438190  0.780150  1.0  -0.7952
  O  O611  1  0.791900  0.392310  0.890440  1.0  -0.759
  O  O612  1  0.584700  0.394500  0.918120  1.0  -0.7822
  O  O613  1  0.776100  0.366900  0.930380  1.0  -0.7553
  O  O614  1  0.784700  0.398000  0.794710  1.0  -0.7312
  O  O615  1  0.756800  0.377600  0.834780  1.0  -0.7656
  O  O616  1  0.957400  0.406790  0.826850  1.0  -0.7951
  O  O617  1  0.074400  0.379970  0.926610  1.0  -0.7961
  O  O618  1  0.274400  0.399420  0.906010  1.0  -0.7902
  O  O619  1  0.300800  0.357590  0.932470  1.0  -0.7781
  O  O620  1  0.758400  0.301710  0.963880  1.0  -0.9131
  O  O621  1  0.926100  0.303710  0.998810  1.0  -0.8307
  O  O622  1  0.966600  0.331200  0.962130  1.0  -0.8132
  O  O623  1  0.665100  0.334400  0.871650  1.0  -0.8038
  O  O624  1  0.458200  0.365570  0.870240  1.0  -0.8104
  O  O625  1  0.471200  0.322220  0.896820  1.0  -0.795
  O  O626  1  0.978600  0.347500  0.865090  1.0  -0.7934
  O  O627  1  0.951300  0.323000  0.905210  1.0  -0.7554
  O  O628  1  0.177800  0.327150  0.884360  1.0  -0.7871
  O  O629  1  0.673700  0.249800  0.953210  1.0  -0.8137
  O  O630  1  0.515600  0.208790  0.955550  1.0  -0.8362
  O  O631  1  0.731200  0.207220  0.931650  1.0  -0.8103
  O  O632  1  0.155000  0.035340  0.801580  1.0  -0.7843
  O  O633  1  0.161700  0.984040  0.810190  1.0  -0.8011
  O  O634  1  0.364000  0.006910  0.794630  1.0  -0.8328
  O  O635  1  0.506400  0.068630  0.877100  1.0  -0.7174
  O  O636  1  0.451600  0.049780  0.836960  1.0  -0.7539
  O  O637  1  0.660200  0.077600  0.841950  1.0  -0.748
  O  O638  1  0.496300  0.073620  0.735420  1.0  -0.7929
  O  O639  1  0.291500  0.056330  0.754450  1.0  -0.7849
  O  O640  1  0.499400  0.061810  0.780150  1.0  -0.7953
  O  O641  1  0.208100  0.107690  0.890440  1.0  -0.7598
  O  O642  1  0.415300  0.105500  0.918120  1.0  -0.783
  O  O643  1  0.223900  0.133100  0.930380  1.0  -0.754
  O  O644  1  0.215300  0.102000  0.794710  1.0  -0.7303
  O  O645  1  0.243200  0.122400  0.834780  1.0  -0.7668
  O  O646  1  0.042600  0.093210  0.826850  1.0  -0.7963
  O  O647  1  0.925600  0.120030  0.926610  1.0  -0.7969
  O  O648  1  0.725600  0.100580  0.906010  1.0  -0.7858
  O  O649  1  0.699200  0.142410  0.932470  1.0  -0.7777
  O  O650  1  0.241600  0.198290  0.963880  1.0  -0.9079
  O  O651  1  0.073900  0.196290  0.998810  1.0  -0.8317
  O  O652  1  0.033400  0.168800  0.962130  1.0  -0.8135
  O  O653  1  0.334900  0.165600  0.871650  1.0  -0.8043
  O  O654  1  0.541800  0.134430  0.870240  1.0  -0.8112
  O  O655  1  0.528800  0.177780  0.896820  1.0  -0.7956
  O  O656  1  0.021400  0.152500  0.865090  1.0  -0.7935
  O  O657  1  0.048700  0.177000  0.905210  1.0  -0.7571
  O  O658  1  0.822200  0.172850  0.884360  1.0  -0.7891
  O  O659  1  0.173700  0.749800  0.453210  1.0  -0.8137
  O  O660  1  0.015600  0.708790  0.455550  1.0  -0.8362
  O  O661  1  0.231200  0.707220  0.431650  1.0  -0.8103
  O  O662  1  0.655000  0.535340  0.301580  1.0  -0.7843
  O  O663  1  0.661700  0.484040  0.310190  1.0  -0.8011
  O  O664  1  0.864000  0.506910  0.294630  1.0  -0.8328
  O  O665  1  0.006400  0.568630  0.377100  1.0  -0.7174
  O  O666  1  0.951600  0.549780  0.336960  1.0  -0.7539
  O  O667  1  0.160200  0.577600  0.341950  1.0  -0.748
  O  O668  1  0.996300  0.573620  0.235420  1.0  -0.7929
  O  O669  1  0.791500  0.556330  0.254450  1.0  -0.7849
  O  O670  1  0.999400  0.561810  0.280150  1.0  -0.7953
  O  O671  1  0.708100  0.607690  0.390440  1.0  -0.7598
  O  O672  1  0.915300  0.605500  0.418120  1.0  -0.783
  O  O673  1  0.723900  0.633100  0.430380  1.0  -0.754
  O  O674  1  0.715300  0.602000  0.294710  1.0  -0.7303
  O  O675  1  0.743200  0.622400  0.334780  1.0  -0.7668
  O  O676  1  0.542600  0.593210  0.326850  1.0  -0.7963
  O  O677  1  0.425600  0.620030  0.426610  1.0  -0.7969
  O  O678  1  0.225600  0.600580  0.406010  1.0  -0.7858
  O  O679  1  0.199200  0.642410  0.432470  1.0  -0.7777
  O  O680  1  0.741600  0.698290  0.463880  1.0  -0.9079
  O  O681  1  0.573900  0.696290  0.498810  1.0  -0.8317
  O  O682  1  0.533400  0.668800  0.462130  1.0  -0.8135
  O  O683  1  0.834900  0.665600  0.371650  1.0  -0.8043
  O  O684  1  0.041800  0.634430  0.370240  1.0  -0.8112
  O  O685  1  0.028800  0.677780  0.396820  1.0  -0.7956
  O  O686  1  0.521400  0.652500  0.365090  1.0  -0.7935
  O  O687  1  0.548700  0.677000  0.405210  1.0  -0.7571
  O  O688  1  0.322200  0.672850  0.384360  1.0  -0.7891
  O  O689  1  0.826300  0.749800  0.953210  1.0  -0.8135
  O  O690  1  0.984400  0.708790  0.955550  1.0  -0.8357
  O  O691  1  0.768800  0.707220  0.931650  1.0  -0.8096
  O  O692  1  0.345000  0.535340  0.801580  1.0  -0.7838
  O  O693  1  0.338300  0.484040  0.810190  1.0  -0.8017
  O  O694  1  0.136000  0.506910  0.794630  1.0  -0.8323
  O  O695  1  0.993600  0.568630  0.877100  1.0  -0.7176
  O  O696  1  0.048400  0.549780  0.836960  1.0  -0.7551
  O  O697  1  0.839800  0.577600  0.841950  1.0  -0.7488
  O  O698  1  0.003700  0.573620  0.735420  1.0  -0.7919
  O  O699  1  0.208500  0.556330  0.754450  1.0  -0.7851
  O  O700  1  0.000600  0.561810  0.780150  1.0  -0.7963
  O  O701  1  0.291900  0.607690  0.890440  1.0  -0.7591
  O  O702  1  0.084700  0.605500  0.918120  1.0  -0.7831
  O  O703  1  0.276100  0.633100  0.930380  1.0  -0.7551
  O  O704  1  0.284700  0.602000  0.794710  1.0  -0.7297
  O  O705  1  0.256800  0.622400  0.834780  1.0  -0.7658
  O  O706  1  0.457400  0.593210  0.826850  1.0  -0.7946
  O  O707  1  0.574400  0.620030  0.926610  1.0  -0.798
  O  O708  1  0.774400  0.600580  0.906010  1.0  -0.7861
  O  O709  1  0.800800  0.642410  0.932470  1.0  -0.7775
  O  O710  1  0.258400  0.698290  0.963880  1.0  -0.913
  O  O711  1  0.426100  0.696290  0.998810  1.0  -0.8318
  O  O712  1  0.466600  0.668800  0.962130  1.0  -0.8139
  O  O713  1  0.165100  0.665600  0.871650  1.0  -0.8018
  O  O714  1  0.958200  0.634430  0.870240  1.0  -0.8109
  O  O715  1  0.971200  0.677780  0.896820  1.0  -0.7962
  O  O716  1  0.478600  0.652500  0.865090  1.0  -0.7933
  O  O717  1  0.451300  0.677000  0.905210  1.0  -0.7568
  O  O718  1  0.677800  0.672850  0.884360  1.0  -0.7879
  O  O719  1  0.326300  0.249800  0.453210  1.0  -0.8135
  O  O720  1  0.484400  0.208790  0.455550  1.0  -0.8357
  O  O721  1  0.268800  0.207220  0.431650  1.0  -0.8096
  O  O722  1  0.845000  0.035340  0.301580  1.0  -0.7838
  O  O723  1  0.838300  0.984040  0.310190  1.0  -0.8017
  O  O724  1  0.636000  0.006910  0.294630  1.0  -0.8323
  O  O725  1  0.493600  0.068630  0.377100  1.0  -0.7176
  O  O726  1  0.548400  0.049780  0.336960  1.0  -0.7551
  O  O727  1  0.339800  0.077600  0.341950  1.0  -0.7488
  O  O728  1  0.503700  0.073620  0.235420  1.0  -0.7919
  O  O729  1  0.708500  0.056330  0.254450  1.0  -0.7851
  O  O730  1  0.500600  0.061810  0.280150  1.0  -0.7963
  O  O731  1  0.791900  0.107690  0.390440  1.0  -0.7591
  O  O732  1  0.584700  0.105500  0.418120  1.0  -0.7831
  O  O733  1  0.776100  0.133100  0.430380  1.0  -0.7551
  O  O734  1  0.784700  0.102000  0.294710  1.0  -0.7297
  O  O735  1  0.756800  0.122400  0.334780  1.0  -0.7658
  O  O736  1  0.957400  0.093210  0.326850  1.0  -0.7946
  O  O737  1  0.074400  0.120030  0.426610  1.0  -0.798
  O  O738  1  0.274400  0.100580  0.406010  1.0  -0.7861
  O  O739  1  0.300800  0.142410  0.432470  1.0  -0.7775
  O  O740  1  0.758400  0.198290  0.463880  1.0  -0.913
  O  O741  1  0.926100  0.196290  0.498810  1.0  -0.8318
  O  O742  1  0.966600  0.168800  0.462130  1.0  -0.8139
  O  O743  1  0.665100  0.165600  0.371650  1.0  -0.8018
  O  O744  1  0.458200  0.134430  0.370240  1.0  -0.8109
  O  O745  1  0.471200  0.177780  0.396820  1.0  -0.7962
  O  O746  1  0.978600  0.152500  0.365090  1.0  -0.7933
  O  O747  1  0.951300  0.177000  0.405210  1.0  -0.7568
  O  O748  1  0.177800  0.172850  0.384360  1.0  -0.7879
  O  O749  1  0.673700  0.250200  0.453210  1.0  -0.8144
  O  O750  1  0.515600  0.291210  0.455550  1.0  -0.836
  O  O751  1  0.731200  0.292780  0.431650  1.0  -0.8102
  O  O752  1  0.155000  0.464660  0.301580  1.0  -0.7847
  O  O753  1  0.161700  0.515960  0.310190  1.0  -0.8013
  O  O754  1  0.364000  0.493090  0.294630  1.0  -0.8323
  O  O755  1  0.506400  0.431370  0.377100  1.0  -0.717
  O  O756  1  0.451600  0.450220  0.336960  1.0  -0.7542
  O  O757  1  0.660200  0.422400  0.341950  1.0  -0.7501
  O  O758  1  0.496300  0.426380  0.235420  1.0  -0.7889
  O  O759  1  0.291500  0.443670  0.254450  1.0  -0.785
  O  O760  1  0.499400  0.438190  0.280150  1.0  -0.7946
  O  O761  1  0.208100  0.392310  0.390440  1.0  -0.7597
  O  O762  1  0.415300  0.394500  0.418120  1.0  -0.7825
  O  O763  1  0.223900  0.366900  0.430380  1.0  -0.7544
  O  O764  1  0.215300  0.398000  0.294710  1.0  -0.7321
  O  O765  1  0.243200  0.377600  0.334780  1.0  -0.7664
  O  O766  1  0.042600  0.406790  0.326850  1.0  -0.797
  O  O767  1  0.925600  0.379970  0.426610  1.0  -0.7945
  O  O768  1  0.725600  0.399420  0.406010  1.0  -0.7897
  O  O769  1  0.699200  0.357590  0.432470  1.0  -0.7777
  O  O770  1  0.241600  0.301710  0.463880  1.0  -0.908
  O  O771  1  0.073900  0.303710  0.498810  1.0  -0.8305
  O  O772  1  0.033400  0.331200  0.462130  1.0  -0.812
  O  O773  1  0.334900  0.334400  0.371650  1.0  -0.8063
  O  O774  1  0.541800  0.365570  0.370240  1.0  -0.8108
  O  O775  1  0.528800  0.322220  0.396820  1.0  -0.7946
  O  O776  1  0.021400  0.347500  0.365090  1.0  -0.7941
  O  O777  1  0.048700  0.323000  0.405210  1.0  -0.7562
  O  O778  1  0.822200  0.327150  0.384360  1.0  -0.7884
  O  O779  1  0.173700  0.750200  0.953210  1.0  -0.8144
  O  O780  1  0.015600  0.791210  0.955550  1.0  -0.836
  O  O781  1  0.231200  0.792780  0.931650  1.0  -0.8102
  O  O782  1  0.655000  0.964660  0.801580  1.0  -0.7847
  O  O783  1  0.661700  0.015960  0.810190  1.0  -0.8013
  O  O784  1  0.864000  0.993090  0.794630  1.0  -0.8323
  O  O785  1  0.006400  0.931370  0.877100  1.0  -0.717
  O  O786  1  0.951600  0.950220  0.836960  1.0  -0.7542
  O  O787  1  0.160200  0.922400  0.841950  1.0  -0.7501
  O  O788  1  0.996300  0.926380  0.735420  1.0  -0.7889
  O  O789  1  0.791500  0.943670  0.754450  1.0  -0.785
  O  O790  1  0.999400  0.938190  0.780150  1.0  -0.7946
  O  O791  1  0.708100  0.892310  0.890440  1.0  -0.7597
  O  O792  1  0.915300  0.894500  0.918120  1.0  -0.7825
  O  O793  1  0.723900  0.866900  0.930380  1.0  -0.7544
  O  O794  1  0.715300  0.898000  0.794710  1.0  -0.7321
  O  O795  1  0.743200  0.877600  0.834780  1.0  -0.7664
  O  O796  1  0.542600  0.906790  0.826850  1.0  -0.797
  O  O797  1  0.425600  0.879970  0.926610  1.0  -0.7945
  O  O798  1  0.225600  0.899420  0.906010  1.0  -0.7897
  O  O799  1  0.199200  0.857590  0.932470  1.0  -0.7777
  O  O800  1  0.741600  0.801710  0.963880  1.0  -0.908
  O  O801  1  0.573900  0.803710  0.998810  1.0  -0.8305
  O  O802  1  0.533400  0.831200  0.962130  1.0  -0.812
  O  O803  1  0.834900  0.834400  0.871650  1.0  -0.8063
  O  O804  1  0.041800  0.865570  0.870240  1.0  -0.8108
  O  O805  1  0.028800  0.822220  0.896820  1.0  -0.7946
  O  O806  1  0.521400  0.847500  0.865090  1.0  -0.7941
  O  O807  1  0.548700  0.823000  0.905210  1.0  -0.7562
  O  O808  1  0.322200  0.827150  0.884360  1.0  -0.7884
  O  O809  1  0.173700  0.249800  0.546790  1.0  -0.8132
  O  O810  1  0.015600  0.208790  0.544450  1.0  -0.8361
  O  O811  1  0.231200  0.207220  0.568350  1.0  -0.8097
  O  O812  1  0.655000  0.035340  0.698420  1.0  -0.784
  O  O813  1  0.661700  0.984040  0.689810  1.0  -0.8014
  O  O814  1  0.864000  0.006910  0.705370  1.0  -0.8323
  O  O815  1  0.006400  0.068630  0.622900  1.0  -0.7171
  O  O816  1  0.951600  0.049780  0.663040  1.0  -0.756
  O  O817  1  0.160200  0.077600  0.658050  1.0  -0.7498
  O  O818  1  0.996300  0.073620  0.764580  1.0  -0.7914
  O  O819  1  0.791500  0.056330  0.745550  1.0  -0.7854
  O  O820  1  0.999400  0.061810  0.719850  1.0  -0.7954
  O  O821  1  0.708100  0.107690  0.609560  1.0  -0.7601
  O  O822  1  0.915300  0.105500  0.581880  1.0  -0.7853
  O  O823  1  0.723900  0.133100  0.569620  1.0  -0.755
  O  O824  1  0.715300  0.102000  0.705290  1.0  -0.7302
  O  O825  1  0.743200  0.122400  0.665220  1.0  -0.7645
  O  O826  1  0.542600  0.093210  0.673150  1.0  -0.796
  O  O827  1  0.425600  0.120030  0.573390  1.0  -0.7976
  O  O828  1  0.225600  0.100580  0.593990  1.0  -0.7871
  O  O829  1  0.199200  0.142410  0.567530  1.0  -0.7786
  O  O830  1  0.741600  0.198290  0.536120  1.0  -0.9081
  O  O831  1  0.573900  0.196290  0.501190  1.0  -0.8298
  O  O832  1  0.533400  0.168800  0.537870  1.0  -0.8131
  O  O833  1  0.834900  0.165600  0.628350  1.0  -0.805
  O  O834  1  0.041800  0.134430  0.629760  1.0  -0.8105
  O  O835  1  0.028800  0.177780  0.603180  1.0  -0.7956
  O  O836  1  0.521400  0.152500  0.634910  1.0  -0.7932
  O  O837  1  0.548700  0.177000  0.594790  1.0  -0.7578
  O  O838  1  0.322200  0.172850  0.615640  1.0  -0.7894
  O  O839  1  0.673700  0.749800  0.046790  1.0  -0.8132
  O  O840  1  0.515600  0.708790  0.044450  1.0  -0.8361
  O  O841  1  0.731200  0.707220  0.068350  1.0  -0.8097
  O  O842  1  0.155000  0.535340  0.198420  1.0  -0.784
  O  O843  1  0.161700  0.484040  0.189810  1.0  -0.8014
  O  O844  1  0.364000  0.506910  0.205370  1.0  -0.8323
  O  O845  1  0.506400  0.568630  0.122900  1.0  -0.7171
  O  O846  1  0.451600  0.549780  0.163040  1.0  -0.756
  O  O847  1  0.660200  0.577600  0.158050  1.0  -0.7498
  O  O848  1  0.496300  0.573620  0.264580  1.0  -0.7914
  O  O849  1  0.291500  0.556330  0.245550  1.0  -0.7854
  O  O850  1  0.499400  0.561810  0.219850  1.0  -0.7954
  O  O851  1  0.208100  0.607690  0.109560  1.0  -0.7601
  O  O852  1  0.415300  0.605500  0.081880  1.0  -0.7853
  O  O853  1  0.223900  0.633100  0.069620  1.0  -0.755
  O  O854  1  0.215300  0.602000  0.205290  1.0  -0.7302
  O  O855  1  0.243200  0.622400  0.165220  1.0  -0.7645
  O  O856  1  0.042600  0.593210  0.173150  1.0  -0.796
  O  O857  1  0.925600  0.620030  0.073390  1.0  -0.7976
  O  O858  1  0.725600  0.600580  0.093990  1.0  -0.7871
  O  O859  1  0.699200  0.642410  0.067530  1.0  -0.7786
  O  O860  1  0.241600  0.698290  0.036120  1.0  -0.9081
  O  O861  1  0.073900  0.696290  0.001190  1.0  -0.8298
  O  O862  1  0.033400  0.668800  0.037870  1.0  -0.8131
  O  O863  1  0.334900  0.665600  0.128350  1.0  -0.805
  O  O864  1  0.541800  0.634430  0.129760  1.0  -0.8105
  O  O865  1  0.528800  0.677780  0.103180  1.0  -0.7956
  O  O866  1  0.021400  0.652500  0.134910  1.0  -0.7932
  O  O867  1  0.048700  0.677000  0.094790  1.0  -0.7578
  O  O868  1  0.822200  0.672850  0.115640  1.0  -0.7894
  O  O869  1  0.326300  0.750200  0.046790  1.0  -0.8147
  O  O870  1  0.484400  0.791210  0.044450  1.0  -0.8346
  O  O871  1  0.268800  0.792780  0.068350  1.0  -0.8085
  O  O872  1  0.845000  0.964660  0.198420  1.0  -0.7857
  O  O873  1  0.838300  0.015960  0.189810  1.0  -0.8011
  O  O874  1  0.636000  0.993090  0.205370  1.0  -0.8324
  O  O875  1  0.493600  0.931370  0.122900  1.0  -0.717
  O  O876  1  0.548400  0.950220  0.163040  1.0  -0.7572
  O  O877  1  0.339800  0.922400  0.158050  1.0  -0.7513
  O  O878  1  0.503700  0.926380  0.264580  1.0  -0.7892
  O  O879  1  0.708500  0.943670  0.245550  1.0  -0.7847
  O  O880  1  0.500600  0.938190  0.219850  1.0  -0.7939
  O  O881  1  0.791900  0.892310  0.109560  1.0  -0.759
  O  O882  1  0.584700  0.894500  0.081880  1.0  -0.7857
  O  O883  1  0.776100  0.866900  0.069620  1.0  -0.7565
  O  O884  1  0.784700  0.898000  0.205290  1.0  -0.7307
  O  O885  1  0.756800  0.877600  0.165220  1.0  -0.7633
  O  O886  1  0.957400  0.906790  0.173150  1.0  -0.7947
  O  O887  1  0.074400  0.879970  0.073390  1.0  -0.7974
  O  O888  1  0.274400  0.899420  0.093990  1.0  -0.7882
  O  O889  1  0.300800  0.857590  0.067530  1.0  -0.7798
  O  O890  1  0.758400  0.801710  0.036120  1.0  -0.9127
  O  O891  1  0.926100  0.803710  0.001190  1.0  -0.8302
  O  O892  1  0.966600  0.831200  0.037870  1.0  -0.8122
  O  O893  1  0.665100  0.834400  0.128350  1.0  -0.8041
  O  O894  1  0.458200  0.865570  0.129760  1.0  -0.8105
  O  O895  1  0.471200  0.822220  0.103180  1.0  -0.7932
  O  O896  1  0.978600  0.847500  0.134910  1.0  -0.7926
  O  O897  1  0.951300  0.823000  0.094790  1.0  -0.7553
  O  O898  1  0.177800  0.827150  0.115640  1.0  -0.7874
  O  O899  1  0.826300  0.250200  0.546790  1.0  -0.8147
  O  O900  1  0.984400  0.291210  0.544450  1.0  -0.8346
  O  O901  1  0.768800  0.292780  0.568350  1.0  -0.8085
  O  O902  1  0.345000  0.464660  0.698420  1.0  -0.7857
  O  O903  1  0.338300  0.515960  0.689810  1.0  -0.8011
  O  O904  1  0.136000  0.493090  0.705370  1.0  -0.8324
  O  O905  1  0.993600  0.431370  0.622900  1.0  -0.717
  O  O906  1  0.048400  0.450220  0.663040  1.0  -0.7572
  O  O907  1  0.839800  0.422400  0.658050  1.0  -0.7513
  O  O908  1  0.003700  0.426380  0.764580  1.0  -0.7892
  O  O909  1  0.208500  0.443670  0.745550  1.0  -0.7847
  O  O910  1  0.000600  0.438190  0.719850  1.0  -0.7939
  O  O911  1  0.291900  0.392310  0.609560  1.0  -0.759
  O  O912  1  0.084700  0.394500  0.581880  1.0  -0.7857
  O  O913  1  0.276100  0.366900  0.569620  1.0  -0.7565
  O  O914  1  0.284700  0.398000  0.705290  1.0  -0.7307
  O  O915  1  0.256800  0.377600  0.665220  1.0  -0.7633
  O  O916  1  0.457400  0.406790  0.673150  1.0  -0.7947
  O  O917  1  0.574400  0.379970  0.573390  1.0  -0.7974
  O  O918  1  0.774400  0.399420  0.593990  1.0  -0.7882
  O  O919  1  0.800800  0.357590  0.567530  1.0  -0.7798
  O  O920  1  0.258400  0.301710  0.536120  1.0  -0.9127
  O  O921  1  0.426100  0.303710  0.501190  1.0  -0.8302
  O  O922  1  0.466600  0.331200  0.537870  1.0  -0.8122
  O  O923  1  0.165100  0.334400  0.628350  1.0  -0.8041
  O  O924  1  0.958200  0.365570  0.629760  1.0  -0.8105
  O  O925  1  0.971200  0.322220  0.603180  1.0  -0.7932
  O  O926  1  0.478600  0.347500  0.634910  1.0  -0.7926
  O  O927  1  0.451300  0.323000  0.594790  1.0  -0.7553
  O  O928  1  0.677800  0.327150  0.615640  1.0  -0.7874
  F  F929  1  0.750000  0.261050  0.000000  1.0  -0.6912
  F  F930  1  0.750000  0.738950  0.500000  1.0  -0.6918
  F  F931  1  0.250000  0.761050  0.500000  1.0  -0.6912
  F  F932  1  0.250000  0.238950  0.000000  1.0  -0.6918
  F  F933  1  0.250000  0.738950  0.000000  1.0  -0.6918
  F  F934  1  0.250000  0.261050  0.500000  1.0  -0.6912
  F  F935  1  0.750000  0.238950  0.500000  1.0  -0.6918
  F  F936  1  0.750000  0.761050  0.000000  1.0  -0.6912
  F  F937  1  0.000000  0.250000  0.008840  1.0  -0.6128
  F  F938  1  0.500000  0.750000  0.508840  1.0  -0.6128
  F  F939  1  0.000000  0.750000  0.491160  1.0  -0.6119
  F  F940  1  0.500000  0.250000  0.991160  1.0  -0.6119
  F  F941  1  0.000000  0.750000  0.991160  1.0  -0.6119
  F  F942  1  0.500000  0.250000  0.491160  1.0  -0.6119
  F  F943  1  0.000000  0.250000  0.508840  1.0  -0.6128
  F  F944  1  0.500000  0.750000  0.008840  1.0  -0.6128
