# generated using pymatgen
data_Na3Cu6H21C36(N3O16)2
_symmetry_space_group_name_H-M   'P 1'
_cell_length_a   24.39840000
_cell_length_b   24.39840000
_cell_length_c   24.39840000
_cell_angle_alpha   90.00000000
_cell_angle_beta   90.00000000
_cell_angle_gamma   90.00000000
_symmetry_Int_Tables_number   1
_chemical_formula_structural   Na3Cu6H21C36(N3O16)2
_chemical_formula_sum   'Na24 Cu48 H168 C288 N48 O256'
_cell_volume   14523.92645939
_cell_formula_units_Z   8
loop_
 _symmetry_equiv_pos_site_id
 _symmetry_equiv_pos_as_xyz
  1  'x, y, z'
loop_
 _atom_site_type_symbol
 _atom_site_label
 _atom_site_symmetry_multiplicity
 _atom_site_fract_x
 _atom_site_fract_y
 _atom_site_fract_z
 _atom_site_occupancy
 _atom_site_charge
  Na  Na1  1  0.924400  0.077200  0.661600  1.0  0.9578
  Na  Na2  1  0.575600  0.922800  0.161600  1.0  0.9594
  Na  Na3  1  0.075600  0.577200  0.838400  1.0  0.9598
  Na  Na4  1  0.424400  0.422800  0.338400  1.0  0.9572
  Na  Na5  1  0.661600  0.924400  0.077200  1.0  0.9605
  Na  Na6  1  0.161600  0.575600  0.922800  1.0  0.9612
  Na  Na7  1  0.838400  0.075600  0.577200  1.0  0.9604
  Na  Na8  1  0.338400  0.424400  0.422800  1.0  0.9591
  Na  Na9  1  0.077200  0.661600  0.924400  1.0  0.9621
  Na  Na10  1  0.922800  0.161600  0.575600  1.0  0.961
  Na  Na11  1  0.577200  0.838400  0.075600  1.0  0.9614
  Na  Na12  1  0.422800  0.338400  0.424400  1.0  0.9605
  Na  Na13  1  0.075600  0.922800  0.338400  1.0  0.9594
  Na  Na14  1  0.424400  0.077200  0.838400  1.0  0.9571
  Na  Na15  1  0.924400  0.422800  0.161600  1.0  0.9576
  Na  Na16  1  0.575600  0.577200  0.661600  1.0  0.9597
  Na  Na17  1  0.338400  0.075600  0.922800  1.0  0.96
  Na  Na18  1  0.838400  0.424400  0.077200  1.0  0.9595
  Na  Na19  1  0.161600  0.924400  0.422800  1.0  0.9601
  Na  Na20  1  0.661600  0.575600  0.577200  1.0  0.9615
  Na  Na21  1  0.922800  0.338400  0.075600  1.0  0.9605
  Na  Na22  1  0.077200  0.838400  0.424400  1.0  0.9614
  Na  Na23  1  0.422800  0.161600  0.924400  1.0  0.9614
  Na  Na24  1  0.577200  0.661600  0.575600  1.0  0.9619
  Cu  Cu25  1  0.781690  0.109230  0.064710  1.0  1.0122
  Cu  Cu26  1  0.008030  0.152650  0.802540  1.0  1.0141
  Cu  Cu27  1  0.718310  0.890770  0.564710  1.0  1.011
  Cu  Cu28  1  0.491970  0.847350  0.302540  1.0  1.0146
  Cu  Cu29  1  0.218310  0.609230  0.435290  1.0  1.0118
  Cu  Cu30  1  0.991970  0.652650  0.697460  1.0  1.0145
  Cu  Cu31  1  0.281690  0.390770  0.935290  1.0  1.0114
  Cu  Cu32  1  0.508030  0.347350  0.197460  1.0  1.0141
  Cu  Cu33  1  0.064710  0.781690  0.109230  1.0  1.014
  Cu  Cu34  1  0.802540  0.008030  0.152650  1.0  1.0128
  Cu  Cu35  1  0.564710  0.718310  0.890770  1.0  1.0148
  Cu  Cu36  1  0.302540  0.491970  0.847350  1.0  1.0138
  Cu  Cu37  1  0.435290  0.218310  0.609230  1.0  1.0129
  Cu  Cu38  1  0.697460  0.991970  0.652650  1.0  1.0139
  Cu  Cu39  1  0.935290  0.281690  0.390770  1.0  1.0153
  Cu  Cu40  1  0.197460  0.508030  0.347350  1.0  1.0134
  Cu  Cu41  1  0.109230  0.064710  0.781690  1.0  1.0166
  Cu  Cu42  1  0.152650  0.802540  0.008030  1.0  1.0143
  Cu  Cu43  1  0.890770  0.564710  0.718310  1.0  1.0162
  Cu  Cu44  1  0.847350  0.302540  0.491970  1.0  1.0153
  Cu  Cu45  1  0.609230  0.435290  0.218310  1.0  1.0154
  Cu  Cu46  1  0.652650  0.697460  0.991970  1.0  1.0147
  Cu  Cu47  1  0.390770  0.935290  0.281690  1.0  1.016
  Cu  Cu48  1  0.347350  0.197460  0.508030  1.0  1.0147
  Cu  Cu49  1  0.218310  0.890770  0.935290  1.0  1.0108
  Cu  Cu50  1  0.991970  0.847350  0.197460  1.0  1.0145
  Cu  Cu51  1  0.281690  0.109230  0.435290  1.0  1.0124
  Cu  Cu52  1  0.508030  0.152650  0.697460  1.0  1.0143
  Cu  Cu53  1  0.781690  0.390770  0.564710  1.0  1.0115
  Cu  Cu54  1  0.008030  0.347350  0.302540  1.0  1.014
  Cu  Cu55  1  0.718310  0.609230  0.064710  1.0  1.012
  Cu  Cu56  1  0.491970  0.652650  0.802540  1.0  1.0145
  Cu  Cu57  1  0.935290  0.218310  0.890770  1.0  1.0144
  Cu  Cu58  1  0.197460  0.991970  0.847350  1.0  1.0129
  Cu  Cu59  1  0.435290  0.281690  0.109230  1.0  1.0137
  Cu  Cu60  1  0.697460  0.508030  0.152650  1.0  1.0123
  Cu  Cu61  1  0.564710  0.781690  0.390770  1.0  1.0161
  Cu  Cu62  1  0.302540  0.008030  0.347350  1.0  1.0121
  Cu  Cu63  1  0.064710  0.718310  0.609230  1.0  1.0129
  Cu  Cu64  1  0.802540  0.491970  0.652650  1.0  1.0125
  Cu  Cu65  1  0.890770  0.935290  0.218310  1.0  1.0153
  Cu  Cu66  1  0.847350  0.197460  0.991970  1.0  1.0143
  Cu  Cu67  1  0.109230  0.435290  0.281690  1.0  1.016
  Cu  Cu68  1  0.152650  0.697460  0.508030  1.0  1.013
  Cu  Cu69  1  0.390770  0.564710  0.781690  1.0  1.0164
  Cu  Cu70  1  0.347350  0.302540  0.008030  1.0  1.0139
  Cu  Cu71  1  0.609230  0.064710  0.718310  1.0  1.0164
  Cu  Cu72  1  0.652650  0.802540  0.491970  1.0  1.014
  H  H73  1  0.829000  0.021700  0.057300  1.0  0.5246
  H  H74  1  0.863000  0.107600  0.902700  1.0  0.1467
  H  H75  1  0.710900  0.053500  0.869400  1.0  0.1522
  H  H76  1  0.820200  0.070800  0.748300  1.0  0.1489
  H  H77  1  0.753000  0.200400  0.158000  1.0  0.1399
  H  H78  1  0.780300  0.080200  0.261900  1.0  0.1413
  H  H79  1  0.760300  0.179100  0.257200  1.0  0.1576
  H  H80  1  0.671000  0.978300  0.557300  1.0  0.5242
  H  H81  1  0.637000  0.892400  0.402700  1.0  0.1471
  H  H82  1  0.789100  0.946500  0.369400  1.0  0.1526
  H  H83  1  0.679800  0.929200  0.248300  1.0  0.1486
  H  H84  1  0.747000  0.799600  0.658000  1.0  0.1399
  H  H85  1  0.719700  0.919800  0.761900  1.0  0.1409
  H  H86  1  0.739700  0.820900  0.757200  1.0  0.1573
  H  H87  1  0.171000  0.521700  0.442700  1.0  0.5253
  H  H88  1  0.137000  0.607600  0.597300  1.0  0.1468
  H  H89  1  0.289100  0.553500  0.630600  1.0  0.1518
  H  H90  1  0.179800  0.570800  0.751700  1.0  0.149
  H  H91  1  0.247000  0.700400  0.342000  1.0  0.1401
  H  H92  1  0.219700  0.580200  0.238100  1.0  0.1417
  H  H93  1  0.239700  0.679100  0.242800  1.0  0.1581
  H  H94  1  0.329000  0.478300  0.942700  1.0  0.5241
  H  H95  1  0.363000  0.392400  0.097300  1.0  0.1471
  H  H96  1  0.210900  0.446500  0.130600  1.0  0.1521
  H  H97  1  0.320200  0.429200  0.251700  1.0  0.1486
  H  H98  1  0.253000  0.299600  0.842000  1.0  0.1396
  H  H99  1  0.280300  0.419800  0.738100  1.0  0.1411
  H  H100  1  0.260300  0.320900  0.742800  1.0  0.1582
  H  H101  1  0.057300  0.829000  0.021700  1.0  0.5244
  H  H102  1  0.902700  0.863000  0.107600  1.0  0.1477
  H  H103  1  0.869400  0.710900  0.053500  1.0  0.1536
  H  H104  1  0.748300  0.820200  0.070800  1.0  0.147
  H  H105  1  0.158000  0.753000  0.200400  1.0  0.1389
  H  H106  1  0.261900  0.780300  0.080200  1.0  0.1406
  H  H107  1  0.257200  0.760300  0.179100  1.0  0.1569
  H  H108  1  0.557300  0.671000  0.978300  1.0  0.5245
  H  H109  1  0.402700  0.637000  0.892400  1.0  0.148
  H  H110  1  0.369400  0.789100  0.946500  1.0  0.1538
  H  H111  1  0.248300  0.679800  0.929200  1.0  0.1471
  H  H112  1  0.658000  0.747000  0.799600  1.0  0.1393
  H  H113  1  0.761900  0.719700  0.919800  1.0  0.1406
  H  H114  1  0.757200  0.739700  0.820900  1.0  0.1569
  H  H115  1  0.442700  0.171000  0.521700  1.0  0.5226
  H  H116  1  0.597300  0.137000  0.607600  1.0  0.1461
  H  H117  1  0.630600  0.289100  0.553500  1.0  0.1535
  H  H118  1  0.751700  0.179800  0.570800  1.0  0.1474
  H  H119  1  0.342000  0.247000  0.700400  1.0  0.1386
  H  H120  1  0.238100  0.219700  0.580200  1.0  0.1409
  H  H121  1  0.242800  0.239700  0.679100  1.0  0.1566
  H  H122  1  0.942700  0.329000  0.478300  1.0  0.5233
  H  H123  1  0.097300  0.363000  0.392400  1.0  0.1474
  H  H124  1  0.130600  0.210900  0.446500  1.0  0.1535
  H  H125  1  0.251700  0.320200  0.429200  1.0  0.1472
  H  H126  1  0.842000  0.253000  0.299600  1.0  0.139
  H  H127  1  0.738100  0.280300  0.419800  1.0  0.1406
  H  H128  1  0.742800  0.260300  0.320900  1.0  0.1576
  H  H129  1  0.021700  0.057300  0.829000  1.0  0.5267
  H  H130  1  0.107600  0.902700  0.863000  1.0  0.147
  H  H131  1  0.053500  0.869400  0.710900  1.0  0.152
  H  H132  1  0.070800  0.748300  0.820200  1.0  0.1497
  H  H133  1  0.200400  0.158000  0.753000  1.0  0.1397
  H  H134  1  0.080200  0.261900  0.780300  1.0  0.144
  H  H135  1  0.179100  0.257200  0.760300  1.0  0.1578
  H  H136  1  0.978300  0.557300  0.671000  1.0  0.5255
  H  H137  1  0.892400  0.402700  0.637000  1.0  0.1479
  H  H138  1  0.946500  0.369400  0.789100  1.0  0.1521
  H  H139  1  0.929200  0.248300  0.679800  1.0  0.1498
  H  H140  1  0.799600  0.658000  0.747000  1.0  0.1396
  H  H141  1  0.919800  0.761900  0.719700  1.0  0.1431
  H  H142  1  0.820900  0.757200  0.739700  1.0  0.1578
  H  H143  1  0.521700  0.442700  0.171000  1.0  0.5259
  H  H144  1  0.607600  0.597300  0.137000  1.0  0.1464
  H  H145  1  0.553500  0.630600  0.289100  1.0  0.152
  H  H146  1  0.570800  0.751700  0.179800  1.0  0.1491
  H  H147  1  0.700400  0.342000  0.247000  1.0  0.1398
  H  H148  1  0.580200  0.238100  0.219700  1.0  0.1436
  H  H149  1  0.679100  0.242800  0.239700  1.0  0.1575
  H  H150  1  0.478300  0.942700  0.329000  1.0  0.5256
  H  H151  1  0.392400  0.097300  0.363000  1.0  0.1478
  H  H152  1  0.446500  0.130600  0.210900  1.0  0.1521
  H  H153  1  0.429200  0.251700  0.320200  1.0  0.1495
  H  H154  1  0.299600  0.842000  0.253000  1.0  0.1393
  H  H155  1  0.419800  0.738100  0.280300  1.0  0.1431
  H  H156  1  0.320900  0.742800  0.260300  1.0  0.158
  H  H157  1  0.171000  0.978300  0.942700  1.0  0.5252
  H  H158  1  0.137000  0.892400  0.097300  1.0  0.1466
  H  H159  1  0.289100  0.946500  0.130600  1.0  0.1525
  H  H160  1  0.179800  0.929200  0.251700  1.0  0.1487
  H  H161  1  0.247000  0.799600  0.842000  1.0  0.1399
  H  H162  1  0.219700  0.919800  0.738100  1.0  0.1413
  H  H163  1  0.239700  0.820900  0.742800  1.0  0.1584
  H  H164  1  0.329000  0.021700  0.442700  1.0  0.5244
  H  H165  1  0.363000  0.107600  0.597300  1.0  0.1468
  H  H166  1  0.210900  0.053500  0.630600  1.0  0.1519
  H  H167  1  0.320200  0.070800  0.751700  1.0  0.1488
  H  H168  1  0.253000  0.200400  0.342000  1.0  0.1399
  H  H169  1  0.280300  0.080200  0.238100  1.0  0.1413
  H  H170  1  0.260300  0.179100  0.242800  1.0  0.158
  H  H171  1  0.829000  0.478300  0.557300  1.0  0.5239
  H  H172  1  0.863000  0.392400  0.402700  1.0  0.1474
  H  H173  1  0.710900  0.446500  0.369400  1.0  0.1522
  H  H174  1  0.820200  0.429200  0.248300  1.0  0.1484
  H  H175  1  0.753000  0.299600  0.658000  1.0  0.1398
  H  H176  1  0.780300  0.419800  0.761900  1.0  0.1415
  H  H177  1  0.760300  0.320900  0.757200  1.0  0.158
  H  H178  1  0.671000  0.521700  0.057300  1.0  0.5246
  H  H179  1  0.637000  0.607600  0.902700  1.0  0.1469
  H  H180  1  0.789100  0.553500  0.869400  1.0  0.152
  H  H181  1  0.679800  0.570800  0.748300  1.0  0.1489
  H  H182  1  0.747000  0.700400  0.158000  1.0  0.1399
  H  H183  1  0.719700  0.580200  0.261900  1.0  0.1406
  H  H184  1  0.739700  0.679100  0.257200  1.0  0.1572
  H  H185  1  0.942700  0.171000  0.978300  1.0  0.5228
  H  H186  1  0.097300  0.137000  0.892400  1.0  0.147
  H  H187  1  0.130600  0.289100  0.946500  1.0  0.1537
  H  H188  1  0.251700  0.179800  0.929200  1.0  0.1477
  H  H189  1  0.842000  0.247000  0.799600  1.0  0.139
  H  H190  1  0.738100  0.219700  0.919800  1.0  0.1409
  H  H191  1  0.742800  0.239700  0.820900  1.0  0.1572
  H  H192  1  0.442700  0.329000  0.021700  1.0  0.5227
  H  H193  1  0.597300  0.363000  0.107600  1.0  0.1469
  H  H194  1  0.630600  0.210900  0.053500  1.0  0.1533
  H  H195  1  0.751700  0.320200  0.070800  1.0  0.147
  H  H196  1  0.342000  0.253000  0.200400  1.0  0.1387
  H  H197  1  0.238100  0.280300  0.080200  1.0  0.1402
  H  H198  1  0.242800  0.260300  0.179100  1.0  0.1573
  H  H199  1  0.557300  0.829000  0.478300  1.0  0.5252
  H  H200  1  0.402700  0.863000  0.392400  1.0  0.148
  H  H201  1  0.369400  0.710900  0.446500  1.0  0.1536
  H  H202  1  0.248300  0.820200  0.429200  1.0  0.1469
  H  H203  1  0.658000  0.753000  0.299600  1.0  0.1391
  H  H204  1  0.761900  0.780300  0.419800  1.0  0.1411
  H  H205  1  0.757200  0.760300  0.320900  1.0  0.1571
  H  H206  1  0.057300  0.671000  0.521700  1.0  0.524
  H  H207  1  0.902700  0.637000  0.607600  1.0  0.1474
  H  H208  1  0.869400  0.789100  0.553500  1.0  0.1538
  H  H209  1  0.748300  0.679800  0.570800  1.0  0.1473
  H  H210  1  0.158000  0.747000  0.700400  1.0  0.1388
  H  H211  1  0.261900  0.719700  0.580200  1.0  0.1404
  H  H212  1  0.257200  0.739700  0.679100  1.0  0.1565
  H  H213  1  0.978300  0.942700  0.171000  1.0  0.5249
  H  H214  1  0.892400  0.097300  0.137000  1.0  0.1478
  H  H215  1  0.946500  0.130600  0.289100  1.0  0.1519
  H  H216  1  0.929200  0.251700  0.179800  1.0  0.1496
  H  H217  1  0.799600  0.842000  0.247000  1.0  0.1394
  H  H218  1  0.919800  0.738100  0.219700  1.0  0.1438
  H  H219  1  0.820900  0.742800  0.239700  1.0  0.1576
  H  H220  1  0.021700  0.442700  0.329000  1.0  0.5268
  H  H221  1  0.107600  0.597300  0.363000  1.0  0.1473
  H  H222  1  0.053500  0.630600  0.210900  1.0  0.1519
  H  H223  1  0.070800  0.751700  0.320200  1.0  0.1488
  H  H224  1  0.200400  0.342000  0.253000  1.0  0.1395
  H  H225  1  0.080200  0.238100  0.280300  1.0  0.1428
  H  H226  1  0.179100  0.242800  0.260300  1.0  0.158
  H  H227  1  0.478300  0.557300  0.829000  1.0  0.5262
  H  H228  1  0.392400  0.402700  0.863000  1.0  0.1473
  H  H229  1  0.446500  0.369400  0.710900  1.0  0.1524
  H  H230  1  0.429200  0.248300  0.820200  1.0  0.15
  H  H231  1  0.299600  0.658000  0.753000  1.0  0.1396
  H  H232  1  0.419800  0.761900  0.780300  1.0  0.1439
  H  H233  1  0.320900  0.757200  0.760300  1.0  0.1585
  H  H234  1  0.521700  0.057300  0.671000  1.0  0.5253
  H  H235  1  0.607600  0.902700  0.637000  1.0  0.1466
  H  H236  1  0.553500  0.869400  0.789100  1.0  0.152
  H  H237  1  0.570800  0.748300  0.679800  1.0  0.1494
  H  H238  1  0.700400  0.158000  0.747000  1.0  0.1401
  H  H239  1  0.580200  0.261900  0.719700  1.0  0.1435
  H  H240  1  0.679100  0.257200  0.739700  1.0  0.157
  C  C241  1  0.784900  0.080300  0.895600  1.0  -0.0875
  C  C242  1  0.770000  0.082300  0.955900  1.0  0.7198
  C  C243  1  0.850200  0.092000  0.822600  1.0  -0.1109
  C  C244  1  0.837100  0.095300  0.877700  1.0  0.0334
  C  C245  1  0.745900  0.063000  0.857700  1.0  0.051
  C  C246  1  0.759100  0.059900  0.802500  1.0  -0.1022
  C  C247  1  0.717400  0.043700  0.760600  1.0  0.7467
  C  C248  1  0.811200  0.073700  0.785300  1.0  0.064
  C  C249  1  0.905600  0.108800  0.802100  1.0  0.7363
  C  C250  1  0.761000  0.166100  0.172700  1.0  0.1065
  C  C251  1  0.775700  0.100300  0.229900  1.0  0.0546
  C  C252  1  0.764500  0.154900  0.228000  1.0  -0.0828
  C  C253  1  0.715100  0.919700  0.395600  1.0  -0.0887
  C  C254  1  0.730000  0.917700  0.455900  1.0  0.7214
  C  C255  1  0.649800  0.908000  0.322600  1.0  -0.1106
  C  C256  1  0.662900  0.904700  0.377700  1.0  0.0318
  C  C257  1  0.754100  0.937000  0.357700  1.0  0.053
  C  C258  1  0.740900  0.940100  0.302500  1.0  -0.1014
  C  C259  1  0.782600  0.956300  0.260600  1.0  0.7459
  C  C260  1  0.688800  0.926300  0.285300  1.0  0.0627
  C  C261  1  0.594400  0.891200  0.302100  1.0  0.7364
  C  C262  1  0.739000  0.833900  0.672700  1.0  0.1059
  C  C263  1  0.724300  0.899700  0.729900  1.0  0.0546
  C  C264  1  0.735500  0.845100  0.728000  1.0  -0.0828
  C  C265  1  0.215100  0.580300  0.604400  1.0  -0.0883
  C  C266  1  0.230000  0.582300  0.544100  1.0  0.7215
  C  C267  1  0.149800  0.592000  0.677400  1.0  -0.1117
  C  C268  1  0.162900  0.595300  0.622300  1.0  0.032
  C  C269  1  0.254100  0.563000  0.642300  1.0  0.054
  C  C270  1  0.240900  0.559900  0.697500  1.0  -0.1019
  C  C271  1  0.282600  0.543700  0.739400  1.0  0.7464
  C  C272  1  0.188800  0.573700  0.714700  1.0  0.0623
  C  C273  1  0.094400  0.608800  0.697900  1.0  0.7367
  C  C274  1  0.239000  0.666100  0.327300  1.0  0.1064
  C  C275  1  0.224300  0.600300  0.270100  1.0  0.055
  C  C276  1  0.235500  0.654900  0.272000  1.0  -0.0836
  C  C277  1  0.284900  0.419700  0.104400  1.0  -0.0862
  C  C278  1  0.270000  0.417700  0.044100  1.0  0.722
  C  C279  1  0.350200  0.408000  0.177400  1.0  -0.1111
  C  C280  1  0.337100  0.404700  0.122300  1.0  0.0331
  C  C281  1  0.245900  0.437000  0.142300  1.0  0.0512
  C  C282  1  0.259100  0.440100  0.197500  1.0  -0.1018
  C  C283  1  0.217400  0.456300  0.239400  1.0  0.7469
  C  C284  1  0.311200  0.426300  0.214700  1.0  0.0627
  C  C285  1  0.405600  0.391200  0.197900  1.0  0.737
  C  C286  1  0.261000  0.333900  0.827300  1.0  0.1064
  C  C287  1  0.275700  0.399700  0.770100  1.0  0.0549
  C  C288  1  0.264500  0.345100  0.772000  1.0  -0.083
  C  C289  1  0.895600  0.784900  0.080300  1.0  -0.0867
  C  C290  1  0.955900  0.770000  0.082300  1.0  0.7169
  C  C291  1  0.822600  0.850200  0.092000  1.0  -0.1105
  C  C292  1  0.877700  0.837100  0.095300  1.0  0.0347
  C  C293  1  0.857700  0.745900  0.063000  1.0  0.0519
  C  C294  1  0.802500  0.759100  0.059900  1.0  -0.1031
  C  C295  1  0.760600  0.717400  0.043700  1.0  0.7459
  C  C296  1  0.785300  0.811200  0.073700  1.0  0.0621
  C  C297  1  0.802100  0.905600  0.108800  1.0  0.7361
  C  C298  1  0.172700  0.761000  0.166100  1.0  0.1064
  C  C299  1  0.229900  0.775700  0.100300  1.0  0.0517
  C  C300  1  0.228000  0.764500  0.154900  1.0  -0.0867
  C  C301  1  0.395600  0.715100  0.919700  1.0  -0.0884
  C  C302  1  0.455900  0.730000  0.917700  1.0  0.7165
  C  C303  1  0.322600  0.649800  0.908000  1.0  -0.1124
  C  C304  1  0.377700  0.662900  0.904700  1.0  0.0362
  C  C305  1  0.357700  0.754100  0.937000  1.0  0.0515
  C  C306  1  0.302500  0.740900  0.940100  1.0  -0.1023
  C  C307  1  0.260600  0.782600  0.956300  1.0  0.746
  C  C308  1  0.285300  0.688800  0.926300  1.0  0.0611
  C  C309  1  0.302100  0.594400  0.891200  1.0  0.735
  C  C310  1  0.672700  0.739000  0.833900  1.0  0.1073
  C  C311  1  0.729900  0.724300  0.899700  1.0  0.0523
  C  C312  1  0.728000  0.735500  0.845100  1.0  -0.0864
  C  C313  1  0.604400  0.215100  0.580300  1.0  -0.0848
  C  C314  1  0.544100  0.230000  0.582300  1.0  0.7171
  C  C315  1  0.677400  0.149800  0.592000  1.0  -0.1124
  C  C316  1  0.622300  0.162900  0.595300  1.0  0.0346
  C  C317  1  0.642300  0.254100  0.563000  1.0  0.0509
  C  C318  1  0.697500  0.240900  0.559900  1.0  -0.1019
  C  C319  1  0.739400  0.282600  0.543700  1.0  0.7466
  C  C320  1  0.714700  0.188800  0.573700  1.0  0.0657
  C  C321  1  0.697900  0.094400  0.608800  1.0  0.7365
  C  C322  1  0.327300  0.239000  0.666100  1.0  0.1063
  C  C323  1  0.270100  0.224300  0.600300  1.0  0.0522
  C  C324  1  0.272000  0.235500  0.654900  1.0  -0.0861
  C  C325  1  0.104400  0.284900  0.419700  1.0  -0.0869
  C  C326  1  0.044100  0.270000  0.417700  1.0  0.7164
  C  C327  1  0.177400  0.350200  0.408000  1.0  -0.1131
  C  C328  1  0.122300  0.337100  0.404700  1.0  0.0346
  C  C329  1  0.142300  0.245900  0.437000  1.0  0.0512
  C  C330  1  0.197500  0.259100  0.440100  1.0  -0.1016
  C  C331  1  0.239400  0.217400  0.456300  1.0  0.7457
  C  C332  1  0.214700  0.311200  0.426300  1.0  0.064
  C  C333  1  0.197900  0.405600  0.391200  1.0  0.7352
  C  C334  1  0.827300  0.261000  0.333900  1.0  0.1064
  C  C335  1  0.770100  0.275700  0.399700  1.0  0.0528
  C  C336  1  0.772000  0.264500  0.345100  1.0  -0.0861
  C  C337  1  0.080300  0.895600  0.784900  1.0  -0.0893
  C  C338  1  0.082300  0.955900  0.770000  1.0  0.721
  C  C339  1  0.092000  0.822600  0.850200  1.0  -0.1134
  C  C340  1  0.095300  0.877700  0.837100  1.0  0.0378
  C  C341  1  0.063000  0.857700  0.745900  1.0  0.0584
  C  C342  1  0.059900  0.802500  0.759100  1.0  -0.1036
  C  C343  1  0.043700  0.760600  0.717400  1.0  0.7483
  C  C344  1  0.073700  0.785300  0.811200  1.0  0.0608
  C  C345  1  0.108800  0.802100  0.905600  1.0  0.7421
  C  C346  1  0.166100  0.172700  0.761000  1.0  0.1055
  C  C347  1  0.100300  0.229900  0.775700  1.0  0.0494
  C  C348  1  0.154900  0.228000  0.764500  1.0  -0.0908
  C  C349  1  0.919700  0.395600  0.715100  1.0  -0.0888
  C  C350  1  0.917700  0.455900  0.730000  1.0  0.7202
  C  C351  1  0.908000  0.322600  0.649800  1.0  -0.1118
  C  C352  1  0.904700  0.377700  0.662900  1.0  0.0386
  C  C353  1  0.937000  0.357700  0.754100  1.0  0.0564
  C  C354  1  0.940100  0.302500  0.740900  1.0  -0.1041
  C  C355  1  0.956300  0.260600  0.782600  1.0  0.7483
  C  C356  1  0.926300  0.285300  0.688800  1.0  0.0625
  C  C357  1  0.891200  0.302100  0.594400  1.0  0.7426
  C  C358  1  0.833900  0.672700  0.739000  1.0  0.1061
  C  C359  1  0.899700  0.729900  0.724300  1.0  0.049
  C  C360  1  0.845100  0.728000  0.735500  1.0  -0.0928
  C  C361  1  0.580300  0.604400  0.215100  1.0  -0.0896
  C  C362  1  0.582300  0.544100  0.230000  1.0  0.7202
  C  C363  1  0.592000  0.677400  0.149800  1.0  -0.1135
  C  C364  1  0.595300  0.622300  0.162900  1.0  0.038
  C  C365  1  0.563000  0.642300  0.254100  1.0  0.057
  C  C366  1  0.559900  0.697500  0.240900  1.0  -0.1031
  C  C367  1  0.543700  0.739400  0.282600  1.0  0.7481
  C  C368  1  0.573700  0.714700  0.188800  1.0  0.0615
  C  C369  1  0.608800  0.697900  0.094400  1.0  0.7421
  C  C370  1  0.666100  0.327300  0.239000  1.0  0.1081
  C  C371  1  0.600300  0.270100  0.224300  1.0  0.0489
  C  C372  1  0.654900  0.272000  0.235500  1.0  -0.0898
  C  C373  1  0.419700  0.104400  0.284900  1.0  -0.0889
  C  C374  1  0.417700  0.044100  0.270000  1.0  0.7207
  C  C375  1  0.408000  0.177400  0.350200  1.0  -0.114
  C  C376  1  0.404700  0.122300  0.337100  1.0  0.0388
  C  C377  1  0.437000  0.142300  0.245900  1.0  0.057
  C  C378  1  0.440100  0.197500  0.259100  1.0  -0.1033
  C  C379  1  0.456300  0.239400  0.217400  1.0  0.7481
  C  C380  1  0.426300  0.214700  0.311200  1.0  0.0625
  C  C381  1  0.391200  0.197900  0.405600  1.0  0.7421
  C  C382  1  0.333900  0.827300  0.261000  1.0  0.1074
  C  C383  1  0.399700  0.770100  0.275700  1.0  0.0486
  C  C384  1  0.345100  0.772000  0.264500  1.0  -0.0916
  C  C385  1  0.215100  0.919700  0.104400  1.0  -0.0871
  C  C386  1  0.230000  0.917700  0.044100  1.0  0.7222
  C  C387  1  0.149800  0.908000  0.177400  1.0  -0.1107
  C  C388  1  0.162900  0.904700  0.122300  1.0  0.0315
  C  C389  1  0.254100  0.937000  0.142300  1.0  0.0539
  C  C390  1  0.240900  0.940100  0.197500  1.0  -0.1014
  C  C391  1  0.282600  0.956300  0.239400  1.0  0.7463
  C  C392  1  0.188800  0.926300  0.214700  1.0  0.0618
  C  C393  1  0.094400  0.891200  0.197900  1.0  0.7367
  C  C394  1  0.239000  0.833900  0.827300  1.0  0.1064
  C  C395  1  0.224300  0.899700  0.770100  1.0  0.0552
  C  C396  1  0.235500  0.845100  0.772000  1.0  -0.0838
  C  C397  1  0.284900  0.080300  0.604400  1.0  -0.0873
  C  C398  1  0.270000  0.082300  0.544100  1.0  0.7214
  C  C399  1  0.350200  0.092000  0.677400  1.0  -0.1116
  C  C400  1  0.337100  0.095300  0.622300  1.0  0.0332
  C  C401  1  0.245900  0.063000  0.642300  1.0  0.0511
  C  C402  1  0.259100  0.059900  0.697500  1.0  -0.1024
  C  C403  1  0.217400  0.043700  0.739400  1.0  0.7469
  C  C404  1  0.311200  0.073700  0.714700  1.0  0.0632
  C  C405  1  0.405600  0.108800  0.697900  1.0  0.7367
  C  C406  1  0.261000  0.166100  0.327300  1.0  0.1068
  C  C407  1  0.275700  0.100300  0.270100  1.0  0.0546
  C  C408  1  0.264500  0.154900  0.272000  1.0  -0.0828
  C  C409  1  0.784900  0.419700  0.395600  1.0  -0.0874
  C  C410  1  0.770000  0.417700  0.455900  1.0  0.7203
  C  C411  1  0.850200  0.408000  0.322600  1.0  -0.1108
  C  C412  1  0.837100  0.404700  0.377700  1.0  0.0332
  C  C413  1  0.745900  0.437000  0.357700  1.0  0.0506
  C  C414  1  0.759100  0.440100  0.302500  1.0  -0.1017
  C  C415  1  0.717400  0.456300  0.260600  1.0  0.7466
  C  C416  1  0.811200  0.426300  0.285300  1.0  0.0632
  C  C417  1  0.905600  0.391200  0.302100  1.0  0.7366
  C  C418  1  0.761000  0.333900  0.672700  1.0  0.1057
  C  C419  1  0.775700  0.399700  0.729900  1.0  0.0545
  C  C420  1  0.764500  0.345100  0.728000  1.0  -0.0824
  C  C421  1  0.715100  0.580300  0.895600  1.0  -0.0886
  C  C422  1  0.730000  0.582300  0.955900  1.0  0.7211
  C  C423  1  0.649800  0.592000  0.822600  1.0  -0.1112
  C  C424  1  0.662900  0.595300  0.877700  1.0  0.0326
  C  C425  1  0.754100  0.563000  0.857700  1.0  0.054
  C  C426  1  0.740900  0.559900  0.802500  1.0  -0.1017
  C  C427  1  0.782600  0.543700  0.760600  1.0  0.7461
  C  C428  1  0.688800  0.573700  0.785300  1.0  0.0634
  C  C429  1  0.594400  0.608800  0.802100  1.0  0.7362
  C  C430  1  0.739000  0.666100  0.172700  1.0  0.1064
  C  C431  1  0.724300  0.600300  0.229900  1.0  0.0547
  C  C432  1  0.735500  0.654900  0.228000  1.0  -0.0828
  C  C433  1  0.104400  0.215100  0.919700  1.0  -0.0877
  C  C434  1  0.044100  0.230000  0.917700  1.0  0.7155
  C  C435  1  0.177400  0.149800  0.908000  1.0  -0.1122
  C  C436  1  0.122300  0.162900  0.904700  1.0  0.0348
  C  C437  1  0.142300  0.254100  0.937000  1.0  0.05
  C  C438  1  0.197500  0.240900  0.940100  1.0  -0.1021
  C  C439  1  0.239400  0.282600  0.956300  1.0  0.746
  C  C440  1  0.214700  0.188800  0.926300  1.0  0.0641
  C  C441  1  0.197900  0.094400  0.891200  1.0  0.7355
  C  C442  1  0.827300  0.239000  0.833900  1.0  0.1069
  C  C443  1  0.770100  0.224300  0.899700  1.0  0.0517
  C  C444  1  0.772000  0.235500  0.845100  1.0  -0.0855
  C  C445  1  0.604400  0.284900  0.080300  1.0  -0.0859
  C  C446  1  0.544100  0.270000  0.082300  1.0  0.7172
  C  C447  1  0.677400  0.350200  0.092000  1.0  -0.1108
  C  C448  1  0.622300  0.337100  0.095300  1.0  0.0344
  C  C449  1  0.642300  0.245900  0.063000  1.0  0.0521
  C  C450  1  0.697500  0.259100  0.059900  1.0  -0.1024
  C  C451  1  0.739400  0.217400  0.043700  1.0  0.746
  C  C452  1  0.714700  0.311200  0.073700  1.0  0.0653
  C  C453  1  0.697900  0.405600  0.108800  1.0  0.7358
  C  C454  1  0.327300  0.261000  0.166100  1.0  0.1061
  C  C455  1  0.270100  0.275700  0.100300  1.0  0.0526
  C  C456  1  0.272000  0.264500  0.154900  1.0  -0.0862
  C  C457  1  0.395600  0.784900  0.419700  1.0  -0.0869
  C  C458  1  0.455900  0.770000  0.417700  1.0  0.7168
  C  C459  1  0.322600  0.850200  0.408000  1.0  -0.1133
  C  C460  1  0.377700  0.837100  0.404700  1.0  0.0357
  C  C461  1  0.357700  0.745900  0.437000  1.0  0.0522
  C  C462  1  0.302500  0.759100  0.440100  1.0  -0.1021
  C  C463  1  0.260600  0.717400  0.456300  1.0  0.7458
  C  C464  1  0.285300  0.811200  0.426300  1.0  0.061
  C  C465  1  0.302100  0.905600  0.391200  1.0  0.735
  C  C466  1  0.672700  0.761000  0.333900  1.0  0.1061
  C  C467  1  0.729900  0.775700  0.399700  1.0  0.0523
  C  C468  1  0.728000  0.764500  0.345100  1.0  -0.0867
  C  C469  1  0.895600  0.715100  0.580300  1.0  -0.0864
  C  C470  1  0.955900  0.730000  0.582300  1.0  0.7173
  C  C471  1  0.822600  0.649800  0.592000  1.0  -0.1126
  C  C472  1  0.877700  0.662900  0.595300  1.0  0.0353
  C  C473  1  0.857700  0.754100  0.563000  1.0  0.0509
  C  C474  1  0.802500  0.740900  0.559900  1.0  -0.1022
  C  C475  1  0.760600  0.782600  0.543700  1.0  0.7462
  C  C476  1  0.785300  0.688800  0.573700  1.0  0.0624
  C  C477  1  0.802100  0.594400  0.608800  1.0  0.7367
  C  C478  1  0.172700  0.739000  0.666100  1.0  0.107
  C  C479  1  0.229900  0.724300  0.600300  1.0  0.0526
  C  C480  1  0.228000  0.735500  0.654900  1.0  -0.0868
  C  C481  1  0.919700  0.104400  0.215100  1.0  -0.0886
  C  C482  1  0.917700  0.044100  0.230000  1.0  0.7209
  C  C483  1  0.908000  0.177400  0.149800  1.0  -0.1118
  C  C484  1  0.904700  0.122300  0.162900  1.0  0.0394
  C  C485  1  0.937000  0.142300  0.254100  1.0  0.0571
  C  C486  1  0.940100  0.197500  0.240900  1.0  -0.1038
  C  C487  1  0.956300  0.239400  0.282600  1.0  0.7482
  C  C488  1  0.926300  0.214700  0.188800  1.0  0.0622
  C  C489  1  0.891200  0.197900  0.094400  1.0  0.7427
  C  C490  1  0.833900  0.827300  0.239000  1.0  0.1078
  C  C491  1  0.899700  0.770100  0.224300  1.0  0.0489
  C  C492  1  0.845100  0.772000  0.235500  1.0  -0.0912
  C  C493  1  0.080300  0.604400  0.284900  1.0  -0.0902
  C  C494  1  0.082300  0.544100  0.270000  1.0  0.7211
  C  C495  1  0.092000  0.677400  0.350200  1.0  -0.1134
  C  C496  1  0.095300  0.622300  0.337100  1.0  0.0379
  C  C497  1  0.063000  0.642300  0.245900  1.0  0.0588
  C  C498  1  0.059900  0.697500  0.259100  1.0  -0.1031
  C  C499  1  0.043700  0.739400  0.217400  1.0  0.7481
  C  C500  1  0.073700  0.714700  0.311200  1.0  0.0616
  C  C501  1  0.108800  0.697900  0.405600  1.0  0.7412
  C  C502  1  0.166100  0.327300  0.261000  1.0  0.1073
  C  C503  1  0.100300  0.270100  0.275700  1.0  0.049
  C  C504  1  0.154900  0.272000  0.264500  1.0  -0.0908
  C  C505  1  0.419700  0.395600  0.784900  1.0  -0.0886
  C  C506  1  0.417700  0.455900  0.770000  1.0  0.7203
  C  C507  1  0.408000  0.322600  0.850200  1.0  -0.1138
  C  C508  1  0.404700  0.377700  0.837100  1.0  0.0382
  C  C509  1  0.437000  0.357700  0.745900  1.0  0.056
  C  C510  1  0.440100  0.302500  0.759100  1.0  -0.1037
  C  C511  1  0.456300  0.260600  0.717400  1.0  0.7482
  C  C512  1  0.426300  0.285300  0.811200  1.0  0.0623
  C  C513  1  0.391200  0.302100  0.905600  1.0  0.7426
  C  C514  1  0.333900  0.672700  0.761000  1.0  0.1059
  C  C515  1  0.399700  0.729900  0.775700  1.0  0.05
  C  C516  1  0.345100  0.728000  0.764500  1.0  -0.092
  C  C517  1  0.580300  0.895600  0.715100  1.0  -0.0891
  C  C518  1  0.582300  0.955900  0.730000  1.0  0.72
  C  C519  1  0.592000  0.822600  0.649800  1.0  -0.1138
  C  C520  1  0.595300  0.877700  0.662900  1.0  0.0377
  C  C521  1  0.563000  0.857700  0.754100  1.0  0.0562
  C  C522  1  0.559900  0.802500  0.740900  1.0  -0.1035
  C  C523  1  0.543700  0.760600  0.782600  1.0  0.7484
  C  C524  1  0.573700  0.785300  0.688800  1.0  0.0613
  C  C525  1  0.608800  0.802100  0.594400  1.0  0.7423
  C  C526  1  0.666100  0.172700  0.739000  1.0  0.1063
  C  C527  1  0.600300  0.229900  0.724300  1.0  0.048
  C  C528  1  0.654900  0.228000  0.735500  1.0  -0.0912
  N  N529  1  0.779100  0.079400  0.178900  1.0  -0.2422
  N  N530  1  0.770500  0.121100  0.143100  1.0  -0.2553
  N  N531  1  0.720900  0.920600  0.678900  1.0  -0.2437
  N  N532  1  0.729500  0.878900  0.643100  1.0  -0.2555
  N  N533  1  0.220900  0.579400  0.321100  1.0  -0.2428
  N  N534  1  0.229500  0.621100  0.356900  1.0  -0.256
  N  N535  1  0.279100  0.420600  0.821100  1.0  -0.2443
  N  N536  1  0.270500  0.378900  0.856900  1.0  -0.2569
  N  N537  1  0.178900  0.779100  0.079400  1.0  -0.248
  N  N538  1  0.143100  0.770500  0.121100  1.0  -0.2574
  N  N539  1  0.678900  0.720900  0.920600  1.0  -0.2447
  N  N540  1  0.643100  0.729500  0.878900  1.0  -0.2571
  N  N541  1  0.321100  0.220900  0.579400  1.0  -0.2484
  N  N542  1  0.356900  0.229500  0.621100  1.0  -0.2559
  N  N543  1  0.821100  0.279100  0.420600  1.0  -0.2449
  N  N544  1  0.856900  0.270500  0.378900  1.0  -0.2564
  N  N545  1  0.079400  0.178900  0.779100  1.0  -0.2453
  N  N546  1  0.121100  0.143100  0.770500  1.0  -0.2569
  N  N547  1  0.920600  0.678900  0.720900  1.0  -0.245
  N  N548  1  0.878900  0.643100  0.729500  1.0  -0.2557
  N  N549  1  0.579400  0.321100  0.220900  1.0  -0.2455
  N  N550  1  0.621100  0.356900  0.229500  1.0  -0.2598
  N  N551  1  0.420600  0.821100  0.279100  1.0  -0.2449
  N  N552  1  0.378900  0.856900  0.270500  1.0  -0.2582
  N  N553  1  0.220900  0.920600  0.821100  1.0  -0.2442
  N  N554  1  0.229500  0.878900  0.856900  1.0  -0.2549
  N  N555  1  0.279100  0.079400  0.321100  1.0  -0.2419
  N  N556  1  0.270500  0.121100  0.356900  1.0  -0.254
  N  N557  1  0.779100  0.420600  0.678900  1.0  -0.2442
  N  N558  1  0.770500  0.378900  0.643100  1.0  -0.2536
  N  N559  1  0.720900  0.579400  0.178900  1.0  -0.243
  N  N560  1  0.729500  0.621100  0.143100  1.0  -0.2531
  N  N561  1  0.821100  0.220900  0.920600  1.0  -0.2451
  N  N562  1  0.856900  0.229500  0.878900  1.0  -0.2545
  N  N563  1  0.321100  0.279100  0.079400  1.0  -0.2469
  N  N564  1  0.356900  0.270500  0.121100  1.0  -0.2539
  N  N565  1  0.678900  0.779100  0.420600  1.0  -0.2456
  N  N566  1  0.643100  0.770500  0.378900  1.0  -0.2555
  N  N567  1  0.178900  0.720900  0.579400  1.0  -0.2481
  N  N568  1  0.143100  0.729500  0.621100  1.0  -0.2548
  N  N569  1  0.920600  0.821100  0.220900  1.0  -0.2446
  N  N570  1  0.878900  0.856900  0.229500  1.0  -0.2559
  N  N571  1  0.079400  0.321100  0.279100  1.0  -0.2446
  N  N572  1  0.121100  0.356900  0.270500  1.0  -0.2569
  N  N573  1  0.420600  0.678900  0.779100  1.0  -0.2455
  N  N574  1  0.378900  0.643100  0.770500  1.0  -0.2541
  N  N575  1  0.579400  0.178900  0.720900  1.0  -0.2457
  N  N576  1  0.621100  0.143100  0.729500  1.0  -0.2553
  O  O577  1  0.804220  0.104900  0.987740  1.0  -0.6097
  O  O578  1  0.726400  0.062700  0.971300  1.0  -0.4561
  O  O579  1  0.938390  0.130810  0.835710  1.0  -0.6065
  O  O580  1  0.735210  0.026600  0.715630  1.0  -0.5495
  O  O581  1  0.917600  0.101000  0.752900  1.0  -0.7126
  O  O582  1  0.667350  0.049460  0.772870  1.0  -0.5518
  O  O583  1  0.813790  0.040130  0.082340  1.0  -0.9483
  O  O584  1  0.843500  0.013200  0.652400  1.0  -0.5533
  O  O585  1  0.944900  0.989100  0.702000  1.0  -0.2619
  O  O586  1  0.017900  0.062700  0.673600  1.0  -0.323
  O  O587  1  0.695780  0.895100  0.487740  1.0  -0.6107
  O  O588  1  0.773600  0.937300  0.471300  1.0  -0.4587
  O  O589  1  0.561610  0.869190  0.335710  1.0  -0.6072
  O  O590  1  0.764790  0.973400  0.215630  1.0  -0.5503
  O  O591  1  0.582400  0.899000  0.252900  1.0  -0.7125
  O  O592  1  0.832650  0.950540  0.272870  1.0  -0.5503
  O  O593  1  0.686210  0.959870  0.582340  1.0  -0.9475
  O  O594  1  0.656500  0.986800  0.152400  1.0  -0.5515
  O  O595  1  0.555100  0.010900  0.202000  1.0  -0.2609
  O  O596  1  0.482100  0.937300  0.173600  1.0  -0.3234
  O  O597  1  0.195780  0.604900  0.512260  1.0  -0.6098
  O  O598  1  0.273600  0.562700  0.528700  1.0  -0.4593
  O  O599  1  0.061610  0.630810  0.664290  1.0  -0.6066
  O  O600  1  0.264790  0.526600  0.784370  1.0  -0.5495
  O  O601  1  0.082400  0.601000  0.747100  1.0  -0.7124
  O  O602  1  0.332650  0.549460  0.727130  1.0  -0.5515
  O  O603  1  0.186210  0.540130  0.417660  1.0  -0.9514
  O  O604  1  0.156500  0.513200  0.847600  1.0  -0.5536
  O  O605  1  0.055100  0.489100  0.798000  1.0  -0.2607
  O  O606  1  0.982100  0.562700  0.826400  1.0  -0.3251
  O  O607  1  0.304220  0.395100  0.012260  1.0  -0.6094
  O  O608  1  0.226400  0.437300  0.028700  1.0  -0.4583
  O  O609  1  0.438390  0.369190  0.164290  1.0  -0.6058
  O  O610  1  0.235210  0.473400  0.284370  1.0  -0.5507
  O  O611  1  0.417600  0.399000  0.247100  1.0  -0.7124
  O  O612  1  0.167350  0.450540  0.227130  1.0  -0.552
  O  O613  1  0.313790  0.459870  0.917660  1.0  -0.9498
  O  O614  1  0.343500  0.486800  0.347600  1.0  -0.5498
  O  O615  1  0.444900  0.510900  0.298000  1.0  -0.2606
  O  O616  1  0.517900  0.437300  0.326400  1.0  -0.3236
  O  O617  1  0.987740  0.804220  0.104900  1.0  -0.6073
  O  O618  1  0.971300  0.726400  0.062700  1.0  -0.4534
  O  O619  1  0.835710  0.938390  0.130810  1.0  -0.6032
  O  O620  1  0.715630  0.735210  0.026600  1.0  -0.5512
  O  O621  1  0.752900  0.917600  0.101000  1.0  -0.7111
  O  O622  1  0.772870  0.667350  0.049460  1.0  -0.5537
  O  O623  1  0.082340  0.813790  0.040130  1.0  -0.9486
  O  O624  1  0.652400  0.843500  0.013200  1.0  -0.5495
  O  O625  1  0.702000  0.944900  0.989100  1.0  -0.2655
  O  O626  1  0.673600  0.017900  0.062700  1.0  -0.3255
  O  O627  1  0.487740  0.695780  0.895100  1.0  -0.6079
  O  O628  1  0.471300  0.773600  0.937300  1.0  -0.4518
  O  O629  1  0.335710  0.561610  0.869190  1.0  -0.6034
  O  O630  1  0.215630  0.764790  0.973400  1.0  -0.5508
  O  O631  1  0.252900  0.582400  0.899000  1.0  -0.7089
  O  O632  1  0.272870  0.832650  0.950540  1.0  -0.5529
  O  O633  1  0.582340  0.686210  0.959870  1.0  -0.95
  O  O634  1  0.152400  0.656500  0.986800  1.0  -0.5518
  O  O635  1  0.202000  0.555100  0.010900  1.0  -0.265
  O  O636  1  0.173600  0.482100  0.937300  1.0  -0.3257
  O  O637  1  0.512260  0.195780  0.604900  1.0  -0.6079
  O  O638  1  0.528700  0.273600  0.562700  1.0  -0.4517
  O  O639  1  0.664290  0.061610  0.630810  1.0  -0.6046
  O  O640  1  0.784370  0.264790  0.526600  1.0  -0.5508
  O  O641  1  0.747100  0.082400  0.601000  1.0  -0.7081
  O  O642  1  0.727130  0.332650  0.549460  1.0  -0.554
  O  O643  1  0.417660  0.186210  0.540130  1.0  -0.948
  O  O644  1  0.847600  0.156500  0.513200  1.0  -0.5495
  O  O645  1  0.798000  0.055100  0.489100  1.0  -0.2653
  O  O646  1  0.826400  0.982100  0.562700  1.0  -0.3237
  O  O647  1  0.012260  0.304220  0.395100  1.0  -0.6071
  O  O648  1  0.028700  0.226400  0.437300  1.0  -0.4531
  O  O649  1  0.164290  0.438390  0.369190  1.0  -0.6045
  O  O650  1  0.284370  0.235210  0.473400  1.0  -0.5516
  O  O651  1  0.247100  0.417600  0.399000  1.0  -0.7092
  O  O652  1  0.227130  0.167350  0.450540  1.0  -0.5533
  O  O653  1  0.917660  0.313790  0.459870  1.0  -0.9503
  O  O654  1  0.347600  0.343500  0.486800  1.0  -0.5499
  O  O655  1  0.298000  0.444900  0.510900  1.0  -0.2634
  O  O656  1  0.326400  0.517900  0.437300  1.0  -0.3256
  O  O657  1  0.104900  0.987740  0.804220  1.0  -0.6116
  O  O658  1  0.062700  0.971300  0.726400  1.0  -0.4575
  O  O659  1  0.130810  0.835710  0.938390  1.0  -0.6079
  O  O660  1  0.026600  0.715630  0.735210  1.0  -0.5526
  O  O661  1  0.101000  0.752900  0.917600  1.0  -0.7138
  O  O662  1  0.049460  0.772870  0.667350  1.0  -0.5544
  O  O663  1  0.040130  0.082340  0.813790  1.0  -0.9514
  O  O664  1  0.013200  0.652400  0.843500  1.0  -0.5531
  O  O665  1  0.989100  0.702000  0.944900  1.0  -0.2631
  O  O666  1  0.062700  0.673600  0.017900  1.0  -0.3264
  O  O667  1  0.895100  0.487740  0.695780  1.0  -0.6112
  O  O668  1  0.937300  0.471300  0.773600  1.0  -0.4597
  O  O669  1  0.869190  0.335710  0.561610  1.0  -0.6072
  O  O670  1  0.973400  0.215630  0.764790  1.0  -0.5517
  O  O671  1  0.899000  0.252900  0.582400  1.0  -0.7123
  O  O672  1  0.950540  0.272870  0.832650  1.0  -0.5522
  O  O673  1  0.959870  0.582340  0.686210  1.0  -0.9487
  O  O674  1  0.986800  0.152400  0.656500  1.0  -0.5506
  O  O675  1  0.010900  0.202000  0.555100  1.0  -0.2622
  O  O676  1  0.937300  0.173600  0.482100  1.0  -0.3244
  O  O677  1  0.604900  0.512260  0.195780  1.0  -0.6116
  O  O678  1  0.562700  0.528700  0.273600  1.0  -0.458
  O  O679  1  0.630810  0.664290  0.061610  1.0  -0.6069
  O  O680  1  0.526600  0.784370  0.264790  1.0  -0.552
  O  O681  1  0.601000  0.747100  0.082400  1.0  -0.7167
  O  O682  1  0.549460  0.727130  0.332650  1.0  -0.5525
  O  O683  1  0.540130  0.417660  0.186210  1.0  -0.9503
  O  O684  1  0.513200  0.847600  0.156500  1.0  -0.5521
  O  O685  1  0.489100  0.798000  0.055100  1.0  -0.2641
  O  O686  1  0.562700  0.826400  0.982100  1.0  -0.3261
  O  O687  1  0.395100  0.012260  0.304220  1.0  -0.6114
  O  O688  1  0.437300  0.028700  0.226400  1.0  -0.4585
  O  O689  1  0.369190  0.164290  0.438390  1.0  -0.6067
  O  O690  1  0.473400  0.284370  0.235210  1.0  -0.552
  O  O691  1  0.399000  0.247100  0.417600  1.0  -0.7136
  O  O692  1  0.450540  0.227130  0.167350  1.0  -0.5534
  O  O693  1  0.459870  0.917660  0.313790  1.0  -0.9506
  O  O694  1  0.486800  0.347600  0.343500  1.0  -0.5527
  O  O695  1  0.510900  0.298000  0.444900  1.0  -0.2625
  O  O696  1  0.437300  0.326400  0.517900  1.0  -0.3263
  O  O697  1  0.195780  0.895100  0.012260  1.0  -0.6097
  O  O698  1  0.273600  0.937300  0.028700  1.0  -0.4587
  O  O699  1  0.061610  0.869190  0.164290  1.0  -0.6063
  O  O700  1  0.264790  0.973400  0.284370  1.0  -0.5504
  O  O701  1  0.082400  0.899000  0.247100  1.0  -0.713
  O  O702  1  0.332650  0.950540  0.227130  1.0  -0.5516
  O  O703  1  0.186210  0.959870  0.917660  1.0  -0.9502
  O  O704  1  0.156500  0.986800  0.347600  1.0  -0.551
  O  O705  1  0.055100  0.010900  0.298000  1.0  -0.2606
  O  O706  1  0.982100  0.937300  0.326400  1.0  -0.3251
  O  O707  1  0.304220  0.104900  0.512260  1.0  -0.6093
  O  O708  1  0.226400  0.062700  0.528700  1.0  -0.4574
  O  O709  1  0.438390  0.130810  0.664290  1.0  -0.6059
  O  O710  1  0.235210  0.026600  0.784370  1.0  -0.5497
  O  O711  1  0.417600  0.101000  0.747100  1.0  -0.7119
  O  O712  1  0.167350  0.049460  0.727130  1.0  -0.5522
  O  O713  1  0.313790  0.040130  0.417660  1.0  -0.9509
  O  O714  1  0.343500  0.013200  0.847600  1.0  -0.5528
  O  O715  1  0.444900  0.989100  0.798000  1.0  -0.261
  O  O716  1  0.517900  0.062700  0.826400  1.0  -0.3235
  O  O717  1  0.804220  0.395100  0.487740  1.0  -0.61
  O  O718  1  0.726400  0.437300  0.471300  1.0  -0.4577
  O  O719  1  0.938390  0.369190  0.335710  1.0  -0.6067
  O  O720  1  0.735210  0.473400  0.215630  1.0  -0.5501
  O  O721  1  0.917600  0.399000  0.252900  1.0  -0.7127
  O  O722  1  0.667350  0.450540  0.272870  1.0  -0.5517
  O  O723  1  0.813790  0.459870  0.582340  1.0  -0.9478
  O  O724  1  0.843500  0.486800  0.152400  1.0  -0.5503
  O  O725  1  0.944900  0.510900  0.202000  1.0  -0.261
  O  O726  1  0.017900  0.437300  0.173600  1.0  -0.323
  O  O727  1  0.695780  0.604900  0.987740  1.0  -0.6104
  O  O728  1  0.773600  0.562700  0.971300  1.0  -0.4591
  O  O729  1  0.561610  0.630810  0.835710  1.0  -0.6074
  O  O730  1  0.764790  0.526600  0.715630  1.0  -0.5498
  O  O731  1  0.582400  0.601000  0.752900  1.0  -0.7128
  O  O732  1  0.832650  0.549460  0.772870  1.0  -0.5502
  O  O733  1  0.686210  0.540130  0.082340  1.0  -0.9483
  O  O734  1  0.656500  0.513200  0.652400  1.0  -0.554
  O  O735  1  0.555100  0.489100  0.702000  1.0  -0.2616
  O  O736  1  0.482100  0.562700  0.673600  1.0  -0.3233
  O  O737  1  0.012260  0.195780  0.895100  1.0  -0.6079
  O  O738  1  0.028700  0.273600  0.937300  1.0  -0.4518
  O  O739  1  0.164290  0.061610  0.869190  1.0  -0.6046
  O  O740  1  0.284370  0.264790  0.973400  1.0  -0.5507
  O  O741  1  0.247100  0.082400  0.899000  1.0  -0.7079
  O  O742  1  0.227130  0.332650  0.950540  1.0  -0.5539
  O  O743  1  0.917660  0.186210  0.959870  1.0  -0.9498
  O  O744  1  0.347600  0.156500  0.986800  1.0  -0.551
  O  O745  1  0.298000  0.055100  0.010900  1.0  -0.2641
  O  O746  1  0.326400  0.982100  0.937300  1.0  -0.3249
  O  O747  1  0.512260  0.304220  0.104900  1.0  -0.6071
  O  O748  1  0.528700  0.226400  0.062700  1.0  -0.4533
  O  O749  1  0.664290  0.438390  0.130810  1.0  -0.6041
  O  O750  1  0.784370  0.235210  0.026600  1.0  -0.5516
  O  O751  1  0.747100  0.417600  0.101000  1.0  -0.7092
  O  O752  1  0.727130  0.167350  0.049460  1.0  -0.5535
  O  O753  1  0.417660  0.313790  0.040130  1.0  -0.9488
  O  O754  1  0.847600  0.343500  0.013200  1.0  -0.5486
  O  O755  1  0.798000  0.444900  0.989100  1.0  -0.2648
  O  O756  1  0.826400  0.517900  0.062700  1.0  -0.3241
  O  O757  1  0.487740  0.804220  0.395100  1.0  -0.6073
  O  O758  1  0.471300  0.726400  0.437300  1.0  -0.4531
  O  O759  1  0.335710  0.938390  0.369190  1.0  -0.6034
  O  O760  1  0.215630  0.735210  0.473400  1.0  -0.5511
  O  O761  1  0.252900  0.917600  0.399000  1.0  -0.7101
  O  O762  1  0.272870  0.667350  0.450540  1.0  -0.5534
  O  O763  1  0.582340  0.813790  0.459870  1.0  -0.9498
  O  O764  1  0.152400  0.843500  0.486800  1.0  -0.5504
  O  O765  1  0.202000  0.944900  0.510900  1.0  -0.2643
  O  O766  1  0.173600  0.017900  0.437300  1.0  -0.3266
  O  O767  1  0.987740  0.695780  0.604900  1.0  -0.6076
  O  O768  1  0.971300  0.773600  0.562700  1.0  -0.4518
  O  O769  1  0.835710  0.561610  0.630810  1.0  -0.6033
  O  O770  1  0.715630  0.764790  0.526600  1.0  -0.5509
  O  O771  1  0.752900  0.582400  0.601000  1.0  -0.71
  O  O772  1  0.772870  0.832650  0.549460  1.0  -0.5528
  O  O773  1  0.082340  0.686210  0.540130  1.0  -0.9483
  O  O774  1  0.652400  0.656500  0.513200  1.0  -0.5505
  O  O775  1  0.702000  0.555100  0.489100  1.0  -0.266
  O  O776  1  0.673600  0.482100  0.562700  1.0  -0.3249
  O  O777  1  0.895100  0.012260  0.195780  1.0  -0.6112
  O  O778  1  0.937300  0.028700  0.273600  1.0  -0.4589
  O  O779  1  0.869190  0.164290  0.061610  1.0  -0.607
  O  O780  1  0.973400  0.284370  0.264790  1.0  -0.5514
  O  O781  1  0.899000  0.247100  0.082400  1.0  -0.7136
  O  O782  1  0.950540  0.227130  0.332650  1.0  -0.5518
  O  O783  1  0.959870  0.917660  0.186210  1.0  -0.9491
  O  O784  1  0.986800  0.347600  0.156500  1.0  -0.5511
  O  O785  1  0.010900  0.298000  0.055100  1.0  -0.263
  O  O786  1  0.937300  0.326400  0.982100  1.0  -0.3258
  O  O787  1  0.104900  0.512260  0.304220  1.0  -0.6113
  O  O788  1  0.062700  0.528700  0.226400  1.0  -0.4577
  O  O789  1  0.130810  0.664290  0.438390  1.0  -0.6062
  O  O790  1  0.026600  0.784370  0.235210  1.0  -0.5522
  O  O791  1  0.101000  0.747100  0.417600  1.0  -0.7164
  O  O792  1  0.049460  0.727130  0.167350  1.0  -0.5543
  O  O793  1  0.040130  0.417660  0.313790  1.0  -0.9517
  O  O794  1  0.013200  0.847600  0.343500  1.0  -0.5536
  O  O795  1  0.989100  0.798000  0.444900  1.0  -0.2638
  O  O796  1  0.062700  0.826400  0.517900  1.0  -0.3269
  O  O797  1  0.395100  0.487740  0.804220  1.0  -0.6117
  O  O798  1  0.437300  0.471300  0.726400  1.0  -0.4584
  O  O799  1  0.369190  0.335710  0.938390  1.0  -0.6081
  O  O800  1  0.473400  0.215630  0.735210  1.0  -0.5529
  O  O801  1  0.399000  0.252900  0.917600  1.0  -0.7123
  O  O802  1  0.450540  0.272870  0.667350  1.0  -0.5534
  O  O803  1  0.459870  0.582340  0.813790  1.0  -0.9504
  O  O804  1  0.486800  0.152400  0.843500  1.0  -0.5518
  O  O805  1  0.510900  0.202000  0.944900  1.0  -0.2619
  O  O806  1  0.437300  0.173600  0.017900  1.0  -0.3256
  O  O807  1  0.604900  0.987740  0.695780  1.0  -0.6114
  O  O808  1  0.562700  0.971300  0.773600  1.0  -0.459
  O  O809  1  0.630810  0.835710  0.561610  1.0  -0.6071
  O  O810  1  0.526600  0.715630  0.764790  1.0  -0.552
  O  O811  1  0.601000  0.752900  0.582400  1.0  -0.7142
  O  O812  1  0.549460  0.772870  0.832650  1.0  -0.5532
  O  O813  1  0.540130  0.082340  0.686210  1.0  -0.9499
  O  O814  1  0.513200  0.652400  0.656500  1.0  -0.5518
  O  O815  1  0.489100  0.702000  0.555100  1.0  -0.2633
  O  O816  1  0.562700  0.673600  0.482100  1.0  -0.3249
  O  O817  1  0.857100  0.142900  0.642900  1.0  -0.659
  O  O818  1  0.934900  0.065100  0.565100  1.0  -0.6822
  O  O819  1  0.642900  0.857100  0.142900  1.0  -0.6599
  O  O820  1  0.565100  0.934900  0.065100  1.0  -0.6839
  O  O821  1  0.142900  0.642900  0.857100  1.0  -0.6603
  O  O822  1  0.065100  0.565100  0.934900  1.0  -0.6841
  O  O823  1  0.357100  0.357100  0.357100  1.0  -0.6616
  O  O824  1  0.434900  0.434900  0.434900  1.0  -0.683
  O  O825  1  0.142900  0.857100  0.357100  1.0  -0.662
  O  O826  1  0.065100  0.934900  0.434900  1.0  -0.6844
  O  O827  1  0.357100  0.142900  0.857100  1.0  -0.6601
  O  O828  1  0.434900  0.065100  0.934900  1.0  -0.6826
  O  O829  1  0.857100  0.357100  0.142900  1.0  -0.6596
  O  O830  1  0.934900  0.434900  0.065100  1.0  -0.6826
  O  O831  1  0.642900  0.642900  0.642900  1.0  -0.659
  O  O832  1  0.565100  0.565100  0.565100  1.0  -0.6838
