# generated using pymatgen
data_EuAg3H75C86N21
_symmetry_space_group_name_H-M   'P 1'
_cell_length_a   14.24370000
_cell_length_b   25.82960000
_cell_length_c   27.83910000
_cell_angle_alpha   90.00000000
_cell_angle_beta   97.59200000
_cell_angle_gamma   90.00000000
_symmetry_Int_Tables_number   1
_chemical_formula_structural   EuAg3H75C86N21
_chemical_formula_sum   'Eu4 Ag12 H300 C344 N84'
_cell_volume   10152.47382943
_cell_formula_units_Z   4
loop_
 _symmetry_equiv_pos_site_id
 _symmetry_equiv_pos_as_xyz
  1  'x, y, z'
loop_
 _atom_site_type_symbol
 _atom_site_label
 _atom_site_symmetry_multiplicity
 _atom_site_fract_x
 _atom_site_fract_y
 _atom_site_fract_z
 _atom_site_occupancy
 _atom_site_charge
  Eu  Eu1  1  0.522240  0.584860  0.780940  1.0  1.9525
  Eu  Eu2  1  0.477760  0.084860  0.719060  1.0  1.9523
  Eu  Eu3  1  0.477760  0.415140  0.219060  1.0  1.9521
  Eu  Eu4  1  0.522240  0.915140  0.280940  1.0  1.9523
  Ag  Ag5  1  0.073920  0.520200  0.926490  1.0  0.2461
  Ag  Ag6  1  0.917860  0.614980  0.467450  1.0  0.1467
  Ag  Ag7  1  0.015720  0.260530  0.816190  1.0  0.1599
  Ag  Ag8  1  0.926080  0.020200  0.573510  1.0  0.2449
  Ag  Ag9  1  0.082140  0.114980  0.032550  1.0  0.1453
  Ag  Ag10  1  0.984280  0.760530  0.683810  1.0  0.1579
  Ag  Ag11  1  0.926080  0.479800  0.073510  1.0  0.245
  Ag  Ag12  1  0.082140  0.385020  0.532550  1.0  0.1459
  Ag  Ag13  1  0.984280  0.739470  0.183810  1.0  0.1568
  Ag  Ag14  1  0.073920  0.979800  0.426490  1.0  0.2459
  Ag  Ag15  1  0.917860  0.885020  0.967450  1.0  0.1458
  Ag  Ag16  1  0.015720  0.239470  0.316190  1.0  0.1594
  H  H17  1  0.813300  0.532300  0.792900  1.0  0.0533
  H  H18  1  0.734300  0.522200  0.747200  1.0  0.0649
  H  H19  1  0.465200  0.492900  0.882200  1.0  0.0944
  H  H20  1  0.443700  0.411200  0.916700  1.0  0.0732
  H  H21  1  0.551400  0.344100  0.910200  1.0  0.0626
  H  H22  1  0.682200  0.355500  0.869800  1.0  0.1004
  H  H23  1  0.812200  0.437400  0.778100  1.0  0.0757
  H  H24  1  0.768500  0.385500  0.797100  1.0  0.0951
  H  H25  1  0.872900  0.335900  0.850500  1.0  0.1023
  H  H26  1  0.013100  0.327900  0.905600  1.0  0.0888
  H  H27  1  0.100200  0.399100  0.928700  1.0  0.0636
  H  H28  1  0.913100  0.487200  0.851500  1.0  0.0434
  H  H29  1  0.801200  0.610600  0.738900  1.0  0.0519
  H  H30  1  0.730100  0.655500  0.751300  1.0  0.0666
  H  H31  1  0.426200  0.529400  0.654600  1.0  0.0953
  H  H32  1  0.382600  0.534300  0.570200  1.0  0.0741
  H  H33  1  0.476000  0.579600  0.521600  1.0  0.0729
  H  H34  1  0.618300  0.618200  0.554100  1.0  0.0961
  H  H35  1  0.783500  0.671000  0.667900  1.0  0.0739
  H  H36  1  0.723700  0.676600  0.615300  1.0  0.0937
  H  H37  1  0.892700  0.586900  0.679100  1.0  0.1002
  H  H38  1  0.006100  0.543400  0.641800  1.0  0.0854
  H  H39  1  0.017200  0.557600  0.561600  1.0  0.0583
  H  H40  1  0.794700  0.647900  0.549800  1.0  0.0743
  H  H41  1  0.758100  0.583000  0.857600  1.0  0.0631
  H  H42  1  0.815900  0.623300  0.828800  1.0  0.055
  H  H43  1  0.445800  0.725900  0.804200  1.0  0.0984
  H  H44  1  0.411600  0.789400  0.859800  1.0  0.0788
  H  H45  1  0.512200  0.802900  0.931200  1.0  0.0838
  H  H46  1  0.655800  0.758100  0.948200  1.0  0.0995
  H  H47  1  0.824400  0.645600  0.920200  1.0  0.0774
  H  H48  1  0.776000  0.685200  0.953600  1.0  0.0992
  H  H49  1  0.941300  0.678900  0.867700  1.0  0.097
  H  H50  1  0.048800  0.745500  0.856800  1.0  0.0861
  H  H51  1  0.037800  0.823700  0.894800  1.0  0.0567
  H  H52  1  0.821700  0.774500  0.956700  1.0  0.0656
  H  H53  1  0.235400  0.528000  0.777400  1.0  0.0721
  H  H54  1  0.304400  0.535400  0.827300  1.0  0.0634
  H  H55  1  0.590000  0.461900  0.710300  1.0  0.1066
  H  H56  1  0.628100  0.374200  0.710500  1.0  0.0764
  H  H57  1  0.544400  0.313900  0.749100  1.0  0.0698
  H  H58  1  0.409900  0.337100  0.784200  1.0  0.0891
  H  H59  1  0.256800  0.448100  0.835700  1.0  0.0811
  H  H60  1  0.314400  0.394800  0.839700  1.0  0.0901
  H  H61  1  0.175900  0.443400  0.731000  1.0  0.0924
  H  H62  1  0.046000  0.396800  0.689000  1.0  0.0904
  H  H63  1  0.989100  0.326600  0.725500  1.0  0.0545
  H  H64  1  0.199800  0.331900  0.830300  1.0  0.0818
  H  H65  1  0.296000  0.558600  0.704700  1.0  0.0582
  H  H66  1  0.228800  0.604100  0.719800  1.0  0.0552
  H  H67  1  0.591400  0.716000  0.725500  1.0  0.0974
  H  H68  1  0.625800  0.760100  0.656600  1.0  0.0754
  H  H69  1  0.526000  0.753500  0.583300  1.0  0.0699
  H  H70  1  0.383200  0.706800  0.576800  1.0  0.0918
  H  H71  1  0.237600  0.596100  0.629600  1.0  0.0832
  H  H72  1  0.288300  0.623300  0.588400  1.0  0.0918
  H  H73  1  0.170500  0.658200  0.533700  1.0  0.0987
  H  H74  1  0.036100  0.709800  0.514600  1.0  0.0848
  H  H75  1  0.960000  0.741200  0.575800  1.0  0.068
  H  H76  1  0.154200  0.681400  0.674000  1.0  0.0618
  H  H77  1  0.238800  0.621500  0.810600  1.0  0.0515
  H  H78  1  0.307200  0.660400  0.786500  1.0  0.0683
  H  H79  1  0.613700  0.572500  0.917900  1.0  0.0997
  H  H80  1  0.655500  0.607300  0.995800  1.0  0.0818
  H  H81  1  0.560200  0.669300  0.026500  1.0  0.074
  H  H82  1  0.415400  0.694900  0.983100  1.0  0.092
  H  H83  1  0.240600  0.700300  0.861800  1.0  0.0712
  H  H84  1  0.301900  0.726400  0.907900  1.0  0.0857
  H  H85  1  0.211100  0.729800  0.974000  1.0  0.095
  H  H86  1  0.108100  0.690500  0.022000  1.0  0.085
  H  H87  1  0.054900  0.607500  0.003700  1.0  0.0582
  H  H88  1  0.189400  0.604700  0.889400  1.0  0.0467
  H  H89  1  0.218600  0.486900  0.495700  1.0  0.1299
  H  H90  1  0.268500  0.537500  0.477600  1.0  0.1351
  H  H91  1  0.219800  0.496500  0.439000  1.0  0.1085
  H  H92  1  0.186700  0.032300  0.707100  1.0  0.0534
  H  H93  1  0.265700  0.022200  0.752800  1.0  0.0634
  H  H94  1  0.534800  0.992900  0.617800  1.0  0.0939
  H  H95  1  0.556300  0.911200  0.583300  1.0  0.0732
  H  H96  1  0.448600  0.844100  0.589800  1.0  0.0624
  H  H97  1  0.317800  0.855500  0.630200  1.0  0.0997
  H  H98  1  0.187800  0.937400  0.721900  1.0  0.0752
  H  H99  1  0.231500  0.885500  0.702900  1.0  0.0953
  H  H100  1  0.127100  0.835900  0.649500  1.0  0.1026
  H  H101  1  0.986900  0.827900  0.594400  1.0  0.0892
  H  H102  1  0.899800  0.899100  0.571300  1.0  0.065
  H  H103  1  0.086900  0.987200  0.648500  1.0  0.0436
  H  H104  1  0.198800  0.110600  0.761100  1.0  0.0519
  H  H105  1  0.269900  0.155500  0.748700  1.0  0.0669
  H  H106  1  0.573800  0.029400  0.845400  1.0  0.0962
  H  H107  1  0.617400  0.034300  0.929800  1.0  0.0742
  H  H108  1  0.524000  0.079600  0.978400  1.0  0.0727
  H  H109  1  0.381700  0.118200  0.945900  1.0  0.0962
  H  H110  1  0.216500  0.171000  0.832100  1.0  0.0747
  H  H111  1  0.276300  0.176600  0.884700  1.0  0.093
  H  H112  1  0.107300  0.086900  0.820900  1.0  0.1018
  H  H113  1  0.993900  0.043400  0.858200  1.0  0.0855
  H  H114  1  0.982800  0.057600  0.938400  1.0  0.0579
  H  H115  1  0.205300  0.147900  0.950200  1.0  0.0739
  H  H116  1  0.241900  0.083000  0.642400  1.0  0.0635
  H  H117  1  0.184100  0.123300  0.671200  1.0  0.0564
  H  H118  1  0.554200  0.225900  0.695800  1.0  0.0987
  H  H119  1  0.588400  0.289400  0.640200  1.0  0.0785
  H  H120  1  0.487800  0.302900  0.568800  1.0  0.0841
  H  H121  1  0.344200  0.258100  0.551800  1.0  0.0993
  H  H122  1  0.175600  0.145600  0.579800  1.0  0.0767
  H  H123  1  0.224000  0.185200  0.546400  1.0  0.0989
  H  H124  1  0.058700  0.178900  0.632300  1.0  0.0971
  H  H125  1  0.951200  0.245500  0.643200  1.0  0.0868
  H  H126  1  0.962200  0.323700  0.605200  1.0  0.0576
  H  H127  1  0.178300  0.274500  0.543300  1.0  0.0664
  H  H128  1  0.764600  0.028000  0.722600  1.0  0.0703
  H  H129  1  0.695600  0.035400  0.672700  1.0  0.063
  H  H130  1  0.410000  0.961900  0.789700  1.0  0.106
  H  H131  1  0.371900  0.874200  0.789500  1.0  0.0762
  H  H132  1  0.455600  0.813900  0.750900  1.0  0.0696
  H  H133  1  0.590100  0.837100  0.715800  1.0  0.0901
  H  H134  1  0.743200  0.948100  0.664300  1.0  0.0815
  H  H135  1  0.685600  0.894800  0.660300  1.0  0.0883
  H  H136  1  0.824100  0.943400  0.769000  1.0  0.0913
  H  H137  1  0.954000  0.896800  0.811000  1.0  0.0898
  H  H138  1  0.010900  0.826600  0.774500  1.0  0.0536
  H  H139  1  0.800200  0.831900  0.669700  1.0  0.0817
  H  H140  1  0.704000  0.058600  0.795300  1.0  0.0584
  H  H141  1  0.771200  0.104100  0.780200  1.0  0.053
  H  H142  1  0.408600  0.216000  0.774500  1.0  0.097
  H  H143  1  0.374200  0.260100  0.843400  1.0  0.0759
  H  H144  1  0.474000  0.253500  0.916700  1.0  0.0703
  H  H145  1  0.616800  0.206800  0.923200  1.0  0.0917
  H  H146  1  0.762400  0.096100  0.870400  1.0  0.0827
  H  H147  1  0.711700  0.123300  0.911600  1.0  0.0917
  H  H148  1  0.829500  0.158200  0.966300  1.0  0.0986
  H  H149  1  0.963900  0.209800  0.985400  1.0  0.0849
  H  H150  1  0.040000  0.241200  0.924200  1.0  0.0679
  H  H151  1  0.845800  0.181400  0.826000  1.0  0.0628
  H  H152  1  0.761200  0.121500  0.689400  1.0  0.05
  H  H153  1  0.692800  0.160400  0.713500  1.0  0.0666
  H  H154  1  0.386300  0.072500  0.582100  1.0  0.1004
  H  H155  1  0.344500  0.107300  0.504200  1.0  0.082
  H  H156  1  0.439800  0.169300  0.473500  1.0  0.0736
  H  H157  1  0.584600  0.194900  0.516900  1.0  0.0929
  H  H158  1  0.759400  0.200300  0.638200  1.0  0.0693
  H  H159  1  0.698100  0.226400  0.592100  1.0  0.0859
  H  H160  1  0.788900  0.229800  0.526000  1.0  0.0955
  H  H161  1  0.891900  0.190500  0.478000  1.0  0.0835
  H  H162  1  0.945100  0.107500  0.496300  1.0  0.0581
  H  H163  1  0.810600  0.104700  0.610600  1.0  0.0473
  H  H164  1  0.781400  0.986900  0.004300  1.0  0.1284
  H  H165  1  0.731500  0.037500  0.022400  1.0  0.1354
  H  H166  1  0.780200  0.996500  0.061000  1.0  0.1065
  H  H167  1  0.186700  0.467700  0.207100  1.0  0.0536
  H  H168  1  0.265700  0.477800  0.252800  1.0  0.0621
  H  H169  1  0.534800  0.507100  0.117800  1.0  0.0942
  H  H170  1  0.556300  0.588800  0.083300  1.0  0.0733
  H  H171  1  0.448600  0.655900  0.089800  1.0  0.0628
  H  H172  1  0.317800  0.644500  0.130200  1.0  0.1002
  H  H173  1  0.187800  0.562600  0.221900  1.0  0.076
  H  H174  1  0.231500  0.614500  0.202900  1.0  0.0934
  H  H175  1  0.127100  0.664100  0.149500  1.0  0.1024
  H  H176  1  0.986900  0.672100  0.094400  1.0  0.0895
  H  H177  1  0.899800  0.600900  0.071300  1.0  0.0648
  H  H178  1  0.086900  0.512800  0.148500  1.0  0.0438
  H  H179  1  0.198800  0.389400  0.261100  1.0  0.0525
  H  H180  1  0.269900  0.344500  0.248700  1.0  0.0664
  H  H181  1  0.573800  0.470600  0.345400  1.0  0.0968
  H  H182  1  0.617400  0.465700  0.429800  1.0  0.0734
  H  H183  1  0.524000  0.420400  0.478400  1.0  0.0729
  H  H184  1  0.381700  0.381800  0.445900  1.0  0.0961
  H  H185  1  0.216500  0.329000  0.332100  1.0  0.0742
  H  H186  1  0.276300  0.323400  0.384700  1.0  0.0941
  H  H187  1  0.107300  0.413100  0.320900  1.0  0.1018
  H  H188  1  0.993900  0.456600  0.358200  1.0  0.0861
  H  H189  1  0.982800  0.442400  0.438400  1.0  0.0577
  H  H190  1  0.205300  0.352100  0.450200  1.0  0.0739
  H  H191  1  0.241900  0.417000  0.142400  1.0  0.0639
  H  H192  1  0.184100  0.376700  0.171200  1.0  0.0566
  H  H193  1  0.554200  0.274100  0.195800  1.0  0.1
  H  H194  1  0.588400  0.210600  0.140200  1.0  0.0786
  H  H195  1  0.487800  0.197100  0.068800  1.0  0.0832
  H  H196  1  0.344200  0.241900  0.051800  1.0  0.0989
  H  H197  1  0.175600  0.354400  0.079800  1.0  0.0779
  H  H198  1  0.224000  0.314800  0.046400  1.0  0.0994
  H  H199  1  0.058700  0.321100  0.132300  1.0  0.097
  H  H200  1  0.951200  0.254500  0.143200  1.0  0.0872
  H  H201  1  0.962200  0.176300  0.105200  1.0  0.0575
  H  H202  1  0.178300  0.225500  0.043300  1.0  0.0661
  H  H203  1  0.764600  0.472000  0.222600  1.0  0.0702
  H  H204  1  0.695600  0.464600  0.172700  1.0  0.0628
  H  H205  1  0.410000  0.538100  0.289700  1.0  0.1063
  H  H206  1  0.371900  0.625800  0.289500  1.0  0.0757
  H  H207  1  0.455600  0.686100  0.250900  1.0  0.0696
  H  H208  1  0.590100  0.662900  0.215800  1.0  0.0903
  H  H209  1  0.743200  0.551900  0.164300  1.0  0.0818
  H  H210  1  0.685600  0.605200  0.160300  1.0  0.0884
  H  H211  1  0.824100  0.556600  0.269000  1.0  0.0914
  H  H212  1  0.954000  0.603200  0.311000  1.0  0.0896
  H  H213  1  0.010900  0.673400  0.274500  1.0  0.0535
  H  H214  1  0.800200  0.668100  0.169700  1.0  0.0816
  H  H215  1  0.704000  0.441400  0.295300  1.0  0.0568
  H  H216  1  0.771200  0.395900  0.280200  1.0  0.0532
  H  H217  1  0.408600  0.284000  0.274500  1.0  0.0973
  H  H218  1  0.374200  0.239900  0.343400  1.0  0.0751
  H  H219  1  0.474000  0.246500  0.416700  1.0  0.0708
  H  H220  1  0.616800  0.293200  0.423200  1.0  0.0921
  H  H221  1  0.762400  0.403900  0.370400  1.0  0.082
  H  H222  1  0.711700  0.376700  0.411600  1.0  0.0912
  H  H223  1  0.829500  0.341800  0.466300  1.0  0.0986
  H  H224  1  0.963900  0.290200  0.485400  1.0  0.0849
  H  H225  1  0.040000  0.258800  0.424200  1.0  0.0677
  H  H226  1  0.845800  0.318600  0.326000  1.0  0.0626
  H  H227  1  0.761200  0.378500  0.189400  1.0  0.05
  H  H228  1  0.692800  0.339600  0.213500  1.0  0.0678
  H  H229  1  0.386300  0.427500  0.082100  1.0  0.1019
  H  H230  1  0.344500  0.392700  0.004200  1.0  0.0816
  H  H231  1  0.439800  0.330700  0.973500  1.0  0.0741
  H  H232  1  0.584600  0.305100  0.016900  1.0  0.0926
  H  H233  1  0.759400  0.299700  0.138200  1.0  0.0703
  H  H234  1  0.698100  0.273600  0.092100  1.0  0.0853
  H  H235  1  0.788900  0.270200  0.026000  1.0  0.0949
  H  H236  1  0.891900  0.309500  0.978000  1.0  0.0843
  H  H237  1  0.945100  0.392500  0.996300  1.0  0.0577
  H  H238  1  0.810600  0.395300  0.110600  1.0  0.0467
  H  H239  1  0.781400  0.513100  0.504300  1.0  0.1288
  H  H240  1  0.731500  0.462500  0.522400  1.0  0.1349
  H  H241  1  0.780200  0.503500  0.561000  1.0  0.1062
  H  H242  1  0.813300  0.967700  0.292900  1.0  0.0532
  H  H243  1  0.734300  0.977800  0.247200  1.0  0.0651
  H  H244  1  0.465200  0.007100  0.382200  1.0  0.0944
  H  H245  1  0.443700  0.088800  0.416700  1.0  0.0733
  H  H246  1  0.551400  0.155900  0.410200  1.0  0.0628
  H  H247  1  0.682200  0.144500  0.369800  1.0  0.0999
  H  H248  1  0.812200  0.062600  0.278100  1.0  0.076
  H  H249  1  0.768500  0.114500  0.297100  1.0  0.094
  H  H250  1  0.872900  0.164100  0.350500  1.0  0.1029
  H  H251  1  0.013100  0.172100  0.405600  1.0  0.0893
  H  H252  1  0.100200  0.100900  0.428700  1.0  0.0635
  H  H253  1  0.913100  0.012800  0.351500  1.0  0.0441
  H  H254  1  0.801200  0.889400  0.238900  1.0  0.0521
  H  H255  1  0.730100  0.844500  0.251300  1.0  0.0685
  H  H256  1  0.426200  0.970600  0.154600  1.0  0.0953
  H  H257  1  0.382600  0.965700  0.070200  1.0  0.0741
  H  H258  1  0.476000  0.920400  0.021600  1.0  0.073
  H  H259  1  0.618300  0.881800  0.054100  1.0  0.096
  H  H260  1  0.783500  0.829000  0.167900  1.0  0.074
  H  H261  1  0.723700  0.823400  0.115300  1.0  0.0935
  H  H262  1  0.892700  0.913100  0.179100  1.0  0.1004
  H  H263  1  0.006100  0.956600  0.141800  1.0  0.085
  H  H264  1  0.017200  0.942400  0.061600  1.0  0.0585
  H  H265  1  0.794700  0.852100  0.049800  1.0  0.0739
  H  H266  1  0.758100  0.917000  0.357600  1.0  0.0624
  H  H267  1  0.815900  0.876700  0.328800  1.0  0.0551
  H  H268  1  0.445800  0.774100  0.304200  1.0  0.0994
  H  H269  1  0.411600  0.710600  0.359800  1.0  0.079
  H  H270  1  0.512200  0.697100  0.431200  1.0  0.0836
  H  H271  1  0.655800  0.741900  0.448200  1.0  0.0994
  H  H272  1  0.824400  0.854400  0.420200  1.0  0.0765
  H  H273  1  0.776000  0.814800  0.453600  1.0  0.099
  H  H274  1  0.941300  0.821100  0.367700  1.0  0.0976
  H  H275  1  0.048800  0.754500  0.356800  1.0  0.0865
  H  H276  1  0.037800  0.676300  0.394800  1.0  0.0573
  H  H277  1  0.821700  0.725500  0.456700  1.0  0.066
  H  H278  1  0.235400  0.972000  0.277400  1.0  0.0722
  H  H279  1  0.304400  0.964600  0.327300  1.0  0.0625
  H  H280  1  0.590000  0.038100  0.210300  1.0  0.1068
  H  H281  1  0.628100  0.125800  0.210500  1.0  0.0765
  H  H282  1  0.544400  0.186100  0.249100  1.0  0.0698
  H  H283  1  0.409900  0.162900  0.284200  1.0  0.0898
  H  H284  1  0.256800  0.051900  0.335700  1.0  0.082
  H  H285  1  0.314400  0.105200  0.339700  1.0  0.0896
  H  H286  1  0.175900  0.056600  0.231000  1.0  0.0918
  H  H287  1  0.046000  0.103200  0.189000  1.0  0.0906
  H  H288  1  0.989100  0.173400  0.225500  1.0  0.054
  H  H289  1  0.199800  0.168100  0.330300  1.0  0.0815
  H  H290  1  0.296000  0.941400  0.204700  1.0  0.0589
  H  H291  1  0.228800  0.895900  0.219800  1.0  0.0548
  H  H292  1  0.591400  0.784000  0.225500  1.0  0.0966
  H  H293  1  0.625800  0.739900  0.156600  1.0  0.0762
  H  H294  1  0.526000  0.746500  0.083300  1.0  0.0699
  H  H295  1  0.383200  0.793200  0.076800  1.0  0.0917
  H  H296  1  0.237600  0.903900  0.129600  1.0  0.0838
  H  H297  1  0.288300  0.876700  0.088400  1.0  0.0914
  H  H298  1  0.170500  0.841800  0.033700  1.0  0.0987
  H  H299  1  0.036100  0.790200  0.014600  1.0  0.0849
  H  H300  1  0.960000  0.758800  0.075800  1.0  0.0681
  H  H301  1  0.154200  0.818600  0.174000  1.0  0.0624
  H  H302  1  0.238800  0.878500  0.310600  1.0  0.0518
  H  H303  1  0.307200  0.839600  0.286500  1.0  0.068
  H  H304  1  0.613700  0.927500  0.417900  1.0  0.1002
  H  H305  1  0.655500  0.892700  0.495800  1.0  0.0815
  H  H306  1  0.560200  0.830700  0.526500  1.0  0.0748
  H  H307  1  0.415400  0.805100  0.483100  1.0  0.0925
  H  H308  1  0.240600  0.799700  0.361800  1.0  0.0718
  H  H309  1  0.301900  0.773600  0.407900  1.0  0.0859
  H  H310  1  0.211100  0.770200  0.474000  1.0  0.0951
  H  H311  1  0.108100  0.809500  0.522000  1.0  0.0858
  H  H312  1  0.054900  0.892500  0.503700  1.0  0.0578
  H  H313  1  0.189400  0.895300  0.389400  1.0  0.0466
  H  H314  1  0.218600  0.013100  0.995700  1.0  0.13
  H  H315  1  0.268500  0.962500  0.977600  1.0  0.1351
  H  H316  1  0.219800  0.003500  0.939000  1.0  0.1083
  C  C317  1  0.744500  0.533700  0.781400  1.0  -0.1338
  C  C318  1  0.692400  0.499100  0.811540  1.0  0.3413
  C  C319  1  0.585700  0.471300  0.853980  1.0  0.1351
  C  C320  1  0.508100  0.465300  0.879200  1.0  -0.1338
  C  C321  1  0.496400  0.417000  0.899700  1.0  -0.1281
  C  C322  1  0.561600  0.376700  0.895800  1.0  -0.1078
  C  C323  1  0.638500  0.382900  0.872100  1.0  -0.142
  C  C324  1  0.650400  0.431600  0.851240  1.0  0.0693
  C  C325  1  0.793400  0.420200  0.807200  1.0  -0.1765
  C  C326  1  0.881500  0.413300  0.844300  1.0  0.077
  C  C327  1  0.909200  0.365700  0.860900  1.0  -0.1699
  C  C328  1  0.992500  0.361000  0.893600  1.0  -0.1354
  C  C329  1  0.042500  0.403100  0.907700  1.0  0.1154
  C  C330  1  0.934100  0.453600  0.861900  1.0  0.1235
  C  C331  1  0.735200  0.618100  0.744220  1.0  -0.155
  C  C332  1  0.668200  0.603900  0.700200  1.0  0.3121
  C  C333  1  0.547700  0.571900  0.654230  1.0  0.1313
  C  C334  1  0.464400  0.547500  0.634700  1.0  -0.1208
  C  C335  1  0.439100  0.550600  0.584700  1.0  -0.1408
  C  C336  1  0.496100  0.577500  0.555400  1.0  -0.1262
  C  C337  1  0.579400  0.600700  0.574000  1.0  -0.1413
  C  C338  1  0.603800  0.597000  0.624040  1.0  0.0953
  C  C339  1  0.753800  0.651400  0.639300  1.0  -0.1249
  C  C340  1  0.829700  0.621900  0.617500  1.0  0.0848
  C  C341  1  0.894900  0.590800  0.645400  1.0  -0.1019
  C  C342  1  0.962500  0.566000  0.623500  1.0  -0.1549
  C  C343  1  0.967300  0.573600  0.575700  1.0  0.1392
  C  C344  1  0.838600  0.626400  0.569300  1.0  0.0592
  C  C345  1  0.752000  0.609800  0.831900  1.0  -0.1443
  C  C346  1  0.690400  0.652200  0.844850  1.0  0.3502
  C  C347  1  0.571300  0.704200  0.844300  1.0  0.1417
  C  C348  1  0.487600  0.732100  0.833200  1.0  -0.1391
  C  C349  1  0.467900  0.769400  0.866200  1.0  -0.1343
  C  C350  1  0.529200  0.778000  0.908700  1.0  -0.1248
  C  C351  1  0.613900  0.751700  0.919300  1.0  -0.1436
  C  C352  1  0.634100  0.715900  0.885800  1.0  0.0661
  C  C353  1  0.795300  0.680300  0.921000  1.0  -0.1416
  C  C354  1  0.867800  0.720900  0.912800  1.0  0.0503
  C  C355  1  0.937400  0.711500  0.883200  1.0  -0.0754
  C  C356  1  0.000700  0.750800  0.876900  1.0  -0.175
  C  C357  1  0.993700  0.797200  0.899600  1.0  0.119
  C  C358  1  0.867300  0.768700  0.935200  1.0  0.0949
  C  C359  1  0.301800  0.534400  0.791580  1.0  -0.1333
  C  C360  1  0.363500  0.492100  0.777560  1.0  0.3477
  C  C361  1  0.475000  0.452000  0.747550  1.0  0.1311
  C  C362  1  0.553800  0.437200  0.725200  1.0  -0.151
  C  C363  1  0.576000  0.385500  0.725900  1.0  -0.141
  C  C364  1  0.524600  0.349000  0.748300  1.0  -0.1178
  C  C365  1  0.445700  0.362200  0.769600  1.0  -0.1473
  C  C366  1  0.421600  0.414700  0.768300  1.0  0.041
  C  C367  1  0.281300  0.420000  0.816600  1.0  -0.1641
  C  C368  1  0.197800  0.393000  0.786300  1.0  0.056
  C  C369  1  0.154300  0.412300  0.744000  1.0  -0.0821
  C  C370  1  0.076000  0.385300  0.719600  1.0  -0.1776
  C  C371  1  0.045100  0.342800  0.740600  1.0  0.1258
  C  C372  1  0.165700  0.347400  0.802300  1.0  0.0448
  C  C373  1  0.295100  0.591800  0.722410  1.0  -0.1087
  C  C374  1  0.354200  0.630600  0.701100  1.0  0.3514
  C  C375  1  0.467900  0.683500  0.691300  1.0  0.1072
  C  C376  1  0.550700  0.713600  0.695700  1.0  -0.1612
  C  C377  1  0.570200  0.739500  0.655000  1.0  -0.1031
  C  C378  1  0.509000  0.736000  0.611000  1.0  -0.1299
  C  C379  1  0.425100  0.708100  0.606300  1.0  -0.182
  C  C380  1  0.406700  0.682400  0.647500  1.0  0.0941
  C  C381  1  0.260200  0.629800  0.618500  1.0  -0.1536
  C  C382  1  0.175800  0.665000  0.606500  1.0  0.0779
  C  C383  1  0.140100  0.673100  0.558800  1.0  -0.0917
  C  C384  1  0.060300  0.702900  0.547400  1.0  -0.1722
  C  C385  1  0.017100  0.722300  0.584000  1.0  0.1307
  C  C386  1  0.129400  0.686900  0.641000  1.0  0.1017
  C  C387  1  0.304700  0.627100  0.803950  1.0  -0.1437
  C  C388  1  0.369700  0.628700  0.850120  1.0  0.3423
  C  C389  1  0.490000  0.614300  0.904450  1.0  0.1405
  C  C390  1  0.574600  0.597200  0.930790  1.0  -0.1362
  C  C391  1  0.598700  0.618100  0.976700  1.0  -0.1154
  C  C392  1  0.540400  0.654900  0.995390  1.0  -0.125
  C  C393  1  0.455400  0.670700  0.970020  1.0  -0.1406
  C  C394  1  0.432000  0.649400  0.924510  1.0  0.068
  C  C395  1  0.276400  0.693200  0.894100  1.0  -0.089
  C  C396  1  0.210600  0.670100  0.926700  1.0  0.0375
  C  C397  1  0.186700  0.696100  0.966300  1.0  -0.0848
  C  C398  1  0.126900  0.672800  0.994900  1.0  -0.1435
  C  C399  1  0.095000  0.623900  0.983600  1.0  0.1108
  C  C400  1  0.174200  0.622200  0.917400  1.0  0.0888
  C  C401  1  0.126000  0.541400  0.467800  1.0  0.3225
  C  C402  1  0.215600  0.513300  0.470200  1.0  -0.4029
  C  C403  1  0.255500  0.033700  0.718600  1.0  -0.132
  C  C404  1  0.307600  0.999100  0.688460  1.0  0.3424
  C  C405  1  0.414300  0.971300  0.646020  1.0  0.1342
  C  C406  1  0.491900  0.965300  0.620800  1.0  -0.1329
  C  C407  1  0.503600  0.917000  0.600300  1.0  -0.1291
  C  C408  1  0.438400  0.876700  0.604200  1.0  -0.1069
  C  C409  1  0.361500  0.882900  0.627900  1.0  -0.1421
  C  C410  1  0.349600  0.931600  0.648760  1.0  0.0684
  C  C411  1  0.206600  0.920200  0.692800  1.0  -0.1779
  C  C412  1  0.118500  0.913300  0.655700  1.0  0.0761
  C  C413  1  0.090800  0.865700  0.639100  1.0  -0.1695
  C  C414  1  0.007500  0.861000  0.606400  1.0  -0.1338
  C  C415  1  0.957500  0.903100  0.592300  1.0  0.1152
  C  C416  1  0.065900  0.953600  0.638100  1.0  0.1245
  C  C417  1  0.264800  0.118100  0.755780  1.0  -0.1537
  C  C418  1  0.331800  0.103900  0.799800  1.0  0.3121
  C  C419  1  0.452300  0.071900  0.845770  1.0  0.1322
  C  C420  1  0.535600  0.047500  0.865300  1.0  -0.1213
  C  C421  1  0.560900  0.050600  0.915300  1.0  -0.141
  C  C422  1  0.503900  0.077500  0.944600  1.0  -0.1255
  C  C423  1  0.420600  0.100700  0.926000  1.0  -0.1412
  C  C424  1  0.396200  0.097000  0.875960  1.0  0.0952
  C  C425  1  0.246200  0.151400  0.860700  1.0  -0.125
  C  C426  1  0.170300  0.121900  0.882500  1.0  0.0847
  C  C427  1  0.105100  0.090800  0.854600  1.0  -0.1018
  C  C428  1  0.037500  0.066000  0.876500  1.0  -0.1574
  C  C429  1  0.032700  0.073600  0.924300  1.0  0.1406
  C  C430  1  0.161400  0.126400  0.930700  1.0  0.0591
  C  C431  1  0.248000  0.109800  0.668100  1.0  -0.1439
  C  C432  1  0.309600  0.152200  0.655150  1.0  0.3495
  C  C433  1  0.428700  0.204200  0.655700  1.0  0.1399
  C  C434  1  0.512400  0.232100  0.666800  1.0  -0.1395
  C  C435  1  0.532100  0.269400  0.633800  1.0  -0.1318
  C  C436  1  0.470800  0.278000  0.591300  1.0  -0.1232
  C  C437  1  0.386100  0.251700  0.580700  1.0  -0.1448
  C  C438  1  0.365900  0.215900  0.614200  1.0  0.0659
  C  C439  1  0.204700  0.180300  0.579000  1.0  -0.14
  C  C440  1  0.132200  0.220900  0.587200  1.0  0.0516
  C  C441  1  0.062600  0.211500  0.616800  1.0  -0.077
  C  C442  1  0.999300  0.250800  0.623100  1.0  -0.1771
  C  C443  1  0.006300  0.297200  0.600400  1.0  0.1188
  C  C444  1  0.132700  0.268700  0.564800  1.0  0.0952
  C  C445  1  0.698200  0.034400  0.708420  1.0  -0.1342
  C  C446  1  0.636500  0.992100  0.722440  1.0  0.3472
  C  C447  1  0.525000  0.952000  0.752450  1.0  0.1307
  C  C448  1  0.446200  0.937200  0.774800  1.0  -0.1524
  C  C449  1  0.424000  0.885500  0.774100  1.0  -0.1436
  C  C450  1  0.475400  0.849000  0.751700  1.0  -0.1184
  C  C451  1  0.554300  0.862200  0.730400  1.0  -0.1477
  C  C452  1  0.578400  0.914700  0.731700  1.0  0.0453
  C  C453  1  0.718700  0.920000  0.683400  1.0  -0.1617
  C  C454  1  0.802200  0.893000  0.713700  1.0  0.0558
  C  C455  1  0.845700  0.912300  0.756000  1.0  -0.084
  C  C456  1  0.924000  0.885300  0.780400  1.0  -0.176
  C  C457  1  0.954900  0.842800  0.759400  1.0  0.1275
  C  C458  1  0.834300  0.847400  0.697700  1.0  0.0449
  C  C459  1  0.704900  0.091800  0.777590  1.0  -0.1102
  C  C460  1  0.645800  0.130600  0.798900  1.0  0.3515
  C  C461  1  0.532100  0.183500  0.808700  1.0  0.1096
  C  C462  1  0.449300  0.213600  0.804300  1.0  -0.161
  C  C463  1  0.429800  0.239500  0.845000  1.0  -0.1045
  C  C464  1  0.491000  0.236000  0.889000  1.0  -0.1307
  C  C465  1  0.574900  0.208100  0.893700  1.0  -0.1826
  C  C466  1  0.593300  0.182400  0.852500  1.0  0.0949
  C  C467  1  0.739800  0.129800  0.881500  1.0  -0.1534
  C  C468  1  0.824200  0.165000  0.893500  1.0  0.078
  C  C469  1  0.859900  0.173100  0.941200  1.0  -0.092
  C  C470  1  0.939700  0.202900  0.952600  1.0  -0.17
  C  C471  1  0.982900  0.222300  0.916000  1.0  0.1299
  C  C472  1  0.870600  0.186900  0.859000  1.0  0.1005
  C  C473  1  0.695300  0.127100  0.696050  1.0  -0.1446
  C  C474  1  0.630300  0.128700  0.649880  1.0  0.342
  C  C475  1  0.510000  0.114300  0.595550  1.0  0.1387
  C  C476  1  0.425400  0.097200  0.569210  1.0  -0.1337
  C  C477  1  0.401300  0.118100  0.523300  1.0  -0.1152
  C  C478  1  0.459600  0.154900  0.504610  1.0  -0.1266
  C  C479  1  0.544600  0.170700  0.529980  1.0  -0.1414
  C  C480  1  0.568000  0.149400  0.575490  1.0  0.0672
  C  C481  1  0.723600  0.193200  0.605900  1.0  -0.0901
  C  C482  1  0.789400  0.170100  0.573300  1.0  0.0368
  C  C483  1  0.813300  0.196100  0.533700  1.0  -0.0857
  C  C484  1  0.873100  0.172800  0.505100  1.0  -0.1413
  C  C485  1  0.905000  0.123900  0.516400  1.0  0.109
  C  C486  1  0.825800  0.122200  0.582600  1.0  0.0878
  C  C487  1  0.874000  0.041400  0.032200  1.0  0.3231
  C  C488  1  0.784400  0.013300  0.029800  1.0  -0.4038
  C  C489  1  0.255500  0.466300  0.218600  1.0  -0.1315
  C  C490  1  0.307600  0.500900  0.188460  1.0  0.3418
  C  C491  1  0.414300  0.528700  0.146020  1.0  0.1326
  C  C492  1  0.491900  0.534700  0.120800  1.0  -0.1348
  C  C493  1  0.503600  0.583000  0.100300  1.0  -0.1291
  C  C494  1  0.438400  0.623300  0.104200  1.0  -0.1073
  C  C495  1  0.361500  0.617100  0.127900  1.0  -0.142
  C  C496  1  0.349600  0.568400  0.148760  1.0  0.0692
  C  C497  1  0.206600  0.579800  0.192800  1.0  -0.1748
  C  C498  1  0.118500  0.586700  0.155700  1.0  0.0761
  C  C499  1  0.090800  0.634300  0.139100  1.0  -0.1689
  C  C500  1  0.007500  0.639000  0.106400  1.0  -0.1331
  C  C501  1  0.957500  0.596900  0.092300  1.0  0.115
  C  C502  1  0.065900  0.546400  0.138100  1.0  0.124
  C  C503  1  0.264800  0.381900  0.255780  1.0  -0.1538
  C  C504  1  0.331800  0.396100  0.299800  1.0  0.3118
  C  C505  1  0.452300  0.428100  0.345770  1.0  0.1321
  C  C506  1  0.535600  0.452500  0.365300  1.0  -0.1201
  C  C507  1  0.560900  0.449400  0.415300  1.0  -0.1406
  C  C508  1  0.503900  0.422500  0.444600  1.0  -0.1255
  C  C509  1  0.420600  0.399300  0.426000  1.0  -0.1412
  C  C510  1  0.396200  0.403000  0.375960  1.0  0.0945
  C  C511  1  0.246200  0.348600  0.360700  1.0  -0.1249
  C  C512  1  0.170300  0.378100  0.382500  1.0  0.0844
  C  C513  1  0.105100  0.409200  0.354600  1.0  -0.1016
  C  C514  1  0.037500  0.434000  0.376500  1.0  -0.1564
  C  C515  1  0.032700  0.426400  0.424300  1.0  0.1395
  C  C516  1  0.161400  0.373600  0.430700  1.0  0.0589
  C  C517  1  0.248000  0.390200  0.168100  1.0  -0.1435
  C  C518  1  0.309600  0.347800  0.155150  1.0  0.3492
  C  C519  1  0.428700  0.295800  0.155700  1.0  0.1396
  C  C520  1  0.512400  0.267900  0.166800  1.0  -0.1396
  C  C521  1  0.532100  0.230600  0.133800  1.0  -0.1361
  C  C522  1  0.470800  0.222000  0.091300  1.0  -0.1254
  C  C523  1  0.386100  0.248300  0.080700  1.0  -0.1437
  C  C524  1  0.365900  0.284100  0.114200  1.0  0.0669
  C  C525  1  0.204700  0.319700  0.079000  1.0  -0.1419
  C  C526  1  0.132200  0.279100  0.087200  1.0  0.0513
  C  C527  1  0.062600  0.288500  0.116800  1.0  -0.0762
  C  C528  1  0.999300  0.249200  0.123100  1.0  -0.1762
  C  C529  1  0.006300  0.202800  0.100400  1.0  0.12
  C  C530  1  0.132700  0.231300  0.064800  1.0  0.0943
  C  C531  1  0.698200  0.465600  0.208420  1.0  -0.1342
  C  C532  1  0.636500  0.507900  0.222440  1.0  0.3457
  C  C533  1  0.525000  0.548000  0.252450  1.0  0.1302
  C  C534  1  0.446200  0.562800  0.274800  1.0  -0.1531
  C  C535  1  0.424000  0.614500  0.274100  1.0  -0.1442
  C  C536  1  0.475400  0.651000  0.251700  1.0  -0.1194
  C  C537  1  0.554300  0.637800  0.230400  1.0  -0.1463
  C  C538  1  0.578400  0.585300  0.231700  1.0  0.0442
  C  C539  1  0.718700  0.580000  0.183400  1.0  -0.1628
  C  C540  1  0.802200  0.607000  0.213700  1.0  0.0556
  C  C541  1  0.845700  0.587700  0.256000  1.0  -0.0843
  C  C542  1  0.924000  0.614700  0.280400  1.0  -0.1753
  C  C543  1  0.954900  0.657200  0.259400  1.0  0.1269
  C  C544  1  0.834300  0.652600  0.197700  1.0  0.0451
  C  C545  1  0.704900  0.408200  0.277590  1.0  -0.1097
  C  C546  1  0.645800  0.369400  0.298900  1.0  0.3514
  C  C547  1  0.532100  0.316500  0.308700  1.0  0.1095
  C  C548  1  0.449300  0.286400  0.304300  1.0  -0.16
  C  C549  1  0.429800  0.260500  0.345000  1.0  -0.105
  C  C550  1  0.491000  0.264000  0.389000  1.0  -0.1304
  C  C551  1  0.574900  0.291900  0.393700  1.0  -0.1834
  C  C552  1  0.593300  0.317600  0.352500  1.0  0.095
  C  C553  1  0.739800  0.370200  0.381500  1.0  -0.1531
  C  C554  1  0.824200  0.335000  0.393500  1.0  0.0788
  C  C555  1  0.859900  0.326900  0.441200  1.0  -0.0922
  C  C556  1  0.939700  0.297100  0.452600  1.0  -0.1695
  C  C557  1  0.982900  0.277700  0.416000  1.0  0.1302
  C  C558  1  0.870600  0.313100  0.359000  1.0  0.1001
  C  C559  1  0.695300  0.372900  0.196050  1.0  -0.1447
  C  C560  1  0.630300  0.371300  0.149880  1.0  0.3425
  C  C561  1  0.510000  0.385700  0.095550  1.0  0.1399
  C  C562  1  0.425400  0.402800  0.069210  1.0  -0.132
  C  C563  1  0.401300  0.381900  0.023300  1.0  -0.114
  C  C564  1  0.459600  0.345100  0.004610  1.0  -0.1271
  C  C565  1  0.544600  0.329300  0.029980  1.0  -0.1416
  C  C566  1  0.568000  0.350600  0.075490  1.0  0.0676
  C  C567  1  0.723600  0.306800  0.105900  1.0  -0.0894
  C  C568  1  0.789400  0.329900  0.073300  1.0  0.0368
  C  C569  1  0.813300  0.303900  0.033700  1.0  -0.0854
  C  C570  1  0.873100  0.327200  0.005100  1.0  -0.1416
  C  C571  1  0.905000  0.376100  0.016400  1.0  0.1099
  C  C572  1  0.825800  0.377800  0.082600  1.0  0.087
  C  C573  1  0.874000  0.458600  0.532200  1.0  0.327
  C  C574  1  0.784400  0.486700  0.529800  1.0  -0.4033
  C  C575  1  0.744500  0.966300  0.281400  1.0  -0.1327
  C  C576  1  0.692400  0.000900  0.311540  1.0  0.3412
  C  C577  1  0.585700  0.028700  0.353980  1.0  0.1354
  C  C578  1  0.508100  0.034700  0.379200  1.0  -0.1344
  C  C579  1  0.496400  0.083000  0.399700  1.0  -0.1281
  C  C580  1  0.561600  0.123300  0.395800  1.0  -0.1071
  C  C581  1  0.638500  0.117100  0.372100  1.0  -0.1413
  C  C582  1  0.650400  0.068400  0.351240  1.0  0.0684
  C  C583  1  0.793400  0.079800  0.307200  1.0  -0.1776
  C  C584  1  0.881500  0.086700  0.344300  1.0  0.077
  C  C585  1  0.909200  0.134300  0.360900  1.0  -0.1698
  C  C586  1  0.992500  0.139000  0.393600  1.0  -0.1348
  C  C587  1  0.042500  0.096900  0.407700  1.0  0.1151
  C  C588  1  0.934100  0.046400  0.361900  1.0  0.1237
  C  C589  1  0.735200  0.881900  0.244220  1.0  -0.1561
  C  C590  1  0.668200  0.896100  0.200200  1.0  0.3119
  C  C591  1  0.547700  0.928100  0.154230  1.0  0.1305
  C  C592  1  0.464400  0.952500  0.134700  1.0  -0.1204
  C  C593  1  0.439100  0.949400  0.084700  1.0  -0.1411
  C  C594  1  0.496100  0.922500  0.055400  1.0  -0.126
  C  C595  1  0.579400  0.899300  0.074000  1.0  -0.1414
  C  C596  1  0.603800  0.903000  0.124040  1.0  0.0958
  C  C597  1  0.753800  0.848600  0.139300  1.0  -0.124
  C  C598  1  0.829700  0.878100  0.117500  1.0  0.0847
  C  C599  1  0.894900  0.909200  0.145400  1.0  -0.1018
  C  C600  1  0.962500  0.934000  0.123500  1.0  -0.1538
  C  C601  1  0.967300  0.926400  0.075700  1.0  0.1393
  C  C602  1  0.838600  0.873600  0.069300  1.0  0.0593
  C  C603  1  0.752000  0.890200  0.331900  1.0  -0.1437
  C  C604  1  0.690400  0.847800  0.344850  1.0  0.3494
  C  C605  1  0.571300  0.795800  0.344300  1.0  0.1409
  C  C606  1  0.487600  0.767900  0.333200  1.0  -0.1387
  C  C607  1  0.467900  0.730600  0.366200  1.0  -0.1344
  C  C608  1  0.529200  0.722000  0.408700  1.0  -0.1259
  C  C609  1  0.613900  0.748300  0.419300  1.0  -0.1452
  C  C610  1  0.634100  0.784100  0.385800  1.0  0.0667
  C  C611  1  0.795300  0.819700  0.421000  1.0  -0.142
  C  C612  1  0.867800  0.779100  0.412800  1.0  0.0501
  C  C613  1  0.937400  0.788500  0.383200  1.0  -0.0752
  C  C614  1  0.000700  0.749200  0.376900  1.0  -0.1748
  C  C615  1  0.993700  0.702800  0.399600  1.0  0.1185
  C  C616  1  0.867300  0.731300  0.435200  1.0  0.0958
  C  C617  1  0.301800  0.965600  0.291580  1.0  -0.1338
  C  C618  1  0.363500  0.007900  0.277560  1.0  0.3464
  C  C619  1  0.475000  0.048000  0.247550  1.0  0.1312
  C  C620  1  0.553800  0.062800  0.225200  1.0  -0.1502
  C  C621  1  0.576000  0.114500  0.225900  1.0  -0.141
  C  C622  1  0.524600  0.151000  0.248300  1.0  -0.1176
  C  C623  1  0.445700  0.137800  0.269600  1.0  -0.1457
  C  C624  1  0.421600  0.085300  0.268300  1.0  0.0426
  C  C625  1  0.281300  0.080000  0.316600  1.0  -0.163
  C  C626  1  0.197800  0.107000  0.286300  1.0  0.0558
  C  C627  1  0.154300  0.087700  0.244000  1.0  -0.0817
  C  C628  1  0.076000  0.114700  0.219600  1.0  -0.1771
  C  C629  1  0.045100  0.157200  0.240600  1.0  0.1253
  C  C630  1  0.165700  0.152600  0.302300  1.0  0.0441
  C  C631  1  0.295100  0.908200  0.222410  1.0  -0.1082
  C  C632  1  0.354200  0.869400  0.201100  1.0  0.3511
  C  C633  1  0.467900  0.816500  0.191300  1.0  0.108
  C  C634  1  0.550700  0.786400  0.195700  1.0  -0.1601
  C  C635  1  0.570200  0.760500  0.155000  1.0  -0.1042
  C  C636  1  0.509000  0.764000  0.111000  1.0  -0.1294
  C  C637  1  0.425100  0.791900  0.106300  1.0  -0.1821
  C  C638  1  0.406700  0.817600  0.147500  1.0  0.094
  C  C639  1  0.260200  0.870200  0.118500  1.0  -0.1534
  C  C640  1  0.175800  0.835000  0.106500  1.0  0.0787
  C  C641  1  0.140100  0.826900  0.058800  1.0  -0.0915
  C  C642  1  0.060300  0.797100  0.047400  1.0  -0.172
  C  C643  1  0.017100  0.777700  0.084000  1.0  0.1308
  C  C644  1  0.129400  0.813100  0.141000  1.0  0.1017
  C  C645  1  0.304700  0.872900  0.303950  1.0  -0.1441
  C  C646  1  0.369700  0.871300  0.350120  1.0  0.3429
  C  C647  1  0.490000  0.885700  0.404450  1.0  0.1396
  C  C648  1  0.574600  0.902800  0.430790  1.0  -0.1355
  C  C649  1  0.598700  0.881900  0.476700  1.0  -0.1151
  C  C650  1  0.540400  0.845100  0.495390  1.0  -0.1253
  C  C651  1  0.455400  0.829300  0.470020  1.0  -0.1411
  C  C652  1  0.432000  0.850600  0.424510  1.0  0.0682
  C  C653  1  0.276400  0.806800  0.394100  1.0  -0.0893
  C  C654  1  0.210600  0.829900  0.426700  1.0  0.0376
  C  C655  1  0.186700  0.803900  0.466300  1.0  -0.0848
  C  C656  1  0.126900  0.827200  0.494900  1.0  -0.1433
  C  C657  1  0.095000  0.876100  0.483600  1.0  0.1095
  C  C658  1  0.174200  0.877800  0.417400  1.0  0.0886
  C  C659  1  0.126000  0.958600  0.967800  1.0  0.3261
  C  C660  1  0.215600  0.986700  0.970200  1.0  -0.4022
  N  N661  1  0.709400  0.586890  0.785290  1.0  -0.2589
  N  N662  1  0.613400  0.514180  0.828510  1.0  -0.5003
  N  N663  1  0.717100  0.450310  0.824280  1.0  -0.048
  N  N664  1  0.015100  0.450400  0.893400  1.0  -0.3328
  N  N665  1  0.589400  0.576920  0.702250  1.0  -0.5075
  N  N666  1  0.680800  0.617050  0.654130  1.0  -0.1544
  N  N667  1  0.905600  0.602200  0.547980  1.0  -0.3675
  N  N668  1  0.607500  0.662950  0.819720  1.0  -0.5118
  N  N669  1  0.710800  0.682690  0.884480  1.0  -0.1466
  N  N670  1  0.927200  0.807100  0.928490  1.0  -0.3265
  N  N671  1  0.334000  0.584380  0.774090  1.0  -0.2372
  N  N672  1  0.437500  0.500880  0.754960  1.0  -0.4801
  N  N673  1  0.349500  0.441890  0.786700  1.0  -0.1097
  N  N674  1  0.087100  0.323000  0.780200  1.0  -0.346
  N  N675  1  0.434000  0.649840  0.724810  1.0  -0.5137
  N  N676  1  0.334200  0.649160  0.655200  1.0  -0.09
  N  N677  1  0.049800  0.716300  0.631300  1.0  -0.3752
  N  N678  1  0.448900  0.601770  0.856780  1.0  -0.5401
  N  N679  1  0.354600  0.657730  0.889000  1.0  -0.1512
  N  N680  1  0.118500  0.598200  0.944900  1.0  -0.3516
  N  N681  1  0.057600  0.563600  0.464600  1.0  -0.5097
  N  N682  1  0.290600  0.086890  0.714710  1.0  -0.2605
  N  N683  1  0.386600  0.014180  0.671490  1.0  -0.5011
  N  N684  1  0.282900  0.950310  0.675720  1.0  -0.0482
  N  N685  1  0.984900  0.950400  0.606600  1.0  -0.3318
  N  N686  1  0.410600  0.076920  0.797750  1.0  -0.5082
  N  N687  1  0.319200  0.117050  0.845870  1.0  -0.154
  N  N688  1  0.094400  0.102200  0.952020  1.0  -0.3695
  N  N689  1  0.392500  0.162950  0.680280  1.0  -0.5119
  N  N690  1  0.289200  0.182690  0.615520  1.0  -0.1471
  N  N691  1  0.072800  0.307100  0.571510  1.0  -0.3264
  N  N692  1  0.666000  0.084380  0.725910  1.0  -0.2364
  N  N693  1  0.562500  0.000880  0.745040  1.0  -0.4801
  N  N694  1  0.650500  0.941890  0.713300  1.0  -0.1102
  N  N695  1  0.912900  0.823000  0.719800  1.0  -0.3446
  N  N696  1  0.566000  0.149840  0.775190  1.0  -0.5145
  N  N697  1  0.665800  0.149160  0.844800  1.0  -0.0898
  N  N698  1  0.950200  0.216300  0.868700  1.0  -0.372
  N  N699  1  0.551100  0.101770  0.643220  1.0  -0.5419
  N  N700  1  0.645400  0.157730  0.611000  1.0  -0.1514
  N  N701  1  0.881500  0.098200  0.555100  1.0  -0.3501
  N  N702  1  0.942400  0.063600  0.035400  1.0  -0.5096
  N  N703  1  0.290600  0.413110  0.214710  1.0  -0.2604
  N  N704  1  0.386600  0.485820  0.171490  1.0  -0.5008
  N  N705  1  0.282900  0.549690  0.175720  1.0  -0.0483
  N  N706  1  0.984900  0.549600  0.106600  1.0  -0.3355
  N  N707  1  0.410600  0.423080  0.297750  1.0  -0.5093
  N  N708  1  0.319200  0.382950  0.345870  1.0  -0.1541
  N  N709  1  0.094400  0.397800  0.452020  1.0  -0.3691
  N  N710  1  0.392500  0.337050  0.180280  1.0  -0.5117
  N  N711  1  0.289200  0.317310  0.115520  1.0  -0.1472
  N  N712  1  0.072800  0.192900  0.071510  1.0  -0.3261
  N  N713  1  0.666000  0.415620  0.225910  1.0  -0.2364
  N  N714  1  0.562500  0.499120  0.245040  1.0  -0.4811
  N  N715  1  0.650500  0.558110  0.213300  1.0  -0.1107
  N  N716  1  0.912900  0.677000  0.219800  1.0  -0.3455
  N  N717  1  0.566000  0.350160  0.275190  1.0  -0.5147
  N  N718  1  0.665800  0.350840  0.344800  1.0  -0.0901
  N  N719  1  0.950200  0.283700  0.368700  1.0  -0.3734
  N  N720  1  0.551100  0.398230  0.143220  1.0  -0.5423
  N  N721  1  0.645400  0.342270  0.111000  1.0  -0.1519
  N  N722  1  0.881500  0.401800  0.055100  1.0  -0.3556
  N  N723  1  0.942400  0.436400  0.535400  1.0  -0.5085
  N  N724  1  0.709400  0.913110  0.285290  1.0  -0.2589
  N  N725  1  0.613400  0.985820  0.328510  1.0  -0.4999
  N  N726  1  0.717100  0.049690  0.324280  1.0  -0.0488
  N  N727  1  0.015100  0.049600  0.393400  1.0  -0.3322
  N  N728  1  0.589400  0.923080  0.202250  1.0  -0.5082
  N  N729  1  0.680800  0.882950  0.154130  1.0  -0.1544
  N  N730  1  0.905600  0.897800  0.047980  1.0  -0.3693
  N  N731  1  0.607500  0.837050  0.319720  1.0  -0.5126
  N  N732  1  0.710800  0.817310  0.384480  1.0  -0.1464
  N  N733  1  0.927200  0.692900  0.428490  1.0  -0.3286
  N  N734  1  0.334000  0.915620  0.274090  1.0  -0.237
  N  N735  1  0.437500  0.999120  0.254960  1.0  -0.4814
  N  N736  1  0.349500  0.058110  0.286700  1.0  -0.1092
  N  N737  1  0.087100  0.177000  0.280200  1.0  -0.3451
  N  N738  1  0.434000  0.850160  0.224810  1.0  -0.5131
  N  N739  1  0.334200  0.850840  0.155200  1.0  -0.0909
  N  N740  1  0.049800  0.783700  0.131300  1.0  -0.3739
  N  N741  1  0.448900  0.898230  0.356780  1.0  -0.5408
  N  N742  1  0.354600  0.842270  0.389000  1.0  -0.1515
  N  N743  1  0.118500  0.901800  0.444900  1.0  -0.354
  N  N744  1  0.057600  0.936400  0.964600  1.0  -0.5091
