# generated using pymatgen
data_GdAg3H75C86N21
_symmetry_space_group_name_H-M   'P 1'
_cell_length_a   14.24580000
_cell_length_b   25.88560000
_cell_length_c   27.83600000
_cell_angle_alpha   90.00000000
_cell_angle_beta   97.44700000
_cell_angle_gamma   90.00000000
_symmetry_Int_Tables_number   1
_chemical_formula_structural   GdAg3H75C86N21
_chemical_formula_sum   'Gd4 Ag12 H300 C344 N84'
_cell_volume   10178.25138419
_cell_formula_units_Z   4
loop_
 _symmetry_equiv_pos_site_id
 _symmetry_equiv_pos_as_xyz
  1  'x, y, z'
loop_
 _atom_site_type_symbol
 _atom_site_label
 _atom_site_symmetry_multiplicity
 _atom_site_fract_x
 _atom_site_fract_y
 _atom_site_fract_z
 _atom_site_occupancy
 _atom_site_charge
  Gd  Gd1  1  0.522870  0.584290  0.781070  1.0  1.9451
  Gd  Gd2  1  0.477130  0.084290  0.718930  1.0  1.9449
  Gd  Gd3  1  0.477130  0.415710  0.218930  1.0  1.945
  Gd  Gd4  1  0.522870  0.915710  0.281070  1.0  1.9452
  Ag  Ag5  1  0.074500  0.519910  0.926290  1.0  0.2446
  Ag  Ag6  1  0.917330  0.615000  0.466650  1.0  0.1523
  Ag  Ag7  1  0.015420  0.260060  0.816040  1.0  0.1808
  Ag  Ag8  1  0.925500  0.019910  0.573710  1.0  0.2423
  Ag  Ag9  1  0.082670  0.115000  0.033350  1.0  0.1513
  Ag  Ag10  1  0.984580  0.760060  0.683960  1.0  0.1823
  Ag  Ag11  1  0.925500  0.480090  0.073710  1.0  0.2422
  Ag  Ag12  1  0.082670  0.385000  0.533350  1.0  0.1508
  Ag  Ag13  1  0.984580  0.739940  0.183960  1.0  0.1818
  Ag  Ag14  1  0.074500  0.980090  0.426290  1.0  0.2444
  Ag  Ag15  1  0.917330  0.885000  0.966650  1.0  0.1511
  Ag  Ag16  1  0.015420  0.239940  0.316040  1.0  0.1804
  H  H17  1  0.813700  0.531700  0.792600  1.0  0.0528
  H  H18  1  0.734300  0.521400  0.747200  1.0  0.0652
  H  H19  1  0.463200  0.492400  0.882100  1.0  0.0972
  H  H20  1  0.444100  0.410700  0.917300  1.0  0.0788
  H  H21  1  0.549800  0.344700  0.910800  1.0  0.0625
  H  H22  1  0.680400  0.354400  0.869200  1.0  0.0927
  H  H23  1  0.813300  0.437100  0.778100  1.0  0.0789
  H  H24  1  0.768700  0.385200  0.796400  1.0  0.1048
  H  H25  1  0.873600  0.335600  0.849600  1.0  0.087
  H  H26  1  0.011400  0.326600  0.905400  1.0  0.0946
  H  H27  1  0.102200  0.398900  0.928600  1.0  0.0689
  H  H28  1  0.916400  0.488000  0.851000  1.0  0.0549
  H  H29  1  0.801000  0.610200  0.739100  1.0  0.0526
  H  H30  1  0.728900  0.654500  0.751400  1.0  0.0673
  H  H31  1  0.426600  0.528200  0.654300  1.0  0.0941
  H  H32  1  0.381800  0.534900  0.570600  1.0  0.0756
  H  H33  1  0.476900  0.577100  0.521800  1.0  0.0733
  H  H34  1  0.616700  0.618300  0.553800  1.0  0.0954
  H  H35  1  0.783800  0.670400  0.667800  1.0  0.0735
  H  H36  1  0.723600  0.675800  0.615300  1.0  0.0938
  H  H37  1  0.891100  0.585500  0.678500  1.0  0.094
  H  H38  1  0.010000  0.544900  0.642500  1.0  0.0888
  H  H39  1  0.017000  0.557000  0.560400  1.0  0.0641
  H  H40  1  0.793400  0.646900  0.548900  1.0  0.0723
  H  H41  1  0.759700  0.582900  0.857600  1.0  0.0549
  H  H42  1  0.815900  0.623400  0.828300  1.0  0.0546
  H  H43  1  0.445000  0.725200  0.804000  1.0  0.1019
  H  H44  1  0.413500  0.789700  0.858800  1.0  0.0791
  H  H45  1  0.511500  0.802200  0.930800  1.0  0.0779
  H  H46  1  0.656800  0.758000  0.948300  1.0  0.0908
  H  H47  1  0.824100  0.644700  0.919600  1.0  0.0718
  H  H48  1  0.775500  0.684000  0.953300  1.0  0.0848
  H  H49  1  0.942800  0.678800  0.866900  1.0  0.0938
  H  H50  1  0.050400  0.746800  0.856700  1.0  0.083
  H  H51  1  0.038200  0.823200  0.893300  1.0  0.0704
  H  H52  1  0.820800  0.774800  0.955600  1.0  0.0701
  H  H53  1  0.235600  0.528000  0.778100  1.0  0.0618
  H  H54  1  0.305000  0.535100  0.827900  1.0  0.0648
  H  H55  1  0.590700  0.461900  0.710500  1.0  0.1012
  H  H56  1  0.627400  0.374000  0.709700  1.0  0.076
  H  H57  1  0.545000  0.313700  0.748300  1.0  0.0754
  H  H58  1  0.409100  0.337400  0.785100  1.0  0.0821
  H  H59  1  0.258300  0.446900  0.836200  1.0  0.092
  H  H60  1  0.315100  0.393500  0.838700  1.0  0.0937
  H  H61  1  0.177500  0.442200  0.731200  1.0  0.0823
  H  H62  1  0.041700  0.399300  0.690200  1.0  0.0932
  H  H63  1  0.986000  0.327900  0.727000  1.0  0.0481
  H  H64  1  0.200300  0.331000  0.829700  1.0  0.0754
  H  H65  1  0.298300  0.558500  0.704800  1.0  0.0581
  H  H66  1  0.230600  0.603700  0.719700  1.0  0.0519
  H  H67  1  0.591700  0.715300  0.725900  1.0  0.0979
  H  H68  1  0.626400  0.759700  0.656700  1.0  0.0727
  H  H69  1  0.529300  0.753100  0.583800  1.0  0.0738
  H  H70  1  0.384700  0.705900  0.576600  1.0  0.0928
  H  H71  1  0.238900  0.595200  0.629500  1.0  0.0841
  H  H72  1  0.290100  0.622400  0.588400  1.0  0.0973
  H  H73  1  0.171600  0.657400  0.533300  1.0  0.1017
  H  H74  1  0.034300  0.707900  0.515600  1.0  0.0867
  H  H75  1  0.960600  0.739700  0.576400  1.0  0.0628
  H  H76  1  0.155600  0.680700  0.674900  1.0  0.0616
  H  H77  1  0.238900  0.621900  0.810000  1.0  0.0549
  H  H78  1  0.308300  0.660300  0.786000  1.0  0.0651
  H  H79  1  0.614300  0.572100  0.918200  1.0  0.0885
  H  H80  1  0.657200  0.608300  0.995000  1.0  0.0783
  H  H81  1  0.560200  0.668600  0.026500  1.0  0.0677
  H  H82  1  0.417700  0.694200  0.983500  1.0  0.0965
  H  H83  1  0.242400  0.700100  0.861700  1.0  0.0784
  H  H84  1  0.304100  0.726100  0.907600  1.0  0.093
  H  H85  1  0.209500  0.730400  0.973300  1.0  0.0976
  H  H86  1  0.110200  0.688900  0.023300  1.0  0.091
  H  H87  1  0.053200  0.607200  0.002500  1.0  0.0537
  H  H88  1  0.192300  0.604200  0.890000  1.0  0.0519
  H  H89  1  0.218100  0.488300  0.494800  1.0  0.1286
  H  H90  1  0.268000  0.538800  0.476800  1.0  0.1329
  H  H91  1  0.220200  0.497800  0.438100  1.0  0.1093
  H  H92  1  0.186300  0.031700  0.707400  1.0  0.0524
  H  H93  1  0.265700  0.021400  0.752800  1.0  0.0634
  H  H94  1  0.536800  0.992400  0.617900  1.0  0.0975
  H  H95  1  0.555900  0.910700  0.582700  1.0  0.0784
  H  H96  1  0.450200  0.844700  0.589200  1.0  0.0623
  H  H97  1  0.319600  0.854400  0.630800  1.0  0.0925
  H  H98  1  0.186700  0.937100  0.721900  1.0  0.0797
  H  H99  1  0.231300  0.885200  0.703600  1.0  0.106
  H  H100  1  0.126400  0.835600  0.650400  1.0  0.0877
  H  H101  1  0.988600  0.826600  0.594600  1.0  0.0947
  H  H102  1  0.897800  0.898900  0.571400  1.0  0.0701
  H  H103  1  0.083600  0.988000  0.649000  1.0  0.0561
  H  H104  1  0.199000  0.110200  0.760900  1.0  0.0526
  H  H105  1  0.271100  0.154500  0.748600  1.0  0.0683
  H  H106  1  0.573400  0.028200  0.845700  1.0  0.0945
  H  H107  1  0.618200  0.034900  0.929400  1.0  0.0757
  H  H108  1  0.523100  0.077100  0.978200  1.0  0.0725
  H  H109  1  0.383300  0.118300  0.946200  1.0  0.0958
  H  H110  1  0.216200  0.170400  0.832200  1.0  0.0743
  H  H111  1  0.276400  0.175800  0.884700  1.0  0.0933
  H  H112  1  0.108900  0.085500  0.821500  1.0  0.0944
  H  H113  1  0.990000  0.044900  0.857500  1.0  0.0883
  H  H114  1  0.983000  0.057000  0.939600  1.0  0.0636
  H  H115  1  0.206600  0.146900  0.951100  1.0  0.0723
  H  H116  1  0.240300  0.082900  0.642400  1.0  0.0541
  H  H117  1  0.184100  0.123400  0.671700  1.0  0.0565
  H  H118  1  0.555000  0.225200  0.696000  1.0  0.1024
  H  H119  1  0.586500  0.289700  0.641200  1.0  0.078
  H  H120  1  0.488500  0.302200  0.569200  1.0  0.0789
  H  H121  1  0.343200  0.258000  0.551700  1.0  0.0903
  H  H122  1  0.175900  0.144700  0.580400  1.0  0.0709
  H  H123  1  0.224500  0.184000  0.546700  1.0  0.0849
  H  H124  1  0.057200  0.178800  0.633100  1.0  0.0944
  H  H125  1  0.949600  0.246800  0.643300  1.0  0.0836
  H  H126  1  0.961800  0.323200  0.606700  1.0  0.0714
  H  H127  1  0.179200  0.274800  0.544400  1.0  0.0701
  H  H128  1  0.764400  0.028000  0.721900  1.0  0.0605
  H  H129  1  0.695000  0.035100  0.672100  1.0  0.0659
  H  H130  1  0.409300  0.961900  0.789500  1.0  0.1009
  H  H131  1  0.372600  0.874000  0.790300  1.0  0.0763
  H  H132  1  0.455000  0.813700  0.751700  1.0  0.0757
  H  H133  1  0.590900  0.837400  0.714900  1.0  0.0829
  H  H134  1  0.741700  0.946900  0.663800  1.0  0.0922
  H  H135  1  0.684900  0.893500  0.661300  1.0  0.0932
  H  H136  1  0.822500  0.942200  0.768800  1.0  0.0823
  H  H137  1  0.958300  0.899300  0.809800  1.0  0.093
  H  H138  1  0.014000  0.827900  0.773000  1.0  0.0479
  H  H139  1  0.799700  0.831000  0.670300  1.0  0.0751
  H  H140  1  0.701700  0.058500  0.795200  1.0  0.0585
  H  H141  1  0.769400  0.103700  0.780300  1.0  0.0504
  H  H142  1  0.408300  0.215300  0.774100  1.0  0.0975
  H  H143  1  0.373600  0.259700  0.843300  1.0  0.0731
  H  H144  1  0.470700  0.253100  0.916200  1.0  0.0736
  H  H145  1  0.615300  0.205900  0.923400  1.0  0.0927
  H  H146  1  0.761100  0.095200  0.870500  1.0  0.0844
  H  H147  1  0.709900  0.122400  0.911600  1.0  0.0969
  H  H148  1  0.828400  0.157400  0.966700  1.0  0.1019
  H  H149  1  0.965700  0.207900  0.984400  1.0  0.0857
  H  H150  1  0.039400  0.239700  0.923600  1.0  0.0631
  H  H151  1  0.844400  0.180700  0.825100  1.0  0.0625
  H  H152  1  0.761100  0.121900  0.690000  1.0  0.0552
  H  H153  1  0.691700  0.160300  0.714000  1.0  0.0639
  H  H154  1  0.385700  0.072100  0.581800  1.0  0.0893
  H  H155  1  0.342800  0.108300  0.505000  1.0  0.078
  H  H156  1  0.439800  0.168600  0.473500  1.0  0.0676
  H  H157  1  0.582300  0.194200  0.516500  1.0  0.0976
  H  H158  1  0.757600  0.200100  0.638300  1.0  0.0761
  H  H159  1  0.695900  0.226100  0.592400  1.0  0.0934
  H  H160  1  0.790500  0.230400  0.526700  1.0  0.0981
  H  H161  1  0.889800  0.188900  0.476700  1.0  0.0905
  H  H162  1  0.946800  0.107200  0.497500  1.0  0.0534
  H  H163  1  0.807700  0.104200  0.610000  1.0  0.0525
  H  H164  1  0.781900  0.988300  0.005200  1.0  0.1272
  H  H165  1  0.732000  0.038800  0.023200  1.0  0.1329
  H  H166  1  0.779800  0.997800  0.061900  1.0  0.1077
  H  H167  1  0.186300  0.468300  0.207400  1.0  0.0526
  H  H168  1  0.265700  0.478600  0.252800  1.0  0.0622
  H  H169  1  0.536800  0.507600  0.117900  1.0  0.0975
  H  H170  1  0.555900  0.589300  0.082700  1.0  0.0784
  H  H171  1  0.450200  0.655300  0.089200  1.0  0.0626
  H  H172  1  0.319600  0.645600  0.130800  1.0  0.0934
  H  H173  1  0.186700  0.562900  0.221900  1.0  0.0798
  H  H174  1  0.231300  0.614800  0.203600  1.0  0.1044
  H  H175  1  0.126400  0.664400  0.150400  1.0  0.0876
  H  H176  1  0.988600  0.673400  0.094600  1.0  0.095
  H  H177  1  0.897800  0.601100  0.071400  1.0  0.0702
  H  H178  1  0.083600  0.512000  0.149000  1.0  0.0556
  H  H179  1  0.199000  0.389800  0.260900  1.0  0.053
  H  H180  1  0.271100  0.345500  0.248600  1.0  0.0673
  H  H181  1  0.573400  0.471800  0.345700  1.0  0.0951
  H  H182  1  0.618200  0.465100  0.429400  1.0  0.0752
  H  H183  1  0.523100  0.422900  0.478200  1.0  0.0727
  H  H184  1  0.383300  0.381700  0.446200  1.0  0.096
  H  H185  1  0.216200  0.329600  0.332200  1.0  0.0737
  H  H186  1  0.276400  0.324200  0.384700  1.0  0.0946
  H  H187  1  0.108900  0.414500  0.321500  1.0  0.0946
  H  H188  1  0.990000  0.455100  0.357500  1.0  0.0896
  H  H189  1  0.983000  0.443000  0.439600  1.0  0.0636
  H  H190  1  0.206600  0.353100  0.451100  1.0  0.0724
  H  H191  1  0.240300  0.417100  0.142400  1.0  0.0546
  H  H192  1  0.184100  0.376600  0.171700  1.0  0.0565
  H  H193  1  0.555000  0.274800  0.196000  1.0  0.1032
  H  H194  1  0.586500  0.210300  0.141200  1.0  0.0786
  H  H195  1  0.488500  0.197800  0.069200  1.0  0.0778
  H  H196  1  0.343200  0.242000  0.051700  1.0  0.0896
  H  H197  1  0.175900  0.355300  0.080400  1.0  0.0717
  H  H198  1  0.224500  0.316000  0.046700  1.0  0.0852
  H  H199  1  0.057200  0.321200  0.133100  1.0  0.0943
  H  H200  1  0.949600  0.253200  0.143300  1.0  0.0838
  H  H201  1  0.961800  0.176800  0.106700  1.0  0.0717
  H  H202  1  0.179200  0.225200  0.044400  1.0  0.0701
  H  H203  1  0.764400  0.472000  0.221900  1.0  0.0604
  H  H204  1  0.695000  0.464900  0.172100  1.0  0.0661
  H  H205  1  0.409300  0.538100  0.289500  1.0  0.1014
  H  H206  1  0.372600  0.626000  0.290300  1.0  0.0759
  H  H207  1  0.455000  0.686300  0.251700  1.0  0.0754
  H  H208  1  0.590900  0.662600  0.214900  1.0  0.0834
  H  H209  1  0.741700  0.553100  0.163800  1.0  0.0929
  H  H210  1  0.684900  0.606500  0.161300  1.0  0.0935
  H  H211  1  0.822500  0.557800  0.268800  1.0  0.0825
  H  H212  1  0.958300  0.600700  0.309800  1.0  0.0929
  H  H213  1  0.014000  0.672100  0.273000  1.0  0.0475
  H  H214  1  0.799700  0.669000  0.170300  1.0  0.0755
  H  H215  1  0.701700  0.441500  0.295200  1.0  0.0565
  H  H216  1  0.769400  0.396300  0.280300  1.0  0.0506
  H  H217  1  0.408300  0.284700  0.274100  1.0  0.0977
  H  H218  1  0.373600  0.240300  0.343300  1.0  0.0724
  H  H219  1  0.470700  0.246900  0.416200  1.0  0.0739
  H  H220  1  0.615300  0.294100  0.423400  1.0  0.093
  H  H221  1  0.761100  0.404800  0.370500  1.0  0.0837
  H  H222  1  0.709900  0.377600  0.411600  1.0  0.0969
  H  H223  1  0.828400  0.342600  0.466700  1.0  0.1018
  H  H224  1  0.965700  0.292100  0.484400  1.0  0.0857
  H  H225  1  0.039400  0.260300  0.423600  1.0  0.0631
  H  H226  1  0.844400  0.319300  0.325100  1.0  0.0629
  H  H227  1  0.761100  0.378100  0.190000  1.0  0.055
  H  H228  1  0.691700  0.339700  0.214000  1.0  0.0646
  H  H229  1  0.385700  0.427900  0.081800  1.0  0.0907
  H  H230  1  0.342800  0.391700  0.005000  1.0  0.0784
  H  H231  1  0.439800  0.331400  0.973500  1.0  0.0685
  H  H232  1  0.582300  0.305800  0.016500  1.0  0.0975
  H  H233  1  0.757600  0.299900  0.138300  1.0  0.0767
  H  H234  1  0.695900  0.273900  0.092400  1.0  0.0928
  H  H235  1  0.790500  0.269600  0.026700  1.0  0.0978
  H  H236  1  0.889800  0.311100  0.976700  1.0  0.091
  H  H237  1  0.946800  0.392800  0.997500  1.0  0.053
  H  H238  1  0.807700  0.395800  0.110000  1.0  0.0524
  H  H239  1  0.781900  0.511700  0.505200  1.0  0.1272
  H  H240  1  0.732000  0.461200  0.523200  1.0  0.1321
  H  H241  1  0.779800  0.502200  0.561900  1.0  0.1075
  H  H242  1  0.813700  0.968300  0.292600  1.0  0.0529
  H  H243  1  0.734300  0.978600  0.247200  1.0  0.0655
  H  H244  1  0.463200  0.007600  0.382100  1.0  0.0973
  H  H245  1  0.444100  0.089300  0.417300  1.0  0.0786
  H  H246  1  0.549800  0.155300  0.410800  1.0  0.0627
  H  H247  1  0.680400  0.145600  0.369200  1.0  0.0927
  H  H248  1  0.813300  0.062900  0.278100  1.0  0.079
  H  H249  1  0.768700  0.114800  0.296400  1.0  0.1035
  H  H250  1  0.873600  0.164400  0.349600  1.0  0.0876
  H  H251  1  0.011400  0.173400  0.405400  1.0  0.0948
  H  H252  1  0.102200  0.101100  0.428600  1.0  0.069
  H  H253  1  0.916400  0.012000  0.351000  1.0  0.0552
  H  H254  1  0.801000  0.889800  0.239100  1.0  0.0526
  H  H255  1  0.728900  0.845500  0.251400  1.0  0.0689
  H  H256  1  0.426600  0.971800  0.154300  1.0  0.0941
  H  H257  1  0.381800  0.965100  0.070600  1.0  0.0757
  H  H258  1  0.476900  0.922900  0.021800  1.0  0.0733
  H  H259  1  0.616700  0.881700  0.053800  1.0  0.0953
  H  H260  1  0.783800  0.829600  0.167800  1.0  0.0735
  H  H261  1  0.723600  0.824200  0.115300  1.0  0.0939
  H  H262  1  0.891100  0.914500  0.178500  1.0  0.0941
  H  H263  1  0.010000  0.955100  0.142500  1.0  0.0889
  H  H264  1  0.017000  0.943000  0.060400  1.0  0.0643
  H  H265  1  0.793400  0.853100  0.048900  1.0  0.0719
  H  H266  1  0.759700  0.917100  0.357600  1.0  0.0542
  H  H267  1  0.815900  0.876600  0.328300  1.0  0.0548
  H  H268  1  0.445000  0.774800  0.304000  1.0  0.1034
  H  H269  1  0.413500  0.710300  0.358800  1.0  0.0776
  H  H270  1  0.511500  0.697800  0.430800  1.0  0.0782
  H  H271  1  0.656800  0.742000  0.448300  1.0  0.0907
  H  H272  1  0.824100  0.855300  0.419600  1.0  0.0709
  H  H273  1  0.775500  0.816000  0.453300  1.0  0.0847
  H  H274  1  0.942800  0.821200  0.366900  1.0  0.0943
  H  H275  1  0.050400  0.753200  0.356700  1.0  0.0833
  H  H276  1  0.038200  0.676800  0.393300  1.0  0.0713
  H  H277  1  0.820800  0.725200  0.455600  1.0  0.0705
  H  H278  1  0.235600  0.972000  0.278100  1.0  0.0618
  H  H279  1  0.305000  0.964900  0.327900  1.0  0.0643
  H  H280  1  0.590700  0.038100  0.210500  1.0  0.1017
  H  H281  1  0.627400  0.126000  0.209700  1.0  0.0762
  H  H282  1  0.545000  0.186300  0.248300  1.0  0.0752
  H  H283  1  0.409100  0.162600  0.285100  1.0  0.0828
  H  H284  1  0.258300  0.053100  0.336200  1.0  0.0932
  H  H285  1  0.315100  0.106500  0.338700  1.0  0.0928
  H  H286  1  0.177500  0.057800  0.231200  1.0  0.0823
  H  H287  1  0.041700  0.100700  0.190200  1.0  0.0931
  H  H288  1  0.986000  0.172100  0.227000  1.0  0.0476
  H  H289  1  0.200300  0.169000  0.329700  1.0  0.0753
  H  H290  1  0.298300  0.941500  0.204800  1.0  0.0584
  H  H291  1  0.230600  0.896300  0.219700  1.0  0.0519
  H  H292  1  0.591700  0.784700  0.225900  1.0  0.0976
  H  H293  1  0.626400  0.740300  0.156700  1.0  0.0733
  H  H294  1  0.529300  0.746900  0.083800  1.0  0.0737
  H  H295  1  0.384700  0.794100  0.076600  1.0  0.0925
  H  H296  1  0.238900  0.904800  0.129500  1.0  0.0851
  H  H297  1  0.290100  0.877600  0.088400  1.0  0.0974
  H  H298  1  0.171600  0.842600  0.033300  1.0  0.1017
  H  H299  1  0.034300  0.792100  0.015600  1.0  0.0867
  H  H300  1  0.960600  0.760300  0.076400  1.0  0.0631
  H  H301  1  0.155600  0.819300  0.174900  1.0  0.0625
  H  H302  1  0.238900  0.878100  0.310000  1.0  0.055
  H  H303  1  0.308300  0.839700  0.286000  1.0  0.0651
  H  H304  1  0.614300  0.927900  0.418200  1.0  0.0889
  H  H305  1  0.657200  0.891700  0.495000  1.0  0.0781
  H  H306  1  0.560200  0.831400  0.526500  1.0  0.0695
  H  H307  1  0.417700  0.805800  0.483500  1.0  0.0968
  H  H308  1  0.242400  0.799900  0.361700  1.0  0.079
  H  H309  1  0.304100  0.773900  0.407600  1.0  0.0935
  H  H310  1  0.209500  0.769600  0.473300  1.0  0.0979
  H  H311  1  0.110200  0.811100  0.523300  1.0  0.0923
  H  H312  1  0.053200  0.892800  0.502500  1.0  0.0532
  H  H313  1  0.192300  0.895800  0.390000  1.0  0.0518
  H  H314  1  0.218100  0.011700  0.994800  1.0  0.1284
  H  H315  1  0.268000  0.961200  0.976800  1.0  0.1324
  H  H316  1  0.220200  0.002200  0.938100  1.0  0.1093
  C  C317  1  0.744900  0.533100  0.781400  1.0  -0.1602
  C  C318  1  0.692800  0.498700  0.812100  1.0  0.3461
  C  C319  1  0.586500  0.471700  0.854100  1.0  0.1293
  C  C320  1  0.506900  0.465200  0.879300  1.0  -0.142
  C  C321  1  0.496400  0.416600  0.900100  1.0  -0.134
  C  C322  1  0.560200  0.377000  0.896100  1.0  -0.1185
  C  C323  1  0.637600  0.382100  0.871900  1.0  -0.1432
  C  C324  1  0.649600  0.431300  0.851200  1.0  0.0713
  C  C325  1  0.794000  0.419600  0.806900  1.0  -0.1553
  C  C326  1  0.881000  0.412200  0.844000  1.0  0.1103
  C  C327  1  0.909600  0.365300  0.860400  1.0  -0.1397
  C  C328  1  0.991900  0.359800  0.893300  1.0  -0.101
  C  C329  1  0.044400  0.402800  0.907700  1.0  0.1012
  C  C330  1  0.936100  0.454400  0.861700  1.0  0.1112
  C  C331  1  0.734800  0.617300  0.744300  1.0  -0.1523
  C  C332  1  0.668000  0.602800  0.699700  1.0  0.3492
  C  C333  1  0.548200  0.571300  0.654600  1.0  0.1209
  C  C334  1  0.464600  0.546700  0.634500  1.0  -0.122
  C  C335  1  0.439200  0.550300  0.584900  1.0  -0.1334
  C  C336  1  0.496100  0.576100  0.555700  1.0  -0.1109
  C  C337  1  0.578800  0.600200  0.574000  1.0  -0.1473
  C  C338  1  0.604000  0.596300  0.624300  1.0  0.0599
  C  C339  1  0.754200  0.650700  0.639300  1.0  -0.1265
  C  C340  1  0.830100  0.621800  0.617300  1.0  0.0846
  C  C341  1  0.895000  0.590300  0.644900  1.0  -0.0766
  C  C342  1  0.964700  0.566100  0.623800  1.0  -0.1758
  C  C343  1  0.967800  0.573100  0.574900  1.0  0.1331
  C  C344  1  0.837800  0.625900  0.568400  1.0  0.0849
  C  C345  1  0.752400  0.609500  0.831800  1.0  -0.1358
  C  C346  1  0.690500  0.651300  0.844900  1.0  0.3558
  C  C347  1  0.570900  0.703300  0.843600  1.0  0.0994
  C  C348  1  0.487300  0.731500  0.832700  1.0  -0.162
  C  C349  1  0.468900  0.769100  0.865600  1.0  -0.1326
  C  C350  1  0.529300  0.777600  0.908300  1.0  -0.1397
  C  C351  1  0.615000  0.751500  0.919400  1.0  -0.1702
  C  C352  1  0.634700  0.715400  0.885500  1.0  0.0614
  C  C353  1  0.794800  0.679300  0.920700  1.0  -0.1452
  C  C354  1  0.867700  0.720300  0.912400  1.0  0.0511
  C  C355  1  0.938100  0.711200  0.882600  1.0  -0.1363
  C  C356  1  0.001800  0.751800  0.876600  1.0  -0.1708
  C  C357  1  0.994600  0.796600  0.898300  1.0  0.1217
  C  C358  1  0.867000  0.768500  0.934500  1.0  0.1033
  C  C359  1  0.302100  0.534200  0.792100  1.0  -0.1569
  C  C360  1  0.364100  0.491500  0.777500  1.0  0.3525
  C  C361  1  0.475200  0.451200  0.747700  1.0  0.1017
  C  C362  1  0.554300  0.437100  0.725100  1.0  -0.1695
  C  C363  1  0.575800  0.385200  0.725500  1.0  -0.1233
  C  C364  1  0.525200  0.348700  0.747900  1.0  -0.1389
  C  C365  1  0.445000  0.362200  0.770100  1.0  -0.1407
  C  C366  1  0.422500  0.414700  0.768500  1.0  0.103
  C  C367  1  0.281600  0.419100  0.816300  1.0  -0.1672
  C  C368  1  0.197600  0.393100  0.787200  1.0  0.0665
  C  C369  1  0.153800  0.411900  0.744700  1.0  -0.1069
  C  C370  1  0.073000  0.386700  0.720100  1.0  -0.1835
  C  C371  1  0.042900  0.343700  0.741400  1.0  0.1281
  C  C372  1  0.165600  0.347100  0.802300  1.0  0.059
  C  C373  1  0.297000  0.591700  0.722400  1.0  -0.1068
  C  C374  1  0.355000  0.629900  0.701300  1.0  0.3394
  C  C375  1  0.469900  0.682600  0.691100  1.0  0.1416
  C  C376  1  0.551400  0.712800  0.696000  1.0  -0.1618
  C  C377  1  0.571000  0.738900  0.654900  1.0  -0.1266
  C  C378  1  0.511600  0.735600  0.611200  1.0  -0.1403
  C  C379  1  0.426400  0.707400  0.606100  1.0  -0.1338
  C  C380  1  0.408400  0.681900  0.647900  1.0  0.0739
  C  C381  1  0.261500  0.628800  0.618500  1.0  -0.1522
  C  C382  1  0.176900  0.664500  0.606700  1.0  0.0706
  C  C383  1  0.141200  0.672000  0.558600  1.0  -0.1112
  C  C384  1  0.059800  0.701400  0.548300  1.0  -0.1682
  C  C385  1  0.017300  0.720500  0.584500  1.0  0.139
  C  C386  1  0.130300  0.685900  0.642000  1.0  0.1265
  C  C387  1  0.305000  0.627200  0.803600  1.0  -0.1631
  C  C388  1  0.370100  0.628700  0.850400  1.0  0.3433
  C  C389  1  0.491300  0.613500  0.904100  1.0  0.1272
  C  C390  1  0.575100  0.597100  0.930700  1.0  -0.1442
  C  C391  1  0.599600  0.618400  0.976300  1.0  -0.1321
  C  C392  1  0.541000  0.654500  0.995200  1.0  -0.1128
  C  C393  1  0.457600  0.670200  0.970200  1.0  -0.1087
  C  C394  1  0.433500  0.649500  0.924300  1.0  0.0502
  C  C395  1  0.278000  0.693000  0.894000  1.0  -0.0916
  C  C396  1  0.211700  0.670700  0.926800  1.0  0.0344
  C  C397  1  0.186800  0.696400  0.966000  1.0  -0.0845
  C  C398  1  0.127400  0.672100  0.995400  1.0  -0.1933
  C  C399  1  0.094700  0.623400  0.983000  1.0  0.1114
  C  C400  1  0.175800  0.622000  0.917500  1.0  0.091
  C  C401  1  0.126500  0.542200  0.466600  1.0  0.3254
  C  C402  1  0.215400  0.514500  0.469300  1.0  -0.3612
  C  C403  1  0.255100  0.033100  0.718600  1.0  -0.1581
  C  C404  1  0.307200  0.998700  0.687900  1.0  0.348
  C  C405  1  0.413500  0.971700  0.645900  1.0  0.1287
  C  C406  1  0.493100  0.965200  0.620700  1.0  -0.1406
  C  C407  1  0.503600  0.916600  0.599900  1.0  -0.1344
  C  C408  1  0.439800  0.877000  0.603900  1.0  -0.1174
  C  C409  1  0.362400  0.882100  0.628100  1.0  -0.1437
  C  C410  1  0.350400  0.931300  0.648800  1.0  0.0698
  C  C411  1  0.206000  0.919600  0.693100  1.0  -0.1601
  C  C412  1  0.119000  0.912200  0.656000  1.0  0.1099
  C  C413  1  0.090400  0.865300  0.639600  1.0  -0.1389
  C  C414  1  0.008100  0.859800  0.606700  1.0  -0.1016
  C  C415  1  0.955600  0.902800  0.592300  1.0  0.1017
  C  C416  1  0.063900  0.954400  0.638300  1.0  0.1127
  C  C417  1  0.265200  0.117300  0.755700  1.0  -0.151
  C  C418  1  0.332000  0.102800  0.800300  1.0  0.3488
  C  C419  1  0.451800  0.071300  0.845400  1.0  0.1224
  C  C420  1  0.535400  0.046700  0.865500  1.0  -0.1228
  C  C421  1  0.560800  0.050300  0.915100  1.0  -0.1345
  C  C422  1  0.503900  0.076100  0.944300  1.0  -0.109
  C  C423  1  0.421200  0.100200  0.926000  1.0  -0.1479
  C  C424  1  0.396000  0.096300  0.875700  1.0  0.0637
  C  C425  1  0.245800  0.150700  0.860700  1.0  -0.1266
  C  C426  1  0.169900  0.121800  0.882700  1.0  0.0835
  C  C427  1  0.105000  0.090300  0.855100  1.0  -0.0767
  C  C428  1  0.035300  0.066100  0.876200  1.0  -0.1783
  C  C429  1  0.032200  0.073100  0.925100  1.0  0.1341
  C  C430  1  0.162200  0.125900  0.931600  1.0  0.0838
  C  C431  1  0.247600  0.109500  0.668200  1.0  -0.1351
  C  C432  1  0.309500  0.151300  0.655100  1.0  0.3545
  C  C433  1  0.429100  0.203300  0.656400  1.0  0.0978
  C  C434  1  0.512700  0.231500  0.667300  1.0  -0.1621
  C  C435  1  0.531100  0.269100  0.634400  1.0  -0.1305
  C  C436  1  0.470700  0.277600  0.591700  1.0  -0.1391
  C  C437  1  0.385000  0.251500  0.580600  1.0  -0.1708
  C  C438  1  0.365300  0.215400  0.614500  1.0  0.0603
  C  C439  1  0.205200  0.179300  0.579300  1.0  -0.1444
  C  C440  1  0.132300  0.220300  0.587600  1.0  0.051
  C  C441  1  0.061900  0.211200  0.617400  1.0  -0.1371
  C  C442  1  0.998200  0.251800  0.623400  1.0  -0.1724
  C  C443  1  0.005400  0.296600  0.601700  1.0  0.1214
  C  C444  1  0.133000  0.268500  0.565500  1.0  0.1038
  C  C445  1  0.697900  0.034200  0.707900  1.0  -0.1592
  C  C446  1  0.635900  0.991500  0.722500  1.0  0.3526
  C  C447  1  0.524800  0.951200  0.752300  1.0  0.1003
  C  C448  1  0.445700  0.937100  0.774900  1.0  -0.1694
  C  C449  1  0.424200  0.885200  0.774500  1.0  -0.1261
  C  C450  1  0.474800  0.848700  0.752100  1.0  -0.1386
  C  C451  1  0.555000  0.862200  0.729900  1.0  -0.1411
  C  C452  1  0.577500  0.914700  0.731500  1.0  0.105
  C  C453  1  0.718400  0.919100  0.683700  1.0  -0.1623
  C  C454  1  0.802400  0.893100  0.712800  1.0  0.0681
  C  C455  1  0.846200  0.911900  0.755300  1.0  -0.1062
  C  C456  1  0.927000  0.886700  0.779900  1.0  -0.1822
  C  C457  1  0.957100  0.843700  0.758600  1.0  0.1303
  C  C458  1  0.834400  0.847100  0.697700  1.0  0.059
  C  C459  1  0.703000  0.091700  0.777600  1.0  -0.1046
  C  C460  1  0.645000  0.129900  0.798700  1.0  0.3382
  C  C461  1  0.530100  0.182600  0.808900  1.0  0.1425
  C  C462  1  0.448600  0.212800  0.804000  1.0  -0.1615
  C  C463  1  0.429000  0.238900  0.845100  1.0  -0.128
  C  C464  1  0.488400  0.235600  0.888800  1.0  -0.1416
  C  C465  1  0.573600  0.207400  0.893900  1.0  -0.1337
  C  C466  1  0.591600  0.181900  0.852100  1.0  0.0748
  C  C467  1  0.738500  0.128800  0.881500  1.0  -0.1526
  C  C468  1  0.823100  0.164500  0.893300  1.0  0.0702
  C  C469  1  0.858800  0.172000  0.941400  1.0  -0.1109
  C  C470  1  0.940200  0.201400  0.951700  1.0  -0.1671
  C  C471  1  0.982700  0.220500  0.915500  1.0  0.1379
  C  C472  1  0.869700  0.185900  0.858000  1.0  0.1259
  C  C473  1  0.695000  0.127200  0.696400  1.0  -0.1647
  C  C474  1  0.629900  0.128700  0.649600  1.0  0.3434
  C  C475  1  0.508700  0.113500  0.595900  1.0  0.1276
  C  C476  1  0.424900  0.097100  0.569300  1.0  -0.1429
  C  C477  1  0.400400  0.118400  0.523700  1.0  -0.1324
  C  C478  1  0.459000  0.154500  0.504800  1.0  -0.1166
  C  C479  1  0.542400  0.170200  0.529800  1.0  -0.1094
  C  C480  1  0.566500  0.149500  0.575700  1.0  0.0504
  C  C481  1  0.722000  0.193000  0.606000  1.0  -0.0937
  C  C482  1  0.788300  0.170700  0.573200  1.0  0.0349
  C  C483  1  0.813200  0.196400  0.534000  1.0  -0.0831
  C  C484  1  0.872600  0.172100  0.504600  1.0  -0.1916
  C  C485  1  0.905300  0.123400  0.517000  1.0  0.1094
  C  C486  1  0.824200  0.122000  0.582500  1.0  0.0906
  C  C487  1  0.873500  0.042200  0.033400  1.0  0.3262
  C  C488  1  0.784600  0.014500  0.030700  1.0  -0.3626
  C  C489  1  0.255100  0.466900  0.218600  1.0  -0.1577
  C  C490  1  0.307200  0.501300  0.187900  1.0  0.3478
  C  C491  1  0.413500  0.528300  0.145900  1.0  0.1282
  C  C492  1  0.493100  0.534800  0.120700  1.0  -0.1419
  C  C493  1  0.503600  0.583400  0.099900  1.0  -0.1347
  C  C494  1  0.439800  0.623000  0.103900  1.0  -0.1175
  C  C495  1  0.362400  0.617900  0.128100  1.0  -0.1426
  C  C496  1  0.350400  0.568700  0.148800  1.0  0.0697
  C  C497  1  0.206000  0.580400  0.193100  1.0  -0.1568
  C  C498  1  0.119000  0.587800  0.156000  1.0  0.11
  C  C499  1  0.090400  0.634700  0.139600  1.0  -0.1401
  C  C500  1  0.008100  0.640200  0.106700  1.0  -0.1018
  C  C501  1  0.955600  0.597200  0.092300  1.0  0.1015
  C  C502  1  0.063900  0.545600  0.138300  1.0  0.1128
  C  C503  1  0.265200  0.382700  0.255700  1.0  -0.1513
  C  C504  1  0.332000  0.397200  0.300300  1.0  0.349
  C  C505  1  0.451800  0.428700  0.345400  1.0  0.1245
  C  C506  1  0.535400  0.453300  0.365500  1.0  -0.1219
  C  C507  1  0.560800  0.449700  0.415100  1.0  -0.133
  C  C508  1  0.503900  0.423900  0.444300  1.0  -0.1092
  C  C509  1  0.421200  0.399800  0.426000  1.0  -0.1484
  C  C510  1  0.396000  0.403700  0.375700  1.0  0.0639
  C  C511  1  0.245800  0.349300  0.360700  1.0  -0.1265
  C  C512  1  0.169900  0.378200  0.382700  1.0  0.0832
  C  C513  1  0.105000  0.409700  0.355100  1.0  -0.0762
  C  C514  1  0.035300  0.433900  0.376200  1.0  -0.1776
  C  C515  1  0.032200  0.426900  0.425100  1.0  0.1332
  C  C516  1  0.162200  0.374100  0.431600  1.0  0.0839
  C  C517  1  0.247600  0.390500  0.168200  1.0  -0.1348
  C  C518  1  0.309500  0.348700  0.155100  1.0  0.3545
  C  C519  1  0.429100  0.296700  0.156400  1.0  0.0976
  C  C520  1  0.512700  0.268500  0.167300  1.0  -0.1616
  C  C521  1  0.531100  0.230900  0.134400  1.0  -0.1331
  C  C522  1  0.470700  0.222400  0.091700  1.0  -0.1385
  C  C523  1  0.385000  0.248500  0.080600  1.0  -0.1694
  C  C524  1  0.365300  0.284600  0.114500  1.0  0.0601
  C  C525  1  0.205200  0.320700  0.079300  1.0  -0.1453
  C  C526  1  0.132300  0.279700  0.087600  1.0  0.0508
  C  C527  1  0.061900  0.288800  0.117400  1.0  -0.1362
  C  C528  1  0.998200  0.248200  0.123400  1.0  -0.1723
  C  C529  1  0.005400  0.203400  0.101700  1.0  0.1225
  C  C530  1  0.133000  0.231500  0.065500  1.0  0.1036
  C  C531  1  0.697900  0.465800  0.207900  1.0  -0.1596
  C  C532  1  0.635900  0.508500  0.222500  1.0  0.3519
  C  C533  1  0.524800  0.548800  0.252300  1.0  0.1004
  C  C534  1  0.445700  0.562900  0.274900  1.0  -0.1704
  C  C535  1  0.424200  0.614800  0.274500  1.0  -0.1266
  C  C536  1  0.474800  0.651300  0.252100  1.0  -0.1389
  C  C537  1  0.555000  0.637800  0.229900  1.0  -0.1402
  C  C538  1  0.577500  0.585300  0.231500  1.0  0.1053
  C  C539  1  0.718400  0.580900  0.183700  1.0  -0.1639
  C  C540  1  0.802400  0.606900  0.212800  1.0  0.0679
  C  C541  1  0.846200  0.588100  0.255300  1.0  -0.1057
  C  C542  1  0.927000  0.613300  0.279900  1.0  -0.1813
  C  C543  1  0.957100  0.656300  0.258600  1.0  0.1299
  C  C544  1  0.834400  0.652900  0.197700  1.0  0.0597
  C  C545  1  0.703000  0.408300  0.277600  1.0  -0.104
  C  C546  1  0.645000  0.370100  0.298700  1.0  0.3379
  C  C547  1  0.530100  0.317400  0.308900  1.0  0.1423
  C  C548  1  0.448600  0.287200  0.304000  1.0  -0.1603
  C  C549  1  0.429000  0.261100  0.345100  1.0  -0.1284
  C  C550  1  0.488400  0.264400  0.388800  1.0  -0.1419
  C  C551  1  0.573600  0.292600  0.393900  1.0  -0.1338
  C  C552  1  0.591600  0.318100  0.352100  1.0  0.0767
  C  C553  1  0.738500  0.371200  0.381500  1.0  -0.1529
  C  C554  1  0.823100  0.335500  0.393300  1.0  0.071
  C  C555  1  0.858800  0.328000  0.441400  1.0  -0.1113
  C  C556  1  0.940200  0.298600  0.451700  1.0  -0.1667
  C  C557  1  0.982700  0.279500  0.415500  1.0  0.1381
  C  C558  1  0.869700  0.314100  0.358000  1.0  0.1262
  C  C559  1  0.695000  0.372800  0.196400  1.0  -0.1655
  C  C560  1  0.629900  0.371300  0.149600  1.0  0.3438
  C  C561  1  0.508700  0.386500  0.095900  1.0  0.1283
  C  C562  1  0.424900  0.402900  0.069300  1.0  -0.1415
  C  C563  1  0.400400  0.381600  0.023700  1.0  -0.1297
  C  C564  1  0.459000  0.345500  0.004800  1.0  -0.1172
  C  C565  1  0.542400  0.329800  0.029800  1.0  -0.1092
  C  C566  1  0.566500  0.350500  0.075700  1.0  0.0502
  C  C567  1  0.722000  0.307000  0.106000  1.0  -0.0932
  C  C568  1  0.788300  0.329300  0.073200  1.0  0.0349
  C  C569  1  0.813200  0.303600  0.034000  1.0  -0.0831
  C  C570  1  0.872600  0.327900  0.004600  1.0  -0.1911
  C  C571  1  0.905300  0.376600  0.017000  1.0  0.1103
  C  C572  1  0.824200  0.378000  0.082500  1.0  0.0898
  C  C573  1  0.873500  0.457800  0.533400  1.0  0.3289
  C  C574  1  0.784600  0.485500  0.530700  1.0  -0.3634
  C  C575  1  0.744900  0.966900  0.281400  1.0  -0.1589
  C  C576  1  0.692800  0.001300  0.312100  1.0  0.3459
  C  C577  1  0.586500  0.028300  0.354100  1.0  0.1298
  C  C578  1  0.506900  0.034800  0.379300  1.0  -0.1418
  C  C579  1  0.496400  0.083400  0.400100  1.0  -0.1342
  C  C580  1  0.560200  0.123000  0.396100  1.0  -0.1174
  C  C581  1  0.637600  0.117900  0.371900  1.0  -0.1421
  C  C582  1  0.649600  0.068700  0.351200  1.0  0.0701
  C  C583  1  0.794000  0.080400  0.306900  1.0  -0.1566
  C  C584  1  0.881000  0.087800  0.344000  1.0  0.1105
  C  C585  1  0.909600  0.134700  0.360400  1.0  -0.1403
  C  C586  1  0.991900  0.140200  0.393300  1.0  -0.1012
  C  C587  1  0.044400  0.097200  0.407700  1.0  0.1013
  C  C588  1  0.936100  0.045600  0.361700  1.0  0.1117
  C  C589  1  0.734800  0.882700  0.244300  1.0  -0.1535
  C  C590  1  0.668000  0.897200  0.199700  1.0  0.3494
  C  C591  1  0.548200  0.928700  0.154600  1.0  0.1223
  C  C592  1  0.464600  0.953300  0.134500  1.0  -0.1229
  C  C593  1  0.439200  0.949700  0.084900  1.0  -0.1327
  C  C594  1  0.496100  0.923900  0.055700  1.0  -0.111
  C  C595  1  0.578800  0.899800  0.074000  1.0  -0.1478
  C  C596  1  0.604000  0.903700  0.124300  1.0  0.0622
  C  C597  1  0.754200  0.849300  0.139300  1.0  -0.1255
  C  C598  1  0.830100  0.878200  0.117300  1.0  0.0844
  C  C599  1  0.895000  0.909700  0.144900  1.0  -0.0763
  C  C600  1  0.964700  0.933900  0.123800  1.0  -0.1746
  C  C601  1  0.967800  0.926900  0.074900  1.0  0.1334
  C  C602  1  0.837800  0.874100  0.068400  1.0  0.0853
  C  C603  1  0.752400  0.890500  0.331800  1.0  -0.135
  C  C604  1  0.690500  0.848700  0.344900  1.0  0.3554
  C  C605  1  0.570900  0.796700  0.343600  1.0  0.0987
  C  C606  1  0.487300  0.768500  0.332700  1.0  -0.1619
  C  C607  1  0.468900  0.730900  0.365600  1.0  -0.1304
  C  C608  1  0.529300  0.722400  0.408300  1.0  -0.139
  C  C609  1  0.615000  0.748500  0.419400  1.0  -0.1716
  C  C610  1  0.634700  0.784600  0.385500  1.0  0.0602
  C  C611  1  0.794800  0.820700  0.420700  1.0  -0.1449
  C  C612  1  0.867700  0.779700  0.412400  1.0  0.0508
  C  C613  1  0.938100  0.788800  0.382600  1.0  -0.1361
  C  C614  1  0.001800  0.748200  0.376600  1.0  -0.1711
  C  C615  1  0.994600  0.703400  0.398300  1.0  0.1202
  C  C616  1  0.867000  0.731500  0.434500  1.0  0.105
  C  C617  1  0.302100  0.965800  0.292100  1.0  -0.1578
  C  C618  1  0.364100  0.008500  0.277500  1.0  0.3516
  C  C619  1  0.475200  0.048800  0.247700  1.0  0.1014
  C  C620  1  0.554300  0.062900  0.225100  1.0  -0.1696
  C  C621  1  0.575800  0.114800  0.225500  1.0  -0.1229
  C  C622  1  0.525200  0.151300  0.247900  1.0  -0.1385
  C  C623  1  0.445000  0.137800  0.270100  1.0  -0.1392
  C  C624  1  0.422500  0.085300  0.268500  1.0  0.1052
  C  C625  1  0.281600  0.080900  0.316300  1.0  -0.1668
  C  C626  1  0.197600  0.106900  0.287200  1.0  0.0662
  C  C627  1  0.153800  0.088100  0.244700  1.0  -0.1061
  C  C628  1  0.073000  0.113300  0.220100  1.0  -0.1827
  C  C629  1  0.042900  0.156300  0.241400  1.0  0.1279
  C  C630  1  0.165600  0.152900  0.302300  1.0  0.059
  C  C631  1  0.297000  0.908300  0.222400  1.0  -0.1061
  C  C632  1  0.355000  0.870100  0.201300  1.0  0.339
  C  C633  1  0.469900  0.817400  0.191100  1.0  0.1421
  C  C634  1  0.551400  0.787200  0.196000  1.0  -0.1604
  C  C635  1  0.571000  0.761100  0.154900  1.0  -0.1279
  C  C636  1  0.511600  0.764400  0.111200  1.0  -0.1401
  C  C637  1  0.426400  0.792600  0.106100  1.0  -0.1329
  C  C638  1  0.408400  0.818100  0.147900  1.0  0.0753
  C  C639  1  0.261500  0.871200  0.118500  1.0  -0.1528
  C  C640  1  0.176900  0.835500  0.106700  1.0  0.0714
  C  C641  1  0.141200  0.828000  0.058600  1.0  -0.1115
  C  C642  1  0.059800  0.798600  0.048300  1.0  -0.1682
  C  C643  1  0.017300  0.779500  0.084500  1.0  0.1391
  C  C644  1  0.130300  0.814100  0.142000  1.0  0.1271
  C  C645  1  0.305000  0.872800  0.303600  1.0  -0.1634
  C  C646  1  0.370100  0.871300  0.350400  1.0  0.3437
  C  C647  1  0.491300  0.886500  0.404100  1.0  0.1274
  C  C648  1  0.575100  0.902900  0.430700  1.0  -0.1432
  C  C649  1  0.599600  0.881600  0.476300  1.0  -0.1303
  C  C650  1  0.541000  0.845500  0.495200  1.0  -0.1132
  C  C651  1  0.457600  0.829800  0.470200  1.0  -0.1089
  C  C652  1  0.433500  0.850500  0.424300  1.0  0.05
  C  C653  1  0.278000  0.807000  0.394000  1.0  -0.0923
  C  C654  1  0.211700  0.829300  0.426800  1.0  0.0344
  C  C655  1  0.186800  0.803600  0.466000  1.0  -0.0846
  C  C656  1  0.127400  0.827900  0.495400  1.0  -0.193
  C  C657  1  0.094700  0.876600  0.483000  1.0  0.1098
  C  C658  1  0.175800  0.878000  0.417500  1.0  0.091
  C  C659  1  0.126500  0.957800  0.966600  1.0  0.3278
  C  C660  1  0.215400  0.985500  0.969300  1.0  -0.3619
  N  N661  1  0.709600  0.586100  0.785300  1.0  -0.2613
  N  N662  1  0.613500  0.513900  0.828800  1.0  -0.5264
  N  N663  1  0.717600  0.449900  0.824500  1.0  -0.0915
  N  N664  1  0.015600  0.449800  0.893000  1.0  -0.3068
  N  N665  1  0.589300  0.576200  0.702300  1.0  -0.5171
  N  N666  1  0.681200  0.616100  0.654500  1.0  -0.1087
  N  N667  1  0.904100  0.601800  0.547400  1.0  -0.3411
  N  N668  1  0.607500  0.662600  0.819600  1.0  -0.5012
  N  N669  1  0.711700  0.681800  0.884700  1.0  -0.1021
  N  N670  1  0.927200  0.806400  0.927800  1.0  -0.3646
  N  N671  1  0.335200  0.584100  0.774400  1.0  -0.2565
  N  N672  1  0.437600  0.500700  0.755600  1.0  -0.4967
  N  N673  1  0.349500  0.441500  0.786500  1.0  -0.1172
  N  N674  1  0.086700  0.323000  0.780200  1.0  -0.3467
  N  N675  1  0.436000  0.649200  0.725000  1.0  -0.5349
  N  N676  1  0.335500  0.648600  0.655800  1.0  -0.0833
  N  N677  1  0.049700  0.714300  0.632100  1.0  -0.3715
  N  N678  1  0.450600  0.601500  0.857100  1.0  -0.5271
  N  N679  1  0.355800  0.657400  0.888700  1.0  -0.0733
  N  N680  1  0.118500  0.598200  0.945200  1.0  -0.3419
  N  N681  1  0.056900  0.563800  0.463400  1.0  -0.5195
  N  N682  1  0.290400  0.086100  0.714700  1.0  -0.2642
  N  N683  1  0.386500  0.013900  0.671200  1.0  -0.5272
  N  N684  1  0.282400  0.949900  0.675500  1.0  -0.0909
  N  N685  1  0.984400  0.949800  0.607000  1.0  -0.3062
  N  N686  1  0.410700  0.076200  0.797700  1.0  -0.5153
  N  N687  1  0.318800  0.116100  0.845500  1.0  -0.1085
  N  N688  1  0.095900  0.101800  0.952600  1.0  -0.339
  N  N689  1  0.392500  0.162600  0.680400  1.0  -0.5025
  N  N690  1  0.288300  0.181800  0.615300  1.0  -0.102
  N  N691  1  0.072800  0.306400  0.572200  1.0  -0.364
  N  N692  1  0.664800  0.084100  0.725600  1.0  -0.2546
  N  N693  1  0.562400  0.000700  0.744400  1.0  -0.4967
  N  N694  1  0.650500  0.941500  0.713500  1.0  -0.1174
  N  N695  1  0.913300  0.823000  0.719800  1.0  -0.3445
  N  N696  1  0.564000  0.149200  0.775000  1.0  -0.5332
  N  N697  1  0.664500  0.148600  0.844200  1.0  -0.0833
  N  N698  1  0.950300  0.214300  0.867900  1.0  -0.3688
  N  N699  1  0.549400  0.101500  0.642900  1.0  -0.5297
  N  N700  1  0.644200  0.157400  0.611300  1.0  -0.0733
  N  N701  1  0.881500  0.098200  0.554800  1.0  -0.3408
  N  N702  1  0.943100  0.063800  0.036600  1.0  -0.52
  N  N703  1  0.290400  0.413900  0.214700  1.0  -0.2642
  N  N704  1  0.386500  0.486100  0.171200  1.0  -0.5268
  N  N705  1  0.282400  0.550100  0.175500  1.0  -0.0907
  N  N706  1  0.984400  0.550200  0.107000  1.0  -0.3094
  N  N707  1  0.410700  0.423800  0.297700  1.0  -0.5169
  N  N708  1  0.318800  0.383900  0.345500  1.0  -0.1082
  N  N709  1  0.095900  0.398200  0.452600  1.0  -0.3392
  N  N710  1  0.392500  0.337400  0.180400  1.0  -0.5035
  N  N711  1  0.288300  0.318200  0.115300  1.0  -0.1025
  N  N712  1  0.072800  0.193600  0.072200  1.0  -0.3632
  N  N713  1  0.664800  0.415900  0.225600  1.0  -0.2546
  N  N714  1  0.562400  0.499300  0.244400  1.0  -0.4975
  N  N715  1  0.650500  0.558500  0.213500  1.0  -0.1178
  N  N716  1  0.913300  0.677000  0.219800  1.0  -0.3463
  N  N717  1  0.564000  0.350800  0.275000  1.0  -0.533
  N  N718  1  0.664500  0.351400  0.344200  1.0  -0.0832
  N  N719  1  0.950300  0.285700  0.367900  1.0  -0.3708
  N  N720  1  0.549400  0.398500  0.142900  1.0  -0.5307
  N  N721  1  0.644200  0.342600  0.111300  1.0  -0.0733
  N  N722  1  0.881500  0.401800  0.054800  1.0  -0.3465
  N  N723  1  0.943100  0.436200  0.536600  1.0  -0.5191
  N  N724  1  0.709600  0.913900  0.285300  1.0  -0.2613
  N  N725  1  0.613500  0.986100  0.328800  1.0  -0.5257
  N  N726  1  0.717600  0.050100  0.324500  1.0  -0.0919
  N  N727  1  0.015600  0.050200  0.393000  1.0  -0.3056
  N  N728  1  0.589300  0.923800  0.202300  1.0  -0.5177
  N  N729  1  0.681200  0.883900  0.154500  1.0  -0.1086
  N  N730  1  0.904100  0.898200  0.047400  1.0  -0.3425
  N  N731  1  0.607500  0.837400  0.319600  1.0  -0.5031
  N  N732  1  0.711700  0.818200  0.384700  1.0  -0.1025
  N  N733  1  0.927200  0.693600  0.427800  1.0  -0.366
  N  N734  1  0.335200  0.915900  0.274400  1.0  -0.2565
  N  N735  1  0.437600  0.999300  0.255600  1.0  -0.4979
  N  N736  1  0.349500  0.058500  0.286500  1.0  -0.1163
  N  N737  1  0.086700  0.177000  0.280200  1.0  -0.3463
  N  N738  1  0.436000  0.850800  0.225000  1.0  -0.5343
  N  N739  1  0.335500  0.851400  0.155800  1.0  -0.084
  N  N740  1  0.049700  0.785700  0.132100  1.0  -0.3708
  N  N741  1  0.450600  0.898500  0.357100  1.0  -0.5291
  N  N742  1  0.355800  0.842600  0.388700  1.0  -0.0734
  N  N743  1  0.118500  0.901800  0.445200  1.0  -0.3454
  N  N744  1  0.056900  0.936200  0.963400  1.0  -0.5194
