# generated using pymatgen
data_NaMn19H99(C27O26)2
_symmetry_space_group_name_H-M   'P 1'
_cell_length_a   24.43320000
_cell_length_b   24.43320000
_cell_length_c   24.43320000
_cell_angle_alpha   90.00000000
_cell_angle_beta   90.00000000
_cell_angle_gamma   90.00000000
_symmetry_Int_Tables_number   1
_chemical_formula_structural   NaMn19H99(C27O26)2
_chemical_formula_sum   'Na4 Mn76 H396 C216 O208'
_cell_volume   14586.16257656
_cell_formula_units_Z   4
loop_
 _symmetry_equiv_pos_site_id
 _symmetry_equiv_pos_as_xyz
  1  'x, y, z'
loop_
 _atom_site_type_symbol
 _atom_site_label
 _atom_site_symmetry_multiplicity
 _atom_site_fract_x
 _atom_site_fract_y
 _atom_site_fract_z
 _atom_site_occupancy
 _atom_site_charge
  Na  Na1  1  0.596980  0.903020  0.096980  1.0  0.9462
  Na  Na2  1  0.903020  0.096980  0.596980  1.0  0.945
  Na  Na3  1  0.403020  0.403020  0.403020  1.0  0.9463
  Na  Na4  1  0.096980  0.596980  0.903020  1.0  0.9456
  Mn  Mn5  1  0.736830  0.910080  0.893890  1.0  0.8888
  Mn  Mn6  1  0.793830  0.952740  0.794440  1.0  0.8068
  Mn  Mn7  1  0.727880  0.844950  0.783050  1.0  0.8616
  Mn  Mn8  1  0.656150  0.988340  0.187430  1.0  1.0972
  Mn  Mn9  1  0.681740  0.791330  0.887990  1.0  0.7884
  Mn  Mn10  1  0.775450  0.222920  0.167020  1.0  1.1027
  Mn  Mn11  1  0.763170  0.089920  0.393890  1.0  0.8882
  Mn  Mn12  1  0.706170  0.047260  0.294440  1.0  0.8072
  Mn  Mn13  1  0.772120  0.155050  0.283050  1.0  0.8601
  Mn  Mn14  1  0.843850  0.011660  0.687430  1.0  1.096
  Mn  Mn15  1  0.818260  0.208670  0.387990  1.0  0.7873
  Mn  Mn16  1  0.724550  0.777080  0.667020  1.0  1.106
  Mn  Mn17  1  0.263170  0.410080  0.606110  1.0  0.8884
  Mn  Mn18  1  0.206170  0.452740  0.705560  1.0  0.8074
  Mn  Mn19  1  0.272120  0.344950  0.716950  1.0  0.8621
  Mn  Mn20  1  0.343850  0.488340  0.312570  1.0  1.0966
  Mn  Mn21  1  0.318260  0.291330  0.612010  1.0  0.7833
  Mn  Mn22  1  0.224550  0.722920  0.332980  1.0  1.1019
  Mn  Mn23  1  0.236830  0.589920  0.106110  1.0  0.8881
  Mn  Mn24  1  0.293830  0.547260  0.205560  1.0  0.8058
  Mn  Mn25  1  0.227880  0.655050  0.216950  1.0  0.859
  Mn  Mn26  1  0.156150  0.511660  0.812570  1.0  1.0969
  Mn  Mn27  1  0.181740  0.708670  0.112010  1.0  0.7871
  Mn  Mn28  1  0.275450  0.277080  0.832980  1.0  1.1022
  Mn  Mn29  1  0.893890  0.736830  0.910080  1.0  0.886
  Mn  Mn30  1  0.794440  0.793830  0.952740  1.0  0.8089
  Mn  Mn31  1  0.783050  0.727880  0.844950  1.0  0.8623
  Mn  Mn32  1  0.187430  0.656150  0.988340  1.0  1.0975
  Mn  Mn33  1  0.887990  0.681740  0.791330  1.0  0.788
  Mn  Mn34  1  0.167020  0.775450  0.222920  1.0  1.1035
  Mn  Mn35  1  0.393890  0.763170  0.089920  1.0  0.8865
  Mn  Mn36  1  0.294440  0.706170  0.047260  1.0  0.8092
  Mn  Mn37  1  0.283050  0.772120  0.155050  1.0  0.8624
  Mn  Mn38  1  0.687430  0.843850  0.011660  1.0  1.0989
  Mn  Mn39  1  0.387990  0.818260  0.208670  1.0  0.7896
  Mn  Mn40  1  0.667020  0.724550  0.777080  1.0  1.1082
  Mn  Mn41  1  0.606110  0.263170  0.410080  1.0  0.8874
  Mn  Mn42  1  0.705560  0.206170  0.452740  1.0  0.8092
  Mn  Mn43  1  0.716950  0.272120  0.344950  1.0  0.864
  Mn  Mn44  1  0.312570  0.343850  0.488340  1.0  1.0968
  Mn  Mn45  1  0.612010  0.318260  0.291330  1.0  0.7866
  Mn  Mn46  1  0.332980  0.224550  0.722920  1.0  1.104
  Mn  Mn47  1  0.106110  0.236830  0.589920  1.0  0.8864
  Mn  Mn48  1  0.205560  0.293830  0.547260  1.0  0.8093
  Mn  Mn49  1  0.216950  0.227880  0.655050  1.0  0.8622
  Mn  Mn50  1  0.812570  0.156150  0.511660  1.0  1.0991
  Mn  Mn51  1  0.112010  0.181740  0.708670  1.0  0.785
  Mn  Mn52  1  0.832980  0.275450  0.277080  1.0  1.103
  Mn  Mn53  1  0.910080  0.893890  0.736830  1.0  0.8866
  Mn  Mn54  1  0.952740  0.794440  0.793830  1.0  0.8089
  Mn  Mn55  1  0.844950  0.783050  0.727880  1.0  0.8615
  Mn  Mn56  1  0.988340  0.187430  0.656150  1.0  1.0969
  Mn  Mn57  1  0.791330  0.887990  0.681740  1.0  0.7867
  Mn  Mn58  1  0.222920  0.167020  0.775450  1.0  1.1014
  Mn  Mn59  1  0.089920  0.393890  0.763170  1.0  0.8865
  Mn  Mn60  1  0.047260  0.294440  0.706170  1.0  0.8122
  Mn  Mn61  1  0.155050  0.283050  0.772120  1.0  0.8611
  Mn  Mn62  1  0.011660  0.687430  0.843850  1.0  1.097
  Mn  Mn63  1  0.208670  0.387990  0.818260  1.0  0.7847
  Mn  Mn64  1  0.777080  0.667020  0.724550  1.0  1.1048
  Mn  Mn65  1  0.410080  0.606110  0.263170  1.0  0.8877
  Mn  Mn66  1  0.452740  0.705560  0.206170  1.0  0.8102
  Mn  Mn67  1  0.344950  0.716950  0.272120  1.0  0.8612
  Mn  Mn68  1  0.488340  0.312570  0.343850  1.0  1.0977
  Mn  Mn69  1  0.291330  0.612010  0.318260  1.0  0.788
  Mn  Mn70  1  0.722920  0.332980  0.224550  1.0  1.102
  Mn  Mn71  1  0.589920  0.106110  0.236830  1.0  0.8869
  Mn  Mn72  1  0.547260  0.205560  0.293830  1.0  0.8087
  Mn  Mn73  1  0.655050  0.216950  0.227880  1.0  0.8611
  Mn  Mn74  1  0.511660  0.812570  0.156150  1.0  1.0964
  Mn  Mn75  1  0.708670  0.112010  0.181740  1.0  0.7854
  Mn  Mn76  1  0.277080  0.832980  0.275450  1.0  1.1033
  Mn  Mn77  1  0.861250  0.861250  0.861250  1.0  1.0547
  Mn  Mn78  1  0.638750  0.138750  0.361250  1.0  1.0581
  Mn  Mn79  1  0.138750  0.361250  0.638750  1.0  1.0568
  Mn  Mn80  1  0.361250  0.638750  0.138750  1.0  1.0563
  H  H81  1  0.603000  0.870200  0.797600  1.0  0.1248
  H  H82  1  0.604900  0.907600  0.849800  1.0  0.1302
  H  H83  1  0.651500  0.975700  0.804200  1.0  0.1387
  H  H84  1  0.679600  0.974100  0.714500  1.0  0.1296
  H  H85  1  0.653100  0.916500  0.704100  1.0  0.1288
  H  H86  1  0.554000  0.970300  0.781800  1.0  0.1417
  H  H87  1  0.586400  0.996200  0.732900  1.0  0.1277
  H  H88  1  0.568200  0.934800  0.730300  1.0  0.128
  H  H89  1  0.810900  0.080900  0.799100  1.0  0.1279
  H  H90  1  0.767200  0.093200  0.754700  1.0  0.1279
  H  H91  1  0.697300  0.071800  0.812100  1.0  0.1237
  H  H92  1  0.744400  0.158100  0.832600  1.0  0.128
  H  H93  1  0.723500  0.132400  0.887600  1.0  0.1402
  H  H94  1  0.785200  0.126500  0.870800  1.0  0.1487
  H  H95  1  0.714100  0.034900  0.896900  1.0  0.1023
  H  H96  1  0.777500  0.042200  0.890000  1.0  0.1038
  H  H97  1  0.712400  0.014200  0.067500  1.0  0.0986
  H  H98  1  0.670000  0.062100  0.064500  1.0  0.1263
  H  H99  1  0.781000  0.069300  0.071700  1.0  0.1453
  H  H100  1  0.731500  0.167400  0.059800  1.0  0.1435
  H  H101  1  0.793800  0.154100  0.067100  1.0  0.1165
  H  H102  1  0.787400  0.084300  0.984000  1.0  0.1381
  H  H103  1  0.739400  0.041900  0.988000  1.0  0.1429
  H  H104  1  0.726600  0.104000  0.978300  1.0  0.1341
  H  H105  1  0.883000  0.920600  0.033300  1.0  0.1607
  H  H106  1  0.897400  0.963600  0.988000  1.0  0.1615
  H  H107  1  0.847200  0.973400  0.026700  1.0  0.1559
  H  H108  1  0.805100  0.950100  0.121600  1.0  0.1621
  H  H109  1  0.769200  0.953500  0.174600  1.0  0.1453
  H  H110  1  0.795700  0.897600  0.157300  1.0  0.16
  H  H111  1  0.571000  0.988200  0.989500  1.0  0.1644
  H  H112  1  0.619700  0.027800  0.976100  1.0  0.1795
  H  H113  1  0.587200  0.999600  0.928500  1.0  0.1606
  H  H114  1  0.897000  0.129800  0.297600  1.0  0.1248
  H  H115  1  0.895100  0.092400  0.349800  1.0  0.1296
  H  H116  1  0.848500  0.024300  0.304200  1.0  0.1404
  H  H117  1  0.820400  0.025900  0.214500  1.0  0.1299
  H  H118  1  0.846900  0.083500  0.204100  1.0  0.129
  H  H119  1  0.946000  0.029700  0.281800  1.0  0.1433
  H  H120  1  0.913600  0.003800  0.232900  1.0  0.1286
  H  H121  1  0.931800  0.065200  0.230300  1.0  0.1278
  H  H122  1  0.689100  0.919100  0.299100  1.0  0.126
  H  H123  1  0.732800  0.906800  0.254700  1.0  0.1289
  H  H124  1  0.802700  0.928200  0.312100  1.0  0.1241
  H  H125  1  0.755600  0.841900  0.332600  1.0  0.129
  H  H126  1  0.776500  0.867600  0.387600  1.0  0.1413
  H  H127  1  0.714800  0.873500  0.370800  1.0  0.1471
  H  H128  1  0.785900  0.965100  0.396900  1.0  0.1018
  H  H129  1  0.722500  0.957800  0.390000  1.0  0.1019
  H  H130  1  0.787600  0.985800  0.567500  1.0  0.0989
  H  H131  1  0.830000  0.937900  0.564500  1.0  0.127
  H  H132  1  0.719000  0.930700  0.571700  1.0  0.1455
  H  H133  1  0.768500  0.832600  0.559800  1.0  0.1437
  H  H134  1  0.706200  0.845900  0.567100  1.0  0.1161
  H  H135  1  0.712600  0.915700  0.484000  1.0  0.1357
  H  H136  1  0.760600  0.958100  0.488000  1.0  0.1427
  H  H137  1  0.773400  0.896000  0.478300  1.0  0.1329
  H  H138  1  0.617000  0.079400  0.533300  1.0  0.1609
  H  H139  1  0.602600  0.036400  0.488000  1.0  0.1618
  H  H140  1  0.652800  0.026600  0.526700  1.0  0.1559
  H  H141  1  0.694900  0.049900  0.621600  1.0  0.1624
  H  H142  1  0.730800  0.046500  0.674600  1.0  0.1469
  H  H143  1  0.704300  0.102400  0.657300  1.0  0.1596
  H  H144  1  0.929000  0.011800  0.489500  1.0  0.1656
  H  H145  1  0.880300  0.972200  0.476100  1.0  0.1787
  H  H146  1  0.912800  0.000400  0.428500  1.0  0.1628
  H  H147  1  0.397000  0.370200  0.702400  1.0  0.1253
  H  H148  1  0.395100  0.407600  0.650200  1.0  0.1295
  H  H149  1  0.348500  0.475700  0.695800  1.0  0.1404
  H  H150  1  0.320400  0.474100  0.785500  1.0  0.1286
  H  H151  1  0.346900  0.416500  0.795900  1.0  0.1301
  H  H152  1  0.446000  0.470300  0.718200  1.0  0.1436
  H  H153  1  0.413600  0.496200  0.767100  1.0  0.1278
  H  H154  1  0.431800  0.434800  0.769700  1.0  0.1271
  H  H155  1  0.189100  0.580900  0.700900  1.0  0.1259
  H  H156  1  0.232800  0.593200  0.745300  1.0  0.1269
  H  H157  1  0.302700  0.571800  0.687900  1.0  0.1222
  H  H158  1  0.255600  0.658100  0.667400  1.0  0.1272
  H  H159  1  0.276500  0.632400  0.612400  1.0  0.1403
  H  H160  1  0.214800  0.626500  0.629200  1.0  0.1477
  H  H161  1  0.285900  0.534900  0.603100  1.0  0.1018
  H  H162  1  0.222500  0.542200  0.610000  1.0  0.1032
  H  H163  1  0.287600  0.514200  0.432500  1.0  0.0991
  H  H164  1  0.330000  0.562100  0.435500  1.0  0.1268
  H  H165  1  0.219000  0.569300  0.428300  1.0  0.1443
  H  H166  1  0.268500  0.667400  0.440200  1.0  0.1439
  H  H167  1  0.206200  0.654100  0.432900  1.0  0.1168
  H  H168  1  0.212600  0.584300  0.516000  1.0  0.1356
  H  H169  1  0.260600  0.541900  0.512000  1.0  0.1422
  H  H170  1  0.273400  0.604000  0.521700  1.0  0.1337
  H  H171  1  0.117000  0.420600  0.466700  1.0  0.1593
  H  H172  1  0.102600  0.463600  0.512000  1.0  0.1604
  H  H173  1  0.152800  0.473400  0.473300  1.0  0.1547
  H  H174  1  0.194900  0.450100  0.378400  1.0  0.1637
  H  H175  1  0.230800  0.453500  0.325400  1.0  0.1465
  H  H176  1  0.204300  0.397600  0.342700  1.0  0.16
  H  H177  1  0.429000  0.488200  0.510500  1.0  0.1654
  H  H178  1  0.380300  0.527800  0.523900  1.0  0.1794
  H  H179  1  0.412800  0.499600  0.571500  1.0  0.1614
  H  H180  1  0.103000  0.629800  0.202400  1.0  0.1253
  H  H181  1  0.104900  0.592400  0.150200  1.0  0.1298
  H  H182  1  0.151500  0.524300  0.195800  1.0  0.1393
  H  H183  1  0.179600  0.525900  0.285500  1.0  0.129
  H  H184  1  0.153100  0.583500  0.295900  1.0  0.1302
  H  H185  1  0.054000  0.529700  0.218200  1.0  0.1417
  H  H186  1  0.086400  0.503800  0.267100  1.0  0.1297
  H  H187  1  0.068200  0.565200  0.269700  1.0  0.1282
  H  H188  1  0.310900  0.419100  0.200900  1.0  0.1289
  H  H189  1  0.267200  0.406800  0.245300  1.0  0.1284
  H  H190  1  0.197300  0.428200  0.187900  1.0  0.1237
  H  H191  1  0.244400  0.341900  0.167400  1.0  0.1285
  H  H192  1  0.223500  0.367600  0.112400  1.0  0.1412
  H  H193  1  0.285200  0.373500  0.129200  1.0  0.1477
  H  H194  1  0.214100  0.465100  0.103100  1.0  0.1012
  H  H195  1  0.277500  0.457800  0.110000  1.0  0.1033
  H  H196  1  0.212400  0.485800  0.932500  1.0  0.0993
  H  H197  1  0.170000  0.437900  0.935500  1.0  0.1253
  H  H198  1  0.281000  0.430700  0.928300  1.0  0.1455
  H  H199  1  0.231500  0.332600  0.940200  1.0  0.1444
  H  H200  1  0.293800  0.345900  0.932900  1.0  0.1148
  H  H201  1  0.287400  0.415700  0.016000  1.0  0.1381
  H  H202  1  0.239400  0.458100  0.012000  1.0  0.144
  H  H203  1  0.226600  0.396000  0.021700  1.0  0.1346
  H  H204  1  0.383000  0.579400  0.966700  1.0  0.1595
  H  H205  1  0.397400  0.536400  0.012000  1.0  0.1606
  H  H206  1  0.347200  0.526600  0.973300  1.0  0.1557
  H  H207  1  0.305100  0.549900  0.878400  1.0  0.1626
  H  H208  1  0.269200  0.546500  0.825400  1.0  0.1464
  H  H209  1  0.295700  0.602400  0.842700  1.0  0.1594
  H  H210  1  0.071000  0.511800  0.010500  1.0  0.1653
  H  H211  1  0.119700  0.472200  0.023900  1.0  0.1792
  H  H212  1  0.087200  0.500400  0.071500  1.0  0.1624
  H  H213  1  0.797600  0.603000  0.870200  1.0  0.1259
  H  H214  1  0.849800  0.604900  0.907600  1.0  0.1296
  H  H215  1  0.804200  0.651500  0.975700  1.0  0.14
  H  H216  1  0.714500  0.679600  0.974100  1.0  0.1287
  H  H217  1  0.704100  0.653100  0.916500  1.0  0.1288
  H  H218  1  0.781800  0.554000  0.970300  1.0  0.1421
  H  H219  1  0.732900  0.586400  0.996200  1.0  0.1311
  H  H220  1  0.730300  0.568200  0.934800  1.0  0.1281
  H  H221  1  0.799100  0.810900  0.080900  1.0  0.1324
  H  H222  1  0.754700  0.767200  0.093200  1.0  0.1323
  H  H223  1  0.812100  0.697300  0.071800  1.0  0.1252
  H  H224  1  0.832600  0.744400  0.158100  1.0  0.1316
  H  H225  1  0.887600  0.723500  0.132400  1.0  0.1421
  H  H226  1  0.870800  0.785200  0.126500  1.0  0.1483
  H  H227  1  0.896900  0.714100  0.034900  1.0  0.104
  H  H228  1  0.890000  0.777500  0.042200  1.0  0.1107
  H  H229  1  0.067500  0.712400  0.014200  1.0  0.0986
  H  H230  1  0.064500  0.670000  0.062100  1.0  0.1274
  H  H231  1  0.071700  0.781000  0.069300  1.0  0.1379
  H  H232  1  0.059800  0.731500  0.167400  1.0  0.1446
  H  H233  1  0.067100  0.793800  0.154100  1.0  0.1176
  H  H234  1  0.984000  0.787400  0.084300  1.0  0.1354
  H  H235  1  0.988000  0.739400  0.041900  1.0  0.1446
  H  H236  1  0.978300  0.726600  0.104000  1.0  0.1366
  H  H237  1  0.033300  0.883000  0.920600  1.0  0.1603
  H  H238  1  0.988000  0.897400  0.963600  1.0  0.1612
  H  H239  1  0.026700  0.847200  0.973400  1.0  0.1539
  H  H240  1  0.121600  0.805100  0.950100  1.0  0.1637
  H  H241  1  0.174600  0.769200  0.953500  1.0  0.1448
  H  H242  1  0.157300  0.795700  0.897600  1.0  0.159
  H  H243  1  0.989500  0.571000  0.988200  1.0  0.1714
  H  H244  1  0.976100  0.619700  0.027800  1.0  0.1763
  H  H245  1  0.928500  0.587200  0.999600  1.0  0.1612
  H  H246  1  0.297600  0.897000  0.129800  1.0  0.1256
  H  H247  1  0.349800  0.895100  0.092400  1.0  0.1284
  H  H248  1  0.304200  0.848500  0.024300  1.0  0.1395
  H  H249  1  0.214500  0.820400  0.025900  1.0  0.1289
  H  H250  1  0.204100  0.846900  0.083500  1.0  0.1283
  H  H251  1  0.281800  0.946000  0.029700  1.0  0.1404
  H  H252  1  0.232900  0.913600  0.003800  1.0  0.1302
  H  H253  1  0.230300  0.931800  0.065200  1.0  0.1279
  H  H254  1  0.299100  0.689100  0.919100  1.0  0.1308
  H  H255  1  0.254700  0.732800  0.906800  1.0  0.1317
  H  H256  1  0.312100  0.802700  0.928200  1.0  0.1269
  H  H257  1  0.332600  0.755600  0.841900  1.0  0.1313
  H  H258  1  0.387600  0.776500  0.867600  1.0  0.1401
  H  H259  1  0.370800  0.714800  0.873500  1.0  0.1504
  H  H260  1  0.396900  0.785900  0.965100  1.0  0.1038
  H  H261  1  0.390000  0.722500  0.957800  1.0  0.1133
  H  H262  1  0.567500  0.787600  0.985800  1.0  0.0993
  H  H263  1  0.564500  0.830000  0.937900  1.0  0.1246
  H  H264  1  0.571700  0.719000  0.930700  1.0  0.1353
  H  H265  1  0.559800  0.768500  0.832600  1.0  0.1446
  H  H266  1  0.567100  0.706200  0.845900  1.0  0.1136
  H  H267  1  0.484000  0.712600  0.915700  1.0  0.1358
  H  H268  1  0.488000  0.760600  0.958100  1.0  0.1424
  H  H269  1  0.478300  0.773400  0.896000  1.0  0.1366
  H  H270  1  0.533300  0.617000  0.079400  1.0  0.1607
  H  H271  1  0.488000  0.602600  0.036400  1.0  0.1611
  H  H272  1  0.526700  0.652800  0.026600  1.0  0.1527
  H  H273  1  0.621600  0.694900  0.049900  1.0  0.163
  H  H274  1  0.674600  0.730800  0.046500  1.0  0.1443
  H  H275  1  0.657300  0.704300  0.102400  1.0  0.1586
  H  H276  1  0.489500  0.929000  0.011800  1.0  0.171
  H  H277  1  0.476100  0.880300  0.972200  1.0  0.1744
  H  H278  1  0.428500  0.912800  0.000400  1.0  0.1591
  H  H279  1  0.702400  0.397000  0.370200  1.0  0.1268
  H  H280  1  0.650200  0.395100  0.407600  1.0  0.1277
  H  H281  1  0.695800  0.348500  0.475700  1.0  0.1386
  H  H282  1  0.785500  0.320400  0.474100  1.0  0.1281
  H  H283  1  0.795900  0.346900  0.416500  1.0  0.1287
  H  H284  1  0.718200  0.446000  0.470300  1.0  0.1417
  H  H285  1  0.767100  0.413600  0.496200  1.0  0.129
  H  H286  1  0.769700  0.431800  0.434800  1.0  0.1283
  H  H287  1  0.700900  0.189100  0.580900  1.0  0.132
  H  H288  1  0.745300  0.232800  0.593200  1.0  0.1286
  H  H289  1  0.687900  0.302700  0.571800  1.0  0.1256
  H  H290  1  0.667400  0.255600  0.658100  1.0  0.1308
  H  H291  1  0.612400  0.276500  0.632400  1.0  0.1411
  H  H292  1  0.629200  0.214800  0.626500  1.0  0.1497
  H  H293  1  0.603100  0.285900  0.534900  1.0  0.105
  H  H294  1  0.610000  0.222500  0.542200  1.0  0.11
  H  H295  1  0.432500  0.287600  0.514200  1.0  0.0982
  H  H296  1  0.435500  0.330000  0.562100  1.0  0.1241
  H  H297  1  0.428300  0.219000  0.569300  1.0  0.1342
  H  H298  1  0.440200  0.268500  0.667400  1.0  0.1441
  H  H299  1  0.432900  0.206200  0.654100  1.0  0.1156
  H  H300  1  0.516000  0.212600  0.584300  1.0  0.1363
  H  H301  1  0.512000  0.260600  0.541900  1.0  0.143
  H  H302  1  0.521700  0.273400  0.604000  1.0  0.1354
  H  H303  1  0.466700  0.117000  0.420600  1.0  0.1596
  H  H304  1  0.512000  0.102600  0.463600  1.0  0.1625
  H  H305  1  0.473300  0.152800  0.473400  1.0  0.1535
  H  H306  1  0.378400  0.194900  0.450100  1.0  0.1636
  H  H307  1  0.325400  0.230800  0.453500  1.0  0.1447
  H  H308  1  0.342700  0.204300  0.397600  1.0  0.159
  H  H309  1  0.510500  0.429000  0.488200  1.0  0.1714
  H  H310  1  0.523900  0.380300  0.527800  1.0  0.1748
  H  H311  1  0.571500  0.412800  0.499600  1.0  0.1543
  H  H312  1  0.202400  0.103000  0.629800  1.0  0.1262
  H  H313  1  0.150200  0.104900  0.592400  1.0  0.1281
  H  H314  1  0.195800  0.151500  0.524300  1.0  0.14
  H  H315  1  0.285500  0.179600  0.525900  1.0  0.1286
  H  H316  1  0.295900  0.153100  0.583500  1.0  0.1286
  H  H317  1  0.218200  0.054000  0.529700  1.0  0.142
  H  H318  1  0.267100  0.086400  0.503800  1.0  0.1296
  H  H319  1  0.269700  0.068200  0.565200  1.0  0.1271
  H  H320  1  0.200900  0.310900  0.419100  1.0  0.1332
  H  H321  1  0.245300  0.267200  0.406800  1.0  0.1307
  H  H322  1  0.187900  0.197300  0.428200  1.0  0.1252
  H  H323  1  0.167400  0.244400  0.341900  1.0  0.1306
  H  H324  1  0.112400  0.223500  0.367600  1.0  0.1401
  H  H325  1  0.129200  0.285200  0.373500  1.0  0.1502
  H  H326  1  0.103100  0.214100  0.465100  1.0  0.1033
  H  H327  1  0.110000  0.277500  0.457800  1.0  0.111
  H  H328  1  0.932500  0.212400  0.485800  1.0  0.0992
  H  H329  1  0.935500  0.170000  0.437900  1.0  0.1281
  H  H330  1  0.928300  0.281000  0.430700  1.0  0.1375
  H  H331  1  0.940200  0.231500  0.332600  1.0  0.1449
  H  H332  1  0.932900  0.293800  0.345900  1.0  0.1183
  H  H333  1  0.016000  0.287400  0.415700  1.0  0.1359
  H  H334  1  0.012000  0.239400  0.458100  1.0  0.1411
  H  H335  1  0.021700  0.226600  0.396000  1.0  0.1351
  H  H336  1  0.966700  0.383000  0.579400  1.0  0.1604
  H  H337  1  0.012000  0.397400  0.536400  1.0  0.1608
  H  H338  1  0.973300  0.347200  0.526600  1.0  0.1534
  H  H339  1  0.878400  0.305100  0.549900  1.0  0.1628
  H  H340  1  0.825400  0.269200  0.546500  1.0  0.145
  H  H341  1  0.842700  0.295700  0.602400  1.0  0.1582
  H  H342  1  0.010500  0.071000  0.511800  1.0  0.1714
  H  H343  1  0.023900  0.119700  0.472200  1.0  0.1748
  H  H344  1  0.071500  0.087200  0.500400  1.0  0.1552
  H  H345  1  0.870200  0.797600  0.603000  1.0  0.1231
  H  H346  1  0.907600  0.849800  0.604900  1.0  0.1294
  H  H347  1  0.975700  0.804200  0.651500  1.0  0.1405
  H  H348  1  0.974100  0.714500  0.679600  1.0  0.1297
  H  H349  1  0.916500  0.704100  0.653100  1.0  0.1261
  H  H350  1  0.970300  0.781800  0.554000  1.0  0.1432
  H  H351  1  0.996200  0.732900  0.586400  1.0  0.133
  H  H352  1  0.934800  0.730300  0.568200  1.0  0.1276
  H  H353  1  0.080900  0.799100  0.810900  1.0  0.1347
  H  H354  1  0.093200  0.754700  0.767200  1.0  0.1313
  H  H355  1  0.071800  0.812100  0.697300  1.0  0.1273
  H  H356  1  0.158100  0.832600  0.744400  1.0  0.1272
  H  H357  1  0.132400  0.887600  0.723500  1.0  0.1403
  H  H358  1  0.126500  0.870800  0.785200  1.0  0.147
  H  H359  1  0.034900  0.896900  0.714100  1.0  0.1032
  H  H360  1  0.042200  0.890000  0.777500  1.0  0.1113
  H  H361  1  0.014200  0.067500  0.712400  1.0  0.0977
  H  H362  1  0.062100  0.064500  0.670000  1.0  0.1289
  H  H363  1  0.069300  0.071700  0.781000  1.0  0.1464
  H  H364  1  0.167400  0.059800  0.731500  1.0  0.1425
  H  H365  1  0.154100  0.067100  0.793800  1.0  0.1204
  H  H366  1  0.084300  0.984000  0.787400  1.0  0.1382
  H  H367  1  0.041900  0.988000  0.739400  1.0  0.1438
  H  H368  1  0.104000  0.978300  0.726600  1.0  0.1358
  H  H369  1  0.920600  0.033300  0.883000  1.0  0.1622
  H  H370  1  0.963600  0.988000  0.897400  1.0  0.1602
  H  H371  1  0.973400  0.026700  0.847200  1.0  0.1546
  H  H372  1  0.950100  0.121600  0.805100  1.0  0.1644
  H  H373  1  0.953500  0.174600  0.769200  1.0  0.1462
  H  H374  1  0.897600  0.157300  0.795700  1.0  0.1568
  H  H375  1  0.988200  0.989500  0.571000  1.0  0.1693
  H  H376  1  0.027800  0.976100  0.619700  1.0  0.177
  H  H377  1  0.999600  0.928500  0.587200  1.0  0.1614
  H  H378  1  0.129800  0.297600  0.897000  1.0  0.1241
  H  H379  1  0.092400  0.349800  0.895100  1.0  0.1295
  H  H380  1  0.024300  0.304200  0.848500  1.0  0.1412
  H  H381  1  0.025900  0.214500  0.820400  1.0  0.1285
  H  H382  1  0.083500  0.204100  0.846900  1.0  0.1276
  H  H383  1  0.029700  0.281800  0.946000  1.0  0.1436
  H  H384  1  0.003800  0.232900  0.913600  1.0  0.1311
  H  H385  1  0.065200  0.230300  0.931800  1.0  0.1287
  H  H386  1  0.919100  0.299100  0.689100  1.0  0.1352
  H  H387  1  0.906800  0.254700  0.732800  1.0  0.1298
  H  H388  1  0.928200  0.312100  0.802700  1.0  0.1264
  H  H389  1  0.841900  0.332600  0.755600  1.0  0.1293
  H  H390  1  0.867600  0.387600  0.776500  1.0  0.1405
  H  H391  1  0.873500  0.370800  0.714800  1.0  0.1471
  H  H392  1  0.965100  0.396900  0.785900  1.0  0.1016
  H  H393  1  0.957800  0.390000  0.722500  1.0  0.1119
  H  H394  1  0.985800  0.567500  0.787600  1.0  0.0993
  H  H395  1  0.937900  0.564500  0.830000  1.0  0.1279
  H  H396  1  0.930700  0.571700  0.719000  1.0  0.1447
  H  H397  1  0.832600  0.559800  0.768500  1.0  0.143
  H  H398  1  0.845900  0.567100  0.706200  1.0  0.1212
  H  H399  1  0.915700  0.484000  0.712600  1.0  0.1375
  H  H400  1  0.958100  0.488000  0.760600  1.0  0.1481
  H  H401  1  0.896000  0.478300  0.773400  1.0  0.1365
  H  H402  1  0.079400  0.533300  0.617000  1.0  0.1613
  H  H403  1  0.036400  0.488000  0.602600  1.0  0.1606
  H  H404  1  0.026600  0.526700  0.652800  1.0  0.1522
  H  H405  1  0.049900  0.621600  0.694900  1.0  0.1629
  H  H406  1  0.046500  0.674600  0.730800  1.0  0.1481
  H  H407  1  0.102400  0.657300  0.704300  1.0  0.1573
  H  H408  1  0.011800  0.489500  0.929000  1.0  0.1698
  H  H409  1  0.972200  0.476100  0.880300  1.0  0.1769
  H  H410  1  0.000400  0.428500  0.912800  1.0  0.1614
  H  H411  1  0.370200  0.702400  0.397000  1.0  0.1241
  H  H412  1  0.407600  0.650200  0.395100  1.0  0.1312
  H  H413  1  0.475700  0.695800  0.348500  1.0  0.1413
  H  H414  1  0.474100  0.785500  0.320400  1.0  0.129
  H  H415  1  0.416500  0.795900  0.346900  1.0  0.1267
  H  H416  1  0.470300  0.718200  0.446000  1.0  0.1432
  H  H417  1  0.496200  0.767100  0.413600  1.0  0.1327
  H  H418  1  0.434800  0.769700  0.431800  1.0  0.1279
  H  H419  1  0.580900  0.700900  0.189100  1.0  0.134
  H  H420  1  0.593200  0.745300  0.232800  1.0  0.1296
  H  H421  1  0.571800  0.687900  0.302700  1.0  0.1242
  H  H422  1  0.658100  0.667400  0.255600  1.0  0.1287
  H  H423  1  0.632400  0.612400  0.276500  1.0  0.1413
  H  H424  1  0.626500  0.629200  0.214800  1.0  0.1486
  H  H425  1  0.534900  0.603100  0.285900  1.0  0.1033
  H  H426  1  0.542200  0.610000  0.222500  1.0  0.1121
  H  H427  1  0.514200  0.432500  0.287600  1.0  0.0977
  H  H428  1  0.562100  0.435500  0.330000  1.0  0.1276
  H  H429  1  0.569300  0.428300  0.219000  1.0  0.1451
  H  H430  1  0.667400  0.440200  0.268500  1.0  0.1429
  H  H431  1  0.654100  0.432900  0.206200  1.0  0.1219
  H  H432  1  0.584300  0.516000  0.212600  1.0  0.1391
  H  H433  1  0.541900  0.512000  0.260600  1.0  0.1442
  H  H434  1  0.604000  0.521700  0.273400  1.0  0.1355
  H  H435  1  0.420600  0.466700  0.117000  1.0  0.1621
  H  H436  1  0.463600  0.512000  0.102600  1.0  0.1603
  H  H437  1  0.473400  0.473300  0.152800  1.0  0.1527
  H  H438  1  0.450100  0.378400  0.194900  1.0  0.1621
  H  H439  1  0.453500  0.325400  0.230800  1.0  0.1464
  H  H440  1  0.397600  0.342700  0.204300  1.0  0.1556
  H  H441  1  0.488200  0.510500  0.429000  1.0  0.1689
  H  H442  1  0.527800  0.523900  0.380300  1.0  0.1768
  H  H443  1  0.499600  0.571500  0.412800  1.0  0.1607
  H  H444  1  0.629800  0.202400  0.103000  1.0  0.1234
  H  H445  1  0.592400  0.150200  0.104900  1.0  0.1286
  H  H446  1  0.524300  0.195800  0.151500  1.0  0.1422
  H  H447  1  0.525900  0.285500  0.179600  1.0  0.1297
  H  H448  1  0.583500  0.295900  0.153100  1.0  0.1262
  H  H449  1  0.529700  0.218200  0.054000  1.0  0.1416
  H  H450  1  0.503800  0.267100  0.086400  1.0  0.1281
  H  H451  1  0.565200  0.269700  0.068200  1.0  0.1274
  H  H452  1  0.419100  0.200900  0.310900  1.0  0.1352
  H  H453  1  0.406800  0.245300  0.267200  1.0  0.1285
  H  H454  1  0.428200  0.187900  0.197300  1.0  0.1283
  H  H455  1  0.341900  0.167400  0.244400  1.0  0.1291
  H  H456  1  0.367600  0.112400  0.223500  1.0  0.1397
  H  H457  1  0.373500  0.129200  0.285200  1.0  0.1476
  H  H458  1  0.465100  0.103100  0.214100  1.0  0.1014
  H  H459  1  0.457800  0.110000  0.277500  1.0  0.1114
  H  H460  1  0.485800  0.932500  0.212400  1.0  0.0993
  H  H461  1  0.437900  0.935500  0.170000  1.0  0.1286
  H  H462  1  0.430700  0.928300  0.281000  1.0  0.1456
  H  H463  1  0.332600  0.940200  0.231500  1.0  0.143
  H  H464  1  0.345900  0.932900  0.293800  1.0  0.1221
  H  H465  1  0.415700  0.016000  0.287400  1.0  0.1377
  H  H466  1  0.458100  0.012000  0.239400  1.0  0.1475
  H  H467  1  0.396000  0.021700  0.226600  1.0  0.1364
  H  H468  1  0.579400  0.966700  0.383000  1.0  0.1623
  H  H469  1  0.536400  0.012000  0.397400  1.0  0.1605
  H  H470  1  0.526600  0.973300  0.347200  1.0  0.1548
  H  H471  1  0.549900  0.878400  0.305100  1.0  0.1638
  H  H472  1  0.546500  0.825400  0.269200  1.0  0.1476
  H  H473  1  0.602400  0.842700  0.295700  1.0  0.1569
  H  H474  1  0.511800  0.010500  0.071000  1.0  0.1692
  H  H475  1  0.472200  0.023900  0.119700  1.0  0.173
  H  H476  1  0.500400  0.071500  0.087200  1.0  0.161
  C  C477  1  0.625500  0.895900  0.817900  1.0  0.0536
  C  C478  1  0.637200  0.945600  0.781800  1.0  0.0924
  C  C479  1  0.672700  0.938600  0.730700  1.0  -0.0092
  C  C480  1  0.580800  0.963500  0.753900  1.0  -0.3171
  C  C481  1  0.777200  0.067300  0.783100  1.0  -0.0112
  C  C482  1  0.734700  0.072800  0.826500  1.0  0.0612
  C  C483  1  0.748300  0.127800  0.857400  1.0  -0.3249
  C  C484  1  0.744100  0.032600  0.870900  1.0  0.0981
  C  C485  1  0.704800  0.051100  0.080100  1.0  0.0611
  C  C486  1  0.747700  0.087900  0.059200  1.0  0.0591
  C  C487  1  0.757200  0.143200  0.077900  1.0  0.055
  C  C488  1  0.750600  0.078700  0.996400  1.0  -0.3197
  C  C489  1  0.833700  0.918200  0.970000  1.0  0.7491
  C  C490  1  0.868100  0.946200  0.007600  1.0  -0.4125
  C  C491  1  0.729000  0.917300  0.111000  1.0  0.751
  C  C492  1  0.779300  0.930900  0.144200  1.0  -0.3583
  C  C493  1  0.639500  0.948200  0.966500  1.0  0.7829
  C  C494  1  0.600900  0.995100  0.965000  1.0  -0.4203
  C  C495  1  0.874500  0.104100  0.317900  1.0  0.0531
  C  C496  1  0.862800  0.054400  0.281800  1.0  0.0942
  C  C497  1  0.827300  0.061400  0.230700  1.0  -0.0092
  C  C498  1  0.919200  0.036500  0.253900  1.0  -0.3175
  C  C499  1  0.722800  0.932700  0.283100  1.0  -0.0119
  C  C500  1  0.765300  0.927200  0.326500  1.0  0.062
  C  C501  1  0.751700  0.872200  0.357400  1.0  -0.3221
  C  C502  1  0.755900  0.967400  0.370900  1.0  0.1007
  C  C503  1  0.795200  0.948900  0.580100  1.0  0.062
  C  C504  1  0.752300  0.912100  0.559200  1.0  0.0583
  C  C505  1  0.742800  0.856800  0.577900  1.0  0.0541
  C  C506  1  0.749400  0.921300  0.496400  1.0  -0.32
  C  C507  1  0.666300  0.081800  0.470000  1.0  0.7497
  C  C508  1  0.631900  0.053800  0.507600  1.0  -0.4124
  C  C509  1  0.771000  0.082700  0.611000  1.0  0.751
  C  C510  1  0.720700  0.069100  0.644200  1.0  -0.3579
  C  C511  1  0.860500  0.051800  0.466500  1.0  0.7839
  C  C512  1  0.899100  0.004900  0.465000  1.0  -0.4223
  C  C513  1  0.374500  0.395900  0.682100  1.0  0.0519
  C  C514  1  0.362800  0.445600  0.718200  1.0  0.097
  C  C515  1  0.327300  0.438600  0.769300  1.0  -0.0032
  C  C516  1  0.419200  0.463500  0.746100  1.0  -0.3153
  C  C517  1  0.222800  0.567300  0.716900  1.0  -0.0125
  C  C518  1  0.265300  0.572800  0.673500  1.0  0.0594
  C  C519  1  0.251700  0.627800  0.642600  1.0  -0.3236
  C  C520  1  0.255900  0.532600  0.629100  1.0  0.0991
  C  C521  1  0.295200  0.551100  0.419900  1.0  0.0609
  C  C522  1  0.252300  0.587900  0.440800  1.0  0.0586
  C  C523  1  0.242800  0.643200  0.422100  1.0  0.0564
  C  C524  1  0.249400  0.578700  0.503600  1.0  -0.3207
  C  C525  1  0.166300  0.418200  0.530000  1.0  0.7476
  C  C526  1  0.131900  0.446200  0.492400  1.0  -0.412
  C  C527  1  0.271000  0.417300  0.389000  1.0  0.7529
  C  C528  1  0.220700  0.430900  0.355800  1.0  -0.3582
  C  C529  1  0.360500  0.448200  0.533500  1.0  0.7837
  C  C530  1  0.399100  0.495100  0.535000  1.0  -0.4214
  C  C531  1  0.125500  0.604100  0.182100  1.0  0.0546
  C  C532  1  0.137200  0.554400  0.218200  1.0  0.0936
  C  C533  1  0.172700  0.561400  0.269300  1.0  -0.0057
  C  C534  1  0.080800  0.536500  0.246100  1.0  -0.316
  C  C535  1  0.277200  0.432700  0.216900  1.0  -0.0125
  C  C536  1  0.234700  0.427200  0.173500  1.0  0.0631
  C  C537  1  0.248300  0.372200  0.142600  1.0  -0.3235
  C  C538  1  0.244100  0.467400  0.129100  1.0  0.0995
  C  C539  1  0.204800  0.448900  0.919900  1.0  0.0624
  C  C540  1  0.247700  0.412100  0.940800  1.0  0.0576
  C  C541  1  0.257200  0.356800  0.922100  1.0  0.0565
  C  C542  1  0.250600  0.421300  0.003600  1.0  -0.3213
  C  C543  1  0.333700  0.581800  0.030000  1.0  0.7467
  C  C544  1  0.368100  0.553800  0.992400  1.0  -0.4143
  C  C545  1  0.229000  0.582700  0.889000  1.0  0.7507
  C  C546  1  0.279300  0.569100  0.855800  1.0  -0.3588
  C  C547  1  0.139500  0.551800  0.033500  1.0  0.7834
  C  C548  1  0.100900  0.504900  0.035000  1.0  -0.4208
  C  C549  1  0.817900  0.625500  0.895900  1.0  0.0522
  C  C550  1  0.781800  0.637200  0.945600  1.0  0.0941
  C  C551  1  0.730700  0.672700  0.938600  1.0  -0.0071
  C  C552  1  0.753900  0.580800  0.963500  1.0  -0.3137
  C  C553  1  0.783100  0.777200  0.067300  1.0  -0.016
  C  C554  1  0.826500  0.734700  0.072800  1.0  0.0586
  C  C555  1  0.857400  0.748300  0.127800  1.0  -0.3197
  C  C556  1  0.870900  0.744100  0.032600  1.0  0.0981
  C  C557  1  0.080100  0.704800  0.051100  1.0  0.0626
  C  C558  1  0.059200  0.747700  0.087900  1.0  0.0585
  C  C559  1  0.077900  0.757200  0.143200  1.0  0.0567
  C  C560  1  0.996400  0.750600  0.078700  1.0  -0.3231
  C  C561  1  0.970000  0.833700  0.918200  1.0  0.7486
  C  C562  1  0.007600  0.868100  0.946200  1.0  -0.411
  C  C563  1  0.111000  0.729000  0.917300  1.0  0.7504
  C  C564  1  0.144200  0.779300  0.930900  1.0  -0.359
  C  C565  1  0.966500  0.639500  0.948200  1.0  0.7843
  C  C566  1  0.965000  0.600900  0.995100  1.0  -0.4225
  C  C567  1  0.317900  0.874500  0.104100  1.0  0.0537
  C  C568  1  0.281800  0.862800  0.054400  1.0  0.0921
  C  C569  1  0.230700  0.827300  0.061400  1.0  -0.0089
  C  C570  1  0.253900  0.919200  0.036500  1.0  -0.3136
  C  C571  1  0.283100  0.722800  0.932700  1.0  -0.0153
  C  C572  1  0.326500  0.765300  0.927200  1.0  0.0606
  C  C573  1  0.357400  0.751700  0.872200  1.0  -0.3207
  C  C574  1  0.370900  0.755900  0.967400  1.0  0.098
  C  C575  1  0.580100  0.795200  0.948900  1.0  0.0629
  C  C576  1  0.559200  0.752300  0.912100  1.0  0.0597
  C  C577  1  0.577900  0.742800  0.856800  1.0  0.0568
  C  C578  1  0.496400  0.749400  0.921300  1.0  -0.322
  C  C579  1  0.470000  0.666300  0.081800  1.0  0.7452
  C  C580  1  0.507600  0.631900  0.053800  1.0  -0.4129
  C  C581  1  0.611000  0.771000  0.082700  1.0  0.7509
  C  C582  1  0.644200  0.720700  0.069100  1.0  -0.3586
  C  C583  1  0.466500  0.860500  0.051800  1.0  0.7845
  C  C584  1  0.465000  0.899100  0.004900  1.0  -0.4214
  C  C585  1  0.682100  0.374500  0.395900  1.0  0.0534
  C  C586  1  0.718200  0.362800  0.445600  1.0  0.0928
  C  C587  1  0.769300  0.327300  0.438600  1.0  -0.0057
  C  C588  1  0.746100  0.419200  0.463500  1.0  -0.3178
  C  C589  1  0.716900  0.222800  0.567300  1.0  -0.0176
  C  C590  1  0.673500  0.265300  0.572800  1.0  0.0572
  C  C591  1  0.642600  0.251700  0.627800  1.0  -0.3209
  C  C592  1  0.629100  0.255900  0.532600  1.0  0.0989
  C  C593  1  0.419900  0.295200  0.551100  1.0  0.0648
  C  C594  1  0.440800  0.252300  0.587900  1.0  0.0575
  C  C595  1  0.422100  0.242800  0.643200  1.0  0.0603
  C  C596  1  0.503600  0.249400  0.578700  1.0  -0.3216
  C  C597  1  0.530000  0.166300  0.418200  1.0  0.7483
  C  C598  1  0.492400  0.131900  0.446200  1.0  -0.4105
  C  C599  1  0.389000  0.271000  0.417300  1.0  0.7501
  C  C600  1  0.355800  0.220700  0.430900  1.0  -0.3603
  C  C601  1  0.533500  0.360500  0.448200  1.0  0.7844
  C  C602  1  0.535000  0.399100  0.495100  1.0  -0.4242
  C  C603  1  0.182100  0.125500  0.604100  1.0  0.0538
  C  C604  1  0.218200  0.137200  0.554400  1.0  0.0938
  C  C605  1  0.269300  0.172700  0.561400  1.0  -0.0051
  C  C606  1  0.246100  0.080800  0.536500  1.0  -0.3142
  C  C607  1  0.216900  0.277200  0.432700  1.0  -0.0145
  C  C608  1  0.173500  0.234700  0.427200  1.0  0.0576
  C  C609  1  0.142600  0.248300  0.372200  1.0  -0.3214
  C  C610  1  0.129100  0.244100  0.467400  1.0  0.0989
  C  C611  1  0.919900  0.204800  0.448900  1.0  0.0628
  C  C612  1  0.940800  0.247700  0.412100  1.0  0.0587
  C  C613  1  0.922100  0.257200  0.356800  1.0  0.0582
  C  C614  1  0.003600  0.250600  0.421300  1.0  -0.3207
  C  C615  1  0.030000  0.333700  0.581800  1.0  0.7471
  C  C616  1  0.992400  0.368100  0.553800  1.0  -0.4098
  C  C617  1  0.889000  0.229000  0.582700  1.0  0.7507
  C  C618  1  0.855800  0.279300  0.569100  1.0  -0.358
  C  C619  1  0.033500  0.139500  0.551800  1.0  0.7848
  C  C620  1  0.035000  0.100900  0.504900  1.0  -0.4224
  C  C621  1  0.895900  0.817900  0.625500  1.0  0.0538
  C  C622  1  0.945600  0.781800  0.637200  1.0  0.0921
  C  C623  1  0.938600  0.730700  0.672700  1.0  -0.0018
  C  C624  1  0.963500  0.753900  0.580800  1.0  -0.3135
  C  C625  1  0.067300  0.783100  0.777200  1.0  -0.0075
  C  C626  1  0.072800  0.826500  0.734700  1.0  0.064
  C  C627  1  0.127800  0.857400  0.748300  1.0  -0.3225
  C  C628  1  0.032600  0.870900  0.744100  1.0  0.1008
  C  C629  1  0.051100  0.080100  0.704800  1.0  0.0607
  C  C630  1  0.087900  0.059200  0.747700  1.0  0.0556
  C  C631  1  0.143200  0.077900  0.757200  1.0  0.0555
  C  C632  1  0.078700  0.996400  0.750600  1.0  -0.3203
  C  C633  1  0.918200  0.970000  0.833700  1.0  0.7503
  C  C634  1  0.946200  0.007600  0.868100  1.0  -0.4084
  C  C635  1  0.917300  0.111000  0.729000  1.0  0.7507
  C  C636  1  0.930900  0.144200  0.779300  1.0  -0.3608
  C  C637  1  0.948200  0.966500  0.639500  1.0  0.7846
  C  C638  1  0.995100  0.965000  0.600900  1.0  -0.4213
  C  C639  1  0.104100  0.317900  0.874500  1.0  0.0542
  C  C640  1  0.054400  0.281800  0.862800  1.0  0.0931
  C  C641  1  0.061400  0.230700  0.827300  1.0  -0.0046
  C  C642  1  0.036500  0.253900  0.919200  1.0  -0.3126
  C  C643  1  0.932700  0.283100  0.722800  1.0  -0.0085
  C  C644  1  0.927200  0.326500  0.765300  1.0  0.0629
  C  C645  1  0.872200  0.357400  0.751700  1.0  -0.3277
  C  C646  1  0.967400  0.370900  0.755900  1.0  0.1021
  C  C647  1  0.948900  0.580100  0.795200  1.0  0.0621
  C  C648  1  0.912100  0.559200  0.752300  1.0  0.0572
  C  C649  1  0.856800  0.577900  0.742800  1.0  0.0566
  C  C650  1  0.921300  0.496400  0.749400  1.0  -0.3209
  C  C651  1  0.081800  0.470000  0.666300  1.0  0.7479
  C  C652  1  0.053800  0.507600  0.631900  1.0  -0.4083
  C  C653  1  0.082700  0.611000  0.771000  1.0  0.7523
  C  C654  1  0.069100  0.644200  0.720700  1.0  -0.36
  C  C655  1  0.051800  0.466500  0.860500  1.0  0.7834
  C  C656  1  0.004900  0.465000  0.899100  1.0  -0.4197
  C  C657  1  0.395900  0.682100  0.374500  1.0  0.0531
  C  C658  1  0.445600  0.718200  0.362800  1.0  0.092
  C  C659  1  0.438600  0.769300  0.327300  1.0  -0.0045
  C  C660  1  0.463500  0.746100  0.419200  1.0  -0.312
  C  C661  1  0.567300  0.716900  0.222800  1.0  -0.0048
  C  C662  1  0.572800  0.673500  0.265300  1.0  0.0634
  C  C663  1  0.627800  0.642600  0.251700  1.0  -0.323
  C  C664  1  0.532600  0.629100  0.255900  1.0  0.0985
  C  C665  1  0.551100  0.419900  0.295200  1.0  0.0608
  C  C666  1  0.587900  0.440800  0.252300  1.0  0.0566
  C  C667  1  0.643200  0.422100  0.242800  1.0  0.0572
  C  C668  1  0.578700  0.503600  0.249400  1.0  -0.3213
  C  C669  1  0.418200  0.530000  0.166300  1.0  0.7468
  C  C670  1  0.446200  0.492400  0.131900  1.0  -0.4105
  C  C671  1  0.417300  0.389000  0.271000  1.0  0.752
  C  C672  1  0.430900  0.355800  0.220700  1.0  -0.3592
  C  C673  1  0.448200  0.533500  0.360500  1.0  0.7839
  C  C674  1  0.495100  0.535000  0.399100  1.0  -0.4202
  C  C675  1  0.604100  0.182100  0.125500  1.0  0.0529
  C  C676  1  0.554400  0.218200  0.137200  1.0  0.0932
  C  C677  1  0.561400  0.269300  0.172700  1.0  0.0002
  C  C678  1  0.536500  0.246100  0.080800  1.0  -0.3114
  C  C679  1  0.432700  0.216900  0.277200  1.0  -0.0061
  C  C680  1  0.427200  0.173500  0.234700  1.0  0.0645
  C  C681  1  0.372200  0.142600  0.248300  1.0  -0.3291
  C  C682  1  0.467400  0.129100  0.244100  1.0  0.1
  C  C683  1  0.448900  0.919900  0.204800  1.0  0.0604
  C  C684  1  0.412100  0.940800  0.247700  1.0  0.0563
  C  C685  1  0.356800  0.922100  0.257200  1.0  0.0562
  C  C686  1  0.421300  0.003600  0.250600  1.0  -0.3202
  C  C687  1  0.581800  0.030000  0.333700  1.0  0.7507
  C  C688  1  0.553800  0.992400  0.368100  1.0  -0.4087
  C  C689  1  0.582700  0.889000  0.229000  1.0  0.7502
  C  C690  1  0.569100  0.855800  0.279300  1.0  -0.36
  C  C691  1  0.551800  0.033500  0.139500  1.0  0.7837
  C  C692  1  0.504900  0.035000  0.100900  1.0  -0.4195
  O  O693  1  0.673000  0.869300  0.835300  1.0  -0.7193
  O  O694  1  0.724800  0.912400  0.743500  1.0  -0.6869
  O  O695  1  0.748200  0.978500  0.852000  1.0  -0.5591
  O  O696  1  0.791100  0.019300  0.756000  1.0  -0.6008
  O  O697  1  0.699800  0.050200  0.137300  1.0  -0.5919
  O  O698  1  0.752200  0.149700  0.132400  1.0  -0.5537
  O  O699  1  0.790100  0.942300  0.955600  1.0  -0.5621
  O  O700  1  0.847200  0.872400  0.950400  1.0  -0.6566
  O  O701  1  0.684000  0.926000  0.132900  1.0  -0.619
  O  O702  1  0.734600  0.892600  0.068600  1.0  -0.578
  O  O703  1  0.633600  0.913500  0.004600  1.0  -0.6241
  O  O704  1  0.672800  0.944800  0.928400  1.0  -0.5795
  O  O705  1  0.659200  0.809200  0.728000  1.0  -0.7052
  O  O706  1  0.733400  0.837800  0.926200  1.0  -0.8502
  O  O707  1  0.784500  0.885000  0.833200  1.0  -0.8711
  O  O708  1  0.778200  0.823700  0.727600  1.0  -0.91
  O  O709  1  0.851800  0.209100  0.144700  1.0  -0.4291
  O  O710  1  0.827000  0.130700  0.335300  1.0  -0.7189
  O  O711  1  0.775200  0.087600  0.243500  1.0  -0.6828
  O  O712  1  0.751800  0.021500  0.352000  1.0  -0.5591
  O  O713  1  0.708900  0.980700  0.256000  1.0  -0.6012
  O  O714  1  0.800200  0.949800  0.637300  1.0  -0.5923
  O  O715  1  0.747800  0.850300  0.632400  1.0  -0.5525
  O  O716  1  0.709900  0.057700  0.455600  1.0  -0.5637
  O  O717  1  0.652800  0.127600  0.450400  1.0  -0.6568
  O  O718  1  0.816000  0.074000  0.632900  1.0  -0.6182
  O  O719  1  0.765400  0.107400  0.568600  1.0  -0.5775
  O  O720  1  0.866400  0.086500  0.504600  1.0  -0.6236
  O  O721  1  0.827200  0.055200  0.428400  1.0  -0.5796
  O  O722  1  0.840800  0.190800  0.228000  1.0  -0.706
  O  O723  1  0.766600  0.162200  0.426200  1.0  -0.8503
  O  O724  1  0.715500  0.115000  0.333200  1.0  -0.8709
  O  O725  1  0.721800  0.176300  0.227600  1.0  -0.9087
  O  O726  1  0.648200  0.790900  0.644700  1.0  -0.4304
  O  O727  1  0.327000  0.369300  0.664700  1.0  -0.7187
  O  O728  1  0.275200  0.412400  0.756500  1.0  -0.6826
  O  O729  1  0.251800  0.478500  0.648000  1.0  -0.5596
  O  O730  1  0.208900  0.519300  0.744000  1.0  -0.6015
  O  O731  1  0.300200  0.550200  0.362700  1.0  -0.5921
  O  O732  1  0.247800  0.649700  0.367600  1.0  -0.5565
  O  O733  1  0.209900  0.442300  0.544400  1.0  -0.564
  O  O734  1  0.152800  0.372400  0.549600  1.0  -0.6565
  O  O735  1  0.316000  0.426000  0.367100  1.0  -0.6175
  O  O736  1  0.265400  0.392600  0.431400  1.0  -0.5761
  O  O737  1  0.366400  0.413500  0.495400  1.0  -0.6233
  O  O738  1  0.327200  0.444800  0.571600  1.0  -0.5796
  O  O739  1  0.340800  0.309200  0.772000  1.0  -0.7055
  O  O740  1  0.266600  0.337800  0.573800  1.0  -0.8501
  O  O741  1  0.215500  0.385000  0.666800  1.0  -0.8699
  O  O742  1  0.221800  0.323700  0.772400  1.0  -0.9082
  O  O743  1  0.148200  0.709100  0.355300  1.0  -0.4303
  O  O744  1  0.173000  0.630700  0.164700  1.0  -0.7197
  O  O745  1  0.224800  0.587600  0.256500  1.0  -0.6858
  O  O746  1  0.248200  0.521500  0.148000  1.0  -0.5595
  O  O747  1  0.291100  0.480700  0.244000  1.0  -0.6015
  O  O748  1  0.199800  0.449800  0.862700  1.0  -0.5912
  O  O749  1  0.252200  0.350300  0.867600  1.0  -0.5571
  O  O750  1  0.290100  0.557700  0.044400  1.0  -0.5625
  O  O751  1  0.347200  0.627600  0.049600  1.0  -0.6559
  O  O752  1  0.184000  0.574000  0.867100  1.0  -0.6179
  O  O753  1  0.234600  0.607400  0.931400  1.0  -0.577
  O  O754  1  0.133600  0.586500  0.995400  1.0  -0.6239
  O  O755  1  0.172800  0.555200  0.071600  1.0  -0.5791
  O  O756  1  0.159200  0.690800  0.272000  1.0  -0.7064
  O  O757  1  0.233400  0.662200  0.073800  1.0  -0.85
  O  O758  1  0.284500  0.615000  0.166800  1.0  -0.8702
  O  O759  1  0.278200  0.676300  0.272400  1.0  -0.9106
  O  O760  1  0.351800  0.290900  0.855300  1.0  -0.433
  O  O761  1  0.835300  0.673000  0.869300  1.0  -0.7154
  O  O762  1  0.743500  0.724800  0.912400  1.0  -0.6895
  O  O763  1  0.852000  0.748200  0.978500  1.0  -0.5596
  O  O764  1  0.756000  0.791100  0.019300  1.0  -0.6019
  O  O765  1  0.137300  0.699800  0.050200  1.0  -0.5949
  O  O766  1  0.132400  0.752200  0.149700  1.0  -0.5589
  O  O767  1  0.955600  0.790100  0.942300  1.0  -0.5643
  O  O768  1  0.950400  0.847200  0.872400  1.0  -0.6564
  O  O769  1  0.132900  0.684000  0.926000  1.0  -0.6191
  O  O770  1  0.068600  0.734600  0.892600  1.0  -0.5761
  O  O771  1  0.004600  0.633600  0.913500  1.0  -0.6215
  O  O772  1  0.928400  0.672800  0.944800  1.0  -0.581
  O  O773  1  0.728000  0.659200  0.809200  1.0  -0.7073
  O  O774  1  0.926200  0.733400  0.837800  1.0  -0.8509
  O  O775  1  0.833200  0.784500  0.885000  1.0  -0.8703
  O  O776  1  0.727600  0.778200  0.823700  1.0  -0.9077
  O  O777  1  0.144700  0.851800  0.209100  1.0  -0.4303
  O  O778  1  0.335300  0.827000  0.130700  1.0  -0.7159
  O  O779  1  0.243500  0.775200  0.087600  1.0  -0.6906
  O  O780  1  0.352000  0.751800  0.021500  1.0  -0.5591
  O  O781  1  0.256000  0.708900  0.980700  1.0  -0.6009
  O  O782  1  0.637300  0.800200  0.949800  1.0  -0.5952
  O  O783  1  0.632400  0.747800  0.850300  1.0  -0.5571
  O  O784  1  0.455600  0.709900  0.057700  1.0  -0.5645
  O  O785  1  0.450400  0.652800  0.127600  1.0  -0.6566
  O  O786  1  0.632900  0.816000  0.074000  1.0  -0.6208
  O  O787  1  0.568600  0.765400  0.107400  1.0  -0.5761
  O  O788  1  0.504600  0.866400  0.086500  1.0  -0.6211
  O  O789  1  0.428400  0.827200  0.055200  1.0  -0.5805
  O  O790  1  0.228000  0.840800  0.190800  1.0  -0.7108
  O  O791  1  0.426200  0.766600  0.162200  1.0  -0.8509
  O  O792  1  0.333200  0.715500  0.115000  1.0  -0.8706
  O  O793  1  0.227600  0.721800  0.176300  1.0  -0.9088
  O  O794  1  0.644700  0.648200  0.790900  1.0  -0.4298
  O  O795  1  0.664700  0.327000  0.369300  1.0  -0.7168
  O  O796  1  0.756500  0.275200  0.412400  1.0  -0.6881
  O  O797  1  0.648000  0.251800  0.478500  1.0  -0.5593
  O  O798  1  0.744000  0.208900  0.519300  1.0  -0.6018
  O  O799  1  0.362700  0.300200  0.550200  1.0  -0.5927
  O  O800  1  0.367600  0.247800  0.649700  1.0  -0.5557
  O  O801  1  0.544400  0.209900  0.442300  1.0  -0.5659
  O  O802  1  0.549600  0.152800  0.372400  1.0  -0.6571
  O  O803  1  0.367100  0.316000  0.426000  1.0  -0.6201
  O  O804  1  0.431400  0.265400  0.392600  1.0  -0.5767
  O  O805  1  0.495400  0.366400  0.413500  1.0  -0.6219
  O  O806  1  0.571600  0.327200  0.444800  1.0  -0.5798
  O  O807  1  0.772000  0.340800  0.309200  1.0  -0.7101
  O  O808  1  0.573800  0.266600  0.337800  1.0  -0.8509
  O  O809  1  0.666800  0.215500  0.385000  1.0  -0.8703
  O  O810  1  0.772400  0.221800  0.323700  1.0  -0.9066
  O  O811  1  0.355300  0.148200  0.709100  1.0  -0.435
  O  O812  1  0.164700  0.173000  0.630700  1.0  -0.7163
  O  O813  1  0.256500  0.224800  0.587600  1.0  -0.6871
  O  O814  1  0.148000  0.248200  0.521500  1.0  -0.559
  O  O815  1  0.244000  0.291100  0.480700  1.0  -0.5994
  O  O816  1  0.862700  0.199800  0.449800  1.0  -0.5933
  O  O817  1  0.867600  0.252200  0.350300  1.0  -0.555
  O  O818  1  0.044400  0.290100  0.557700  1.0  -0.5652
  O  O819  1  0.049600  0.347200  0.627600  1.0  -0.6555
  O  O820  1  0.867100  0.184000  0.574000  1.0  -0.6204
  O  O821  1  0.931400  0.234600  0.607400  1.0  -0.577
  O  O822  1  0.995400  0.133600  0.586500  1.0  -0.6211
  O  O823  1  0.071600  0.172800  0.555200  1.0  -0.5799
  O  O824  1  0.272000  0.159200  0.690800  1.0  -0.7109
  O  O825  1  0.073800  0.233400  0.662200  1.0  -0.8513
  O  O826  1  0.166800  0.284500  0.615000  1.0  -0.8704
  O  O827  1  0.272400  0.278200  0.676300  1.0  -0.9068
  O  O828  1  0.855300  0.351800  0.290900  1.0  -0.4313
  O  O829  1  0.869300  0.835300  0.673000  1.0  -0.7204
  O  O830  1  0.912400  0.743500  0.724800  1.0  -0.6905
  O  O831  1  0.978500  0.852000  0.748200  1.0  -0.5608
  O  O832  1  0.019300  0.756000  0.791100  1.0  -0.6027
  O  O833  1  0.050200  0.137300  0.699800  1.0  -0.593
  O  O834  1  0.149700  0.132400  0.752200  1.0  -0.5588
  O  O835  1  0.942300  0.955600  0.790100  1.0  -0.5629
  O  O836  1  0.872400  0.950400  0.847200  1.0  -0.6567
  O  O837  1  0.926000  0.132900  0.684000  1.0  -0.6183
  O  O838  1  0.892600  0.068600  0.734600  1.0  -0.5789
  O  O839  1  0.913500  0.004600  0.633600  1.0  -0.6198
  O  O840  1  0.944800  0.928400  0.672800  1.0  -0.5773
  O  O841  1  0.809200  0.728000  0.659200  1.0  -0.7052
  O  O842  1  0.837800  0.926200  0.733400  1.0  -0.8518
  O  O843  1  0.885000  0.833200  0.784500  1.0  -0.8714
  O  O844  1  0.823700  0.727600  0.778200  1.0  -0.9079
  O  O845  1  0.209100  0.144700  0.851800  1.0  -0.4286
  O  O846  1  0.130700  0.335300  0.827000  1.0  -0.7183
  O  O847  1  0.087600  0.243500  0.775200  1.0  -0.6868
  O  O848  1  0.021500  0.352000  0.751800  1.0  -0.5604
  O  O849  1  0.980700  0.256000  0.708900  1.0  -0.6034
  O  O850  1  0.949800  0.637300  0.800200  1.0  -0.593
  O  O851  1  0.850300  0.632400  0.747800  1.0  -0.5585
  O  O852  1  0.057700  0.455600  0.709900  1.0  -0.5643
  O  O853  1  0.127600  0.450400  0.652800  1.0  -0.6559
  O  O854  1  0.074000  0.632900  0.816000  1.0  -0.6204
  O  O855  1  0.107400  0.568600  0.765400  1.0  -0.5785
  O  O856  1  0.086500  0.504600  0.866400  1.0  -0.6202
  O  O857  1  0.055200  0.428400  0.827200  1.0  -0.5774
  O  O858  1  0.190800  0.228000  0.840800  1.0  -0.7079
  O  O859  1  0.162200  0.426200  0.766600  1.0  -0.8513
  O  O860  1  0.115000  0.333200  0.715500  1.0  -0.87
  O  O861  1  0.176300  0.227600  0.721800  1.0  -0.9067
  O  O862  1  0.790900  0.644700  0.648200  1.0  -0.4292
  O  O863  1  0.369300  0.664700  0.327000  1.0  -0.72
  O  O864  1  0.412400  0.756500  0.275200  1.0  -0.6891
  O  O865  1  0.478500  0.648000  0.251800  1.0  -0.5607
  O  O866  1  0.519300  0.744000  0.208900  1.0  -0.6025
  O  O867  1  0.550200  0.362700  0.300200  1.0  -0.5939
  O  O868  1  0.649700  0.367600  0.247800  1.0  -0.5589
  O  O869  1  0.442300  0.544400  0.209900  1.0  -0.565
  O  O870  1  0.372400  0.549600  0.152800  1.0  -0.6556
  O  O871  1  0.426000  0.367100  0.316000  1.0  -0.6203
  O  O872  1  0.392600  0.431400  0.265400  1.0  -0.5794
  O  O873  1  0.413500  0.495400  0.366400  1.0  -0.6205
  O  O874  1  0.444800  0.571600  0.327200  1.0  -0.5772
  O  O875  1  0.309200  0.772000  0.340800  1.0  -0.7069
  O  O876  1  0.337800  0.573800  0.266600  1.0  -0.8519
  O  O877  1  0.385000  0.666800  0.215500  1.0  -0.8712
  O  O878  1  0.323700  0.772400  0.221800  1.0  -0.9097
  O  O879  1  0.709100  0.355300  0.148200  1.0  -0.4315
  O  O880  1  0.630700  0.164700  0.173000  1.0  -0.7175
  O  O881  1  0.587600  0.256500  0.224800  1.0  -0.6883
  O  O882  1  0.521500  0.148000  0.248200  1.0  -0.5606
  O  O883  1  0.480700  0.244000  0.291100  1.0  -0.6042
  O  O884  1  0.449800  0.862700  0.199800  1.0  -0.5934
  O  O885  1  0.350300  0.867600  0.252200  1.0  -0.5585
  O  O886  1  0.557700  0.044400  0.290100  1.0  -0.5625
  O  O887  1  0.627600  0.049600  0.347200  1.0  -0.6565
  O  O888  1  0.574000  0.867100  0.184000  1.0  -0.6193
  O  O889  1  0.607400  0.931400  0.234600  1.0  -0.5791
  O  O890  1  0.586500  0.995400  0.133600  1.0  -0.6201
  O  O891  1  0.555200  0.071600  0.172800  1.0  -0.5778
  O  O892  1  0.690800  0.272000  0.159200  1.0  -0.7065
  O  O893  1  0.662200  0.073800  0.233400  1.0  -0.8518
  O  O894  1  0.615000  0.166800  0.284500  1.0  -0.8703
  O  O895  1  0.676300  0.272400  0.278200  1.0  -0.9072
  O  O896  1  0.290900  0.855300  0.351800  1.0  -0.424
  O  O897  1  0.788000  0.288000  0.212000  1.0  -0.8175
  O  O898  1  0.712000  0.712000  0.712000  1.0  -0.816
  O  O899  1  0.212000  0.788000  0.288000  1.0  -0.8167
  O  O900  1  0.288000  0.212000  0.788000  1.0  -0.8167
