# generated using pymatgen
data_NaMn19H81C45O52
_symmetry_space_group_name_H-M   'P 1'
_cell_length_a   24.04300000
_cell_length_b   24.04300000
_cell_length_c   24.04300000
_cell_angle_alpha   90.00000000
_cell_angle_beta   90.00000000
_cell_angle_gamma   90.00000000
_symmetry_Int_Tables_number   1
_chemical_formula_structural   NaMn19H81C45O52
_chemical_formula_sum   'Na4 Mn76 H324 C180 O208'
_cell_volume   13898.43720751
_cell_formula_units_Z   4
loop_
 _symmetry_equiv_pos_site_id
 _symmetry_equiv_pos_as_xyz
  1  'x, y, z'
loop_
 _atom_site_type_symbol
 _atom_site_label
 _atom_site_symmetry_multiplicity
 _atom_site_fract_x
 _atom_site_fract_y
 _atom_site_fract_z
 _atom_site_occupancy
 _atom_site_charge
  Na  Na1  1  0.141550  0.858450  0.358450  1.0  0.9369
  Na  Na2  1  0.358450  0.141550  0.858450  1.0  0.9362
  Na  Na3  1  0.858450  0.358450  0.141550  1.0  0.937
  Na  Na4  1  0.641550  0.641550  0.641550  1.0  0.9372
  Mn  Mn5  1  0.155890  0.986750  0.150910  1.0  0.8782
  Mn  Mn6  1  0.204680  0.038570  0.051050  1.0  0.7681
  Mn  Mn7  1  0.093370  0.974470  0.037160  1.0  0.8972
  Mn  Mn8  1  0.055310  0.769850  0.416440  1.0  1.046
  Mn  Mn9  1  0.034260  0.933340  0.143520  1.0  0.8691
  Mn  Mn10  1  0.084080  0.529660  0.530240  1.0  1.05
  Mn  Mn11  1  0.344110  0.013250  0.650910  1.0  0.8797
  Mn  Mn12  1  0.295320  0.961430  0.551050  1.0  0.7688
  Mn  Mn13  1  0.406630  0.025530  0.537160  1.0  0.8977
  Mn  Mn14  1  0.444690  0.230150  0.916440  1.0  1.0464
  Mn  Mn15  1  0.465740  0.066660  0.643520  1.0  0.8679
  Mn  Mn16  1  0.415920  0.470340  0.030240  1.0  1.0504
  Mn  Mn17  1  0.844110  0.486750  0.349090  1.0  0.8801
  Mn  Mn18  1  0.795320  0.538570  0.448950  1.0  0.768
  Mn  Mn19  1  0.906630  0.474470  0.462840  1.0  0.8982
  Mn  Mn20  1  0.944690  0.269850  0.083560  1.0  1.0457
  Mn  Mn21  1  0.965740  0.433340  0.356480  1.0  0.868
  Mn  Mn22  1  0.915920  0.029660  0.969760  1.0  1.0503
  Mn  Mn23  1  0.655890  0.513250  0.849090  1.0  0.8797
  Mn  Mn24  1  0.704680  0.461430  0.948950  1.0  0.767
  Mn  Mn25  1  0.593370  0.525530  0.962840  1.0  0.8994
  Mn  Mn26  1  0.555310  0.730150  0.583560  1.0  1.0461
  Mn  Mn27  1  0.534260  0.566660  0.856480  1.0  0.8702
  Mn  Mn28  1  0.584080  0.970340  0.469760  1.0  1.0511
  Mn  Mn29  1  0.150910  0.155890  0.986750  1.0  0.8792
  Mn  Mn30  1  0.051050  0.204680  0.038570  1.0  0.7706
  Mn  Mn31  1  0.037160  0.093370  0.974470  1.0  0.8977
  Mn  Mn32  1  0.416440  0.055310  0.769850  1.0  1.047
  Mn  Mn33  1  0.143520  0.034260  0.933340  1.0  0.8686
  Mn  Mn34  1  0.530240  0.084080  0.529660  1.0  1.0504
  Mn  Mn35  1  0.650910  0.344110  0.013250  1.0  0.8795
  Mn  Mn36  1  0.551050  0.295320  0.961430  1.0  0.7705
  Mn  Mn37  1  0.537160  0.406630  0.025530  1.0  0.8966
  Mn  Mn38  1  0.916440  0.444690  0.230150  1.0  1.0453
  Mn  Mn39  1  0.643520  0.465740  0.066660  1.0  0.8728
  Mn  Mn40  1  0.030240  0.415920  0.470340  1.0  1.0512
  Mn  Mn41  1  0.349090  0.844110  0.486750  1.0  0.8783
  Mn  Mn42  1  0.448950  0.795320  0.538570  1.0  0.77
  Mn  Mn43  1  0.462840  0.906630  0.474470  1.0  0.8958
  Mn  Mn44  1  0.083560  0.944690  0.269850  1.0  1.0467
  Mn  Mn45  1  0.356480  0.965740  0.433340  1.0  0.8693
  Mn  Mn46  1  0.969760  0.915920  0.029660  1.0  1.0524
  Mn  Mn47  1  0.849090  0.655890  0.513250  1.0  0.8789
  Mn  Mn48  1  0.948950  0.704680  0.461430  1.0  0.7718
  Mn  Mn49  1  0.962840  0.593370  0.525530  1.0  0.8985
  Mn  Mn50  1  0.583560  0.555310  0.730150  1.0  1.0445
  Mn  Mn51  1  0.856480  0.534260  0.566660  1.0  0.8715
  Mn  Mn52  1  0.469760  0.584080  0.970340  1.0  1.051
  Mn  Mn53  1  0.986750  0.150910  0.155890  1.0  0.8793
  Mn  Mn54  1  0.038570  0.051050  0.204680  1.0  0.7677
  Mn  Mn55  1  0.974470  0.037160  0.093370  1.0  0.897
  Mn  Mn56  1  0.769850  0.416440  0.055310  1.0  1.0448
  Mn  Mn57  1  0.933340  0.143520  0.034260  1.0  0.8696
  Mn  Mn58  1  0.529660  0.530240  0.084080  1.0  1.0507
  Mn  Mn59  1  0.013250  0.650910  0.344110  1.0  0.8787
  Mn  Mn60  1  0.961430  0.551050  0.295320  1.0  0.7682
  Mn  Mn61  1  0.025530  0.537160  0.406630  1.0  0.898
  Mn  Mn62  1  0.230150  0.916440  0.444690  1.0  1.0445
  Mn  Mn63  1  0.066660  0.643520  0.465740  1.0  0.8692
  Mn  Mn64  1  0.470340  0.030240  0.415920  1.0  1.0503
  Mn  Mn65  1  0.486750  0.349090  0.844110  1.0  0.8801
  Mn  Mn66  1  0.538570  0.448950  0.795320  1.0  0.7668
  Mn  Mn67  1  0.474470  0.462840  0.906630  1.0  0.8959
  Mn  Mn68  1  0.269850  0.083560  0.944690  1.0  1.0446
  Mn  Mn69  1  0.433340  0.356480  0.965740  1.0  0.8692
  Mn  Mn70  1  0.029660  0.969760  0.915920  1.0  1.0502
  Mn  Mn71  1  0.513250  0.849090  0.655890  1.0  0.8796
  Mn  Mn72  1  0.461430  0.948950  0.704680  1.0  0.7674
  Mn  Mn73  1  0.525530  0.962840  0.593370  1.0  0.898
  Mn  Mn74  1  0.730150  0.583560  0.555310  1.0  1.0446
  Mn  Mn75  1  0.566660  0.856480  0.534260  1.0  0.8675
  Mn  Mn76  1  0.970340  0.469760  0.584080  1.0  1.049
  Mn  Mn77  1  0.113440  0.113440  0.113440  1.0  1.0459
  Mn  Mn78  1  0.386560  0.886560  0.613440  1.0  1.0473
  Mn  Mn79  1  0.886560  0.613440  0.386560  1.0  1.0463
  Mn  Mn80  1  0.613440  0.386560  0.886560  1.0  1.0466
  H  H81  1  0.150800  0.848800  0.109700  1.0  0.1318
  H  H82  1  0.116800  0.848500  0.053900  1.0  0.1359
  H  H83  1  0.218500  0.902400  0.070000  1.0  0.1283
  H  H84  1  0.211300  0.847200  0.036700  1.0  0.1232
  H  H85  1  0.169300  0.895300  0.963000  1.0  0.145
  H  H86  1  0.227800  0.921600  0.975700  1.0  0.1202
  H  H87  1  0.282500  0.001800  0.172600  1.0  0.1392
  H  H88  1  0.292200  0.950500  0.133600  1.0  0.1325
  H  H89  1  0.315200  0.060600  0.107600  1.0  0.1255
  H  H90  1  0.359300  0.013600  0.116900  1.0  0.1032
  H  H91  1  0.324100  0.968800  0.037400  1.0  0.1155
  H  H92  1  0.354200  0.025300  0.025300  1.0  0.1278
  H  H93  1  0.184600  0.705900  0.436300  1.0  0.1318
  H  H94  1  0.172400  0.752100  0.480500  1.0  0.1185
  H  H95  1  0.177500  0.695600  0.549700  1.0  0.1415
  H  H96  1  0.226600  0.678600  0.511500  1.0  0.132
  H  H97  1  0.180200  0.608400  0.562400  1.0  0.1292
  H  H98  1  0.196800  0.595200  0.500700  1.0  0.1297
  H  H99  1  0.233200  0.123300  0.258400  1.0  0.1797
  H  H100  1  0.177900  0.156700  0.267600  1.0  0.1756
  H  H101  1  0.190400  0.103800  0.303600  1.0  0.1633
  H  H102  1  0.059400  0.822900  0.534600  1.0  0.1581
  H  H103  1  0.114300  0.798200  0.559700  1.0  0.1557
  H  H104  1  0.098900  0.860600  0.570300  1.0  0.1736
  H  H105  1  0.275600  0.880300  0.231300  1.0  0.1713
  H  H106  1  0.243500  0.839700  0.270900  1.0  0.1631
  H  H107  1  0.242700  0.829900  0.206500  1.0  0.1704
  H  H108  1  0.349200  0.151200  0.609700  1.0  0.1314
  H  H109  1  0.383200  0.151500  0.553900  1.0  0.1358
  H  H110  1  0.281500  0.097600  0.570000  1.0  0.1301
  H  H111  1  0.288700  0.152800  0.536700  1.0  0.126
  H  H112  1  0.330700  0.104700  0.463000  1.0  0.1452
  H  H113  1  0.272200  0.078400  0.475700  1.0  0.121
  H  H114  1  0.217500  0.998200  0.672600  1.0  0.1392
  H  H115  1  0.207800  0.049500  0.633600  1.0  0.1336
  H  H116  1  0.184800  0.939400  0.607600  1.0  0.1261
  H  H117  1  0.140700  0.986400  0.616900  1.0  0.104
  H  H118  1  0.175900  0.031200  0.537400  1.0  0.1168
  H  H119  1  0.145800  0.974700  0.525300  1.0  0.1285
  H  H120  1  0.315400  0.294100  0.936300  1.0  0.1325
  H  H121  1  0.327600  0.247900  0.980500  1.0  0.1175
  H  H122  1  0.322500  0.304400  0.049700  1.0  0.142
  H  H123  1  0.273400  0.321400  0.011500  1.0  0.1351
  H  H124  1  0.319800  0.391600  0.062400  1.0  0.1292
  H  H125  1  0.303200  0.404800  0.000700  1.0  0.1307
  H  H126  1  0.266800  0.876700  0.758400  1.0  0.1811
  H  H127  1  0.322100  0.843300  0.767600  1.0  0.1762
  H  H128  1  0.309600  0.896200  0.803600  1.0  0.1626
  H  H129  1  0.440600  0.177100  0.034600  1.0  0.1583
  H  H130  1  0.385700  0.201800  0.059700  1.0  0.1551
  H  H131  1  0.401100  0.139400  0.070300  1.0  0.1739
  H  H132  1  0.224400  0.119700  0.731300  1.0  0.17
  H  H133  1  0.256500  0.160300  0.770900  1.0  0.1639
  H  H134  1  0.257300  0.170100  0.706500  1.0  0.1704
  H  H135  1  0.849200  0.348800  0.390300  1.0  0.132
  H  H136  1  0.883200  0.348500  0.446100  1.0  0.1363
  H  H137  1  0.781500  0.402400  0.430000  1.0  0.1297
  H  H138  1  0.788700  0.347200  0.463300  1.0  0.1214
  H  H139  1  0.830700  0.395300  0.537000  1.0  0.1454
  H  H140  1  0.772200  0.421600  0.524300  1.0  0.1216
  H  H141  1  0.717500  0.501800  0.327400  1.0  0.1383
  H  H142  1  0.707800  0.450500  0.366400  1.0  0.1327
  H  H143  1  0.684800  0.560600  0.392400  1.0  0.1265
  H  H144  1  0.640700  0.513600  0.383100  1.0  0.104
  H  H145  1  0.675900  0.468800  0.462600  1.0  0.1157
  H  H146  1  0.645800  0.525300  0.474700  1.0  0.1276
  H  H147  1  0.815400  0.205900  0.063700  1.0  0.1325
  H  H148  1  0.827600  0.252100  0.019500  1.0  0.1176
  H  H149  1  0.822500  0.195600  0.950300  1.0  0.1409
  H  H150  1  0.773400  0.178600  0.988500  1.0  0.134
  H  H151  1  0.819800  0.108400  0.937600  1.0  0.1279
  H  H152  1  0.803200  0.095200  0.999300  1.0  0.1304
  H  H153  1  0.766800  0.623300  0.241600  1.0  0.1805
  H  H154  1  0.822100  0.656700  0.232400  1.0  0.1775
  H  H155  1  0.809600  0.603800  0.196400  1.0  0.1638
  H  H156  1  0.940600  0.322900  0.965400  1.0  0.1599
  H  H157  1  0.885700  0.298200  0.940300  1.0  0.1542
  H  H158  1  0.901100  0.360600  0.929700  1.0  0.1739
  H  H159  1  0.724400  0.380300  0.268700  1.0  0.1703
  H  H160  1  0.756500  0.339700  0.229100  1.0  0.1652
  H  H161  1  0.757300  0.329900  0.293500  1.0  0.1705
  H  H162  1  0.650800  0.651200  0.890300  1.0  0.132
  H  H163  1  0.616800  0.651500  0.946100  1.0  0.1361
  H  H164  1  0.718500  0.597600  0.930000  1.0  0.1286
  H  H165  1  0.711300  0.652800  0.963300  1.0  0.1245
  H  H166  1  0.669300  0.604700  0.037000  1.0  0.1439
  H  H167  1  0.727800  0.578400  0.024300  1.0  0.1216
  H  H168  1  0.782500  0.498200  0.827400  1.0  0.1393
  H  H169  1  0.792200  0.549500  0.866400  1.0  0.1335
  H  H170  1  0.815200  0.439400  0.892400  1.0  0.1277
  H  H171  1  0.859300  0.486400  0.883100  1.0  0.1047
  H  H172  1  0.824100  0.531200  0.962600  1.0  0.1168
  H  H173  1  0.854200  0.474700  0.974700  1.0  0.1272
  H  H174  1  0.684600  0.794100  0.563700  1.0  0.1326
  H  H175  1  0.672400  0.747900  0.519500  1.0  0.118
  H  H176  1  0.677500  0.804400  0.450300  1.0  0.1406
  H  H177  1  0.726600  0.821400  0.488500  1.0  0.1317
  H  H178  1  0.680200  0.891600  0.437600  1.0  0.1287
  H  H179  1  0.696800  0.904800  0.499300  1.0  0.1294
  H  H180  1  0.733200  0.376700  0.741600  1.0  0.1797
  H  H181  1  0.677900  0.343300  0.732400  1.0  0.1757
  H  H182  1  0.690400  0.396200  0.696400  1.0  0.1634
  H  H183  1  0.559400  0.677100  0.465400  1.0  0.1581
  H  H184  1  0.614300  0.701800  0.440300  1.0  0.1544
  H  H185  1  0.598900  0.639400  0.429700  1.0  0.173
  H  H186  1  0.775600  0.619700  0.768700  1.0  0.1698
  H  H187  1  0.743500  0.660300  0.729100  1.0  0.1639
  H  H188  1  0.742700  0.670100  0.793500  1.0  0.1703
  H  H189  1  0.109700  0.150800  0.848800  1.0  0.1324
  H  H190  1  0.053900  0.116800  0.848500  1.0  0.1378
  H  H191  1  0.070000  0.218500  0.902400  1.0  0.1281
  H  H192  1  0.036700  0.211300  0.847200  1.0  0.1249
  H  H193  1  0.963000  0.169300  0.895300  1.0  0.142
  H  H194  1  0.975700  0.227800  0.921600  1.0  0.1217
  H  H195  1  0.172600  0.282500  0.001800  1.0  0.1263
  H  H196  1  0.133600  0.292200  0.950500  1.0  0.1333
  H  H197  1  0.107600  0.315200  0.060600  1.0  0.1231
  H  H198  1  0.116900  0.359300  0.013600  1.0  0.1027
  H  H199  1  0.037400  0.324100  0.968800  1.0  0.1151
  H  H200  1  0.025300  0.354200  0.025300  1.0  0.1289
  H  H201  1  0.436300  0.184600  0.705900  1.0  0.1301
  H  H202  1  0.480500  0.172400  0.752100  1.0  0.119
  H  H203  1  0.549700  0.177500  0.695600  1.0  0.1446
  H  H204  1  0.511500  0.226600  0.678600  1.0  0.1267
  H  H205  1  0.562400  0.180200  0.608400  1.0  0.1236
  H  H206  1  0.500700  0.196800  0.595200  1.0  0.1325
  H  H207  1  0.258400  0.233200  0.123300  1.0  0.1775
  H  H208  1  0.267600  0.177900  0.156700  1.0  0.1755
  H  H209  1  0.303600  0.190400  0.103800  1.0  0.1671
  H  H210  1  0.534600  0.059400  0.822900  1.0  0.1591
  H  H211  1  0.559700  0.114300  0.798200  1.0  0.1555
  H  H212  1  0.570300  0.098900  0.860600  1.0  0.1725
  H  H213  1  0.231300  0.275600  0.880300  1.0  0.1701
  H  H214  1  0.270900  0.243500  0.839700  1.0  0.1641
  H  H215  1  0.206500  0.242700  0.829900  1.0  0.1691
  H  H216  1  0.609700  0.349200  0.151200  1.0  0.1329
  H  H217  1  0.553900  0.383200  0.151500  1.0  0.139
  H  H218  1  0.570000  0.281500  0.097600  1.0  0.1294
  H  H219  1  0.536700  0.288700  0.152800  1.0  0.1241
  H  H220  1  0.463000  0.330700  0.104700  1.0  0.1414
  H  H221  1  0.475700  0.272200  0.078400  1.0  0.1217
  H  H222  1  0.672600  0.217500  0.998200  1.0  0.1259
  H  H223  1  0.633600  0.207800  0.049500  1.0  0.1329
  H  H224  1  0.607600  0.184800  0.939400  1.0  0.1238
  H  H225  1  0.616900  0.140700  0.986400  1.0  0.1021
  H  H226  1  0.537400  0.175900  0.031200  1.0  0.1147
  H  H227  1  0.525300  0.145800  0.974700  1.0  0.1288
  H  H228  1  0.936300  0.315400  0.294100  1.0  0.1297
  H  H229  1  0.980500  0.327600  0.247900  1.0  0.1193
  H  H230  1  0.049700  0.322500  0.304400  1.0  0.1453
  H  H231  1  0.011500  0.273400  0.321400  1.0  0.1281
  H  H232  1  0.062400  0.319800  0.391600  1.0  0.1214
  H  H233  1  0.000700  0.303200  0.404800  1.0  0.1332
  H  H234  1  0.758400  0.266800  0.876700  1.0  0.178
  H  H235  1  0.767600  0.322100  0.843300  1.0  0.1763
  H  H236  1  0.803600  0.309600  0.896200  1.0  0.1683
  H  H237  1  0.034600  0.440600  0.177100  1.0  0.1602
  H  H238  1  0.059700  0.385700  0.201800  1.0  0.157
  H  H239  1  0.070300  0.401100  0.139400  1.0  0.1736
  H  H240  1  0.731300  0.224400  0.119700  1.0  0.17
  H  H241  1  0.770900  0.256500  0.160300  1.0  0.1624
  H  H242  1  0.706500  0.257300  0.170100  1.0  0.1704
  H  H243  1  0.390300  0.849200  0.348800  1.0  0.1305
  H  H244  1  0.446100  0.883200  0.348500  1.0  0.1383
  H  H245  1  0.430000  0.781500  0.402400  1.0  0.1287
  H  H246  1  0.463300  0.788700  0.347200  1.0  0.125
  H  H247  1  0.537000  0.830700  0.395300  1.0  0.1433
  H  H248  1  0.524300  0.772200  0.421600  1.0  0.1213
  H  H249  1  0.327400  0.717500  0.501800  1.0  0.1257
  H  H250  1  0.366400  0.707800  0.450500  1.0  0.133
  H  H251  1  0.392400  0.684800  0.560600  1.0  0.123
  H  H252  1  0.383100  0.640700  0.513600  1.0  0.0999
  H  H253  1  0.462600  0.675900  0.468800  1.0  0.1141
  H  H254  1  0.474700  0.645800  0.525300  1.0  0.129
  H  H255  1  0.063700  0.815400  0.205900  1.0  0.1311
  H  H256  1  0.019500  0.827600  0.252100  1.0  0.1189
  H  H257  1  0.950300  0.822500  0.195600  1.0  0.1449
  H  H258  1  0.988500  0.773400  0.178600  1.0  0.127
  H  H259  1  0.937600  0.819800  0.108400  1.0  0.1227
  H  H260  1  0.999300  0.803200  0.095200  1.0  0.1314
  H  H261  1  0.241600  0.766800  0.623300  1.0  0.1769
  H  H262  1  0.232400  0.822100  0.656700  1.0  0.1769
  H  H263  1  0.196400  0.809600  0.603800  1.0  0.165
  H  H264  1  0.965400  0.940600  0.322900  1.0  0.1596
  H  H265  1  0.940300  0.885700  0.298200  1.0  0.1568
  H  H266  1  0.929700  0.901100  0.360600  1.0  0.1735
  H  H267  1  0.268700  0.724400  0.380300  1.0  0.171
  H  H268  1  0.229100  0.756500  0.339700  1.0  0.1623
  H  H269  1  0.293500  0.757300  0.329900  1.0  0.1703
  H  H270  1  0.890300  0.650800  0.651200  1.0  0.1314
  H  H271  1  0.946100  0.616800  0.651500  1.0  0.1384
  H  H272  1  0.930000  0.718500  0.597600  1.0  0.1297
  H  H273  1  0.963300  0.711300  0.652800  1.0  0.1248
  H  H274  1  0.037000  0.669300  0.604700  1.0  0.1415
  H  H275  1  0.024300  0.727800  0.578400  1.0  0.1195
  H  H276  1  0.827400  0.782500  0.498200  1.0  0.1256
  H  H277  1  0.866400  0.792200  0.549500  1.0  0.132
  H  H278  1  0.892400  0.815200  0.439400  1.0  0.1228
  H  H279  1  0.883100  0.859300  0.486400  1.0  0.1041
  H  H280  1  0.962600  0.824100  0.531200  1.0  0.1129
  H  H281  1  0.974700  0.854200  0.474700  1.0  0.1287
  H  H282  1  0.563700  0.684600  0.794100  1.0  0.1314
  H  H283  1  0.519500  0.672400  0.747900  1.0  0.1185
  H  H284  1  0.450300  0.677500  0.804400  1.0  0.1448
  H  H285  1  0.488500  0.726600  0.821400  1.0  0.1267
  H  H286  1  0.437600  0.680200  0.891600  1.0  0.1246
  H  H287  1  0.499300  0.696800  0.904800  1.0  0.1332
  H  H288  1  0.741600  0.733200  0.376700  1.0  0.1794
  H  H289  1  0.732400  0.677900  0.343300  1.0  0.176
  H  H290  1  0.696400  0.690400  0.396200  1.0  0.1646
  H  H291  1  0.465400  0.559400  0.677100  1.0  0.1608
  H  H292  1  0.440300  0.614300  0.701800  1.0  0.1573
  H  H293  1  0.429700  0.598900  0.639400  1.0  0.1727
  H  H294  1  0.768700  0.775600  0.619700  1.0  0.1702
  H  H295  1  0.729100  0.743500  0.660300  1.0  0.161
  H  H296  1  0.793500  0.742700  0.670100  1.0  0.1696
  H  H297  1  0.848800  0.109700  0.150800  1.0  0.1327
  H  H298  1  0.848500  0.053900  0.116800  1.0  0.1367
  H  H299  1  0.902400  0.070000  0.218500  1.0  0.1289
  H  H300  1  0.847200  0.036700  0.211300  1.0  0.1233
  H  H301  1  0.895300  0.963000  0.169300  1.0  0.1426
  H  H302  1  0.921600  0.975700  0.227800  1.0  0.1226
  H  H303  1  0.001800  0.172600  0.282500  1.0  0.1359
  H  H304  1  0.950500  0.133600  0.292200  1.0  0.1291
  H  H305  1  0.060600  0.107600  0.315200  1.0  0.1143
  H  H306  1  0.013600  0.116900  0.359300  1.0  0.1038
  H  H307  1  0.968800  0.037400  0.324100  1.0  0.1143
  H  H308  1  0.025300  0.025300  0.354200  1.0  0.1307
  H  H309  1  0.705900  0.436300  0.184600  1.0  0.1331
  H  H310  1  0.752100  0.480500  0.172400  1.0  0.1178
  H  H311  1  0.695600  0.549700  0.177500  1.0  0.1372
  H  H312  1  0.678600  0.511500  0.226600  1.0  0.1277
  H  H313  1  0.608400  0.562400  0.180200  1.0  0.1248
  H  H314  1  0.595200  0.500700  0.196800  1.0  0.1328
  H  H315  1  0.123300  0.258400  0.233200  1.0  0.1783
  H  H316  1  0.156700  0.267600  0.177900  1.0  0.1798
  H  H317  1  0.103800  0.303600  0.190400  1.0  0.167
  H  H318  1  0.822900  0.534600  0.059400  1.0  0.1592
  H  H319  1  0.798200  0.559700  0.114300  1.0  0.1563
  H  H320  1  0.860600  0.570300  0.098900  1.0  0.1733
  H  H321  1  0.880300  0.231300  0.275600  1.0  0.1711
  H  H322  1  0.839700  0.270900  0.243500  1.0  0.1653
  H  H323  1  0.829900  0.206500  0.242700  1.0  0.172
  H  H324  1  0.151200  0.609700  0.349200  1.0  0.1321
  H  H325  1  0.151500  0.553900  0.383200  1.0  0.1366
  H  H326  1  0.097600  0.570000  0.281500  1.0  0.129
  H  H327  1  0.152800  0.536700  0.288700  1.0  0.1226
  H  H328  1  0.104700  0.463000  0.330700  1.0  0.1435
  H  H329  1  0.078400  0.475700  0.272200  1.0  0.1203
  H  H330  1  0.998200  0.672600  0.217500  1.0  0.1351
  H  H331  1  0.049500  0.633600  0.207800  1.0  0.1311
  H  H332  1  0.939400  0.607600  0.184800  1.0  0.116
  H  H333  1  0.986400  0.616900  0.140700  1.0  0.1042
  H  H334  1  0.031200  0.537400  0.175900  1.0  0.118
  H  H335  1  0.974700  0.525300  0.145800  1.0  0.1299
  H  H336  1  0.294100  0.936300  0.315400  1.0  0.1307
  H  H337  1  0.247900  0.980500  0.327600  1.0  0.1162
  H  H338  1  0.304400  0.049700  0.322500  1.0  0.136
  H  H339  1  0.321400  0.011500  0.273400  1.0  0.1291
  H  H340  1  0.391600  0.062400  0.319800  1.0  0.1248
  H  H341  1  0.404800  0.000700  0.303200  1.0  0.1315
  H  H342  1  0.876700  0.758400  0.266800  1.0  0.1791
  H  H343  1  0.843300  0.767600  0.322100  1.0  0.1749
  H  H344  1  0.896200  0.803600  0.309600  1.0  0.1664
  H  H345  1  0.177100  0.034600  0.440600  1.0  0.1603
  H  H346  1  0.201800  0.059700  0.385700  1.0  0.1549
  H  H347  1  0.139400  0.070300  0.401100  1.0  0.1742
  H  H348  1  0.119700  0.731300  0.224400  1.0  0.1707
  H  H349  1  0.160300  0.770900  0.256500  1.0  0.165
  H  H350  1  0.170100  0.706500  0.257300  1.0  0.1715
  H  H351  1  0.348800  0.390300  0.849200  1.0  0.1321
  H  H352  1  0.348500  0.446100  0.883200  1.0  0.1365
  H  H353  1  0.402400  0.430000  0.781500  1.0  0.1293
  H  H354  1  0.347200  0.463300  0.788700  1.0  0.1224
  H  H355  1  0.395300  0.537000  0.830700  1.0  0.143
  H  H356  1  0.421600  0.524300  0.772200  1.0  0.1215
  H  H357  1  0.501800  0.327400  0.717500  1.0  0.1337
  H  H358  1  0.450500  0.366400  0.707800  1.0  0.1289
  H  H359  1  0.560600  0.392400  0.684800  1.0  0.1166
  H  H360  1  0.513600  0.383100  0.640700  1.0  0.1041
  H  H361  1  0.468800  0.462600  0.675900  1.0  0.1139
  H  H362  1  0.525300  0.474700  0.645800  1.0  0.1288
  H  H363  1  0.205900  0.063700  0.815400  1.0  0.1324
  H  H364  1  0.252100  0.019500  0.827600  1.0  0.1171
  H  H365  1  0.195600  0.950300  0.822500  1.0  0.1347
  H  H366  1  0.178600  0.988500  0.773400  1.0  0.1298
  H  H367  1  0.108400  0.937600  0.819800  1.0  0.1224
  H  H368  1  0.095200  0.999300  0.803200  1.0  0.1313
  H  H369  1  0.623300  0.241600  0.766800  1.0  0.18
  H  H370  1  0.656700  0.232400  0.822100  1.0  0.1791
  H  H371  1  0.603800  0.196400  0.809600  1.0  0.1671
  H  H372  1  0.322900  0.965400  0.940600  1.0  0.1601
  H  H373  1  0.298200  0.940300  0.885700  1.0  0.1571
  H  H374  1  0.360600  0.929700  0.901100  1.0  0.1729
  H  H375  1  0.380300  0.268700  0.724400  1.0  0.1687
  H  H376  1  0.339700  0.229100  0.756500  1.0  0.1652
  H  H377  1  0.329900  0.293500  0.757300  1.0  0.1714
  H  H378  1  0.651200  0.890300  0.650800  1.0  0.1316
  H  H379  1  0.651500  0.946100  0.616800  1.0  0.1365
  H  H380  1  0.597600  0.930000  0.718500  1.0  0.128
  H  H381  1  0.652800  0.963300  0.711300  1.0  0.1237
  H  H382  1  0.604700  0.037000  0.669300  1.0  0.1429
  H  H383  1  0.578400  0.024300  0.727800  1.0  0.12
  H  H384  1  0.498200  0.827400  0.782500  1.0  0.135
  H  H385  1  0.549500  0.866400  0.792200  1.0  0.1296
  H  H386  1  0.439400  0.892400  0.815200  1.0  0.1167
  H  H387  1  0.486400  0.883100  0.859300  1.0  0.1031
  H  H388  1  0.531200  0.962600  0.824100  1.0  0.1158
  H  H389  1  0.474700  0.974700  0.854200  1.0  0.1295
  H  H390  1  0.794100  0.563700  0.684600  1.0  0.1308
  H  H391  1  0.747900  0.519500  0.672400  1.0  0.1168
  H  H392  1  0.804400  0.450300  0.677500  1.0  0.1361
  H  H393  1  0.821400  0.488500  0.726600  1.0  0.1268
  H  H394  1  0.891600  0.437600  0.680200  1.0  0.1248
  H  H395  1  0.904800  0.499300  0.696800  1.0  0.132
  H  H396  1  0.376700  0.741600  0.733200  1.0  0.1798
  H  H397  1  0.343300  0.732400  0.677900  1.0  0.1761
  H  H398  1  0.396200  0.696400  0.690400  1.0  0.1671
  H  H399  1  0.677100  0.465400  0.559400  1.0  0.1603
  H  H400  1  0.701800  0.440300  0.614300  1.0  0.1557
  H  H401  1  0.639400  0.429700  0.598900  1.0  0.1733
  H  H402  1  0.619700  0.768700  0.775600  1.0  0.1696
  H  H403  1  0.660300  0.729100  0.743500  1.0  0.1651
  H  H404  1  0.670100  0.793500  0.742700  1.0  0.17
  C  C405  1  0.141800  0.870300  0.076800  1.0  0.0728
  C  C406  1  0.193700  0.882600  0.045200  1.0  -0.1134
  C  C407  1  0.190600  0.916100  0.990300  1.0  0.0539
  C  C408  1  0.281700  0.989400  0.134200  1.0  0.106
  C  C409  1  0.322400  0.021300  0.102400  1.0  -0.0809
  C  C410  1  0.321700  0.008800  0.042500  1.0  0.0688
  C  C411  1  0.164600  0.713800  0.470500  1.0  0.0611
  C  C412  1  0.186400  0.677100  0.514900  1.0  -0.0934
  C  C413  1  0.172900  0.618000  0.523900  1.0  0.0303
  C  C414  1  0.166500  0.085400  0.226000  1.0  0.7718
  C  C415  1  0.194400  0.120300  0.267500  1.0  -0.4238
  C  C416  1  0.128600  0.847200  0.492000  1.0  0.8146
  C  C417  1  0.097500  0.830700  0.543900  1.0  -0.3688
  C  C418  1  0.193500  0.892300  0.230600  1.0  0.762
  C  C419  1  0.243100  0.857600  0.235200  1.0  -0.3368
  C  C420  1  0.358200  0.129700  0.576800  1.0  0.0711
  C  C421  1  0.306300  0.117400  0.545200  1.0  -0.1162
  C  C422  1  0.309400  0.083900  0.490300  1.0  0.053
  C  C423  1  0.218300  0.010600  0.634200  1.0  0.1044
  C  C424  1  0.177600  0.978700  0.602400  1.0  -0.083
  C  C425  1  0.178300  0.991200  0.542500  1.0  0.069
  C  C426  1  0.335400  0.286200  0.970500  1.0  0.0607
  C  C427  1  0.313600  0.322900  0.014900  1.0  -0.0927
  C  C428  1  0.327100  0.382000  0.023900  1.0  0.0265
  C  C429  1  0.333500  0.914600  0.726000  1.0  0.7722
  C  C430  1  0.305600  0.879700  0.767500  1.0  -0.4231
  C  C431  1  0.371400  0.152800  0.992000  1.0  0.8135
  C  C432  1  0.402500  0.169300  0.043900  1.0  -0.3686
  C  C433  1  0.306500  0.107700  0.730600  1.0  0.7621
  C  C434  1  0.256900  0.142400  0.735200  1.0  -0.3362
  C  C435  1  0.858200  0.370300  0.423200  1.0  0.0738
  C  C436  1  0.806300  0.382600  0.454800  1.0  -0.1128
  C  C437  1  0.809400  0.416100  0.509700  1.0  0.053
  C  C438  1  0.718300  0.489400  0.365800  1.0  0.1049
  C  C439  1  0.677600  0.521300  0.397600  1.0  -0.0851
  C  C440  1  0.678300  0.508800  0.457500  1.0  0.0703
  C  C441  1  0.835400  0.213800  0.029500  1.0  0.059
  C  C442  1  0.813600  0.177100  0.985100  1.0  -0.0919
  C  C443  1  0.827100  0.118000  0.976100  1.0  0.0283
  C  C444  1  0.833500  0.585400  0.274000  1.0  0.7707
  C  C445  1  0.805600  0.620300  0.232500  1.0  -0.4234
  C  C446  1  0.871400  0.347200  0.008000  1.0  0.8142
  C  C447  1  0.902500  0.330700  0.956100  1.0  -0.3681
  C  C448  1  0.806500  0.392300  0.269400  1.0  0.7629
  C  C449  1  0.756900  0.357600  0.264800  1.0  -0.3345
  C  C450  1  0.641800  0.629700  0.923200  1.0  0.0707
  C  C451  1  0.693700  0.617400  0.954800  1.0  -0.1174
  C  C452  1  0.690600  0.583900  0.009700  1.0  0.0529
  C  C453  1  0.781700  0.510600  0.865800  1.0  0.1052
  C  C454  1  0.822400  0.478700  0.897600  1.0  -0.0843
  C  C455  1  0.821700  0.491200  0.957500  1.0  0.0712
  C  C456  1  0.664600  0.786200  0.529500  1.0  0.0591
  C  C457  1  0.686400  0.822900  0.485100  1.0  -0.0924
  C  C458  1  0.672900  0.882000  0.476100  1.0  0.0291
  C  C459  1  0.666500  0.414600  0.774000  1.0  0.7715
  C  C460  1  0.694400  0.379700  0.732500  1.0  -0.4234
  C  C461  1  0.628600  0.652800  0.508000  1.0  0.8151
  C  C462  1  0.597500  0.669300  0.456100  1.0  -0.368
  C  C463  1  0.693500  0.607700  0.769400  1.0  0.7618
  C  C464  1  0.743100  0.642400  0.764800  1.0  -0.3356
  C  C465  1  0.076800  0.141800  0.870300  1.0  0.066
  C  C466  1  0.045200  0.193700  0.882600  1.0  -0.1209
  C  C467  1  0.990300  0.190600  0.916100  1.0  0.0578
  C  C468  1  0.134200  0.281700  0.989400  1.0  0.1048
  C  C469  1  0.102400  0.322400  0.021300  1.0  -0.0819
  C  C470  1  0.042500  0.321700  0.008800  1.0  0.0742
  C  C471  1  0.470500  0.164600  0.713800  1.0  0.0614
  C  C472  1  0.514900  0.186400  0.677100  1.0  -0.0929
  C  C473  1  0.523900  0.172900  0.618000  1.0  0.0263
  C  C474  1  0.226000  0.166500  0.085400  1.0  0.7714
  C  C475  1  0.267500  0.194400  0.120300  1.0  -0.4209
  C  C476  1  0.492000  0.128600  0.847200  1.0  0.8181
  C  C477  1  0.543900  0.097500  0.830700  1.0  -0.3695
  C  C478  1  0.230600  0.193500  0.892300  1.0  0.764
  C  C479  1  0.235200  0.243100  0.857600  1.0  -0.332
  C  C480  1  0.576800  0.358200  0.129700  1.0  0.0619
  C  C481  1  0.545200  0.306300  0.117400  1.0  -0.1223
  C  C482  1  0.490300  0.309400  0.083900  1.0  0.0547
  C  C483  1  0.634200  0.218300  0.010600  1.0  0.1055
  C  C484  1  0.602400  0.177600  0.978700  1.0  -0.0781
  C  C485  1  0.542500  0.178300  0.991200  1.0  0.0738
  C  C486  1  0.970500  0.335400  0.286200  1.0  0.0614
  C  C487  1  0.014900  0.313600  0.322900  1.0  -0.0916
  C  C488  1  0.023900  0.327100  0.382000  1.0  0.0289
  C  C489  1  0.726000  0.333500  0.914600  1.0  0.7721
  C  C490  1  0.767500  0.305600  0.879700  1.0  -0.4224
  C  C491  1  0.992000  0.371400  0.152800  1.0  0.8178
  C  C492  1  0.043900  0.402500  0.169300  1.0  -0.3691
  C  C493  1  0.730600  0.306500  0.107700  1.0  0.7654
  C  C494  1  0.735200  0.256900  0.142400  1.0  -0.3319
  C  C495  1  0.423200  0.858200  0.370300  1.0  0.0684
  C  C496  1  0.454800  0.806300  0.382600  1.0  -0.1226
  C  C497  1  0.509700  0.809400  0.416100  1.0  0.0619
  C  C498  1  0.365800  0.718300  0.489400  1.0  0.1054
  C  C499  1  0.397600  0.677600  0.521300  1.0  -0.0776
  C  C500  1  0.457500  0.678300  0.508800  1.0  0.0735
  C  C501  1  0.029500  0.835400  0.213800  1.0  0.0618
  C  C502  1  0.985100  0.813600  0.177100  1.0  -0.091
  C  C503  1  0.976100  0.827100  0.118000  1.0  0.0259
  C  C504  1  0.274000  0.833500  0.585400  1.0  0.7719
  C  C505  1  0.232500  0.805600  0.620300  1.0  -0.421
  C  C506  1  0.008000  0.871400  0.347200  1.0  0.8164
  C  C507  1  0.956100  0.902500  0.330700  1.0  -0.3677
  C  C508  1  0.269400  0.806500  0.392300  1.0  0.7645
  C  C509  1  0.264800  0.756900  0.357600  1.0  -0.3335
  C  C510  1  0.923200  0.641800  0.629700  1.0  0.063
  C  C511  1  0.954800  0.693700  0.617400  1.0  -0.1221
  C  C512  1  0.009700  0.690600  0.583900  1.0  0.0573
  C  C513  1  0.865800  0.781700  0.510600  1.0  0.1062
  C  C514  1  0.897600  0.822400  0.478700  1.0  -0.0826
  C  C515  1  0.957500  0.821700  0.491200  1.0  0.0754
  C  C516  1  0.529500  0.664600  0.786200  1.0  0.062
  C  C517  1  0.485100  0.686400  0.822900  1.0  -0.0929
  C  C518  1  0.476100  0.672900  0.882000  1.0  0.0276
  C  C519  1  0.774000  0.666500  0.414600  1.0  0.7714
  C  C520  1  0.732500  0.694400  0.379700  1.0  -0.4205
  C  C521  1  0.508000  0.628600  0.652800  1.0  0.8147
  C  C522  1  0.456100  0.597500  0.669300  1.0  -0.3697
  C  C523  1  0.769400  0.693500  0.607700  1.0  0.7638
  C  C524  1  0.764800  0.743100  0.642400  1.0  -0.3343
  C  C525  1  0.870300  0.076800  0.141800  1.0  0.0709
  C  C526  1  0.882600  0.045200  0.193700  1.0  -0.1172
  C  C527  1  0.916100  0.990300  0.190600  1.0  0.0543
  C  C528  1  0.989400  0.134200  0.281700  1.0  0.1045
  C  C529  1  0.021300  0.102400  0.322400  1.0  -0.0858
  C  C530  1  0.008800  0.042500  0.321700  1.0  0.0693
  C  C531  1  0.713800  0.470500  0.164600  1.0  0.0586
  C  C532  1  0.677100  0.514900  0.186400  1.0  -0.0937
  C  C533  1  0.618000  0.523900  0.172900  1.0  0.028
  C  C534  1  0.085400  0.226000  0.166500  1.0  0.773
  C  C535  1  0.120300  0.267500  0.194400  1.0  -0.4243
  C  C536  1  0.847200  0.492000  0.128600  1.0  0.8132
  C  C537  1  0.830700  0.543900  0.097500  1.0  -0.3676
  C  C538  1  0.892300  0.230600  0.193500  1.0  0.7683
  C  C539  1  0.857600  0.235200  0.243100  1.0  -0.334
  C  C540  1  0.129700  0.576800  0.358200  1.0  0.0717
  C  C541  1  0.117400  0.545200  0.306300  1.0  -0.1217
  C  C542  1  0.083900  0.490300  0.309400  1.0  0.0542
  C  C543  1  0.010600  0.634200  0.218300  1.0  0.1056
  C  C544  1  0.978700  0.602400  0.177600  1.0  -0.084
  C  C545  1  0.991200  0.542500  0.178300  1.0  0.069
  C  C546  1  0.286200  0.970500  0.335400  1.0  0.0575
  C  C547  1  0.322900  0.014900  0.313600  1.0  -0.0924
  C  C548  1  0.382000  0.023900  0.327100  1.0  0.0305
  C  C549  1  0.914600  0.726000  0.333500  1.0  0.7724
  C  C550  1  0.879700  0.767500  0.305600  1.0  -0.4233
  C  C551  1  0.152800  0.992000  0.371400  1.0  0.8147
  C  C552  1  0.169300  0.043900  0.402500  1.0  -0.3667
  C  C553  1  0.107700  0.730600  0.306500  1.0  0.7653
  C  C554  1  0.142400  0.735200  0.256900  1.0  -0.3372
  C  C555  1  0.370300  0.423200  0.858200  1.0  0.0708
  C  C556  1  0.382600  0.454800  0.806300  1.0  -0.1182
  C  C557  1  0.416100  0.509700  0.809400  1.0  0.0536
  C  C558  1  0.489400  0.365800  0.718300  1.0  0.1068
  C  C559  1  0.521300  0.397600  0.677600  1.0  -0.0843
  C  C560  1  0.508800  0.457500  0.678300  1.0  0.071
  C  C561  1  0.213800  0.029500  0.835400  1.0  0.0593
  C  C562  1  0.177100  0.985100  0.813600  1.0  -0.0916
  C  C563  1  0.118000  0.976100  0.827100  1.0  0.0295
  C  C564  1  0.585400  0.274000  0.833500  1.0  0.7729
  C  C565  1  0.620300  0.232500  0.805600  1.0  -0.4245
  C  C566  1  0.347200  0.008000  0.871400  1.0  0.8132
  C  C567  1  0.330700  0.956100  0.902500  1.0  -0.3687
  C  C568  1  0.392300  0.269400  0.806500  1.0  0.7651
  C  C569  1  0.357600  0.264800  0.756900  1.0  -0.3353
  C  C570  1  0.629700  0.923200  0.641800  1.0  0.0714
  C  C571  1  0.617400  0.954800  0.693700  1.0  -0.1209
  C  C572  1  0.583900  0.009700  0.690600  1.0  0.0546
  C  C573  1  0.510600  0.865800  0.781700  1.0  0.1042
  C  C574  1  0.478700  0.897600  0.822400  1.0  -0.0817
  C  C575  1  0.491200  0.957500  0.821700  1.0  0.0708
  C  C576  1  0.786200  0.529500  0.664600  1.0  0.0589
  C  C577  1  0.822900  0.485100  0.686400  1.0  -0.0941
  C  C578  1  0.882000  0.476100  0.672900  1.0  0.03
  C  C579  1  0.414600  0.774000  0.666500  1.0  0.7721
  C  C580  1  0.379700  0.732500  0.694400  1.0  -0.4243
  C  C581  1  0.652800  0.508000  0.628600  1.0  0.8156
  C  C582  1  0.669300  0.456100  0.597500  1.0  -0.3697
  C  C583  1  0.607700  0.769400  0.693500  1.0  0.768
  C  C584  1  0.642400  0.764800  0.743100  1.0  -0.3351
  O  O585  1  0.115000  0.921700  0.092900  1.0  -0.6819
  O  O586  1  0.164700  0.969200  0.999500  1.0  -0.7041
  O  O587  1  0.227400  0.994700  0.113600  1.0  -0.5667
  O  O588  1  0.272400  0.029000  0.014300  1.0  -0.5683
  O  O589  1  0.108300  0.708900  0.460100  1.0  -0.5627
  O  O590  1  0.116400  0.606400  0.511200  1.0  -0.6069
  O  O591  1  0.188100  0.039600  0.213200  1.0  -0.5655
  O  O592  1  0.121000  0.101000  0.204600  1.0  -0.6479
  O  O593  1  0.107900  0.834400  0.445400  1.0  -0.661
  O  O594  1  0.175200  0.869800  0.497800  1.0  -0.5685
  O  O595  1  0.155600  0.891200  0.267800  1.0  -0.6474
  O  O596  1  0.189500  0.923200  0.189000  1.0  -0.6107
  O  O597  1  0.057200  0.906400  0.982200  1.0  -0.7185
  O  O598  1  0.081900  0.985900  0.183200  1.0  -0.8746
  O  O599  1  0.134400  0.032700  0.088600  1.0  -0.8602
  O  O600  1  0.075400  0.024300  0.978000  1.0  -0.9255
  O  O601  1  0.151600  0.503700  0.583400  1.0  -0.269
  O  O602  1  0.385000  0.078300  0.592900  1.0  -0.6802
  O  O603  1  0.335300  0.030800  0.499500  1.0  -0.7058
  O  O604  1  0.272600  0.005300  0.613600  1.0  -0.5669
  O  O605  1  0.227600  0.971000  0.514300  1.0  -0.5677
  O  O606  1  0.391700  0.291100  0.960100  1.0  -0.5643
  O  O607  1  0.383600  0.393600  0.011200  1.0  -0.6101
  O  O608  1  0.311900  0.960400  0.713200  1.0  -0.5657
  O  O609  1  0.379000  0.899000  0.704600  1.0  -0.6491
  O  O610  1  0.392100  0.165600  0.945400  1.0  -0.6609
  O  O611  1  0.324800  0.130200  0.997800  1.0  -0.5677
  O  O612  1  0.344400  0.108800  0.767800  1.0  -0.6483
  O  O613  1  0.310500  0.076800  0.689000  1.0  -0.6113
  O  O614  1  0.442800  0.093600  0.482200  1.0  -0.7213
  O  O615  1  0.418100  0.014100  0.683200  1.0  -0.8743
  O  O616  1  0.365600  0.967300  0.588600  1.0  -0.8594
  O  O617  1  0.424600  0.975700  0.478000  1.0  -0.9245
  O  O618  1  0.348400  0.496300  0.083400  1.0  -0.2685
  O  O619  1  0.885000  0.421700  0.407100  1.0  -0.6799
  O  O620  1  0.835300  0.469200  0.500500  1.0  -0.7035
  O  O621  1  0.772600  0.494700  0.386400  1.0  -0.5665
  O  O622  1  0.727600  0.529000  0.485700  1.0  -0.5679
  O  O623  1  0.891700  0.208900  0.039900  1.0  -0.5644
  O  O624  1  0.883600  0.106400  0.988800  1.0  -0.6068
  O  O625  1  0.811900  0.539600  0.286800  1.0  -0.5657
  O  O626  1  0.879000  0.601000  0.295400  1.0  -0.649
  O  O627  1  0.892100  0.334400  0.054600  1.0  -0.6601
  O  O628  1  0.824800  0.369800  0.002200  1.0  -0.5671
  O  O629  1  0.844400  0.391200  0.232200  1.0  -0.6498
  O  O630  1  0.810500  0.423200  0.311000  1.0  -0.6116
  O  O631  1  0.942800  0.406400  0.517800  1.0  -0.7198
  O  O632  1  0.918100  0.485900  0.316800  1.0  -0.8743
  O  O633  1  0.865600  0.532700  0.411400  1.0  -0.8595
  O  O634  1  0.924600  0.524300  0.522000  1.0  -0.9239
  O  O635  1  0.848400  0.003700  0.916600  1.0  -0.2689
  O  O636  1  0.615000  0.578300  0.907100  1.0  -0.6813
  O  O637  1  0.664700  0.530800  0.000500  1.0  -0.7046
  O  O638  1  0.727400  0.505300  0.886400  1.0  -0.5666
  O  O639  1  0.772400  0.471000  0.985700  1.0  -0.5684
  O  O640  1  0.608300  0.791100  0.539900  1.0  -0.5631
  O  O641  1  0.616400  0.893600  0.488800  1.0  -0.6077
  O  O642  1  0.688100  0.460400  0.786800  1.0  -0.5652
  O  O643  1  0.621000  0.399000  0.795400  1.0  -0.649
  O  O644  1  0.607900  0.665600  0.554600  1.0  -0.661
  O  O645  1  0.675200  0.630200  0.502200  1.0  -0.568
  O  O646  1  0.655600  0.608800  0.732200  1.0  -0.648
  O  O647  1  0.689500  0.576800  0.811000  1.0  -0.6112
  O  O648  1  0.557200  0.593600  0.017800  1.0  -0.7189
  O  O649  1  0.581900  0.514100  0.816800  1.0  -0.8739
  O  O650  1  0.634400  0.467300  0.911400  1.0  -0.8592
  O  O651  1  0.575400  0.475700  0.022000  1.0  -0.9268
  O  O652  1  0.651600  0.996300  0.416600  1.0  -0.2687
  O  O653  1  0.092900  0.115000  0.921700  1.0  -0.6818
  O  O654  1  0.999500  0.164700  0.969200  1.0  -0.7064
  O  O655  1  0.113600  0.227400  0.994700  1.0  -0.5669
  O  O656  1  0.014300  0.272400  0.029000  1.0  -0.5694
  O  O657  1  0.460100  0.108300  0.708900  1.0  -0.5646
  O  O658  1  0.511200  0.116400  0.606400  1.0  -0.6077
  O  O659  1  0.213200  0.188100  0.039600  1.0  -0.5649
  O  O660  1  0.204600  0.121000  0.101000  1.0  -0.6484
  O  O661  1  0.445400  0.107900  0.834400  1.0  -0.6594
  O  O662  1  0.497800  0.175200  0.869800  1.0  -0.5659
  O  O663  1  0.267800  0.155600  0.891200  1.0  -0.6507
  O  O664  1  0.189000  0.189500  0.923200  1.0  -0.6116
  O  O665  1  0.982200  0.057200  0.906400  1.0  -0.7214
  O  O666  1  0.183200  0.081900  0.985900  1.0  -0.8741
  O  O667  1  0.088600  0.134400  0.032700  1.0  -0.8602
  O  O668  1  0.978000  0.075400  0.024300  1.0  -0.9266
  O  O669  1  0.583400  0.151600  0.503700  1.0  -0.2684
  O  O670  1  0.592900  0.385000  0.078300  1.0  -0.6801
  O  O671  1  0.499500  0.335300  0.030800  1.0  -0.7069
  O  O672  1  0.613600  0.272600  0.005300  1.0  -0.5667
  O  O673  1  0.514300  0.227600  0.971000  1.0  -0.5694
  O  O674  1  0.960100  0.391700  0.291100  1.0  -0.5644
  O  O675  1  0.011200  0.383600  0.393600  1.0  -0.6071
  O  O676  1  0.713200  0.311900  0.960400  1.0  -0.5657
  O  O677  1  0.704600  0.379000  0.899000  1.0  -0.6479
  O  O678  1  0.945400  0.392100  0.165600  1.0  -0.6601
  O  O679  1  0.997800  0.324800  0.130200  1.0  -0.5663
  O  O680  1  0.767800  0.344400  0.108800  1.0  -0.6505
  O  O681  1  0.689000  0.310500  0.076800  1.0  -0.6105
  O  O682  1  0.482200  0.442800  0.093600  1.0  -0.7085
  O  O683  1  0.683200  0.418100  0.014100  1.0  -0.8743
  O  O684  1  0.588600  0.365600  0.967300  1.0  -0.8603
  O  O685  1  0.478000  0.424600  0.975700  1.0  -0.9272
  O  O686  1  0.083400  0.348400  0.496300  1.0  -0.2677
  O  O687  1  0.407100  0.885000  0.421700  1.0  -0.6834
  O  O688  1  0.500500  0.835300  0.469200  1.0  -0.7056
  O  O689  1  0.386400  0.772600  0.494700  1.0  -0.566
  O  O690  1  0.485700  0.727600  0.529000  1.0  -0.5685
  O  O691  1  0.039900  0.891700  0.208900  1.0  -0.5645
  O  O692  1  0.988800  0.883600  0.106400  1.0  -0.6082
  O  O693  1  0.286800  0.811900  0.539600  1.0  -0.5649
  O  O694  1  0.295400  0.879000  0.601000  1.0  -0.649
  O  O695  1  0.054600  0.892100  0.334400  1.0  -0.6601
  O  O696  1  0.002200  0.824800  0.369800  1.0  -0.5666
  O  O697  1  0.232200  0.844400  0.391200  1.0  -0.6497
  O  O698  1  0.311000  0.810500  0.423200  1.0  -0.6115
  O  O699  1  0.517800  0.942800  0.406400  1.0  -0.7191
  O  O700  1  0.316800  0.918100  0.485900  1.0  -0.874
  O  O701  1  0.411400  0.865600  0.532700  1.0  -0.8604
  O  O702  1  0.522000  0.924600  0.524300  1.0  -0.9251
  O  O703  1  0.916600  0.848400  0.003700  1.0  -0.2687
  O  O704  1  0.907100  0.615000  0.578300  1.0  -0.6799
  O  O705  1  0.000500  0.664700  0.530800  1.0  -0.7048
  O  O706  1  0.886400  0.727400  0.505300  1.0  -0.5677
  O  O707  1  0.985700  0.772400  0.471000  1.0  -0.5692
  O  O708  1  0.539900  0.608300  0.791100  1.0  -0.5647
  O  O709  1  0.488800  0.616400  0.893600  1.0  -0.6076
  O  O710  1  0.786800  0.688100  0.460400  1.0  -0.5662
  O  O711  1  0.795400  0.621000  0.399000  1.0  -0.6494
  O  O712  1  0.554600  0.607900  0.665600  1.0  -0.6609
  O  O713  1  0.502200  0.675200  0.630200  1.0  -0.5672
  O  O714  1  0.732200  0.655600  0.608800  1.0  -0.6501
  O  O715  1  0.811000  0.689500  0.576800  1.0  -0.611
  O  O716  1  0.017800  0.557200  0.593600  1.0  -0.7088
  O  O717  1  0.816800  0.581900  0.514100  1.0  -0.8743
  O  O718  1  0.911400  0.634400  0.467300  1.0  -0.8603
  O  O719  1  0.022000  0.575400  0.475700  1.0  -0.924
  O  O720  1  0.416600  0.651600  0.996300  1.0  -0.2687
  O  O721  1  0.921700  0.092900  0.115000  1.0  -0.6818
  O  O722  1  0.969200  0.999500  0.164700  1.0  -0.7061
  O  O723  1  0.994700  0.113600  0.227400  1.0  -0.5692
  O  O724  1  0.029000  0.014300  0.272400  1.0  -0.5675
  O  O725  1  0.708900  0.460100  0.108300  1.0  -0.5623
  O  O726  1  0.606400  0.511200  0.116400  1.0  -0.6077
  O  O727  1  0.039600  0.213200  0.188100  1.0  -0.5646
  O  O728  1  0.101000  0.204600  0.121000  1.0  -0.6497
  O  O729  1  0.834400  0.445400  0.107900  1.0  -0.6608
  O  O730  1  0.869800  0.497800  0.175200  1.0  -0.5689
  O  O731  1  0.891200  0.267800  0.155600  1.0  -0.6506
  O  O732  1  0.923200  0.189000  0.189500  1.0  -0.6106
  O  O733  1  0.906400  0.982200  0.057200  1.0  -0.7176
  O  O734  1  0.985900  0.183200  0.081900  1.0  -0.8733
  O  O735  1  0.032700  0.088600  0.134400  1.0  -0.8614
  O  O736  1  0.024300  0.978000  0.075400  1.0  -0.9247
  O  O737  1  0.503700  0.583400  0.151600  1.0  -0.269
  O  O738  1  0.078300  0.592900  0.385000  1.0  -0.6798
  O  O739  1  0.030800  0.499500  0.335300  1.0  -0.706
  O  O740  1  0.005300  0.613600  0.272600  1.0  -0.566
  O  O741  1  0.971000  0.514300  0.227600  1.0  -0.5676
  O  O742  1  0.291100  0.960100  0.391700  1.0  -0.5615
  O  O743  1  0.393600  0.011200  0.383600  1.0  -0.607
  O  O744  1  0.960400  0.713200  0.311900  1.0  -0.5644
  O  O745  1  0.899000  0.704600  0.379000  1.0  -0.6495
  O  O746  1  0.165600  0.945400  0.392100  1.0  -0.6602
  O  O747  1  0.130200  0.997800  0.324800  1.0  -0.5674
  O  O748  1  0.108800  0.767800  0.344400  1.0  -0.6495
  O  O749  1  0.076800  0.689000  0.310500  1.0  -0.6107
  O  O750  1  0.093600  0.482200  0.442800  1.0  -0.7195
  O  O751  1  0.014100  0.683200  0.418100  1.0  -0.8731
  O  O752  1  0.967300  0.588600  0.365600  1.0  -0.8609
  O  O753  1  0.975700  0.478000  0.424600  1.0  -0.9221
  O  O754  1  0.496300  0.083400  0.348400  1.0  -0.2676
  O  O755  1  0.421700  0.407100  0.885000  1.0  -0.6829
  O  O756  1  0.469200  0.500500  0.835300  1.0  -0.7076
  O  O757  1  0.494700  0.386400  0.772600  1.0  -0.5662
  O  O758  1  0.529000  0.485700  0.727600  1.0  -0.5686
  O  O759  1  0.208900  0.039900  0.891700  1.0  -0.5616
  O  O760  1  0.106400  0.988800  0.883600  1.0  -0.6074
  O  O761  1  0.539600  0.286800  0.811900  1.0  -0.5642
  O  O762  1  0.601000  0.295400  0.879000  1.0  -0.6492
  O  O763  1  0.334400  0.054600  0.892100  1.0  -0.6608
  O  O764  1  0.369800  0.002200  0.824800  1.0  -0.5678
  O  O765  1  0.391200  0.232200  0.844400  1.0  -0.6504
  O  O766  1  0.423200  0.311000  0.810500  1.0  -0.6116
  O  O767  1  0.406400  0.517800  0.942800  1.0  -0.7172
  O  O768  1  0.485900  0.316800  0.918100  1.0  -0.8735
  O  O769  1  0.532700  0.411400  0.865600  1.0  -0.8612
  O  O770  1  0.524300  0.522000  0.924600  1.0  -0.9255
  O  O771  1  0.003700  0.916600  0.848400  1.0  -0.2674
  O  O772  1  0.578300  0.907100  0.615000  1.0  -0.6805
  O  O773  1  0.530800  0.000500  0.664700  1.0  -0.7072
  O  O774  1  0.505300  0.886400  0.727400  1.0  -0.5676
  O  O775  1  0.471000  0.985700  0.772400  1.0  -0.5674
  O  O776  1  0.791100  0.539900  0.608300  1.0  -0.562
  O  O777  1  0.893600  0.488800  0.616400  1.0  -0.6073
  O  O778  1  0.460400  0.786800  0.688100  1.0  -0.564
  O  O779  1  0.399000  0.795400  0.621000  1.0  -0.6499
  O  O780  1  0.665600  0.554600  0.607900  1.0  -0.662
  O  O781  1  0.630200  0.502200  0.675200  1.0  -0.5682
  O  O782  1  0.608800  0.732200  0.655600  1.0  -0.6497
  O  O783  1  0.576800  0.811000  0.689500  1.0  -0.6099
  O  O784  1  0.593600  0.017800  0.557200  1.0  -0.7203
  O  O785  1  0.514100  0.816800  0.581900  1.0  -0.8733
  O  O786  1  0.467300  0.911400  0.634400  1.0  -0.8619
  O  O787  1  0.475700  0.022000  0.575400  1.0  -0.9226
  O  O788  1  0.996300  0.416600  0.651600  1.0  -0.2681
  O  O789  1  0.039800  0.460200  0.539800  1.0  -0.7912
  O  O790  1  0.460200  0.539800  0.039800  1.0  -0.7917
  O  O791  1  0.960200  0.960200  0.960200  1.0  -0.7917
  O  O792  1  0.539800  0.039800  0.460200  1.0  -0.7939
