# generated using pymatgen
data_Co10H57C50N4O19
_symmetry_space_group_name_H-M   'P 1'
_cell_length_a   26.45290000
_cell_length_b   26.45290000
_cell_length_c   26.45290000
_cell_angle_alpha   90.00000000
_cell_angle_beta   90.00000000
_cell_angle_gamma   90.00000000
_symmetry_Int_Tables_number   1
_chemical_formula_structural   Co10H57C50N4O19
_chemical_formula_sum   'Co80 H456 C400 N32 O152'
_cell_volume   18510.57333411
_cell_formula_units_Z   8
loop_
 _symmetry_equiv_pos_site_id
 _symmetry_equiv_pos_as_xyz
  1  'x, y, z'
loop_
 _atom_site_type_symbol
 _atom_site_label
 _atom_site_symmetry_multiplicity
 _atom_site_fract_x
 _atom_site_fract_y
 _atom_site_fract_z
 _atom_site_occupancy
 _atom_site_charge
  Co  Co1  1  0.838510  0.868000  0.775240  1.0  0.8681
  Co  Co2  1  0.824650  0.760180  0.732070  1.0  0.8614
  Co  Co3  1  0.789480  0.856310  0.668360  1.0  0.8037
  Co  Co4  1  0.661490  0.132000  0.275240  1.0  0.8623
  Co  Co5  1  0.675350  0.239820  0.232070  1.0  0.8631
  Co  Co6  1  0.710520  0.143690  0.168360  1.0  0.8022
  Co  Co7  1  0.161490  0.368000  0.724760  1.0  0.8678
  Co  Co8  1  0.175350  0.260180  0.767930  1.0  0.8633
  Co  Co9  1  0.210520  0.356310  0.831640  1.0  0.8044
  Co  Co10  1  0.338510  0.632000  0.224760  1.0  0.8625
  Co  Co11  1  0.324650  0.739820  0.267930  1.0  0.8609
  Co  Co12  1  0.289480  0.643690  0.331640  1.0  0.8015
  Co  Co13  1  0.775240  0.838510  0.868000  1.0  0.8653
  Co  Co14  1  0.732070  0.824650  0.760180  1.0  0.8645
  Co  Co15  1  0.668360  0.789480  0.856310  1.0  0.8086
  Co  Co16  1  0.275240  0.661490  0.132000  1.0  0.8627
  Co  Co17  1  0.232070  0.675350  0.239820  1.0  0.8649
  Co  Co18  1  0.168360  0.710520  0.143690  1.0  0.8074
  Co  Co19  1  0.724760  0.161490  0.368000  1.0  0.8642
  Co  Co20  1  0.767930  0.175350  0.260180  1.0  0.8647
  Co  Co21  1  0.831640  0.210520  0.356310  1.0  0.8098
  Co  Co22  1  0.224760  0.338510  0.632000  1.0  0.8666
  Co  Co23  1  0.267930  0.324650  0.739820  1.0  0.864
  Co  Co24  1  0.331640  0.289480  0.643690  1.0  0.8138
  Co  Co25  1  0.868000  0.775240  0.838510  1.0  0.8669
  Co  Co26  1  0.760180  0.732070  0.824650  1.0  0.8653
  Co  Co27  1  0.856310  0.668360  0.789480  1.0  0.8063
  Co  Co28  1  0.132000  0.275240  0.661490  1.0  0.8677
  Co  Co29  1  0.239820  0.232070  0.675350  1.0  0.8649
  Co  Co30  1  0.143690  0.168360  0.710520  1.0  0.8061
  Co  Co31  1  0.368000  0.724760  0.161490  1.0  0.8667
  Co  Co32  1  0.260180  0.767930  0.175350  1.0  0.8641
  Co  Co33  1  0.356310  0.831640  0.210520  1.0  0.8149
  Co  Co34  1  0.632000  0.224760  0.338510  1.0  0.8668
  Co  Co35  1  0.739820  0.267930  0.324650  1.0  0.8668
  Co  Co36  1  0.643690  0.331640  0.289480  1.0  0.8111
  Co  Co37  1  0.161490  0.132000  0.224760  1.0  0.8627
  Co  Co38  1  0.175350  0.239820  0.267930  1.0  0.863
  Co  Co39  1  0.210520  0.143690  0.331640  1.0  0.8016
  Co  Co40  1  0.338510  0.868000  0.724760  1.0  0.8682
  Co  Co41  1  0.324650  0.760180  0.767930  1.0  0.8613
  Co  Co42  1  0.289480  0.856310  0.831640  1.0  0.8038
  Co  Co43  1  0.838510  0.632000  0.275240  1.0  0.8624
  Co  Co44  1  0.824650  0.739820  0.232070  1.0  0.8609
  Co  Co45  1  0.789480  0.643690  0.168360  1.0  0.8013
  Co  Co46  1  0.661490  0.368000  0.775240  1.0  0.8675
  Co  Co47  1  0.675350  0.260180  0.732070  1.0  0.8634
  Co  Co48  1  0.710520  0.356310  0.668360  1.0  0.8046
  Co  Co49  1  0.224760  0.161490  0.132000  1.0  0.8624
  Co  Co50  1  0.267930  0.175350  0.239820  1.0  0.8646
  Co  Co51  1  0.331640  0.210520  0.143690  1.0  0.8102
  Co  Co52  1  0.724760  0.338510  0.868000  1.0  0.8669
  Co  Co53  1  0.767930  0.324650  0.760180  1.0  0.864
  Co  Co54  1  0.831640  0.289480  0.856310  1.0  0.8122
  Co  Co55  1  0.275240  0.838510  0.632000  1.0  0.8669
  Co  Co56  1  0.232070  0.824650  0.739820  1.0  0.8644
  Co  Co57  1  0.168360  0.789480  0.643690  1.0  0.8101
  Co  Co58  1  0.775240  0.661490  0.368000  1.0  0.8624
  Co  Co59  1  0.732070  0.675350  0.260180  1.0  0.8651
  Co  Co60  1  0.668360  0.710520  0.356310  1.0  0.8071
  Co  Co61  1  0.132000  0.224760  0.161490  1.0  0.8684
  Co  Co62  1  0.239820  0.267930  0.175350  1.0  0.8651
  Co  Co63  1  0.143690  0.331640  0.210520  1.0  0.8121
  Co  Co64  1  0.868000  0.724760  0.338510  1.0  0.8673
  Co  Co65  1  0.760180  0.767930  0.324650  1.0  0.8657
  Co  Co66  1  0.856310  0.831640  0.289480  1.0  0.8129
  Co  Co67  1  0.632000  0.275240  0.838510  1.0  0.8667
  Co  Co68  1  0.739820  0.232070  0.824650  1.0  0.8664
  Co  Co69  1  0.643690  0.168360  0.789480  1.0  0.8064
  Co  Co70  1  0.368000  0.775240  0.661490  1.0  0.8659
  Co  Co71  1  0.260180  0.732070  0.675350  1.0  0.8638
  Co  Co72  1  0.356310  0.668360  0.710520  1.0  0.8074
  Co  Co73  1  0.882230  0.882230  0.882230  1.0  0.6137
  Co  Co74  1  0.617770  0.117770  0.382230  1.0  0.6083
  Co  Co75  1  0.117770  0.382230  0.617770  1.0  0.6087
  Co  Co76  1  0.382230  0.617770  0.117770  1.0  0.6148
  Co  Co77  1  0.117770  0.117770  0.117770  1.0  0.6182
  Co  Co78  1  0.382230  0.882230  0.617770  1.0  0.6096
  Co  Co79  1  0.882230  0.617770  0.382230  1.0  0.6069
  Co  Co80  1  0.617770  0.382230  0.882230  1.0  0.6088
  H  H81  1  0.060400  0.761100  0.620900  1.0  0.0935
  H  H82  1  0.981200  0.763100  0.654500  1.0  0.1171
  H  H83  1  0.111700  0.846800  0.726400  1.0  0.079
  H  H84  1  0.033600  0.852700  0.763300  1.0  0.1208
  H  H85  1  0.960400  0.739600  0.776700  1.0  0.1054
  H  H86  1  0.938400  0.729400  0.722700  1.0  0.0942
  H  H87  1  0.911400  0.807100  0.666400  1.0  0.1027
  H  H88  1  0.917900  0.861700  0.688300  1.0  0.1299
  H  H89  1  0.953700  0.874500  0.776700  1.0  0.1049
  H  H90  1  0.971100  0.828100  0.809000  1.0  0.1066
  H  H91  1  0.702200  0.768700  0.658300  1.0  0.0821
  H  H92  1  0.749400  0.735000  0.646800  1.0  0.0895
  H  H93  1  0.689400  0.708200  0.607800  1.0  0.0588
  H  H94  1  0.639000  0.657100  0.557200  1.0  0.0691
  H  H95  1  0.598400  0.581100  0.679100  1.0  0.0857
  H  H96  1  0.649700  0.628600  0.732500  1.0  0.097
  H  H97  1  0.883800  0.658900  0.600600  1.0  0.1405
  H  H98  1  0.881400  0.607800  0.630500  1.0  0.1428
  H  H99  1  0.831400  0.636700  0.617100  1.0  0.1459
  H  H100  1  0.439600  0.238900  0.120900  1.0  0.0937
  H  H101  1  0.518800  0.236900  0.154500  1.0  0.117
  H  H102  1  0.388300  0.153200  0.226400  1.0  0.0799
  H  H103  1  0.466400  0.147300  0.263300  1.0  0.1208
  H  H104  1  0.539600  0.260400  0.276700  1.0  0.1049
  H  H105  1  0.561600  0.270600  0.222700  1.0  0.0938
  H  H106  1  0.588600  0.192900  0.166400  1.0  0.1018
  H  H107  1  0.582100  0.138300  0.188300  1.0  0.1269
  H  H108  1  0.546300  0.125500  0.276700  1.0  0.105
  H  H109  1  0.528900  0.171900  0.309000  1.0  0.1071
  H  H110  1  0.797800  0.231300  0.158300  1.0  0.0799
  H  H111  1  0.750600  0.265000  0.146800  1.0  0.0887
  H  H112  1  0.810600  0.291800  0.107800  1.0  0.0603
  H  H113  1  0.861000  0.342900  0.057200  1.0  0.071
  H  H114  1  0.901600  0.418900  0.179100  1.0  0.0862
  H  H115  1  0.850300  0.371400  0.232500  1.0  0.0956
  H  H116  1  0.616200  0.341100  0.100600  1.0  0.1407
  H  H117  1  0.618600  0.392200  0.130500  1.0  0.1424
  H  H118  1  0.668600  0.363300  0.117100  1.0  0.1427
  H  H119  1  0.939600  0.261100  0.879100  1.0  0.0931
  H  H120  1  0.018800  0.263100  0.845500  1.0  0.1178
  H  H121  1  0.888300  0.346800  0.773600  1.0  0.0807
  H  H122  1  0.966400  0.352700  0.736700  1.0  0.1207
  H  H123  1  0.039600  0.239600  0.723300  1.0  0.1047
  H  H124  1  0.061600  0.229400  0.777300  1.0  0.0941
  H  H125  1  0.088600  0.307100  0.833600  1.0  0.1037
  H  H126  1  0.082100  0.361700  0.811700  1.0  0.1297
  H  H127  1  0.046300  0.374500  0.723300  1.0  0.1063
  H  H128  1  0.028900  0.328100  0.691000  1.0  0.1068
  H  H129  1  0.297800  0.268700  0.841700  1.0  0.0787
  H  H130  1  0.250600  0.235000  0.853200  1.0  0.0899
  H  H131  1  0.310600  0.208200  0.892200  1.0  0.0587
  H  H132  1  0.361000  0.157100  0.942800  1.0  0.0707
  H  H133  1  0.401600  0.081100  0.820900  1.0  0.0872
  H  H134  1  0.350300  0.128600  0.767500  1.0  0.0955
  H  H135  1  0.116200  0.158900  0.899400  1.0  0.1421
  H  H136  1  0.118600  0.107800  0.869500  1.0  0.142
  H  H137  1  0.168600  0.136700  0.882900  1.0  0.1426
  H  H138  1  0.560400  0.738900  0.379100  1.0  0.0932
  H  H139  1  0.481200  0.736900  0.345500  1.0  0.1178
  H  H140  1  0.611700  0.653200  0.273600  1.0  0.0789
  H  H141  1  0.533600  0.647300  0.236700  1.0  0.1208
  H  H142  1  0.460400  0.760400  0.223300  1.0  0.1057
  H  H143  1  0.438400  0.770600  0.277300  1.0  0.0929
  H  H144  1  0.411400  0.692900  0.333600  1.0  0.1024
  H  H145  1  0.417900  0.638300  0.311700  1.0  0.1279
  H  H146  1  0.453700  0.625500  0.223300  1.0  0.1064
  H  H147  1  0.471100  0.671900  0.191000  1.0  0.1067
  H  H148  1  0.202200  0.731300  0.341700  1.0  0.0818
  H  H149  1  0.249400  0.765000  0.353200  1.0  0.0886
  H  H150  1  0.189400  0.791800  0.392200  1.0  0.0649
  H  H151  1  0.139000  0.842900  0.442800  1.0  0.07
  H  H152  1  0.098400  0.918900  0.320900  1.0  0.0855
  H  H153  1  0.149700  0.871400  0.267500  1.0  0.0975
  H  H154  1  0.383800  0.841100  0.399400  1.0  0.1431
  H  H155  1  0.381400  0.892200  0.369500  1.0  0.1427
  H  H156  1  0.331400  0.863300  0.382900  1.0  0.1451
  H  H157  1  0.620900  0.060400  0.761100  1.0  0.0925
  H  H158  1  0.654500  0.981200  0.763100  1.0  0.1155
  H  H159  1  0.726400  0.111700  0.846800  1.0  0.0821
  H  H160  1  0.763300  0.033600  0.852700  1.0  0.12
  H  H161  1  0.776700  0.960400  0.739600  1.0  0.1052
  H  H162  1  0.722700  0.938400  0.729400  1.0  0.0933
  H  H163  1  0.666400  0.911400  0.807100  1.0  0.1006
  H  H164  1  0.688300  0.917900  0.861700  1.0  0.129
  H  H165  1  0.776700  0.953700  0.874500  1.0  0.1052
  H  H166  1  0.809000  0.971100  0.828100  1.0  0.106
  H  H167  1  0.658300  0.702200  0.768700  1.0  0.0838
  H  H168  1  0.646800  0.749400  0.735000  1.0  0.0898
  H  H169  1  0.607800  0.689400  0.708200  1.0  0.0619
  H  H170  1  0.557200  0.639000  0.657100  1.0  0.0656
  H  H171  1  0.679100  0.598400  0.581100  1.0  0.0868
  H  H172  1  0.732500  0.649700  0.628600  1.0  0.1021
  H  H173  1  0.600600  0.883800  0.658900  1.0  0.1387
  H  H174  1  0.630500  0.881400  0.607800  1.0  0.1424
  H  H175  1  0.617100  0.831400  0.636700  1.0  0.1457
  H  H176  1  0.120900  0.439600  0.238900  1.0  0.0922
  H  H177  1  0.154500  0.518800  0.236900  1.0  0.1156
  H  H178  1  0.226400  0.388300  0.153200  1.0  0.0811
  H  H179  1  0.263300  0.466400  0.147300  1.0  0.1197
  H  H180  1  0.276700  0.539600  0.260400  1.0  0.105
  H  H181  1  0.222700  0.561600  0.270600  1.0  0.092
  H  H182  1  0.166400  0.588600  0.192900  1.0  0.102
  H  H183  1  0.188300  0.582100  0.138300  1.0  0.1296
  H  H184  1  0.276700  0.546300  0.125500  1.0  0.1052
  H  H185  1  0.309000  0.528900  0.171900  1.0  0.1059
  H  H186  1  0.158300  0.797800  0.231300  1.0  0.0845
  H  H187  1  0.146800  0.750600  0.265000  1.0  0.0898
  H  H188  1  0.107800  0.810600  0.291800  1.0  0.0627
  H  H189  1  0.057200  0.861000  0.342900  1.0  0.0659
  H  H190  1  0.179100  0.901600  0.418900  1.0  0.0861
  H  H191  1  0.232500  0.850300  0.371400  1.0  0.1041
  H  H192  1  0.100600  0.616200  0.341100  1.0  0.1394
  H  H193  1  0.130500  0.618600  0.392200  1.0  0.1441
  H  H194  1  0.117100  0.668600  0.363300  1.0  0.1429
  H  H195  1  0.879100  0.939600  0.261100  1.0  0.0925
  H  H196  1  0.845500  0.018800  0.263100  1.0  0.1165
  H  H197  1  0.773600  0.888300  0.346800  1.0  0.0817
  H  H198  1  0.736700  0.966400  0.352700  1.0  0.1206
  H  H199  1  0.723300  0.039600  0.239600  1.0  0.1033
  H  H200  1  0.777300  0.061600  0.229400  1.0  0.0926
  H  H201  1  0.833600  0.088600  0.307100  1.0  0.0999
  H  H202  1  0.811700  0.082100  0.361700  1.0  0.1278
  H  H203  1  0.723300  0.046300  0.374500  1.0  0.1064
  H  H204  1  0.691000  0.028900  0.328100  1.0  0.1059
  H  H205  1  0.841700  0.297800  0.268700  1.0  0.0834
  H  H206  1  0.853200  0.250600  0.235000  1.0  0.0894
  H  H207  1  0.892200  0.310600  0.208200  1.0  0.0689
  H  H208  1  0.942800  0.361000  0.157100  1.0  0.073
  H  H209  1  0.820900  0.401600  0.081100  1.0  0.083
  H  H210  1  0.767500  0.350300  0.128600  1.0  0.0971
  H  H211  1  0.899400  0.116200  0.158900  1.0  0.1389
  H  H212  1  0.869500  0.118600  0.107800  1.0  0.1444
  H  H213  1  0.882900  0.168600  0.136700  1.0  0.1449
  H  H214  1  0.379100  0.560400  0.738900  1.0  0.0924
  H  H215  1  0.345500  0.481200  0.736900  1.0  0.1171
  H  H216  1  0.273600  0.611700  0.653200  1.0  0.0812
  H  H217  1  0.236700  0.533600  0.647300  1.0  0.1203
  H  H218  1  0.223300  0.460400  0.760400  1.0  0.1043
  H  H219  1  0.277300  0.438400  0.770600  1.0  0.0922
  H  H220  1  0.333600  0.411400  0.692900  1.0  0.103
  H  H221  1  0.311700  0.417900  0.638300  1.0  0.1303
  H  H222  1  0.223300  0.453700  0.625500  1.0  0.1054
  H  H223  1  0.191000  0.471100  0.671900  1.0  0.1054
  H  H224  1  0.341700  0.202200  0.731300  1.0  0.0822
  H  H225  1  0.353200  0.249400  0.765000  1.0  0.0903
  H  H226  1  0.392200  0.189400  0.791800  1.0  0.0673
  H  H227  1  0.442800  0.139000  0.842900  1.0  0.0726
  H  H228  1  0.320900  0.098400  0.918900  1.0  0.0862
  H  H229  1  0.267500  0.149700  0.871400  1.0  0.0979
  H  H230  1  0.399400  0.383800  0.841100  1.0  0.1391
  H  H231  1  0.369500  0.381400  0.892200  1.0  0.1439
  H  H232  1  0.382900  0.331400  0.863300  1.0  0.1422
  H  H233  1  0.761100  0.620900  0.060400  1.0  0.0926
  H  H234  1  0.763100  0.654500  0.981200  1.0  0.1161
  H  H235  1  0.846800  0.726400  0.111700  1.0  0.0815
  H  H236  1  0.852700  0.763300  0.033600  1.0  0.1211
  H  H237  1  0.739600  0.776700  0.960400  1.0  0.107
  H  H238  1  0.729400  0.722700  0.938400  1.0  0.0935
  H  H239  1  0.807100  0.666400  0.911400  1.0  0.1008
  H  H240  1  0.861700  0.688300  0.917900  1.0  0.124
  H  H241  1  0.874500  0.776700  0.953700  1.0  0.1007
  H  H242  1  0.828100  0.809000  0.971100  1.0  0.1055
  H  H243  1  0.768700  0.658300  0.702200  1.0  0.08
  H  H244  1  0.735000  0.646800  0.749400  1.0  0.0899
  H  H245  1  0.708200  0.607800  0.689400  1.0  0.0718
  H  H246  1  0.657100  0.557200  0.639000  1.0  0.0677
  H  H247  1  0.581100  0.679100  0.598400  1.0  0.0841
  H  H248  1  0.628600  0.732500  0.649700  1.0  0.0961
  H  H249  1  0.658900  0.600600  0.883800  1.0  0.143
  H  H250  1  0.607800  0.630500  0.881400  1.0  0.1411
  H  H251  1  0.636700  0.617100  0.831400  1.0  0.1438
  H  H252  1  0.238900  0.120900  0.439600  1.0  0.0928
  H  H253  1  0.236900  0.154500  0.518800  1.0  0.1158
  H  H254  1  0.153200  0.226400  0.388300  1.0  0.0833
  H  H255  1  0.147300  0.263300  0.466400  1.0  0.1212
  H  H256  1  0.260400  0.276700  0.539600  1.0  0.1076
  H  H257  1  0.270600  0.222700  0.561600  1.0  0.0931
  H  H258  1  0.192900  0.166400  0.588600  1.0  0.1021
  H  H259  1  0.138300  0.188300  0.582100  1.0  0.131
  H  H260  1  0.125500  0.276700  0.546300  1.0  0.1032
  H  H261  1  0.171900  0.309000  0.528900  1.0  0.1064
  H  H262  1  0.231300  0.158300  0.797800  1.0  0.0809
  H  H263  1  0.265000  0.146800  0.750600  1.0  0.0896
  H  H264  1  0.291800  0.107800  0.810600  1.0  0.0651
  H  H265  1  0.342900  0.057200  0.861000  1.0  0.0684
  H  H266  1  0.418900  0.179100  0.901600  1.0  0.0951
  H  H267  1  0.371400  0.232500  0.850300  1.0  0.0958
  H  H268  1  0.341100  0.100600  0.616200  1.0  0.1422
  H  H269  1  0.392200  0.130500  0.618600  1.0  0.1417
  H  H270  1  0.363300  0.117100  0.668600  1.0  0.1429
  H  H271  1  0.261100  0.879100  0.939600  1.0  0.093
  H  H272  1  0.263100  0.845500  0.018800  1.0  0.1163
  H  H273  1  0.346800  0.773600  0.888300  1.0  0.0824
  H  H274  1  0.352700  0.736700  0.966400  1.0  0.1213
  H  H275  1  0.239600  0.723300  0.039600  1.0  0.1071
  H  H276  1  0.229400  0.777300  0.061600  1.0  0.0939
  H  H277  1  0.307100  0.833600  0.088600  1.0  0.1017
  H  H278  1  0.361700  0.811700  0.082100  1.0  0.126
  H  H279  1  0.374500  0.723300  0.046300  1.0  0.1006
  H  H280  1  0.328100  0.691000  0.028900  1.0  0.1058
  H  H281  1  0.268700  0.841700  0.297800  1.0  0.0808
  H  H282  1  0.235000  0.853200  0.250600  1.0  0.0896
  H  H283  1  0.208200  0.892200  0.310600  1.0  0.0695
  H  H284  1  0.157100  0.942800  0.361000  1.0  0.0671
  H  H285  1  0.081100  0.820900  0.401600  1.0  0.0849
  H  H286  1  0.128600  0.767500  0.350300  1.0  0.097
  H  H287  1  0.158900  0.899400  0.116200  1.0  0.1406
  H  H288  1  0.107800  0.869500  0.118600  1.0  0.1388
  H  H289  1  0.136700  0.882900  0.168600  1.0  0.1435
  H  H290  1  0.738900  0.379100  0.560400  1.0  0.0928
  H  H291  1  0.736900  0.345500  0.481200  1.0  0.1172
  H  H292  1  0.653200  0.273600  0.611700  1.0  0.0821
  H  H293  1  0.647300  0.236700  0.533600  1.0  0.1197
  H  H294  1  0.760400  0.223300  0.460400  1.0  0.1076
  H  H295  1  0.770600  0.277300  0.438400  1.0  0.093
  H  H296  1  0.692900  0.333600  0.411400  1.0  0.1014
  H  H297  1  0.638300  0.311700  0.417900  1.0  0.1297
  H  H298  1  0.625500  0.223300  0.453700  1.0  0.1034
  H  H299  1  0.671900  0.191000  0.471100  1.0  0.1074
  H  H300  1  0.731300  0.341700  0.202200  1.0  0.082
  H  H301  1  0.765000  0.353200  0.249400  1.0  0.0883
  H  H302  1  0.791800  0.392200  0.189400  1.0  0.0625
  H  H303  1  0.842900  0.442800  0.139000  1.0  0.0662
  H  H304  1  0.918900  0.320900  0.098400  1.0  0.0954
  H  H305  1  0.871400  0.267500  0.149700  1.0  0.0973
  H  H306  1  0.841100  0.399400  0.383800  1.0  0.1421
  H  H307  1  0.892200  0.369500  0.381400  1.0  0.1405
  H  H308  1  0.863300  0.382900  0.331400  1.0  0.144
  H  H309  1  0.939600  0.238900  0.379100  1.0  0.0928
  H  H310  1  0.018800  0.236900  0.345500  1.0  0.1176
  H  H311  1  0.888300  0.153200  0.273600  1.0  0.0803
  H  H312  1  0.966400  0.147300  0.236700  1.0  0.1206
  H  H313  1  0.039600  0.260400  0.223300  1.0  0.1048
  H  H314  1  0.061600  0.270600  0.277300  1.0  0.0928
  H  H315  1  0.088600  0.192900  0.333600  1.0  0.1029
  H  H316  1  0.082100  0.138300  0.311700  1.0  0.1279
  H  H317  1  0.046300  0.125500  0.223300  1.0  0.1054
  H  H318  1  0.028900  0.171900  0.191000  1.0  0.1065
  H  H319  1  0.297800  0.231300  0.341700  1.0  0.0809
  H  H320  1  0.250600  0.265000  0.353200  1.0  0.0896
  H  H321  1  0.310600  0.291800  0.392200  1.0  0.0615
  H  H322  1  0.361000  0.342900  0.442800  1.0  0.071
  H  H323  1  0.401600  0.418900  0.320900  1.0  0.0864
  H  H324  1  0.350300  0.371400  0.267500  1.0  0.0973
  H  H325  1  0.116200  0.341100  0.399400  1.0  0.1432
  H  H326  1  0.118600  0.392200  0.369500  1.0  0.1418
  H  H327  1  0.168600  0.363300  0.382900  1.0  0.1421
  H  H328  1  0.560400  0.761100  0.879100  1.0  0.0936
  H  H329  1  0.481200  0.763100  0.845500  1.0  0.1178
  H  H330  1  0.611700  0.846800  0.773600  1.0  0.0791
  H  H331  1  0.533600  0.852700  0.736700  1.0  0.1205
  H  H332  1  0.460400  0.739600  0.723300  1.0  0.105
  H  H333  1  0.438400  0.729400  0.777300  1.0  0.094
  H  H334  1  0.411400  0.807100  0.833600  1.0  0.1025
  H  H335  1  0.417900  0.861700  0.811700  1.0  0.1291
  H  H336  1  0.453700  0.874500  0.723300  1.0  0.1059
  H  H337  1  0.471100  0.828100  0.691000  1.0  0.1069
  H  H338  1  0.202200  0.768700  0.841700  1.0  0.0794
  H  H339  1  0.249400  0.735000  0.853200  1.0  0.0882
  H  H340  1  0.189400  0.708200  0.892200  1.0  0.0597
  H  H341  1  0.139000  0.657100  0.942800  1.0  0.0696
  H  H342  1  0.098400  0.581100  0.820900  1.0  0.0858
  H  H343  1  0.149700  0.628600  0.767500  1.0  0.0966
  H  H344  1  0.383800  0.658900  0.899400  1.0  0.1416
  H  H345  1  0.381400  0.607800  0.869500  1.0  0.1432
  H  H346  1  0.331400  0.636700  0.882900  1.0  0.1447
  H  H347  1  0.060400  0.738900  0.120900  1.0  0.0936
  H  H348  1  0.981200  0.736900  0.154500  1.0  0.1179
  H  H349  1  0.111700  0.653200  0.226400  1.0  0.0787
  H  H350  1  0.033600  0.647300  0.263300  1.0  0.1208
  H  H351  1  0.960400  0.760400  0.276700  1.0  0.106
  H  H352  1  0.938400  0.770600  0.222700  1.0  0.0939
  H  H353  1  0.911400  0.692900  0.166400  1.0  0.1021
  H  H354  1  0.917900  0.638300  0.188300  1.0  0.1272
  H  H355  1  0.953700  0.625500  0.276700  1.0  0.1052
  H  H356  1  0.971100  0.671900  0.309000  1.0  0.1067
  H  H357  1  0.702200  0.731300  0.158300  1.0  0.081
  H  H358  1  0.749400  0.765000  0.146800  1.0  0.0887
  H  H359  1  0.689400  0.791800  0.107800  1.0  0.0622
  H  H360  1  0.639000  0.842900  0.057200  1.0  0.0694
  H  H361  1  0.598400  0.918900  0.179100  1.0  0.0847
  H  H362  1  0.649700  0.871400  0.232500  1.0  0.0947
  H  H363  1  0.883800  0.841100  0.100600  1.0  0.1421
  H  H364  1  0.881400  0.892200  0.130500  1.0  0.1438
  H  H365  1  0.831400  0.863300  0.117100  1.0  0.1467
  H  H366  1  0.439600  0.261100  0.620900  1.0  0.0937
  H  H367  1  0.518800  0.263100  0.654500  1.0  0.1164
  H  H368  1  0.388300  0.346800  0.726400  1.0  0.0806
  H  H369  1  0.466400  0.352700  0.763300  1.0  0.1209
  H  H370  1  0.539600  0.239600  0.776700  1.0  0.1052
  H  H371  1  0.561600  0.229400  0.722700  1.0  0.0939
  H  H372  1  0.588600  0.307100  0.666400  1.0  0.103
  H  H373  1  0.582100  0.361700  0.688300  1.0  0.1302
  H  H374  1  0.546300  0.374500  0.776700  1.0  0.1058
  H  H375  1  0.528900  0.328100  0.809000  1.0  0.1073
  H  H376  1  0.797800  0.268700  0.658300  1.0  0.0811
  H  H377  1  0.750600  0.235000  0.646800  1.0  0.0904
  H  H378  1  0.810600  0.208200  0.607800  1.0  0.0594
  H  H379  1  0.861000  0.157100  0.557200  1.0  0.0712
  H  H380  1  0.901600  0.081100  0.679100  1.0  0.0876
  H  H381  1  0.850300  0.128600  0.732500  1.0  0.0975
  H  H382  1  0.616200  0.158900  0.600600  1.0  0.1401
  H  H383  1  0.618600  0.107800  0.630500  1.0  0.1418
  H  H384  1  0.668600  0.136700  0.617100  1.0  0.1419
  H  H385  1  0.379100  0.939600  0.238900  1.0  0.092
  H  H386  1  0.345500  0.018800  0.236900  1.0  0.1166
  H  H387  1  0.273600  0.888300  0.153200  1.0  0.0811
  H  H388  1  0.236700  0.966400  0.147300  1.0  0.1198
  H  H389  1  0.223300  0.039600  0.260400  1.0  0.105
  H  H390  1  0.277300  0.061600  0.270600  1.0  0.0929
  H  H391  1  0.333600  0.088600  0.192900  1.0  0.1024
  H  H392  1  0.311700  0.082100  0.138300  1.0  0.13
  H  H393  1  0.223300  0.046300  0.125500  1.0  0.1054
  H  H394  1  0.191000  0.028900  0.171900  1.0  0.1057
  H  H395  1  0.341700  0.297800  0.231300  1.0  0.0843
  H  H396  1  0.353200  0.250600  0.265000  1.0  0.09
  H  H397  1  0.392200  0.310600  0.291800  1.0  0.0678
  H  H398  1  0.442800  0.361000  0.342900  1.0  0.0731
  H  H399  1  0.320900  0.401600  0.418900  1.0  0.0829
  H  H400  1  0.267500  0.350300  0.371400  1.0  0.0967
  H  H401  1  0.399400  0.116200  0.341100  1.0  0.1389
  H  H402  1  0.369500  0.118600  0.392200  1.0  0.1439
  H  H403  1  0.382900  0.168600  0.363300  1.0  0.1421
  H  H404  1  0.879100  0.560400  0.761100  1.0  0.0928
  H  H405  1  0.845500  0.481200  0.763100  1.0  0.1171
  H  H406  1  0.773600  0.611700  0.846800  1.0  0.082
  H  H407  1  0.736700  0.533600  0.852700  1.0  0.1207
  H  H408  1  0.723300  0.460400  0.739600  1.0  0.1038
  H  H409  1  0.777300  0.438400  0.729400  1.0  0.0929
  H  H410  1  0.833600  0.411400  0.807100  1.0  0.1004
  H  H411  1  0.811700  0.417900  0.861700  1.0  0.1276
  H  H412  1  0.723300  0.453700  0.874500  1.0  0.1062
  H  H413  1  0.691000  0.471100  0.828100  1.0  0.1055
  H  H414  1  0.841700  0.202200  0.768700  1.0  0.0825
  H  H415  1  0.853200  0.249400  0.735000  1.0  0.0881
  H  H416  1  0.892200  0.189400  0.708200  1.0  0.0687
  H  H417  1  0.942800  0.139000  0.657100  1.0  0.0723
  H  H418  1  0.820900  0.098400  0.581100  1.0  0.0845
  H  H419  1  0.767500  0.149700  0.628600  1.0  0.0974
  H  H420  1  0.899400  0.383800  0.658900  1.0  0.1395
  H  H421  1  0.869500  0.381400  0.607800  1.0  0.1441
  H  H422  1  0.882900  0.331400  0.636700  1.0  0.146
  H  H423  1  0.120900  0.060400  0.738900  1.0  0.0922
  H  H424  1  0.154500  0.981200  0.736900  1.0  0.1159
  H  H425  1  0.226400  0.111700  0.653200  1.0  0.0814
  H  H426  1  0.263300  0.033600  0.647300  1.0  0.1199
  H  H427  1  0.276700  0.960400  0.760400  1.0  0.1047
  H  H428  1  0.222700  0.938400  0.770600  1.0  0.0914
  H  H429  1  0.166400  0.911400  0.692900  1.0  0.1025
  H  H430  1  0.188300  0.917900  0.638300  1.0  0.1295
  H  H431  1  0.276700  0.953700  0.625500  1.0  0.1057
  H  H432  1  0.309000  0.971100  0.671900  1.0  0.1064
  H  H433  1  0.158300  0.702200  0.731300  1.0  0.0833
  H  H434  1  0.146800  0.749400  0.765000  1.0  0.0911
  H  H435  1  0.107800  0.689400  0.791800  1.0  0.0609
  H  H436  1  0.057200  0.639000  0.842900  1.0  0.0662
  H  H437  1  0.179100  0.598400  0.918900  1.0  0.0884
  H  H438  1  0.232500  0.649700  0.871400  1.0  0.1038
  H  H439  1  0.100600  0.883800  0.841100  1.0  0.1398
  H  H440  1  0.130500  0.881400  0.892200  1.0  0.1438
  H  H441  1  0.117100  0.831400  0.863300  1.0  0.1442
  H  H442  1  0.620900  0.439600  0.261100  1.0  0.0925
  H  H443  1  0.654500  0.518800  0.263100  1.0  0.1152
  H  H444  1  0.726400  0.388300  0.346800  1.0  0.0818
  H  H445  1  0.763300  0.466400  0.352700  1.0  0.1201
  H  H446  1  0.776700  0.539600  0.239600  1.0  0.1045
  H  H447  1  0.722700  0.561600  0.229400  1.0  0.0927
  H  H448  1  0.666400  0.588600  0.307100  1.0  0.1003
  H  H449  1  0.688300  0.582100  0.361700  1.0  0.1294
  H  H450  1  0.776700  0.546300  0.374500  1.0  0.1051
  H  H451  1  0.809000  0.528900  0.328100  1.0  0.1055
  H  H452  1  0.658300  0.797800  0.268700  1.0  0.0831
  H  H453  1  0.646800  0.750600  0.235000  1.0  0.0901
  H  H454  1  0.607800  0.810600  0.208200  1.0  0.0635
  H  H455  1  0.557200  0.861000  0.157100  1.0  0.0652
  H  H456  1  0.679100  0.901600  0.081100  1.0  0.087
  H  H457  1  0.732500  0.850300  0.128600  1.0  0.1038
  H  H458  1  0.600600  0.616200  0.158900  1.0  0.1382
  H  H459  1  0.630500  0.618600  0.107800  1.0  0.1435
  H  H460  1  0.617100  0.668600  0.136700  1.0  0.1437
  H  H461  1  0.238900  0.379100  0.939600  1.0  0.0926
  H  H462  1  0.236900  0.345500  0.018800  1.0  0.1163
  H  H463  1  0.153200  0.273600  0.888300  1.0  0.0838
  H  H464  1  0.147300  0.236700  0.966400  1.0  0.12
  H  H465  1  0.260400  0.223300  0.039600  1.0  0.1069
  H  H466  1  0.270600  0.277300  0.061600  1.0  0.0935
  H  H467  1  0.192900  0.333600  0.088600  1.0  0.1022
  H  H468  1  0.138300  0.311700  0.082100  1.0  0.1308
  H  H469  1  0.125500  0.223300  0.046300  1.0  0.1032
  H  H470  1  0.171900  0.191000  0.028900  1.0  0.1057
  H  H471  1  0.231300  0.341700  0.297800  1.0  0.0808
  H  H472  1  0.265000  0.353200  0.250600  1.0  0.0895
  H  H473  1  0.291800  0.392200  0.310600  1.0  0.0645
  H  H474  1  0.342900  0.442800  0.361000  1.0  0.0669
  H  H475  1  0.418900  0.320900  0.401600  1.0  0.0969
  H  H476  1  0.371400  0.267500  0.350300  1.0  0.098
  H  H477  1  0.341100  0.399400  0.116200  1.0  0.1432
  H  H478  1  0.392200  0.369500  0.118600  1.0  0.1423
  H  H479  1  0.363300  0.382900  0.168600  1.0  0.1438
  H  H480  1  0.761100  0.879100  0.560400  1.0  0.093
  H  H481  1  0.763100  0.845500  0.481200  1.0  0.1173
  H  H482  1  0.846800  0.773600  0.611700  1.0  0.0815
  H  H483  1  0.852700  0.736700  0.533600  1.0  0.121
  H  H484  1  0.739600  0.723300  0.460400  1.0  0.1075
  H  H485  1  0.729400  0.777300  0.438400  1.0  0.0936
  H  H486  1  0.807100  0.833600  0.411400  1.0  0.1009
  H  H487  1  0.861700  0.811700  0.417900  1.0  0.1251
  H  H488  1  0.874500  0.723300  0.453700  1.0  0.1006
  H  H489  1  0.828100  0.691000  0.471100  1.0  0.1066
  H  H490  1  0.768700  0.841700  0.202200  1.0  0.0806
  H  H491  1  0.735000  0.853200  0.249400  1.0  0.088
  H  H492  1  0.708200  0.892200  0.189400  1.0  0.068
  H  H493  1  0.657100  0.942800  0.139000  1.0  0.0668
  H  H494  1  0.581100  0.820900  0.098400  1.0  0.0843
  H  H495  1  0.628600  0.767500  0.149700  1.0  0.0966
  H  H496  1  0.658900  0.899400  0.383800  1.0  0.1421
  H  H497  1  0.607800  0.869500  0.381400  1.0  0.1407
  H  H498  1  0.636700  0.882900  0.331400  1.0  0.143
  H  H499  1  0.738900  0.120900  0.060400  1.0  0.0926
  H  H500  1  0.736900  0.154500  0.981200  1.0  0.1164
  H  H501  1  0.653200  0.226400  0.111700  1.0  0.0821
  H  H502  1  0.647300  0.263300  0.033600  1.0  0.1201
  H  H503  1  0.760400  0.276700  0.960400  1.0  0.1077
  H  H504  1  0.770600  0.222700  0.938400  1.0  0.0936
  H  H505  1  0.692900  0.166400  0.911400  1.0  0.1018
  H  H506  1  0.638300  0.188300  0.917900  1.0  0.1301
  H  H507  1  0.625500  0.276700  0.953700  1.0  0.1032
  H  H508  1  0.671900  0.309000  0.971100  1.0  0.1065
  H  H509  1  0.731300  0.158300  0.702200  1.0  0.0811
  H  H510  1  0.765000  0.146800  0.749400  1.0  0.0902
  H  H511  1  0.791800  0.107800  0.689400  1.0  0.0647
  H  H512  1  0.842900  0.057200  0.639000  1.0  0.0674
  H  H513  1  0.918900  0.179100  0.598400  1.0  0.096
  H  H514  1  0.871400  0.232500  0.649700  1.0  0.0961
  H  H515  1  0.841100  0.100600  0.883800  1.0  0.1425
  H  H516  1  0.892200  0.130500  0.881400  1.0  0.14
  H  H517  1  0.863300  0.117100  0.831400  1.0  0.1444
  H  H518  1  0.261100  0.620900  0.439600  1.0  0.0929
  H  H519  1  0.263100  0.654500  0.518800  1.0  0.1155
  H  H520  1  0.346800  0.726400  0.388300  1.0  0.0824
  H  H521  1  0.352700  0.763300  0.466400  1.0  0.1222
  H  H522  1  0.239600  0.776700  0.539600  1.0  0.1071
  H  H523  1  0.229400  0.722700  0.561600  1.0  0.0926
  H  H524  1  0.307100  0.666400  0.588600  1.0  0.101
  H  H525  1  0.361700  0.688300  0.582100  1.0  0.1247
  H  H526  1  0.374500  0.776700  0.546300  1.0  0.1011
  H  H527  1  0.328100  0.809000  0.528900  1.0  0.1061
  H  H528  1  0.268700  0.658300  0.797800  1.0  0.0807
  H  H529  1  0.235000  0.646800  0.750600  1.0  0.0897
  H  H530  1  0.208200  0.607800  0.810600  1.0  0.0716
  H  H531  1  0.157100  0.557200  0.861000  1.0  0.0685
  H  H532  1  0.081100  0.679100  0.901600  1.0  0.083
  H  H533  1  0.128600  0.732500  0.850300  1.0  0.0957
  H  H534  1  0.158900  0.600600  0.616200  1.0  0.1407
  H  H535  1  0.107800  0.630500  0.618600  1.0  0.139
  H  H536  1  0.136700  0.617100  0.668600  1.0  0.1428
  C  C537  1  0.055300  0.779100  0.650700  1.0  0.191
  C  C538  1  0.007200  0.780300  0.670700  1.0  -0.2379
  C  C539  1  0.085100  0.829000  0.711900  1.0  0.1825
  C  C540  1  0.037800  0.832700  0.734700  1.0  -0.2694
  C  C541  1  0.997000  0.806800  0.714800  1.0  0.0997
  C  C542  1  0.943600  0.806400  0.738400  1.0  0.0239
  C  C543  1  0.934700  0.750000  0.752700  1.0  -0.0146
  C  C544  1  0.907500  0.827500  0.696600  1.0  -0.0492
  C  C545  1  0.944800  0.840300  0.786600  1.0  -0.0684
  C  C546  1  0.730400  0.751000  0.673700  1.0  -0.0061
  C  C547  1  0.670600  0.681400  0.623400  1.0  -0.0957
  C  C548  1  0.640400  0.651400  0.593000  1.0  -0.0437
  C  C549  1  0.618100  0.607800  0.664300  1.0  -0.0699
  C  C550  1  0.647600  0.636100  0.697000  1.0  -0.05
  C  C551  1  0.869700  0.670000  0.677200  1.0  0.6942
  C  C552  1  0.866000  0.640500  0.626500  1.0  -0.4214
  C  C553  1  0.444700  0.220900  0.150700  1.0  0.1902
  C  C554  1  0.492800  0.219700  0.170700  1.0  -0.2379
  C  C555  1  0.414900  0.171000  0.211900  1.0  0.1821
  C  C556  1  0.462200  0.167300  0.234700  1.0  -0.2691
  C  C557  1  0.503000  0.193200  0.214800  1.0  0.1006
  C  C558  1  0.556400  0.193600  0.238400  1.0  0.0253
  C  C559  1  0.565300  0.250000  0.252700  1.0  -0.014
  C  C560  1  0.592500  0.172500  0.196600  1.0  -0.0492
  C  C561  1  0.555200  0.159700  0.286600  1.0  -0.0666
  C  C562  1  0.769600  0.249000  0.173700  1.0  -0.0111
  C  C563  1  0.829400  0.318600  0.123400  1.0  -0.0931
  C  C564  1  0.859600  0.348600  0.093000  1.0  -0.0411
  C  C565  1  0.881900  0.392200  0.164300  1.0  -0.0671
  C  C566  1  0.852400  0.363900  0.197000  1.0  -0.0504
  C  C567  1  0.630300  0.330000  0.177200  1.0  0.6946
  C  C568  1  0.634000  0.359500  0.126500  1.0  -0.4184
  C  C569  1  0.944700  0.279100  0.849300  1.0  0.1881
  C  C570  1  0.992800  0.280300  0.829300  1.0  -0.2386
  C  C571  1  0.914900  0.329000  0.788100  1.0  0.1818
  C  C572  1  0.962200  0.332700  0.765300  1.0  -0.2697
  C  C573  1  0.003000  0.306800  0.785200  1.0  0.1009
  C  C574  1  0.056400  0.306400  0.761600  1.0  0.0245
  C  C575  1  0.065300  0.250000  0.747300  1.0  -0.0148
  C  C576  1  0.092500  0.327500  0.803400  1.0  -0.0526
  C  C577  1  0.055200  0.340300  0.713400  1.0  -0.0658
  C  C578  1  0.269600  0.251000  0.826300  1.0  -0.0092
  C  C579  1  0.329400  0.181400  0.876600  1.0  -0.0938
  C  C580  1  0.359600  0.151400  0.907000  1.0  -0.0425
  C  C581  1  0.381900  0.107800  0.835700  1.0  -0.0655
  C  C582  1  0.352400  0.136100  0.803000  1.0  -0.0505
  C  C583  1  0.130300  0.170000  0.822800  1.0  0.693
  C  C584  1  0.134000  0.140500  0.873500  1.0  -0.4199
  C  C585  1  0.555300  0.720900  0.349300  1.0  0.1897
  C  C586  1  0.507200  0.719700  0.329300  1.0  -0.2386
  C  C587  1  0.585100  0.671000  0.288100  1.0  0.1812
  C  C588  1  0.537800  0.667300  0.265300  1.0  -0.2701
  C  C589  1  0.497000  0.693200  0.285200  1.0  0.1008
  C  C590  1  0.443600  0.693600  0.261600  1.0  0.0245
  C  C591  1  0.434700  0.750000  0.247300  1.0  -0.0158
  C  C592  1  0.407500  0.672500  0.303400  1.0  -0.0507
  C  C593  1  0.444800  0.659700  0.213400  1.0  -0.0683
  C  C594  1  0.230400  0.749000  0.326300  1.0  -0.0078
  C  C595  1  0.170600  0.818600  0.376600  1.0  -0.0938
  C  C596  1  0.140400  0.848600  0.407000  1.0  -0.0454
  C  C597  1  0.118100  0.892200  0.335700  1.0  -0.0591
  C  C598  1  0.147600  0.863900  0.303000  1.0  -0.0521
  C  C599  1  0.369700  0.830000  0.322800  1.0  0.6929
  C  C600  1  0.366000  0.859500  0.373500  1.0  -0.4215
  C  C601  1  0.650700  0.055300  0.779100  1.0  0.1926
  C  C602  1  0.670700  0.007200  0.780300  1.0  -0.239
  C  C603  1  0.711900  0.085100  0.829000  1.0  0.1818
  C  C604  1  0.734700  0.037800  0.832700  1.0  -0.2683
  C  C605  1  0.714800  0.997000  0.806800  1.0  0.1017
  C  C606  1  0.738400  0.943600  0.806400  1.0  0.0275
  C  C607  1  0.752700  0.934700  0.750000  1.0  -0.0153
  C  C608  1  0.696600  0.907500  0.827500  1.0  -0.045
  C  C609  1  0.786600  0.944800  0.840300  1.0  -0.0688
  C  C610  1  0.673700  0.730400  0.751000  1.0  -0.0052
  C  C611  1  0.623400  0.670600  0.681400  1.0  -0.0914
  C  C612  1  0.593000  0.640400  0.651400  1.0  -0.0441
  C  C613  1  0.664300  0.618100  0.607800  1.0  -0.0584
  C  C614  1  0.697000  0.647600  0.636100  1.0  -0.0422
  C  C615  1  0.677200  0.869700  0.670000  1.0  0.695
  C  C616  1  0.626500  0.866000  0.640500  1.0  -0.4177
  C  C617  1  0.150700  0.444700  0.220900  1.0  0.1933
  C  C618  1  0.170700  0.492800  0.219700  1.0  -0.2402
  C  C619  1  0.211900  0.414900  0.171000  1.0  0.1806
  C  C620  1  0.234700  0.462200  0.167300  1.0  -0.2685
  C  C621  1  0.214800  0.503000  0.193200  1.0  0.1013
  C  C622  1  0.238400  0.556400  0.193600  1.0  0.0259
  C  C623  1  0.252700  0.565300  0.250000  1.0  -0.0143
  C  C624  1  0.196600  0.592500  0.172500  1.0  -0.0448
  C  C625  1  0.286600  0.555200  0.159700  1.0  -0.0689
  C  C626  1  0.173700  0.769600  0.249000  1.0  -0.0019
  C  C627  1  0.123400  0.829400  0.318600  1.0  -0.0907
  C  C628  1  0.093000  0.859600  0.348600  1.0  -0.0429
  C  C629  1  0.164300  0.881900  0.392200  1.0  -0.0559
  C  C630  1  0.197000  0.852400  0.363900  1.0  -0.0426
  C  C631  1  0.177200  0.630300  0.330000  1.0  0.6928
  C  C632  1  0.126500  0.634000  0.359500  1.0  -0.416
  C  C633  1  0.849300  0.944700  0.279100  1.0  0.1923
  C  C634  1  0.829300  0.992800  0.280300  1.0  -0.2392
  C  C635  1  0.788100  0.914900  0.329000  1.0  0.1815
  C  C636  1  0.765300  0.962200  0.332700  1.0  -0.2699
  C  C637  1  0.785200  0.003000  0.306800  1.0  0.1018
  C  C638  1  0.761600  0.056400  0.306400  1.0  0.0274
  C  C639  1  0.747300  0.065300  0.250000  1.0  -0.0133
  C  C640  1  0.803400  0.092500  0.327500  1.0  -0.0466
  C  C641  1  0.713400  0.055200  0.340300  1.0  -0.0675
  C  C642  1  0.826300  0.269600  0.251000  1.0  0.0007
  C  C643  1  0.876600  0.329400  0.181400  1.0  -0.0895
  C  C644  1  0.907000  0.359600  0.151400  1.0  -0.0353
  C  C645  1  0.835700  0.381900  0.107800  1.0  -0.055
  C  C646  1  0.803000  0.352400  0.136100  1.0  -0.0504
  C  C647  1  0.822800  0.130300  0.170000  1.0  0.6926
  C  C648  1  0.873500  0.134000  0.140500  1.0  -0.4197
  C  C649  1  0.349300  0.555300  0.720900  1.0  0.1928
  C  C650  1  0.329300  0.507200  0.719700  1.0  -0.2398
  C  C651  1  0.288100  0.585100  0.671000  1.0  0.1814
  C  C652  1  0.265300  0.537800  0.667300  1.0  -0.27
  C  C653  1  0.285200  0.497000  0.693200  1.0  0.1008
  C  C654  1  0.261600  0.443600  0.693600  1.0  0.0256
  C  C655  1  0.247300  0.434700  0.750000  1.0  -0.0136
  C  C656  1  0.303400  0.407500  0.672500  1.0  -0.0432
  C  C657  1  0.213400  0.444800  0.659700  1.0  -0.0662
  C  C658  1  0.326300  0.230400  0.749000  1.0  0.0016
  C  C659  1  0.376600  0.170600  0.818600  1.0  -0.0907
  C  C660  1  0.407000  0.140400  0.848600  1.0  -0.0341
  C  C661  1  0.335700  0.118100  0.892200  1.0  -0.0553
  C  C662  1  0.303000  0.147600  0.863900  1.0  -0.0512
  C  C663  1  0.322800  0.369700  0.830000  1.0  0.6891
  C  C664  1  0.373500  0.366000  0.859500  1.0  -0.4191
  C  C665  1  0.779100  0.650700  0.055300  1.0  0.1942
  C  C666  1  0.780300  0.670700  0.007200  1.0  -0.2408
  C  C667  1  0.829000  0.711900  0.085100  1.0  0.1821
  C  C668  1  0.832700  0.734700  0.037800  1.0  -0.2682
  C  C669  1  0.806800  0.714800  0.997000  1.0  0.0988
  C  C670  1  0.806400  0.738400  0.943600  1.0  0.027
  C  C671  1  0.750000  0.752700  0.934700  1.0  -0.0125
  C  C672  1  0.827500  0.696600  0.907500  1.0  -0.0479
  C  C673  1  0.840300  0.786600  0.944800  1.0  -0.0712
  C  C674  1  0.751000  0.673700  0.730400  1.0  -0.0108
  C  C675  1  0.681400  0.623400  0.670600  1.0  -0.0888
  C  C676  1  0.651400  0.593000  0.640400  1.0  -0.0421
  C  C677  1  0.607800  0.664300  0.618100  1.0  -0.0579
  C  C678  1  0.636100  0.697000  0.647600  1.0  -0.0539
  C  C679  1  0.670000  0.677200  0.869700  1.0  0.6945
  C  C680  1  0.640500  0.626500  0.866000  1.0  -0.4229
  C  C681  1  0.220900  0.150700  0.444700  1.0  0.1936
  C  C682  1  0.219700  0.170700  0.492800  1.0  -0.2422
  C  C683  1  0.171000  0.211900  0.414900  1.0  0.1817
  C  C684  1  0.167300  0.234700  0.462200  1.0  -0.27
  C  C685  1  0.193200  0.214800  0.503000  1.0  0.0979
  C  C686  1  0.193600  0.238400  0.556400  1.0  0.027
  C  C687  1  0.250000  0.252700  0.565300  1.0  -0.0105
  C  C688  1  0.172500  0.196600  0.592500  1.0  -0.0501
  C  C689  1  0.159700  0.286600  0.555200  1.0  -0.0689
  C  C690  1  0.249000  0.173700  0.769600  1.0  -0.0123
  C  C691  1  0.318600  0.123400  0.829400  1.0  -0.0932
  C  C692  1  0.348600  0.093000  0.859600  1.0  -0.0425
  C  C693  1  0.392200  0.164300  0.881900  1.0  -0.0545
  C  C694  1  0.363900  0.197000  0.852400  1.0  -0.0552
  C  C695  1  0.330000  0.177200  0.630300  1.0  0.6935
  C  C696  1  0.359500  0.126500  0.634000  1.0  -0.4243
  C  C697  1  0.279100  0.849300  0.944700  1.0  0.1934
  C  C698  1  0.280300  0.829300  0.992800  1.0  -0.2414
  C  C699  1  0.329000  0.788100  0.914900  1.0  0.1808
  C  C700  1  0.332700  0.765300  0.962200  1.0  -0.2679
  C  C701  1  0.306800  0.785200  0.003000  1.0  0.0983
  C  C702  1  0.306400  0.761600  0.056400  1.0  0.0263
  C  C703  1  0.250000  0.747300  0.065300  1.0  -0.0128
  C  C704  1  0.327500  0.803400  0.092500  1.0  -0.0494
  C  C705  1  0.340300  0.713400  0.055200  1.0  -0.0737
  C  C706  1  0.251000  0.826300  0.269600  1.0  -0.0089
  C  C707  1  0.181400  0.876600  0.329400  1.0  -0.0926
  C  C708  1  0.151400  0.907000  0.359600  1.0  -0.0444
  C  C709  1  0.107800  0.835700  0.381900  1.0  -0.0563
  C  C710  1  0.136100  0.803000  0.352400  1.0  -0.0522
  C  C711  1  0.170000  0.822800  0.130300  1.0  0.6939
  C  C712  1  0.140500  0.873500  0.134000  1.0  -0.4222
  C  C713  1  0.720900  0.349300  0.555300  1.0  0.1946
  C  C714  1  0.719700  0.329300  0.507200  1.0  -0.2422
  C  C715  1  0.671000  0.288100  0.585100  1.0  0.1816
  C  C716  1  0.667300  0.265300  0.537800  1.0  -0.2694
  C  C717  1  0.693200  0.285200  0.497000  1.0  0.0984
  C  C718  1  0.693600  0.261600  0.443600  1.0  0.0273
  C  C719  1  0.750000  0.247300  0.434700  1.0  -0.011
  C  C720  1  0.672500  0.303400  0.407500  1.0  -0.0501
  C  C721  1  0.659700  0.213400  0.444800  1.0  -0.0694
  C  C722  1  0.749000  0.326300  0.230400  1.0  -0.0065
  C  C723  1  0.818600  0.376600  0.170600  1.0  -0.0921
  C  C724  1  0.848600  0.407000  0.140400  1.0  -0.0412
  C  C725  1  0.892200  0.335700  0.118100  1.0  -0.0559
  C  C726  1  0.863900  0.303000  0.147600  1.0  -0.0485
  C  C727  1  0.830000  0.322800  0.369700  1.0  0.6924
  C  C728  1  0.859500  0.373500  0.366000  1.0  -0.4221
  C  C729  1  0.944700  0.220900  0.349300  1.0  0.188
  C  C730  1  0.992800  0.219700  0.329300  1.0  -0.2391
  C  C731  1  0.914900  0.171000  0.288100  1.0  0.182
  C  C732  1  0.962200  0.167300  0.265300  1.0  -0.2699
  C  C733  1  0.003000  0.193200  0.285200  1.0  0.1013
  C  C734  1  0.056400  0.193600  0.261600  1.0  0.0251
  C  C735  1  0.065300  0.250000  0.247300  1.0  -0.0147
  C  C736  1  0.092500  0.172500  0.303400  1.0  -0.0518
  C  C737  1  0.055200  0.159700  0.213400  1.0  -0.0665
  C  C738  1  0.269600  0.249000  0.326300  1.0  -0.0076
  C  C739  1  0.329400  0.318600  0.376600  1.0  -0.0924
  C  C740  1  0.359600  0.348600  0.407000  1.0  -0.0425
  C  C741  1  0.381900  0.392200  0.335700  1.0  -0.0641
  C  C742  1  0.352400  0.363900  0.303000  1.0  -0.0527
  C  C743  1  0.130300  0.330000  0.322800  1.0  0.6938
  C  C744  1  0.134000  0.359500  0.373500  1.0  -0.42
  C  C745  1  0.555300  0.779100  0.849300  1.0  0.1895
  C  C746  1  0.507200  0.780300  0.829300  1.0  -0.2384
  C  C747  1  0.585100  0.829000  0.788100  1.0  0.1815
  C  C748  1  0.537800  0.832700  0.765300  1.0  -0.2699
  C  C749  1  0.497000  0.806800  0.785200  1.0  0.1004
  C  C750  1  0.443600  0.806400  0.761600  1.0  0.0239
  C  C751  1  0.434700  0.750000  0.747300  1.0  -0.0154
  C  C752  1  0.407500  0.827500  0.803400  1.0  -0.0527
  C  C753  1  0.444800  0.840300  0.713400  1.0  -0.0673
  C  C754  1  0.230400  0.751000  0.826300  1.0  -0.0095
  C  C755  1  0.170600  0.681400  0.876600  1.0  -0.0959
  C  C756  1  0.140400  0.651400  0.907000  1.0  -0.0463
  C  C757  1  0.118100  0.607800  0.835700  1.0  -0.0639
  C  C758  1  0.147600  0.636100  0.803000  1.0  -0.0504
  C  C759  1  0.369700  0.670000  0.822800  1.0  0.6945
  C  C760  1  0.366000  0.640500  0.873500  1.0  -0.4207
  C  C761  1  0.055300  0.720900  0.150700  1.0  0.1912
  C  C762  1  0.007200  0.719700  0.170700  1.0  -0.2377
  C  C763  1  0.085100  0.671000  0.211900  1.0  0.1813
  C  C764  1  0.037800  0.667300  0.234700  1.0  -0.2698
  C  C765  1  0.997000  0.693200  0.214800  1.0  0.0999
  C  C766  1  0.943600  0.693600  0.238400  1.0  0.0246
  C  C767  1  0.934700  0.750000  0.252700  1.0  -0.0152
  C  C768  1  0.907500  0.672500  0.196600  1.0  -0.0498
  C  C769  1  0.944800  0.659700  0.286600  1.0  -0.068
  C  C770  1  0.730400  0.749000  0.173700  1.0  -0.0084
  C  C771  1  0.670600  0.818600  0.123400  1.0  -0.0958
  C  C772  1  0.640400  0.848600  0.093000  1.0  -0.0421
  C  C773  1  0.618100  0.892200  0.164300  1.0  -0.0658
  C  C774  1  0.647600  0.863900  0.197000  1.0  -0.0542
  C  C775  1  0.869700  0.830000  0.177200  1.0  0.6923
  C  C776  1  0.866000  0.859500  0.126500  1.0  -0.421
  C  C777  1  0.444700  0.279100  0.650700  1.0  0.19
  C  C778  1  0.492800  0.280300  0.670700  1.0  -0.2383
  C  C779  1  0.414900  0.329000  0.711900  1.0  0.183
  C  C780  1  0.462200  0.332700  0.734700  1.0  -0.2688
  C  C781  1  0.503000  0.306800  0.714800  1.0  0.1003
  C  C782  1  0.556400  0.306400  0.738400  1.0  0.0246
  C  C783  1  0.565300  0.250000  0.752700  1.0  -0.0141
  C  C784  1  0.592500  0.327500  0.696600  1.0  -0.0488
  C  C785  1  0.555200  0.340300  0.786600  1.0  -0.0675
  C  C786  1  0.769600  0.251000  0.673700  1.0  -0.0085
  C  C787  1  0.829400  0.181400  0.623400  1.0  -0.0917
  C  C788  1  0.859600  0.151400  0.593000  1.0  -0.0423
  C  C789  1  0.881900  0.107800  0.664300  1.0  -0.0681
  C  C790  1  0.852400  0.136100  0.697000  1.0  -0.0471
  C  C791  1  0.630300  0.170000  0.677200  1.0  0.6939
  C  C792  1  0.634000  0.140500  0.626500  1.0  -0.4197
  C  C793  1  0.349300  0.944700  0.220900  1.0  0.193
  C  C794  1  0.329300  0.992800  0.219700  1.0  -0.2399
  C  C795  1  0.288100  0.914900  0.171000  1.0  0.1811
  C  C796  1  0.265300  0.962200  0.167300  1.0  -0.27
  C  C797  1  0.285200  0.003000  0.193200  1.0  0.1013
  C  C798  1  0.261600  0.056400  0.193600  1.0  0.0258
  C  C799  1  0.247300  0.065300  0.250000  1.0  -0.0147
  C  C800  1  0.303400  0.092500  0.172500  1.0  -0.0437
  C  C801  1  0.213400  0.055200  0.159700  1.0  -0.0665
  C  C802  1  0.326300  0.269600  0.249000  1.0  -0.0005
  C  C803  1  0.376600  0.329400  0.318600  1.0  -0.09
  C  C804  1  0.407000  0.359600  0.348600  1.0  -0.0342
  C  C805  1  0.335700  0.381900  0.392200  1.0  -0.0538
  C  C806  1  0.303000  0.352400  0.363900  1.0  -0.0529
  C  C807  1  0.322800  0.130300  0.330000  1.0  0.6908
  C  C808  1  0.373500  0.134000  0.359500  1.0  -0.4183
  C  C809  1  0.849300  0.555300  0.779100  1.0  0.1922
  C  C810  1  0.829300  0.507200  0.780300  1.0  -0.2391
  C  C811  1  0.788100  0.585100  0.829000  1.0  0.1825
  C  C812  1  0.765300  0.537800  0.832700  1.0  -0.27
  C  C813  1  0.785200  0.497000  0.806800  1.0  0.1014
  C  C814  1  0.761600  0.443600  0.806400  1.0  0.0275
  C  C815  1  0.747300  0.434700  0.750000  1.0  -0.0142
  C  C816  1  0.803400  0.407500  0.827500  1.0  -0.0466
  C  C817  1  0.713400  0.444800  0.840300  1.0  -0.0662
  C  C818  1  0.826300  0.230400  0.751000  1.0  -1e-04
  C  C819  1  0.876600  0.170600  0.681400  1.0  -0.0907
  C  C820  1  0.907000  0.140400  0.651400  1.0  -0.0349
  C  C821  1  0.835700  0.118100  0.607800  1.0  -0.0593
  C  C822  1  0.803000  0.147600  0.636100  1.0  -0.0524
  C  C823  1  0.822800  0.369700  0.670000  1.0  0.6933
  C  C824  1  0.873500  0.366000  0.640500  1.0  -0.4198
  C  C825  1  0.150700  0.055300  0.720900  1.0  0.1927
  C  C826  1  0.170700  0.007200  0.719700  1.0  -0.2401
  C  C827  1  0.211900  0.085100  0.671000  1.0  0.1805
  C  C828  1  0.234700  0.037800  0.667300  1.0  -0.2687
  C  C829  1  0.214800  0.997000  0.693200  1.0  0.1012
  C  C830  1  0.238400  0.943600  0.693600  1.0  0.0256
  C  C831  1  0.252700  0.934700  0.750000  1.0  -0.0143
  C  C832  1  0.196600  0.907500  0.672500  1.0  -0.0448
  C  C833  1  0.286600  0.944800  0.659700  1.0  -0.0692
  C  C834  1  0.173700  0.730400  0.749000  1.0  -0.0021
  C  C835  1  0.123400  0.670600  0.818600  1.0  -0.0903
  C  C836  1  0.093000  0.640400  0.848600  1.0  -0.0444
  C  C837  1  0.164300  0.618100  0.892200  1.0  -0.0555
  C  C838  1  0.197000  0.647600  0.863900  1.0  -0.04
  C  C839  1  0.177200  0.869700  0.830000  1.0  0.6907
  C  C840  1  0.126500  0.866000  0.859500  1.0  -0.4174
  C  C841  1  0.650700  0.444700  0.279100  1.0  0.1933
  C  C842  1  0.670700  0.492800  0.280300  1.0  -0.2394
  C  C843  1  0.711900  0.414900  0.329000  1.0  0.1811
  C  C844  1  0.734700  0.462200  0.332700  1.0  -0.2676
  C  C845  1  0.714800  0.503000  0.306800  1.0  0.1018
  C  C846  1  0.738400  0.556400  0.306400  1.0  0.0275
  C  C847  1  0.752700  0.565300  0.250000  1.0  -0.0139
  C  C848  1  0.696600  0.592500  0.327500  1.0  -0.0456
  C  C849  1  0.786600  0.555200  0.340300  1.0  -0.0695
  C  C850  1  0.673700  0.769600  0.251000  1.0  -0.0022
  C  C851  1  0.623400  0.829400  0.181400  1.0  -0.0902
  C  C852  1  0.593000  0.859600  0.151400  1.0  -0.0425
  C  C853  1  0.664300  0.881900  0.107800  1.0  -0.0559
  C  C854  1  0.697000  0.852400  0.136100  1.0  -0.0427
  C  C855  1  0.677200  0.630300  0.170000  1.0  0.6941
  C  C856  1  0.626500  0.634000  0.140500  1.0  -0.4173
  C  C857  1  0.220900  0.349300  0.944700  1.0  0.1936
  C  C858  1  0.219700  0.329300  0.992800  1.0  -0.2422
  C  C859  1  0.171000  0.288100  0.914900  1.0  0.1807
  C  C860  1  0.167300  0.265300  0.962200  1.0  -0.2693
  C  C861  1  0.193200  0.285200  0.003000  1.0  0.0983
  C  C862  1  0.193600  0.261600  0.056400  1.0  0.027
  C  C863  1  0.250000  0.247300  0.065300  1.0  -0.012
  C  C864  1  0.172500  0.303400  0.092500  1.0  -0.0489
  C  C865  1  0.159700  0.213400  0.055200  1.0  -0.0705
  C  C866  1  0.249000  0.326300  0.269600  1.0  -0.0083
  C  C867  1  0.318600  0.376600  0.329400  1.0  -0.0929
  C  C868  1  0.348600  0.407000  0.359600  1.0  -0.0434
  C  C869  1  0.392200  0.335700  0.381900  1.0  -0.0539
  C  C870  1  0.363900  0.303000  0.352400  1.0  -0.0503
  C  C871  1  0.330000  0.322800  0.130300  1.0  0.6935
  C  C872  1  0.359500  0.373500  0.134000  1.0  -0.4242
  C  C873  1  0.779100  0.849300  0.555300  1.0  0.1943
  C  C874  1  0.780300  0.829300  0.507200  1.0  -0.2414
  C  C875  1  0.829000  0.788100  0.585100  1.0  0.182
  C  C876  1  0.832700  0.765300  0.537800  1.0  -0.268
  C  C877  1  0.806800  0.785200  0.497000  1.0  0.0985
  C  C878  1  0.806400  0.761600  0.443600  1.0  0.0269
  C  C879  1  0.750000  0.747300  0.434700  1.0  -0.0123
  C  C880  1  0.827500  0.803400  0.407500  1.0  -0.0502
  C  C881  1  0.840300  0.713400  0.444800  1.0  -0.0712
  C  C882  1  0.751000  0.826300  0.230400  1.0  -0.0061
  C  C883  1  0.681400  0.876600  0.170600  1.0  -0.091
  C  C884  1  0.651400  0.907000  0.140400  1.0  -0.0423
  C  C885  1  0.607800  0.835700  0.118100  1.0  -0.0579
  C  C886  1  0.636100  0.803000  0.147600  1.0  -0.0506
  C  C887  1  0.670000  0.822800  0.369700  1.0  0.6943
  C  C888  1  0.640500  0.873500  0.366000  1.0  -0.421
  C  C889  1  0.720900  0.150700  0.055300  1.0  0.1935
  C  C890  1  0.719700  0.170700  0.007200  1.0  -0.2428
  C  C891  1  0.671000  0.211900  0.085100  1.0  0.182
  C  C892  1  0.667300  0.234700  0.037800  1.0  -0.27
  C  C893  1  0.693200  0.214800  0.997000  1.0  0.0986
  C  C894  1  0.693600  0.238400  0.943600  1.0  0.0273
  C  C895  1  0.750000  0.252700  0.934700  1.0  -0.0108
  C  C896  1  0.672500  0.196600  0.907500  1.0  -0.0498
  C  C897  1  0.659700  0.286600  0.944800  1.0  -0.0696
  C  C898  1  0.749000  0.173700  0.730400  1.0  -0.0131
  C  C899  1  0.818600  0.123400  0.670600  1.0  -0.0906
  C  C900  1  0.848600  0.093000  0.640400  1.0  -0.0425
  C  C901  1  0.892200  0.164300  0.618100  1.0  -0.0565
  C  C902  1  0.863900  0.197000  0.647600  1.0  -0.0527
  C  C903  1  0.830000  0.177200  0.869700  1.0  0.6925
  C  C904  1  0.859500  0.126500  0.866000  1.0  -0.4224
  C  C905  1  0.279100  0.650700  0.444700  1.0  0.1944
  C  C906  1  0.280300  0.670700  0.492800  1.0  -0.2401
  C  C907  1  0.329000  0.711900  0.414900  1.0  0.1811
  C  C908  1  0.332700  0.734700  0.462200  1.0  -0.2684
  C  C909  1  0.306800  0.714800  0.503000  1.0  0.0981
  C  C910  1  0.306400  0.738400  0.556400  1.0  0.0263
  C  C911  1  0.250000  0.752700  0.565300  1.0  -0.0114
  C  C912  1  0.327500  0.696600  0.592500  1.0  -0.0482
  C  C913  1  0.340300  0.786600  0.555200  1.0  -0.071
  C  C914  1  0.251000  0.673700  0.769600  1.0  -0.0127
  C  C915  1  0.181400  0.623400  0.829400  1.0  -0.0923
  C  C916  1  0.151400  0.593000  0.859600  1.0  -0.0427
  C  C917  1  0.107800  0.664300  0.881900  1.0  -0.0575
  C  C918  1  0.136100  0.697000  0.852400  1.0  -0.0569
  C  C919  1  0.170000  0.677200  0.630300  1.0  0.6946
  C  C920  1  0.140500  0.626500  0.634000  1.0  -0.4246
  C  C921  1  0.709200  0.709200  0.709200  1.0  0.0896
  C  C922  1  0.675300  0.675300  0.675300  1.0  0.1186
  C  C923  1  0.790800  0.290800  0.209200  1.0  0.087
  C  C924  1  0.824700  0.324700  0.175300  1.0  0.1179
  C  C925  1  0.290800  0.209200  0.790800  1.0  0.0888
  C  C926  1  0.324700  0.175300  0.824700  1.0  0.1189
  C  C927  1  0.209200  0.790800  0.290800  1.0  0.0857
  C  C928  1  0.175300  0.824700  0.324700  1.0  0.1189
  C  C929  1  0.290800  0.290800  0.290800  1.0  0.0866
  C  C930  1  0.324700  0.324700  0.324700  1.0  0.1185
  C  C931  1  0.209200  0.709200  0.790800  1.0  0.0885
  C  C932  1  0.175300  0.675300  0.824700  1.0  0.1188
  C  C933  1  0.709200  0.790800  0.209200  1.0  0.0866
  C  C934  1  0.675300  0.824700  0.175300  1.0  0.1195
  C  C935  1  0.790800  0.209200  0.709200  1.0  0.0895
  C  C936  1  0.824700  0.175300  0.675300  1.0  0.1175
  N  N937  1  0.094500  0.801900  0.671300  1.0  -0.3307
  N  N938  1  0.405500  0.198100  0.171300  1.0  -0.3323
  N  N939  1  0.905500  0.301900  0.828700  1.0  -0.3322
  N  N940  1  0.594500  0.698100  0.328700  1.0  -0.3318
  N  N941  1  0.671300  0.094500  0.801900  1.0  -0.3315
  N  N942  1  0.171300  0.405500  0.198100  1.0  -0.332
  N  N943  1  0.828700  0.905500  0.301900  1.0  -0.3312
  N  N944  1  0.328700  0.594500  0.698100  1.0  -0.3334
  N  N945  1  0.801900  0.671300  0.094500  1.0  -0.3367
  N  N946  1  0.198100  0.171300  0.405500  1.0  -0.3375
  N  N947  1  0.301900  0.828700  0.905500  1.0  -0.3372
  N  N948  1  0.698100  0.328700  0.594500  1.0  -0.3355
  N  N949  1  0.905500  0.198100  0.328700  1.0  -0.3325
  N  N950  1  0.594500  0.801900  0.828700  1.0  -0.3322
  N  N951  1  0.094500  0.698100  0.171300  1.0  -0.3305
  N  N952  1  0.405500  0.301900  0.671300  1.0  -0.3313
  N  N953  1  0.328700  0.905500  0.198100  1.0  -0.3319
  N  N954  1  0.828700  0.594500  0.801900  1.0  -0.3326
  N  N955  1  0.171300  0.094500  0.698100  1.0  -0.3321
  N  N956  1  0.671300  0.405500  0.301900  1.0  -0.3321
  N  N957  1  0.198100  0.328700  0.905500  1.0  -0.3366
  N  N958  1  0.801900  0.828700  0.594500  1.0  -0.336
  N  N959  1  0.698100  0.171300  0.094500  1.0  -0.3366
  N  N960  1  0.301900  0.671300  0.405500  1.0  -0.3378
  N  N961  1  0.614000  0.614000  0.614000  1.0  -0.1474
  N  N962  1  0.886000  0.386000  0.114000  1.0  -0.1404
  N  N963  1  0.386000  0.114000  0.886000  1.0  -0.1392
  N  N964  1  0.114000  0.886000  0.386000  1.0  -0.1513
  N  N965  1  0.386000  0.386000  0.386000  1.0  -0.1414
  N  N966  1  0.114000  0.614000  0.886000  1.0  -0.1474
  N  N967  1  0.614000  0.886000  0.114000  1.0  -0.1471
  N  N968  1  0.886000  0.114000  0.614000  1.0  -0.1431
  O  O969  1  0.886110  0.740950  0.774250  1.0  -0.7104
  O  O970  1  0.855740  0.828120  0.710580  1.0  -0.706
  O  O971  1  0.898450  0.841670  0.813460  1.0  -0.7134
  O  O972  1  0.761930  0.786740  0.698320  1.0  -0.695
  O  O973  1  0.851500  0.714200  0.673600  1.0  -0.5862
  O  O974  1  0.877400  0.646100  0.717100  1.0  -0.5749
  O  O975  1  0.613890  0.259050  0.274250  1.0  -0.7121
  O  O976  1  0.644260  0.171880  0.210580  1.0  -0.7042
  O  O977  1  0.601550  0.158330  0.313460  1.0  -0.7173
  O  O978  1  0.738070  0.213260  0.198320  1.0  -0.6957
  O  O979  1  0.648500  0.285800  0.173600  1.0  -0.5882
  O  O980  1  0.622600  0.353900  0.217100  1.0  -0.5738
  O  O981  1  0.113890  0.240950  0.725750  1.0  -0.7109
  O  O982  1  0.144260  0.328120  0.789420  1.0  -0.7086
  O  O983  1  0.101550  0.341670  0.686540  1.0  -0.7169
  O  O984  1  0.238070  0.286740  0.801680  1.0  -0.6947
  O  O985  1  0.148500  0.214200  0.826400  1.0  -0.5879
  O  O986  1  0.122600  0.146100  0.782900  1.0  -0.5762
  O  O987  1  0.386110  0.759050  0.225750  1.0  -0.709
  O  O988  1  0.355740  0.671880  0.289420  1.0  -0.7064
  O  O989  1  0.398450  0.658330  0.186540  1.0  -0.7144
  O  O990  1  0.261930  0.713260  0.301680  1.0  -0.6932
  O  O991  1  0.351500  0.785800  0.326400  1.0  -0.5872
  O  O992  1  0.377400  0.853900  0.282900  1.0  -0.5758
  O  O993  1  0.774250  0.886110  0.740950  1.0  -0.7098
  O  O994  1  0.710580  0.855740  0.828120  1.0  -0.7098
  O  O995  1  0.813460  0.898450  0.841670  1.0  -0.715
  O  O996  1  0.698320  0.761930  0.786740  1.0  -0.6968
  O  O997  1  0.673600  0.851500  0.714200  1.0  -0.5885
  O  O998  1  0.717100  0.877400  0.646100  1.0  -0.5728
  O  O999  1  0.274250  0.613890  0.259050  1.0  -0.7097
  O  O1000  1  0.210580  0.644260  0.171880  1.0  -0.706
  O  O1001  1  0.313460  0.601550  0.158330  1.0  -0.7149
  O  O1002  1  0.198320  0.738070  0.213260  1.0  -0.6954
  O  O1003  1  0.173600  0.648500  0.285800  1.0  -0.5878
  O  O1004  1  0.217100  0.622600  0.353900  1.0  -0.5745
  O  O1005  1  0.725750  0.113890  0.240950  1.0  -0.7096
  O  O1006  1  0.789420  0.144260  0.328120  1.0  -0.7085
  O  O1007  1  0.686540  0.101550  0.341670  1.0  -0.7152
  O  O1008  1  0.801680  0.238070  0.286740  1.0  -0.6957
  O  O1009  1  0.826400  0.148500  0.214200  1.0  -0.5882
  O  O1010  1  0.782900  0.122600  0.146100  1.0  -0.5705
  O  O1011  1  0.225750  0.386110  0.759050  1.0  -0.711
  O  O1012  1  0.289420  0.355740  0.671880  1.0  -0.708
  O  O1013  1  0.186540  0.398450  0.658330  1.0  -0.7175
  O  O1014  1  0.301680  0.261930  0.713260  1.0  -0.6955
  O  O1015  1  0.326400  0.351500  0.785800  1.0  -0.589
  O  O1016  1  0.282900  0.377400  0.853900  1.0  -0.5708
  O  O1017  1  0.740950  0.774250  0.886110  1.0  -0.7111
  O  O1018  1  0.828120  0.710580  0.855740  1.0  -0.7111
  O  O1019  1  0.841670  0.813460  0.898450  1.0  -0.7133
  O  O1020  1  0.786740  0.698320  0.761930  1.0  -0.6945
  O  O1021  1  0.714200  0.673600  0.851500  1.0  -0.5891
  O  O1022  1  0.646100  0.717100  0.877400  1.0  -0.5733
  O  O1023  1  0.259050  0.274250  0.613890  1.0  -0.7107
  O  O1024  1  0.171880  0.210580  0.644260  1.0  -0.7097
  O  O1025  1  0.158330  0.313460  0.601550  1.0  -0.714
  O  O1026  1  0.213260  0.198320  0.738070  1.0  -0.6947
  O  O1027  1  0.285800  0.173600  0.648500  1.0  -0.586
  O  O1028  1  0.353900  0.217100  0.622600  1.0  -0.5736
  O  O1029  1  0.240950  0.725750  0.113890  1.0  -0.7119
  O  O1030  1  0.328120  0.789420  0.144260  1.0  -0.7096
  O  O1031  1  0.341670  0.686540  0.101550  1.0  -0.7124
  O  O1032  1  0.286740  0.801680  0.238070  1.0  -0.6927
  O  O1033  1  0.214200  0.826400  0.148500  1.0  -0.587
  O  O1034  1  0.146100  0.782900  0.122600  1.0  -0.5741
  O  O1035  1  0.759050  0.225750  0.386110  1.0  -0.7113
  O  O1036  1  0.671880  0.289420  0.355740  1.0  -0.7114
  O  O1037  1  0.658330  0.186540  0.398450  1.0  -0.7131
  O  O1038  1  0.713260  0.301680  0.261930  1.0  -0.6953
  O  O1039  1  0.785800  0.326400  0.351500  1.0  -0.5877
  O  O1040  1  0.853900  0.282900  0.377400  1.0  -0.576
  O  O1041  1  0.113890  0.259050  0.225750  1.0  -0.7111
  O  O1042  1  0.144260  0.171880  0.289420  1.0  -0.7055
  O  O1043  1  0.101550  0.158330  0.186540  1.0  -0.7157
  O  O1044  1  0.238070  0.213260  0.301680  1.0  -0.6949
  O  O1045  1  0.148500  0.285800  0.326400  1.0  -0.5886
  O  O1046  1  0.122600  0.353900  0.282900  1.0  -0.5751
  O  O1047  1  0.386110  0.740950  0.725750  1.0  -0.7102
  O  O1048  1  0.355740  0.828120  0.789420  1.0  -0.7081
  O  O1049  1  0.398450  0.841670  0.686540  1.0  -0.7141
  O  O1050  1  0.261930  0.786740  0.801680  1.0  -0.6941
  O  O1051  1  0.351500  0.714200  0.826400  1.0  -0.5873
  O  O1052  1  0.377400  0.646100  0.782900  1.0  -0.5752
  O  O1053  1  0.886110  0.759050  0.274250  1.0  -0.7103
  O  O1054  1  0.855740  0.671880  0.210580  1.0  -0.7057
  O  O1055  1  0.898450  0.658330  0.313460  1.0  -0.7143
  O  O1056  1  0.761930  0.713260  0.198320  1.0  -0.6943
  O  O1057  1  0.851500  0.785800  0.173600  1.0  -0.586
  O  O1058  1  0.877400  0.853900  0.217100  1.0  -0.5742
  O  O1059  1  0.613890  0.240950  0.774250  1.0  -0.7113
  O  O1060  1  0.644260  0.328120  0.710580  1.0  -0.7063
  O  O1061  1  0.601550  0.341670  0.813460  1.0  -0.7169
  O  O1062  1  0.738070  0.286740  0.698320  1.0  -0.6957
  O  O1063  1  0.648500  0.214200  0.673600  1.0  -0.5884
  O  O1064  1  0.622600  0.146100  0.717100  1.0  -0.5754
  O  O1065  1  0.225750  0.113890  0.259050  1.0  -0.7101
  O  O1066  1  0.289420  0.144260  0.171880  1.0  -0.7069
  O  O1067  1  0.186540  0.101550  0.158330  1.0  -0.7155
  O  O1068  1  0.301680  0.238070  0.213260  1.0  -0.6962
  O  O1069  1  0.326400  0.148500  0.285800  1.0  -0.5875
  O  O1070  1  0.282900  0.122600  0.353900  1.0  -0.5749
  O  O1071  1  0.725750  0.386110  0.740950  1.0  -0.7098
  O  O1072  1  0.789420  0.355740  0.828120  1.0  -0.7092
  O  O1073  1  0.686540  0.398450  0.841670  1.0  -0.7164
  O  O1074  1  0.801680  0.261930  0.786740  1.0  -0.6963
  O  O1075  1  0.826400  0.351500  0.714200  1.0  -0.5895
  O  O1076  1  0.782900  0.377400  0.646100  1.0  -0.5715
  O  O1077  1  0.274250  0.886110  0.759050  1.0  -0.7101
  O  O1078  1  0.210580  0.855740  0.671880  1.0  -0.7072
  O  O1079  1  0.313460  0.898450  0.658330  1.0  -0.7171
  O  O1080  1  0.198320  0.761930  0.713260  1.0  -0.6948
  O  O1081  1  0.173600  0.851500  0.785800  1.0  -0.5892
  O  O1082  1  0.217100  0.877400  0.853900  1.0  -0.5713
  O  O1083  1  0.774250  0.613890  0.240950  1.0  -0.7098
  O  O1084  1  0.710580  0.644260  0.328120  1.0  -0.7088
  O  O1085  1  0.813460  0.601550  0.341670  1.0  -0.7134
  O  O1086  1  0.698320  0.738070  0.286740  1.0  -0.6962
  O  O1087  1  0.673600  0.648500  0.214200  1.0  -0.5879
  O  O1088  1  0.717100  0.622600  0.146100  1.0  -0.5707
  O  O1089  1  0.259050  0.225750  0.113890  1.0  -0.7114
  O  O1090  1  0.171880  0.289420  0.144260  1.0  -0.71
  O  O1091  1  0.158330  0.186540  0.101550  1.0  -0.7133
  O  O1092  1  0.213260  0.301680  0.238070  1.0  -0.6946
  O  O1093  1  0.285800  0.326400  0.148500  1.0  -0.5853
  O  O1094  1  0.353900  0.282900  0.122600  1.0  -0.575
  O  O1095  1  0.740950  0.725750  0.386110  1.0  -0.7118
  O  O1096  1  0.828120  0.789420  0.355740  1.0  -0.711
  O  O1097  1  0.841670  0.686540  0.398450  1.0  -0.7117
  O  O1098  1  0.786740  0.801680  0.261930  1.0  -0.694
  O  O1099  1  0.714200  0.826400  0.351500  1.0  -0.5903
  O  O1100  1  0.646100  0.782900  0.377400  1.0  -0.5743
  O  O1101  1  0.759050  0.274250  0.886110  1.0  -0.7104
  O  O1102  1  0.671880  0.210580  0.855740  1.0  -0.7113
  O  O1103  1  0.658330  0.313460  0.898450  1.0  -0.7138
  O  O1104  1  0.713260  0.198320  0.761930  1.0  -0.6955
  O  O1105  1  0.785800  0.173600  0.851500  1.0  -0.5876
  O  O1106  1  0.853900  0.217100  0.877400  1.0  -0.5756
  O  O1107  1  0.240950  0.774250  0.613890  1.0  -0.711
  O  O1108  1  0.328120  0.710580  0.644260  1.0  -0.7098
  O  O1109  1  0.341670  0.813460  0.601550  1.0  -0.7131
  O  O1110  1  0.286740  0.698320  0.738070  1.0  -0.6931
  O  O1111  1  0.214200  0.673600  0.648500  1.0  -0.5872
  O  O1112  1  0.146100  0.717100  0.622600  1.0  -0.5727
  O  O1113  1  0.799960  0.799960  0.799960  1.0  -0.8667
  O  O1114  1  0.700040  0.200040  0.299960  1.0  -0.8652
  O  O1115  1  0.200040  0.299960  0.700040  1.0  -0.8657
  O  O1116  1  0.299960  0.700040  0.200040  1.0  -0.8665
  O  O1117  1  0.200040  0.200040  0.200040  1.0  -0.8648
  O  O1118  1  0.299960  0.799960  0.700040  1.0  -0.867
  O  O1119  1  0.799960  0.700040  0.299960  1.0  -0.8669
  O  O1120  1  0.700040  0.299960  0.799960  1.0  -0.8654
