# generated using pymatgen
data_Zn8H72C99O38
_symmetry_space_group_name_H-M   'P 1'
_cell_length_a   23.96470000
_cell_length_b   23.96470000
_cell_length_c   23.96470000
_cell_angle_alpha   90.00000000
_cell_angle_beta   90.00000000
_cell_angle_gamma   90.00000000
_symmetry_Int_Tables_number   1
_chemical_formula_structural   Zn8H72C99O38
_chemical_formula_sum   'Zn32 H288 C396 O152'
_cell_volume   13763.09127449
_cell_formula_units_Z   4
loop_
 _symmetry_equiv_pos_site_id
 _symmetry_equiv_pos_as_xyz
  1  'x, y, z'
loop_
 _atom_site_type_symbol
 _atom_site_label
 _atom_site_symmetry_multiplicity
 _atom_site_fract_x
 _atom_site_fract_y
 _atom_site_fract_z
 _atom_site_occupancy
 _atom_site_charge
  Zn  Zn1  1  0.303620  0.587520  0.371620  1.0  1.0755
  Zn  Zn2  1  0.087430  0.803790  0.128680  1.0  1.0161
  Zn  Zn3  1  0.696380  0.412480  0.371620  1.0  1.0752
  Zn  Zn4  1  0.912570  0.196210  0.128680  1.0  1.0155
  Zn  Zn5  1  0.696380  0.587520  0.628380  1.0  1.0761
  Zn  Zn6  1  0.912570  0.803790  0.871320  1.0  1.0162
  Zn  Zn7  1  0.303620  0.412480  0.628380  1.0  1.0739
  Zn  Zn8  1  0.087430  0.196210  0.871320  1.0  1.0177
  Zn  Zn9  1  0.371620  0.303620  0.587520  1.0  1.0764
  Zn  Zn10  1  0.128680  0.087430  0.803790  1.0  1.0152
  Zn  Zn11  1  0.371620  0.696380  0.412480  1.0  1.0761
  Zn  Zn12  1  0.128680  0.912570  0.196210  1.0  1.0145
  Zn  Zn13  1  0.628380  0.696380  0.587520  1.0  1.0765
  Zn  Zn14  1  0.871320  0.912570  0.803790  1.0  1.0149
  Zn  Zn15  1  0.628380  0.303620  0.412480  1.0  1.075
  Zn  Zn16  1  0.871320  0.087430  0.196210  1.0  1.0152
  Zn  Zn17  1  0.587520  0.371620  0.303620  1.0  1.0754
  Zn  Zn18  1  0.803790  0.128680  0.087430  1.0  1.015
  Zn  Zn19  1  0.412480  0.371620  0.696380  1.0  1.0743
  Zn  Zn20  1  0.196210  0.128680  0.912570  1.0  1.0158
  Zn  Zn21  1  0.587520  0.628380  0.696380  1.0  1.0759
  Zn  Zn22  1  0.803790  0.871320  0.912570  1.0  1.0142
  Zn  Zn23  1  0.412480  0.628380  0.303620  1.0  1.0754
  Zn  Zn24  1  0.196210  0.871320  0.087430  1.0  1.0153
  Zn  Zn25  1  0.303170  0.696830  0.303170  1.0  1.0925
  Zn  Zn26  1  0.196360  0.803640  0.196360  1.0  1.0193
  Zn  Zn27  1  0.696830  0.303170  0.303170  1.0  1.0929
  Zn  Zn28  1  0.803640  0.196360  0.196360  1.0  1.0196
  Zn  Zn29  1  0.696830  0.696830  0.696830  1.0  1.093
  Zn  Zn30  1  0.803640  0.803640  0.803640  1.0  1.0197
  Zn  Zn31  1  0.303170  0.303170  0.696830  1.0  1.0928
  Zn  Zn32  1  0.196360  0.196360  0.803640  1.0  1.0191
  H  H33  1  0.963700  0.655600  0.237600  1.0  0.0749
  H  H34  1  0.926300  0.680200  0.285300  1.0  0.0804
  H  H35  1  0.037000  0.547900  0.336400  1.0  0.1263
  H  H36  1  0.135200  0.555100  0.349300  1.0  0.1136
  H  H37  1  0.130400  0.714700  0.304000  1.0  0.1072
  H  H38  1  0.030500  0.705800  0.286700  1.0  0.1267
  H  H39  1  0.933300  0.573600  0.183400  1.0  0.0835
  H  H40  1  0.936800  0.538700  0.238800  1.0  0.0744
  H  H41  1  0.949700  0.466000  0.169600  1.0  0.1301
  H  H42  1  0.939900  0.370900  0.139800  1.0  0.1085
  H  H43  1  0.784700  0.369100  0.195900  1.0  0.102
  H  H44  1  0.791100  0.466500  0.215800  1.0  0.1282
  H  H45  1  0.828900  0.630500  0.185100  1.0  0.0848
  H  H46  1  0.841600  0.682700  0.223700  1.0  0.0889
  H  H47  1  0.804900  0.712400  0.145100  1.0  0.1182
  H  H48  1  0.786300  0.755500  0.051400  1.0  0.1146
  H  H49  1  0.950200  0.757300  0.021300  1.0  0.1214
  H  H50  1  0.967400  0.708500  0.108000  1.0  0.1154
  H  H51  1  0.822100  0.568800  0.277300  1.0  0.0777
  H  H52  1  0.870400  0.572400  0.321800  1.0  0.105
  H  H53  1  0.777000  0.715000  0.366000  1.0  0.1128
  H  H54  1  0.726000  0.709300  0.453300  1.0  0.1071
  H  H55  1  0.748400  0.543300  0.454400  1.0  0.1215
  H  H56  1  0.810200  0.553100  0.373200  1.0  0.1395
  H  H57  1  0.036300  0.344400  0.237600  1.0  0.0731
  H  H58  1  0.073700  0.319800  0.285300  1.0  0.0819
  H  H59  1  0.963000  0.452100  0.336400  1.0  0.1259
  H  H60  1  0.864800  0.444900  0.349300  1.0  0.113
  H  H61  1  0.869600  0.285300  0.304000  1.0  0.107
  H  H62  1  0.969500  0.294200  0.286700  1.0  0.1269
  H  H63  1  0.066700  0.426400  0.183400  1.0  0.0835
  H  H64  1  0.063200  0.461300  0.238800  1.0  0.0728
  H  H65  1  0.050300  0.534000  0.169600  1.0  0.13
  H  H66  1  0.060100  0.629100  0.139800  1.0  0.109
  H  H67  1  0.215300  0.630900  0.195900  1.0  0.1026
  H  H68  1  0.208900  0.533500  0.215800  1.0  0.1282
  H  H69  1  0.171100  0.369500  0.185100  1.0  0.0845
  H  H70  1  0.158400  0.317300  0.223700  1.0  0.0903
  H  H71  1  0.195100  0.287600  0.145100  1.0  0.1189
  H  H72  1  0.213700  0.244500  0.051400  1.0  0.1139
  H  H73  1  0.049800  0.242700  0.021300  1.0  0.1215
  H  H74  1  0.032600  0.291500  0.108000  1.0  0.1148
  H  H75  1  0.177900  0.431200  0.277300  1.0  0.0773
  H  H76  1  0.129600  0.427600  0.321800  1.0  0.1045
  H  H77  1  0.223000  0.285000  0.366000  1.0  0.1134
  H  H78  1  0.274000  0.290700  0.453300  1.0  0.1068
  H  H79  1  0.251600  0.456700  0.454400  1.0  0.1212
  H  H80  1  0.189800  0.446900  0.373200  1.0  0.1388
  H  H81  1  0.036300  0.655600  0.762400  1.0  0.0722
  H  H82  1  0.073700  0.680200  0.714700  1.0  0.0811
  H  H83  1  0.963000  0.547900  0.663600  1.0  0.1266
  H  H84  1  0.864800  0.555100  0.650700  1.0  0.1126
  H  H85  1  0.869600  0.714700  0.696000  1.0  0.1071
  H  H86  1  0.969500  0.705800  0.713300  1.0  0.1261
  H  H87  1  0.066700  0.573600  0.816600  1.0  0.0834
  H  H88  1  0.063200  0.538700  0.761200  1.0  0.0734
  H  H89  1  0.050300  0.466000  0.830400  1.0  0.1293
  H  H90  1  0.060100  0.370900  0.860200  1.0  0.1089
  H  H91  1  0.215300  0.369100  0.804100  1.0  0.103
  H  H92  1  0.208900  0.466500  0.784200  1.0  0.1281
  H  H93  1  0.171100  0.630500  0.814900  1.0  0.0841
  H  H94  1  0.158400  0.682700  0.776300  1.0  0.0892
  H  H95  1  0.195100  0.712400  0.854900  1.0  0.1187
  H  H96  1  0.213700  0.755500  0.948600  1.0  0.114
  H  H97  1  0.049800  0.757300  0.978700  1.0  0.1207
  H  H98  1  0.032600  0.708500  0.892000  1.0  0.1158
  H  H99  1  0.177900  0.568800  0.722700  1.0  0.0784
  H  H100  1  0.129600  0.572400  0.678200  1.0  0.1055
  H  H101  1  0.223000  0.715000  0.634000  1.0  0.1129
  H  H102  1  0.274000  0.709300  0.546700  1.0  0.107
  H  H103  1  0.251600  0.543300  0.545600  1.0  0.1212
  H  H104  1  0.189800  0.553100  0.626800  1.0  0.1394
  H  H105  1  0.963700  0.344400  0.762400  1.0  0.0722
  H  H106  1  0.926300  0.319800  0.714700  1.0  0.0806
  H  H107  1  0.037000  0.452100  0.663600  1.0  0.1262
  H  H108  1  0.135200  0.444900  0.650700  1.0  0.1126
  H  H109  1  0.130400  0.285300  0.696000  1.0  0.1072
  H  H110  1  0.030500  0.294200  0.713300  1.0  0.126
  H  H111  1  0.933300  0.426400  0.816600  1.0  0.0836
  H  H112  1  0.936800  0.461300  0.761200  1.0  0.0737
  H  H113  1  0.949700  0.534000  0.830400  1.0  0.1303
  H  H114  1  0.939900  0.629100  0.860200  1.0  0.1086
  H  H115  1  0.784700  0.630900  0.804100  1.0  0.1021
  H  H116  1  0.791100  0.533500  0.784200  1.0  0.1282
  H  H117  1  0.828900  0.369500  0.814900  1.0  0.0848
  H  H118  1  0.841600  0.317300  0.776300  1.0  0.0903
  H  H119  1  0.804900  0.287600  0.854900  1.0  0.1186
  H  H120  1  0.786300  0.244500  0.948600  1.0  0.1146
  H  H121  1  0.950200  0.242700  0.978700  1.0  0.1205
  H  H122  1  0.967400  0.291500  0.892000  1.0  0.1157
  H  H123  1  0.822100  0.431200  0.722700  1.0  0.0776
  H  H124  1  0.870400  0.427600  0.678200  1.0  0.1046
  H  H125  1  0.777000  0.285000  0.634000  1.0  0.1132
  H  H126  1  0.726000  0.290700  0.546700  1.0  0.1074
  H  H127  1  0.748400  0.456700  0.545600  1.0  0.1216
  H  H128  1  0.810200  0.446900  0.626800  1.0  0.1404
  H  H129  1  0.237600  0.963700  0.655600  1.0  0.0727
  H  H130  1  0.285300  0.926300  0.680200  1.0  0.0811
  H  H131  1  0.336400  0.037000  0.547900  1.0  0.1261
  H  H132  1  0.349300  0.135200  0.555100  1.0  0.1134
  H  H133  1  0.304000  0.130400  0.714700  1.0  0.1067
  H  H134  1  0.286700  0.030500  0.705800  1.0  0.1256
  H  H135  1  0.183400  0.933300  0.573600  1.0  0.0822
  H  H136  1  0.238800  0.936800  0.538700  1.0  0.0745
  H  H137  1  0.169600  0.949700  0.466000  1.0  0.1294
  H  H138  1  0.139800  0.939900  0.370900  1.0  0.1075
  H  H139  1  0.195900  0.784700  0.369100  1.0  0.1001
  H  H140  1  0.215800  0.791100  0.466500  1.0  0.1274
  H  H141  1  0.185100  0.828900  0.630500  1.0  0.0843
  H  H142  1  0.223700  0.841600  0.682700  1.0  0.091
  H  H143  1  0.145100  0.804900  0.712400  1.0  0.1189
  H  H144  1  0.051400  0.786300  0.755500  1.0  0.1151
  H  H145  1  0.021300  0.950200  0.757300  1.0  0.1225
  H  H146  1  0.108000  0.967400  0.708500  1.0  0.1157
  H  H147  1  0.277300  0.822100  0.568800  1.0  0.0774
  H  H148  1  0.321800  0.870400  0.572400  1.0  0.1049
  H  H149  1  0.366000  0.777000  0.715000  1.0  0.1134
  H  H150  1  0.453300  0.726000  0.709300  1.0  0.1073
  H  H151  1  0.454400  0.748400  0.543300  1.0  0.1215
  H  H152  1  0.373200  0.810200  0.553100  1.0  0.1376
  H  H153  1  0.237600  0.036300  0.344400  1.0  0.072
  H  H154  1  0.285300  0.073700  0.319800  1.0  0.0814
  H  H155  1  0.336400  0.963000  0.452100  1.0  0.1254
  H  H156  1  0.349300  0.864800  0.444900  1.0  0.1131
  H  H157  1  0.304000  0.869600  0.285300  1.0  0.1067
  H  H158  1  0.286700  0.969500  0.294200  1.0  0.1256
  H  H159  1  0.183400  0.066700  0.426400  1.0  0.0822
  H  H160  1  0.238800  0.063200  0.461300  1.0  0.0745
  H  H161  1  0.169600  0.050300  0.534000  1.0  0.1288
  H  H162  1  0.139800  0.060100  0.629100  1.0  0.1067
  H  H163  1  0.195900  0.215300  0.630900  1.0  0.1003
  H  H164  1  0.215800  0.208900  0.533500  1.0  0.1279
  H  H165  1  0.185100  0.171100  0.369500  1.0  0.0834
  H  H166  1  0.223700  0.158400  0.317300  1.0  0.0902
  H  H167  1  0.145100  0.195100  0.287600  1.0  0.1189
  H  H168  1  0.051400  0.213700  0.244500  1.0  0.115
  H  H169  1  0.021300  0.049800  0.242700  1.0  0.1225
  H  H170  1  0.108000  0.032600  0.291500  1.0  0.1162
  H  H171  1  0.277300  0.177900  0.431200  1.0  0.0769
  H  H172  1  0.321800  0.129600  0.427600  1.0  0.104
  H  H173  1  0.366000  0.223000  0.285000  1.0  0.1135
  H  H174  1  0.453300  0.274000  0.290700  1.0  0.107
  H  H175  1  0.454400  0.251600  0.456700  1.0  0.1211
  H  H176  1  0.373200  0.189800  0.446900  1.0  0.1377
  H  H177  1  0.762400  0.036300  0.655600  1.0  0.0734
  H  H178  1  0.714700  0.073700  0.680200  1.0  0.0818
  H  H179  1  0.663600  0.963000  0.547900  1.0  0.1262
  H  H180  1  0.650700  0.864800  0.555100  1.0  0.1128
  H  H181  1  0.696000  0.869600  0.714700  1.0  0.1066
  H  H182  1  0.713300  0.969500  0.705800  1.0  0.1255
  H  H183  1  0.816600  0.066700  0.573600  1.0  0.0822
  H  H184  1  0.761200  0.063200  0.538700  1.0  0.0752
  H  H185  1  0.830400  0.050300  0.466000  1.0  0.1296
  H  H186  1  0.860200  0.060100  0.370900  1.0  0.1068
  H  H187  1  0.804100  0.215300  0.369100  1.0  0.1005
  H  H188  1  0.784200  0.208900  0.466500  1.0  0.1286
  H  H189  1  0.814900  0.171100  0.630500  1.0  0.0839
  H  H190  1  0.776300  0.158400  0.682700  1.0  0.0904
  H  H191  1  0.854900  0.195100  0.712400  1.0  0.1182
  H  H192  1  0.948600  0.213700  0.755500  1.0  0.1151
  H  H193  1  0.978700  0.049800  0.757300  1.0  0.1225
  H  H194  1  0.892000  0.032600  0.708500  1.0  0.1167
  H  H195  1  0.722700  0.177900  0.568800  1.0  0.0775
  H  H196  1  0.678200  0.129600  0.572400  1.0  0.1043
  H  H197  1  0.634000  0.223000  0.715000  1.0  0.1136
  H  H198  1  0.546700  0.274000  0.709300  1.0  0.1073
  H  H199  1  0.545600  0.251600  0.543300  1.0  0.1219
  H  H200  1  0.626800  0.189800  0.553100  1.0  0.1383
  H  H201  1  0.762400  0.963700  0.344400  1.0  0.0742
  H  H202  1  0.714700  0.926300  0.319800  1.0  0.0825
  H  H203  1  0.663600  0.037000  0.452100  1.0  0.1264
  H  H204  1  0.650700  0.135200  0.444900  1.0  0.1133
  H  H205  1  0.696000  0.130400  0.285300  1.0  0.1056
  H  H206  1  0.713300  0.030500  0.294200  1.0  0.125
  H  H207  1  0.816600  0.933300  0.426400  1.0  0.0824
  H  H208  1  0.761200  0.936800  0.461300  1.0  0.0741
  H  H209  1  0.830400  0.949700  0.534000  1.0  0.1311
  H  H210  1  0.860200  0.939900  0.629100  1.0  0.107
  H  H211  1  0.804100  0.784700  0.630900  1.0  0.1001
  H  H212  1  0.784200  0.791100  0.533500  1.0  0.1277
  H  H213  1  0.814900  0.828900  0.369500  1.0  0.0842
  H  H214  1  0.776300  0.841600  0.317300  1.0  0.0906
  H  H215  1  0.854900  0.804900  0.287600  1.0  0.1192
  H  H216  1  0.948600  0.786300  0.244500  1.0  0.1151
  H  H217  1  0.978700  0.950200  0.242700  1.0  0.1225
  H  H218  1  0.892000  0.967400  0.291500  1.0  0.1157
  H  H219  1  0.722700  0.822100  0.431200  1.0  0.0786
  H  H220  1  0.678200  0.870400  0.427600  1.0  0.1035
  H  H221  1  0.634000  0.777000  0.285000  1.0  0.1136
  H  H222  1  0.546700  0.726000  0.290700  1.0  0.1075
  H  H223  1  0.545600  0.748400  0.456700  1.0  0.1217
  H  H224  1  0.626800  0.810200  0.446900  1.0  0.1379
  H  H225  1  0.655600  0.237600  0.963700  1.0  0.0734
  H  H226  1  0.680200  0.285300  0.926300  1.0  0.083
  H  H227  1  0.547900  0.336400  0.037000  1.0  0.1279
  H  H228  1  0.555100  0.349300  0.135200  1.0  0.1125
  H  H229  1  0.714700  0.304000  0.130400  1.0  0.1059
  H  H230  1  0.705800  0.286700  0.030500  1.0  0.1257
  H  H231  1  0.573600  0.183400  0.933300  1.0  0.0832
  H  H232  1  0.538700  0.238800  0.936800  1.0  0.0731
  H  H233  1  0.466000  0.169600  0.949700  1.0  0.1302
  H  H234  1  0.370900  0.139800  0.939900  1.0  0.1092
  H  H235  1  0.369100  0.195900  0.784700  1.0  0.1014
  H  H236  1  0.466500  0.215800  0.791100  1.0  0.1271
  H  H237  1  0.630500  0.185100  0.828900  1.0  0.0836
  H  H238  1  0.682700  0.223700  0.841600  1.0  0.088
  H  H239  1  0.712400  0.145100  0.804900  1.0  0.1178
  H  H240  1  0.755500  0.051400  0.786300  1.0  0.1152
  H  H241  1  0.757300  0.021300  0.950200  1.0  0.1236
  H  H242  1  0.708500  0.108000  0.967400  1.0  0.1145
  H  H243  1  0.568800  0.277300  0.822100  1.0  0.0778
  H  H244  1  0.572400  0.321800  0.870400  1.0  0.103
  H  H245  1  0.715000  0.366000  0.777000  1.0  0.1124
  H  H246  1  0.709300  0.453300  0.726000  1.0  0.1062
  H  H247  1  0.543300  0.454400  0.748400  1.0  0.1212
  H  H248  1  0.553100  0.373200  0.810200  1.0  0.1387
  H  H249  1  0.344400  0.237600  0.036300  1.0  0.0735
  H  H250  1  0.319800  0.285300  0.073700  1.0  0.0815
  H  H251  1  0.452100  0.336400  0.963000  1.0  0.1264
  H  H252  1  0.444900  0.349300  0.864800  1.0  0.1129
  H  H253  1  0.285300  0.304000  0.869600  1.0  0.1054
  H  H254  1  0.294200  0.286700  0.969500  1.0  0.1251
  H  H255  1  0.426400  0.183400  0.066700  1.0  0.0818
  H  H256  1  0.461300  0.238800  0.063200  1.0  0.074
  H  H257  1  0.534000  0.169600  0.050300  1.0  0.1289
  H  H258  1  0.629100  0.139800  0.060100  1.0  0.1093
  H  H259  1  0.630900  0.195900  0.215300  1.0  0.1017
  H  H260  1  0.533500  0.215800  0.208900  1.0  0.1267
  H  H261  1  0.369500  0.185100  0.171100  1.0  0.0845
  H  H262  1  0.317300  0.223700  0.158400  1.0  0.0886
  H  H263  1  0.287600  0.145100  0.195100  1.0  0.1177
  H  H264  1  0.244500  0.051400  0.213700  1.0  0.1147
  H  H265  1  0.242700  0.021300  0.049800  1.0  0.1232
  H  H266  1  0.291500  0.108000  0.032600  1.0  0.115
  H  H267  1  0.431200  0.277300  0.177900  1.0  0.0791
  H  H268  1  0.427600  0.321800  0.129600  1.0  0.104
  H  H269  1  0.285000  0.366000  0.223000  1.0  0.1126
  H  H270  1  0.290700  0.453300  0.274000  1.0  0.1064
  H  H271  1  0.456700  0.454400  0.251600  1.0  0.1214
  H  H272  1  0.446900  0.373200  0.189800  1.0  0.1403
  H  H273  1  0.655600  0.762400  0.036300  1.0  0.0745
  H  H274  1  0.680200  0.714700  0.073700  1.0  0.0817
  H  H275  1  0.547900  0.663600  0.963000  1.0  0.1279
  H  H276  1  0.555100  0.650700  0.864800  1.0  0.1124
  H  H277  1  0.714700  0.696000  0.869600  1.0  0.106
  H  H278  1  0.705800  0.713300  0.969500  1.0  0.1256
  H  H279  1  0.573600  0.816600  0.066700  1.0  0.0817
  H  H280  1  0.538700  0.761200  0.063200  1.0  0.0734
  H  H281  1  0.466000  0.830400  0.050300  1.0  0.1294
  H  H282  1  0.370900  0.860200  0.060100  1.0  0.1102
  H  H283  1  0.369100  0.804100  0.215300  1.0  0.1011
  H  H284  1  0.466500  0.784200  0.208900  1.0  0.1268
  H  H285  1  0.630500  0.814900  0.171100  1.0  0.0826
  H  H286  1  0.682700  0.776300  0.158400  1.0  0.0882
  H  H287  1  0.712400  0.854900  0.195100  1.0  0.1174
  H  H288  1  0.755500  0.948600  0.213700  1.0  0.1148
  H  H289  1  0.757300  0.978700  0.049800  1.0  0.1228
  H  H290  1  0.708500  0.892000  0.032600  1.0  0.1143
  H  H291  1  0.568800  0.722700  0.177900  1.0  0.0783
  H  H292  1  0.572400  0.678200  0.129600  1.0  0.104
  H  H293  1  0.715000  0.634000  0.223000  1.0  0.112
  H  H294  1  0.709300  0.546700  0.274000  1.0  0.1069
  H  H295  1  0.543300  0.545600  0.251600  1.0  0.1211
  H  H296  1  0.553100  0.626800  0.189800  1.0  0.1392
  H  H297  1  0.344400  0.762400  0.963700  1.0  0.0745
  H  H298  1  0.319800  0.714700  0.926300  1.0  0.0815
  H  H299  1  0.452100  0.663600  0.037000  1.0  0.1268
  H  H300  1  0.444900  0.650700  0.135200  1.0  0.1124
  H  H301  1  0.285300  0.696000  0.130400  1.0  0.1051
  H  H302  1  0.294200  0.713300  0.030500  1.0  0.1252
  H  H303  1  0.426400  0.816600  0.933300  1.0  0.0809
  H  H304  1  0.461300  0.761200  0.936800  1.0  0.0734
  H  H305  1  0.534000  0.830400  0.949700  1.0  0.1293
  H  H306  1  0.629100  0.860200  0.939900  1.0  0.1094
  H  H307  1  0.630900  0.804100  0.784700  1.0  0.1012
  H  H308  1  0.533500  0.784200  0.791100  1.0  0.1267
  H  H309  1  0.369500  0.814900  0.828900  1.0  0.0837
  H  H310  1  0.317300  0.776300  0.841600  1.0  0.0887
  H  H311  1  0.287600  0.854900  0.804900  1.0  0.1187
  H  H312  1  0.244500  0.948600  0.786300  1.0  0.1149
  H  H313  1  0.242700  0.978700  0.950200  1.0  0.1232
  H  H314  1  0.291500  0.892000  0.967400  1.0  0.1146
  H  H315  1  0.431200  0.722700  0.822100  1.0  0.0776
  H  H316  1  0.427600  0.678200  0.870400  1.0  0.1041
  H  H317  1  0.285000  0.634000  0.777000  1.0  0.1123
  H  H318  1  0.290700  0.546700  0.726000  1.0  0.1061
  H  H319  1  0.456700  0.545600  0.748400  1.0  0.1216
  H  H320  1  0.446900  0.626800  0.810200  1.0  0.1397
  C  C321  1  0.890600  0.610700  0.248300  1.0  0.0643
  C  C322  1  0.940300  0.645800  0.269200  1.0  0.008
  C  C323  1  0.026400  0.626700  0.311700  1.0  0.2771
  C  C324  1  0.055300  0.581500  0.329600  1.0  -0.0884
  C  C325  1  0.114800  0.586100  0.338100  1.0  -0.0459
  C  C326  1  0.141100  0.635700  0.329900  1.0  -0.1032
  C  C327  1  0.112200  0.681100  0.310600  1.0  -0.0972
  C  C328  1  0.051100  0.675900  0.300500  1.0  -0.1513
  C  C329  1  0.202500  0.638800  0.333200  1.0  0.7008
  C  C330  1  0.912200  0.560800  0.215500  1.0  0.0366
  C  C331  1  0.869500  0.474600  0.187800  1.0  0.3699
  C  C332  1  0.915600  0.447700  0.171700  1.0  -0.1338
  C  C333  1  0.910600  0.389000  0.157700  1.0  -0.0471
  C  C334  1  0.862900  0.359700  0.170800  1.0  -0.1107
  C  C335  1  0.818100  0.388000  0.189700  1.0  -0.0524
  C  C336  1  0.821200  0.447400  0.200500  1.0  -0.0989
  C  C337  1  0.862000  0.297100  0.165200  1.0  0.6883
  C  C338  1  0.857800  0.650600  0.205100  1.0  0.0044
  C  C339  1  0.885700  0.699400  0.126900  1.0  0.3399
  C  C340  1  0.833000  0.718400  0.118900  1.0  -0.1672
  C  C341  1  0.822300  0.749800  0.064900  1.0  -0.0949
  C  C342  1  0.868300  0.769400  0.037100  1.0  -0.0685
  C  C343  1  0.921500  0.749900  0.046300  1.0  -0.1538
  C  C344  1  0.931300  0.717200  0.096600  1.0  -0.1231
  C  C345  1  0.869600  0.802000  0.982900  1.0  0.4688
  C  C346  1  0.850900  0.592700  0.292700  1.0  0.0631
  C  C347  1  0.800600  0.634700  0.365200  1.0  0.295
  C  C348  1  0.774400  0.681400  0.385200  1.0  -0.0761
  C  C349  1  0.742000  0.677500  0.437800  1.0  -0.0817
  C  C350  1  0.735700  0.626700  0.463600  1.0  -0.0912
  C  C351  1  0.756600  0.578200  0.439500  1.0  -0.0719
  C  C352  1  0.793000  0.584300  0.388500  1.0  -0.1569
  C  C353  1  0.703700  0.631000  0.518000  1.0  0.3144
  C  C354  1  0.109400  0.389300  0.248300  1.0  0.0644
  C  C355  1  0.059700  0.354200  0.269200  1.0  0.0098
  C  C356  1  0.973600  0.373300  0.311700  1.0  0.2781
  C  C357  1  0.944700  0.418500  0.329600  1.0  -0.0886
  C  C358  1  0.885200  0.413900  0.338100  1.0  -0.0458
  C  C359  1  0.858900  0.364300  0.329900  1.0  -0.1025
  C  C360  1  0.887800  0.318900  0.310600  1.0  -0.0964
  C  C361  1  0.948900  0.324100  0.300500  1.0  -0.1532
  C  C362  1  0.797500  0.361200  0.333200  1.0  0.6996
  C  C363  1  0.087800  0.439200  0.215500  1.0  0.0396
  C  C364  1  0.130500  0.525400  0.187800  1.0  0.3693
  C  C365  1  0.084400  0.552300  0.171700  1.0  -0.1353
  C  C366  1  0.089400  0.611000  0.157700  1.0  -0.0471
  C  C367  1  0.137100  0.640300  0.170800  1.0  -0.1094
  C  C368  1  0.181900  0.612000  0.189700  1.0  -0.0526
  C  C369  1  0.178800  0.552600  0.200500  1.0  -0.0987
  C  C370  1  0.138000  0.702900  0.165200  1.0  0.6897
  C  C371  1  0.142200  0.349400  0.205100  1.0  0.0042
  C  C372  1  0.114300  0.300600  0.126900  1.0  0.3402
  C  C373  1  0.167000  0.281600  0.118900  1.0  -0.1663
  C  C374  1  0.177700  0.250200  0.064900  1.0  -0.0955
  C  C375  1  0.131700  0.230600  0.037100  1.0  -0.0682
  C  C376  1  0.078500  0.250100  0.046300  1.0  -0.1522
  C  C377  1  0.068700  0.282800  0.096600  1.0  -0.1266
  C  C378  1  0.130400  0.198000  0.982900  1.0  0.469
  C  C379  1  0.149100  0.407300  0.292700  1.0  0.0633
  C  C380  1  0.199400  0.365300  0.365200  1.0  0.2953
  C  C381  1  0.225600  0.318600  0.385200  1.0  -0.0749
  C  C382  1  0.258000  0.322500  0.437800  1.0  -0.0803
  C  C383  1  0.264300  0.373300  0.463600  1.0  -0.0907
  C  C384  1  0.243400  0.421800  0.439500  1.0  -0.0722
  C  C385  1  0.207000  0.415700  0.388500  1.0  -0.1598
  C  C386  1  0.296300  0.369000  0.518000  1.0  0.3144
  C  C387  1  0.109400  0.610700  0.751700  1.0  0.0642
  C  C388  1  0.059700  0.645800  0.730800  1.0  0.0097
  C  C389  1  0.973600  0.626700  0.688300  1.0  0.2765
  C  C390  1  0.944700  0.581500  0.670400  1.0  -0.0915
  C  C391  1  0.885200  0.586100  0.661900  1.0  -0.0468
  C  C392  1  0.858900  0.635700  0.670100  1.0  -0.1071
  C  C393  1  0.887800  0.681100  0.689400  1.0  -0.0954
  C  C394  1  0.948900  0.675900  0.699500  1.0  -0.1527
  C  C395  1  0.797500  0.638800  0.666800  1.0  0.7001
  C  C396  1  0.087800  0.560800  0.784500  1.0  0.0366
  C  C397  1  0.130500  0.474600  0.812200  1.0  0.3708
  C  C398  1  0.084400  0.447700  0.828300  1.0  -0.1394
  C  C399  1  0.089400  0.389000  0.842300  1.0  -0.0477
  C  C400  1  0.137100  0.359700  0.829200  1.0  -0.1037
  C  C401  1  0.181900  0.388000  0.810300  1.0  -0.0534
  C  C402  1  0.178800  0.447400  0.799500  1.0  -0.097
  C  C403  1  0.138000  0.297100  0.834800  1.0  0.6873
  C  C404  1  0.142200  0.650600  0.794900  1.0  0.005
  C  C405  1  0.114300  0.699400  0.873100  1.0  0.3398
  C  C406  1  0.167000  0.718400  0.881100  1.0  -0.1641
  C  C407  1  0.177700  0.749800  0.935100  1.0  -0.0953
  C  C408  1  0.131700  0.769400  0.962900  1.0  -0.0685
  C  C409  1  0.078500  0.749900  0.953700  1.0  -0.1526
  C  C410  1  0.068700  0.717200  0.903400  1.0  -0.1288
  C  C411  1  0.130400  0.802000  0.017100  1.0  0.4669
  C  C412  1  0.149100  0.592700  0.707300  1.0  0.0621
  C  C413  1  0.199400  0.634700  0.634800  1.0  0.296
  C  C414  1  0.225600  0.681400  0.614800  1.0  -0.0766
  C  C415  1  0.258000  0.677500  0.562200  1.0  -0.0812
  C  C416  1  0.264300  0.626700  0.536400  1.0  -0.0915
  C  C417  1  0.243400  0.578200  0.560500  1.0  -0.0711
  C  C418  1  0.207000  0.584300  0.611500  1.0  -0.1573
  C  C419  1  0.296300  0.631000  0.482000  1.0  0.3142
  C  C420  1  0.890600  0.389300  0.751700  1.0  0.0642
  C  C421  1  0.940300  0.354200  0.730800  1.0  0.0071
  C  C422  1  0.026400  0.373300  0.688300  1.0  0.277
  C  C423  1  0.055300  0.418500  0.670400  1.0  -0.0912
  C  C424  1  0.114800  0.413900  0.661900  1.0  -0.049
  C  C425  1  0.141100  0.364300  0.670100  1.0  -0.1068
  C  C426  1  0.112200  0.318900  0.689400  1.0  -0.0966
  C  C427  1  0.051100  0.324100  0.699500  1.0  -0.1536
  C  C428  1  0.202500  0.361200  0.666800  1.0  0.7005
  C  C429  1  0.912200  0.439200  0.784500  1.0  0.0379
  C  C430  1  0.869500  0.525400  0.812200  1.0  0.3715
  C  C431  1  0.915600  0.552300  0.828300  1.0  -0.1382
  C  C432  1  0.910600  0.611000  0.842300  1.0  -0.0461
  C  C433  1  0.862900  0.640300  0.829200  1.0  -0.1066
  C  C434  1  0.818100  0.612000  0.810300  1.0  -0.0535
  C  C435  1  0.821200  0.552600  0.799500  1.0  -0.1004
  C  C436  1  0.862000  0.702900  0.834800  1.0  0.6887
  C  C437  1  0.857800  0.349400  0.794900  1.0  0.005
  C  C438  1  0.885700  0.300600  0.873100  1.0  0.3385
  C  C439  1  0.833000  0.281600  0.881100  1.0  -0.1637
  C  C440  1  0.822300  0.250200  0.935100  1.0  -0.0938
  C  C441  1  0.868300  0.230600  0.962900  1.0  -0.0681
  C  C442  1  0.921500  0.250100  0.953700  1.0  -0.1545
  C  C443  1  0.931300  0.282800  0.903400  1.0  -0.1248
  C  C444  1  0.869600  0.198000  0.017100  1.0  0.4675
  C  C445  1  0.850900  0.407300  0.707300  1.0  0.0629
  C  C446  1  0.800600  0.365300  0.634800  1.0  0.2935
  C  C447  1  0.774400  0.318600  0.614800  1.0  -0.075
  C  C448  1  0.742000  0.322500  0.562200  1.0  -0.0811
  C  C449  1  0.735700  0.373300  0.536400  1.0  -0.0905
  C  C450  1  0.756600  0.421800  0.560500  1.0  -0.0728
  C  C451  1  0.793000  0.415700  0.611500  1.0  -0.1561
  C  C452  1  0.703700  0.369000  0.482000  1.0  0.3145
  C  C453  1  0.248300  0.890600  0.610700  1.0  0.0639
  C  C454  1  0.269200  0.940300  0.645800  1.0  0.0075
  C  C455  1  0.311700  0.026400  0.626700  1.0  0.2753
  C  C456  1  0.329600  0.055300  0.581500  1.0  -0.0938
  C  C457  1  0.338100  0.114800  0.586100  1.0  -0.0448
  C  C458  1  0.329900  0.141100  0.635700  1.0  -0.1065
  C  C459  1  0.310600  0.112200  0.681100  1.0  -0.0892
  C  C460  1  0.300500  0.051100  0.675900  1.0  -0.1508
  C  C461  1  0.333200  0.202500  0.638800  1.0  0.7021
  C  C462  1  0.215500  0.912200  0.560800  1.0  0.0342
  C  C463  1  0.187800  0.869500  0.474600  1.0  0.3674
  C  C464  1  0.171700  0.915600  0.447700  1.0  -0.1315
  C  C465  1  0.157700  0.910600  0.389000  1.0  -0.0446
  C  C466  1  0.170800  0.862900  0.359700  1.0  -0.1091
  C  C467  1  0.189700  0.818100  0.388000  1.0  -0.0532
  C  C468  1  0.200500  0.821200  0.447400  1.0  -0.0958
  C  C469  1  0.165200  0.862000  0.297100  1.0  0.6925
  C  C470  1  0.205100  0.857800  0.650600  1.0  0.006
  C  C471  1  0.126900  0.885700  0.699400  1.0  0.3374
  C  C472  1  0.118900  0.833000  0.718400  1.0  -0.1649
  C  C473  1  0.064900  0.822300  0.749800  1.0  -0.0966
  C  C474  1  0.037100  0.868300  0.769400  1.0  -0.0695
  C  C475  1  0.046300  0.921500  0.749900  1.0  -0.1537
  C  C476  1  0.096600  0.931300  0.717200  1.0  -0.125
  C  C477  1  0.982900  0.869600  0.802000  1.0  0.4688
  C  C478  1  0.292700  0.850900  0.592700  1.0  0.0607
  C  C479  1  0.365200  0.800600  0.634700  1.0  0.2952
  C  C480  1  0.385200  0.774400  0.681400  1.0  -0.0788
  C  C481  1  0.437800  0.742000  0.677500  1.0  -0.0796
  C  C482  1  0.463600  0.735700  0.626700  1.0  -0.091
  C  C483  1  0.439500  0.756600  0.578200  1.0  -0.0745
  C  C484  1  0.388500  0.793000  0.584300  1.0  -0.1567
  C  C485  1  0.518000  0.703700  0.631000  1.0  0.3147
  C  C486  1  0.248300  0.109400  0.389300  1.0  0.0641
  C  C487  1  0.269200  0.059700  0.354200  1.0  0.0108
  C  C488  1  0.311700  0.973600  0.373300  1.0  0.2753
  C  C489  1  0.329600  0.944700  0.418500  1.0  -0.0939
  C  C490  1  0.338100  0.885200  0.413900  1.0  -0.0468
  C  C491  1  0.329900  0.858900  0.364300  1.0  -0.1063
  C  C492  1  0.310600  0.887800  0.318900  1.0  -0.0881
  C  C493  1  0.300500  0.948900  0.324100  1.0  -0.1505
  C  C494  1  0.333200  0.797500  0.361200  1.0  0.7014
  C  C495  1  0.215500  0.087800  0.439200  1.0  0.0334
  C  C496  1  0.187800  0.130500  0.525400  1.0  0.3682
  C  C497  1  0.171700  0.084400  0.552300  1.0  -0.1307
  C  C498  1  0.157700  0.089400  0.611000  1.0  -0.0429
  C  C499  1  0.170800  0.137100  0.640300  1.0  -0.1085
  C  C500  1  0.189700  0.181900  0.612000  1.0  -0.0509
  C  C501  1  0.200500  0.178800  0.552600  1.0  -0.0967
  C  C502  1  0.165200  0.138000  0.702900  1.0  0.6916
  C  C503  1  0.205100  0.142200  0.349400  1.0  0.0064
  C  C504  1  0.126900  0.114300  0.300600  1.0  0.3371
  C  C505  1  0.118900  0.167000  0.281600  1.0  -0.1652
  C  C506  1  0.064900  0.177700  0.250200  1.0  -0.0971
  C  C507  1  0.037100  0.131700  0.230600  1.0  -0.0688
  C  C508  1  0.046300  0.078500  0.250100  1.0  -0.1511
  C  C509  1  0.096600  0.068700  0.282800  1.0  -0.1238
  C  C510  1  0.982900  0.130400  0.198000  1.0  0.4693
  C  C511  1  0.292700  0.149100  0.407300  1.0  0.0602
  C  C512  1  0.365200  0.199400  0.365300  1.0  0.2987
  C  C513  1  0.385200  0.225600  0.318600  1.0  -0.0797
  C  C514  1  0.437800  0.258000  0.322500  1.0  -0.0802
  C  C515  1  0.463600  0.264300  0.373300  1.0  -0.091
  C  C516  1  0.439500  0.243400  0.421800  1.0  -0.0764
  C  C517  1  0.388500  0.207000  0.415700  1.0  -0.1561
  C  C518  1  0.518000  0.296300  0.369000  1.0  0.3157
  C  C519  1  0.751700  0.109400  0.610700  1.0  0.0634
  C  C520  1  0.730800  0.059700  0.645800  1.0  0.005
  C  C521  1  0.688300  0.973600  0.626700  1.0  0.2758
  C  C522  1  0.670400  0.944700  0.581500  1.0  -0.094
  C  C523  1  0.661900  0.885200  0.586100  1.0  -0.0475
  C  C524  1  0.670100  0.858900  0.635700  1.0  -0.108
  C  C525  1  0.689400  0.887800  0.681100  1.0  -0.0901
  C  C526  1  0.699500  0.948900  0.675900  1.0  -0.1517
  C  C527  1  0.666800  0.797500  0.638800  1.0  0.7016
  C  C528  1  0.784500  0.087800  0.560800  1.0  0.0328
  C  C529  1  0.812200  0.130500  0.474600  1.0  0.368
  C  C530  1  0.828300  0.084400  0.447700  1.0  -0.1296
  C  C531  1  0.842300  0.089400  0.389000  1.0  -0.0434
  C  C532  1  0.829200  0.137100  0.359700  1.0  -0.1095
  C  C533  1  0.810300  0.181900  0.388000  1.0  -0.0503
  C  C534  1  0.799500  0.178800  0.447400  1.0  -0.093
  C  C535  1  0.834800  0.138000  0.297100  1.0  0.692
  C  C536  1  0.794900  0.142200  0.650600  1.0  0.0055
  C  C537  1  0.873100  0.114300  0.699400  1.0  0.3381
  C  C538  1  0.881100  0.167000  0.718400  1.0  -0.1657
  C  C539  1  0.935100  0.177700  0.749800  1.0  -0.0971
  C  C540  1  0.962900  0.131700  0.769400  1.0  -0.0696
  C  C541  1  0.953700  0.078500  0.749900  1.0  -0.1522
  C  C542  1  0.903400  0.068700  0.717200  1.0  -0.1223
  C  C543  1  0.017100  0.130400  0.802000  1.0  0.4701
  C  C544  1  0.707300  0.149100  0.592700  1.0  0.0619
  C  C545  1  0.634800  0.199400  0.634700  1.0  0.2951
  C  C546  1  0.614800  0.225600  0.681400  1.0  -0.0779
  C  C547  1  0.562200  0.258000  0.677500  1.0  -0.0808
  C  C548  1  0.536400  0.264300  0.626700  1.0  -0.091
  C  C549  1  0.560500  0.243400  0.578200  1.0  -0.0743
  C  C550  1  0.611500  0.207000  0.584300  1.0  -0.1533
  C  C551  1  0.482000  0.296300  0.631000  1.0  0.315
  C  C552  1  0.751700  0.890600  0.389300  1.0  0.0636
  C  C553  1  0.730800  0.940300  0.354200  1.0  0.0093
  C  C554  1  0.688300  0.026400  0.373300  1.0  0.2757
  C  C555  1  0.670400  0.055300  0.418500  1.0  -0.0934
  C  C556  1  0.661900  0.114800  0.413900  1.0  -0.0477
  C  C557  1  0.670100  0.141100  0.364300  1.0  -0.1084
  C  C558  1  0.689400  0.112200  0.318900  1.0  -0.0878
  C  C559  1  0.699500  0.051100  0.324100  1.0  -0.1503
  C  C560  1  0.666800  0.202500  0.361200  1.0  0.7034
  C  C561  1  0.784500  0.912200  0.439200  1.0  0.0334
  C  C562  1  0.812200  0.869500  0.525400  1.0  0.368
  C  C563  1  0.828300  0.915600  0.552300  1.0  -0.1293
  C  C564  1  0.842300  0.910600  0.611000  1.0  -0.0433
  C  C565  1  0.829200  0.862900  0.640300  1.0  -0.1096
  C  C566  1  0.810300  0.818100  0.612000  1.0  -0.0519
  C  C567  1  0.799500  0.821200  0.552600  1.0  -0.0954
  C  C568  1  0.834800  0.862000  0.702900  1.0  0.6927
  C  C569  1  0.794900  0.857800  0.349400  1.0  0.0041
  C  C570  1  0.873100  0.885700  0.300600  1.0  0.3374
  C  C571  1  0.881100  0.833000  0.281600  1.0  -0.1645
  C  C572  1  0.935100  0.822300  0.250200  1.0  -0.0959
  C  C573  1  0.962900  0.868300  0.230600  1.0  -0.0691
  C  C574  1  0.953700  0.921500  0.250100  1.0  -0.154
  C  C575  1  0.903400  0.931300  0.282800  1.0  -0.1242
  C  C576  1  0.017100  0.869600  0.198000  1.0  0.4699
  C  C577  1  0.707300  0.850900  0.407300  1.0  0.0611
  C  C578  1  0.634800  0.800600  0.365300  1.0  0.2982
  C  C579  1  0.614800  0.774400  0.318600  1.0  -0.079
  C  C580  1  0.562200  0.742000  0.322500  1.0  -0.0816
  C  C581  1  0.536400  0.735700  0.373300  1.0  -0.0904
  C  C582  1  0.560500  0.756600  0.421800  1.0  -0.0774
  C  C583  1  0.611500  0.793000  0.415700  1.0  -0.1536
  C  C584  1  0.482000  0.703700  0.369000  1.0  0.3157
  C  C585  1  0.610700  0.248300  0.890600  1.0  0.0639
  C  C586  1  0.645800  0.269200  0.940300  1.0  0.0107
  C  C587  1  0.626700  0.311700  0.026400  1.0  0.2814
  C  C588  1  0.581500  0.329600  0.055300  1.0  -0.0872
  C  C589  1  0.586100  0.338100  0.114800  1.0  -0.0456
  C  C590  1  0.635700  0.329900  0.141100  1.0  -0.1085
  C  C591  1  0.681100  0.310600  0.112200  1.0  -0.0955
  C  C592  1  0.675900  0.300500  0.051100  1.0  -0.1496
  C  C593  1  0.638800  0.333200  0.202500  1.0  0.7039
  C  C594  1  0.560800  0.215500  0.912200  1.0  0.0302
  C  C595  1  0.474600  0.187800  0.869500  1.0  0.3712
  C  C596  1  0.447700  0.171700  0.915600  1.0  -0.1326
  C  C597  1  0.389000  0.157700  0.910600  1.0  -0.0476
  C  C598  1  0.359700  0.170800  0.862900  1.0  -0.1082
  C  C599  1  0.388000  0.189700  0.818100  1.0  -0.0535
  C  C600  1  0.447400  0.200500  0.821200  1.0  -0.0987
  C  C601  1  0.297100  0.165200  0.862000  1.0  0.6872
  C  C602  1  0.650600  0.205100  0.857800  1.0  0.0029
  C  C603  1  0.699400  0.126900  0.885700  1.0  0.3396
  C  C604  1  0.718400  0.118900  0.833000  1.0  -0.1655
  C  C605  1  0.749800  0.064900  0.822300  1.0  -0.0963
  C  C606  1  0.769400  0.037100  0.868300  1.0  -0.0676
  C  C607  1  0.749900  0.046300  0.921500  1.0  -0.1516
  C  C608  1  0.717200  0.096600  0.931300  1.0  -0.1221
  C  C609  1  0.802000  0.982900  0.869600  1.0  0.4681
  C  C610  1  0.592700  0.292700  0.850900  1.0  0.0657
  C  C611  1  0.634700  0.365200  0.800600  1.0  0.293
  C  C612  1  0.681400  0.385200  0.774400  1.0  -0.0778
  C  C613  1  0.677500  0.437800  0.742000  1.0  -0.0796
  C  C614  1  0.626700  0.463600  0.735700  1.0  -0.0909
  C  C615  1  0.578200  0.439500  0.756600  1.0  -0.0759
  C  C616  1  0.584300  0.388500  0.793000  1.0  -0.1592
  C  C617  1  0.631000  0.518000  0.703700  1.0  0.3127
  C  C618  1  0.389300  0.248300  0.109400  1.0  0.0648
  C  C619  1  0.354200  0.269200  0.059700  1.0  0.0114
  C  C620  1  0.373300  0.311700  0.973600  1.0  0.2808
  C  C621  1  0.418500  0.329600  0.944700  1.0  -0.0882
  C  C622  1  0.413900  0.338100  0.885200  1.0  -0.0465
  C  C623  1  0.364300  0.329900  0.858900  1.0  -0.1089
  C  C624  1  0.318900  0.310600  0.887800  1.0  -0.0967
  C  C625  1  0.324100  0.300500  0.948900  1.0  -0.1508
  C  C626  1  0.361200  0.333200  0.797500  1.0  0.7053
  C  C627  1  0.439200  0.215500  0.087800  1.0  0.0312
  C  C628  1  0.525400  0.187800  0.130500  1.0  0.3713
  C  C629  1  0.552300  0.171700  0.084400  1.0  -0.133
  C  C630  1  0.611000  0.157700  0.089400  1.0  -0.047
  C  C631  1  0.640300  0.170800  0.137100  1.0  -0.1072
  C  C632  1  0.612000  0.189700  0.181900  1.0  -0.0537
  C  C633  1  0.552600  0.200500  0.178800  1.0  -0.1033
  C  C634  1  0.702900  0.165200  0.138000  1.0  0.6869
  C  C635  1  0.349400  0.205100  0.142200  1.0  0.0047
  C  C636  1  0.300600  0.126900  0.114300  1.0  0.339
  C  C637  1  0.281600  0.118900  0.167000  1.0  -0.164
  C  C638  1  0.250200  0.064900  0.177700  1.0  -0.0969
  C  C639  1  0.230600  0.037100  0.131700  1.0  -0.0692
  C  C640  1  0.250100  0.046300  0.078500  1.0  -0.1517
  C  C641  1  0.282800  0.096600  0.068700  1.0  -0.1221
  C  C642  1  0.198000  0.982900  0.130400  1.0  0.4686
  C  C643  1  0.407300  0.292700  0.149100  1.0  0.0646
  C  C644  1  0.365300  0.365200  0.199400  1.0  0.2939
  C  C645  1  0.318600  0.385200  0.225600  1.0  -0.0776
  C  C646  1  0.322500  0.437800  0.258000  1.0  -0.0795
  C  C647  1  0.373300  0.463600  0.264300  1.0  -0.092
  C  C648  1  0.421800  0.439500  0.243400  1.0  -0.0734
  C  C649  1  0.415700  0.388500  0.207000  1.0  -0.1563
  C  C650  1  0.369000  0.518000  0.296300  1.0  0.3138
  C  C651  1  0.610700  0.751700  0.109400  1.0  0.0639
  C  C652  1  0.645800  0.730800  0.059700  1.0  0.0093
  C  C653  1  0.626700  0.688300  0.973600  1.0  0.282
  C  C654  1  0.581500  0.670400  0.944700  1.0  -0.0884
  C  C655  1  0.586100  0.661900  0.885200  1.0  -0.0477
  C  C656  1  0.635700  0.670100  0.858900  1.0  -0.1059
  C  C657  1  0.681100  0.689400  0.887800  1.0  -0.0951
  C  C658  1  0.675900  0.699500  0.948900  1.0  -0.1487
  C  C659  1  0.638800  0.666800  0.797500  1.0  0.7053
  C  C660  1  0.560800  0.784500  0.087800  1.0  0.0328
  C  C661  1  0.474600  0.812200  0.130500  1.0  0.3701
  C  C662  1  0.447700  0.828300  0.084400  1.0  -0.1321
  C  C663  1  0.389000  0.842300  0.089400  1.0  -0.0463
  C  C664  1  0.359700  0.829200  0.137100  1.0  -0.1089
  C  C665  1  0.388000  0.810300  0.181900  1.0  -0.0529
  C  C666  1  0.447400  0.799500  0.178800  1.0  -0.1002
  C  C667  1  0.297100  0.834800  0.138000  1.0  0.6875
  C  C668  1  0.650600  0.794900  0.142200  1.0  0.0061
  C  C669  1  0.699400  0.873100  0.114300  1.0  0.3381
  C  C670  1  0.718400  0.881100  0.167000  1.0  -0.1676
  C  C671  1  0.749800  0.935100  0.177700  1.0  -0.0966
  C  C672  1  0.769400  0.962900  0.131700  1.0  -0.0684
  C  C673  1  0.749900  0.953700  0.078500  1.0  -0.1521
  C  C674  1  0.717200  0.903400  0.068700  1.0  -0.1231
  C  C675  1  0.802000  0.017100  0.130400  1.0  0.4675
  C  C676  1  0.592700  0.707300  0.149100  1.0  0.0639
  C  C677  1  0.634700  0.634800  0.199400  1.0  0.2942
  C  C678  1  0.681400  0.614800  0.225600  1.0  -0.078
  C  C679  1  0.677500  0.562200  0.258000  1.0  -0.08
  C  C680  1  0.626700  0.536400  0.264300  1.0  -0.0929
  C  C681  1  0.578200  0.560500  0.243400  1.0  -0.0751
  C  C682  1  0.584300  0.611500  0.207000  1.0  -0.1585
  C  C683  1  0.631000  0.482000  0.296300  1.0  0.3128
  C  C684  1  0.389300  0.751700  0.890600  1.0  0.0645
  C  C685  1  0.354200  0.730800  0.940300  1.0  0.0107
  C  C686  1  0.373300  0.688300  0.026400  1.0  0.2804
  C  C687  1  0.418500  0.670400  0.055300  1.0  -0.0886
  C  C688  1  0.413900  0.661900  0.114800  1.0  -0.0486
  C  C689  1  0.364300  0.670100  0.141100  1.0  -0.1065
  C  C690  1  0.318900  0.689400  0.112200  1.0  -0.0955
  C  C691  1  0.324100  0.699500  0.051100  1.0  -0.1505
  C  C692  1  0.361200  0.666800  0.202500  1.0  0.704
  C  C693  1  0.439200  0.784500  0.912200  1.0  0.0303
  C  C694  1  0.525400  0.812200  0.869500  1.0  0.3709
  C  C695  1  0.552300  0.828300  0.915600  1.0  -0.1316
  C  C696  1  0.611000  0.842300  0.910600  1.0  -0.047
  C  C697  1  0.640300  0.829200  0.862900  1.0  -0.1074
  C  C698  1  0.612000  0.810300  0.818100  1.0  -0.054
  C  C699  1  0.552600  0.799500  0.821200  1.0  -0.0997
  C  C700  1  0.702900  0.834800  0.862000  1.0  0.6875
  C  C701  1  0.349400  0.794900  0.857800  1.0  0.0043
  C  C702  1  0.300600  0.873100  0.885700  1.0  0.3382
  C  C703  1  0.281600  0.881100  0.833000  1.0  -0.1643
  C  C704  1  0.250200  0.935100  0.822300  1.0  -0.0967
  C  C705  1  0.230600  0.962900  0.868300  1.0  -0.0696
  C  C706  1  0.250100  0.953700  0.921500  1.0  -0.1526
  C  C707  1  0.282800  0.903400  0.931300  1.0  -0.1218
  C  C708  1  0.198000  0.017100  0.869600  1.0  0.4683
  C  C709  1  0.407300  0.707300  0.850900  1.0  0.063
  C  C710  1  0.365300  0.634800  0.800600  1.0  0.2943
  C  C711  1  0.318600  0.614800  0.774400  1.0  -0.0779
  C  C712  1  0.322500  0.562200  0.742000  1.0  -0.0804
  C  C713  1  0.373300  0.536400  0.735700  1.0  -0.0934
  C  C714  1  0.421800  0.560500  0.756600  1.0  -0.073
  C  C715  1  0.415700  0.611500  0.793000  1.0  -0.1564
  C  C716  1  0.369000  0.482000  0.703700  1.0  0.3137
  O  O717  1  0.969700  0.620700  0.305300  1.0  -0.4017
  O  O718  1  0.225400  0.597200  0.353100  1.0  -0.5911
  O  O719  1  0.224600  0.682400  0.319100  1.0  -0.5812
  O  O720  1  0.870300  0.530000  0.198600  1.0  -0.4236
  O  O721  1  0.901700  0.274300  0.146800  1.0  -0.5544
  O  O722  1  0.815500  0.275300  0.180600  1.0  -0.6027
  O  O723  1  0.900100  0.665200  0.171200  1.0  -0.2762
  O  O724  1  0.913800  0.802900  0.954800  1.0  -0.5603
  O  O725  1  0.817800  0.830600  0.981300  1.0  -0.6109
  O  O726  1  0.827800  0.641500  0.313800  1.0  -0.2832
  O  O727  1  0.699100  0.584400  0.548700  1.0  -0.576
  O  O728  1  0.667200  0.681300  0.517800  1.0  -0.7457
  O  O729  1  0.030300  0.379300  0.305300  1.0  -0.4038
  O  O730  1  0.774600  0.402800  0.353100  1.0  -0.5909
  O  O731  1  0.775400  0.317600  0.319100  1.0  -0.5801
  O  O732  1  0.129700  0.470000  0.198600  1.0  -0.4253
  O  O733  1  0.098300  0.725700  0.146800  1.0  -0.5536
  O  O734  1  0.184500  0.724700  0.180600  1.0  -0.6031
  O  O735  1  0.099900  0.334800  0.171200  1.0  -0.276
  O  O736  1  0.086200  0.197100  0.954800  1.0  -0.5603
  O  O737  1  0.182200  0.169400  0.981300  1.0  -0.6081
  O  O738  1  0.172200  0.358500  0.313800  1.0  -0.2822
  O  O739  1  0.300900  0.415600  0.548700  1.0  -0.5762
  O  O740  1  0.332800  0.318700  0.517800  1.0  -0.7447
  O  O741  1  0.030300  0.620700  0.694700  1.0  -0.406
  O  O742  1  0.774600  0.597200  0.646900  1.0  -0.5901
  O  O743  1  0.775400  0.682400  0.680900  1.0  -0.5806
  O  O744  1  0.129700  0.530000  0.801400  1.0  -0.4247
  O  O745  1  0.098300  0.274300  0.853200  1.0  -0.5545
  O  O746  1  0.184500  0.275300  0.819400  1.0  -0.6027
  O  O747  1  0.099900  0.665200  0.828800  1.0  -0.274
  O  O748  1  0.086200  0.802900  0.045200  1.0  -0.5596
  O  O749  1  0.182200  0.830600  0.018700  1.0  -0.6088
  O  O750  1  0.172200  0.641500  0.686200  1.0  -0.2813
  O  O751  1  0.300900  0.584400  0.451300  1.0  -0.5753
  O  O752  1  0.332800  0.681300  0.482200  1.0  -0.7459
  O  O753  1  0.969700  0.379300  0.694700  1.0  -0.4045
  O  O754  1  0.225400  0.402800  0.646900  1.0  -0.5913
  O  O755  1  0.224600  0.317600  0.680900  1.0  -0.581
  O  O756  1  0.870300  0.470000  0.801400  1.0  -0.4236
  O  O757  1  0.901700  0.725700  0.853200  1.0  -0.5539
  O  O758  1  0.815500  0.724700  0.819400  1.0  -0.6022
  O  O759  1  0.900100  0.334800  0.828800  1.0  -0.2733
  O  O760  1  0.913800  0.197100  0.045200  1.0  -0.559
  O  O761  1  0.817800  0.169400  0.018700  1.0  -0.6105
  O  O762  1  0.827800  0.358500  0.686200  1.0  -0.2828
  O  O763  1  0.699100  0.415600  0.451300  1.0  -0.5771
  O  O764  1  0.667200  0.318700  0.482200  1.0  -0.7451
  O  O765  1  0.305300  0.969700  0.620700  1.0  -0.4064
  O  O766  1  0.353100  0.225400  0.597200  1.0  -0.5919
  O  O767  1  0.319100  0.224600  0.682400  1.0  -0.5819
  O  O768  1  0.198600  0.870300  0.530000  1.0  -0.4237
  O  O769  1  0.146800  0.901700  0.274300  1.0  -0.5549
  O  O770  1  0.180600  0.815500  0.275300  1.0  -0.6039
  O  O771  1  0.171200  0.900100  0.665200  1.0  -0.2747
  O  O772  1  0.954800  0.913800  0.802900  1.0  -0.5578
  O  O773  1  0.981300  0.817800  0.830600  1.0  -0.6102
  O  O774  1  0.313800  0.827800  0.641500  1.0  -0.2803
  O  O775  1  0.548700  0.699100  0.584400  1.0  -0.5773
  O  O776  1  0.517800  0.667200  0.681300  1.0  -0.7479
  O  O777  1  0.305300  0.030300  0.379300  1.0  -0.4039
  O  O778  1  0.353100  0.774600  0.402800  1.0  -0.5926
  O  O779  1  0.319100  0.775400  0.317600  1.0  -0.5818
  O  O780  1  0.198600  0.129700  0.470000  1.0  -0.4245
  O  O781  1  0.146800  0.098300  0.725700  1.0  -0.5538
  O  O782  1  0.180600  0.184500  0.724700  1.0  -0.6039
  O  O783  1  0.171200  0.099900  0.334800  1.0  -0.2748
  O  O784  1  0.954800  0.086200  0.197100  1.0  -0.5584
  O  O785  1  0.981300  0.182200  0.169400  1.0  -0.6098
  O  O786  1  0.313800  0.172200  0.358500  1.0  -0.2782
  O  O787  1  0.548700  0.300900  0.415600  1.0  -0.5793
  O  O788  1  0.517800  0.332800  0.318700  1.0  -0.7469
  O  O789  1  0.694700  0.030300  0.620700  1.0  -0.4055
  O  O790  1  0.646900  0.774600  0.597200  1.0  -0.5917
  O  O791  1  0.680900  0.775400  0.682400  1.0  -0.5816
  O  O792  1  0.801400  0.129700  0.530000  1.0  -0.4195
  O  O793  1  0.853200  0.098300  0.274300  1.0  -0.5546
  O  O794  1  0.819400  0.184500  0.275300  1.0  -0.6039
  O  O795  1  0.828800  0.099900  0.665200  1.0  -0.2758
  O  O796  1  0.045200  0.086200  0.802900  1.0  -0.5584
  O  O797  1  0.018700  0.182200  0.830600  1.0  -0.6105
  O  O798  1  0.686200  0.172200  0.641500  1.0  -0.2813
  O  O799  1  0.451300  0.300900  0.584400  1.0  -0.5762
  O  O800  1  0.482200  0.332800  0.681300  1.0  -0.7489
  O  O801  1  0.694700  0.969700  0.379300  1.0  -0.4046
  O  O802  1  0.646900  0.225400  0.402800  1.0  -0.5919
  O  O803  1  0.680900  0.224600  0.317600  1.0  -0.5823
  O  O804  1  0.801400  0.870300  0.470000  1.0  -0.4223
  O  O805  1  0.853200  0.901700  0.725700  1.0  -0.5552
  O  O806  1  0.819400  0.815500  0.724700  1.0  -0.6031
  O  O807  1  0.828800  0.900100  0.334800  1.0  -0.2746
  O  O808  1  0.045200  0.913800  0.197100  1.0  -0.5582
  O  O809  1  0.018700  0.817800  0.169400  1.0  -0.6094
  O  O810  1  0.686200  0.827800  0.358500  1.0  -0.2808
  O  O811  1  0.451300  0.699100  0.415600  1.0  -0.578
  O  O812  1  0.482200  0.667200  0.318700  1.0  -0.7459
  O  O813  1  0.620700  0.305300  0.969700  1.0  -0.4
  O  O814  1  0.597200  0.353100  0.225400  1.0  -0.5922
  O  O815  1  0.682400  0.319100  0.224600  1.0  -0.5813
  O  O816  1  0.530000  0.198600  0.870300  1.0  -0.4243
  O  O817  1  0.274300  0.146800  0.901700  1.0  -0.5539
  O  O818  1  0.275300  0.180600  0.815500  1.0  -0.6033
  O  O819  1  0.665200  0.171200  0.900100  1.0  -0.2744
  O  O820  1  0.802900  0.954800  0.913800  1.0  -0.5598
  O  O821  1  0.830600  0.981300  0.817800  1.0  -0.6129
  O  O822  1  0.641500  0.313800  0.827800  1.0  -0.2811
  O  O823  1  0.584400  0.548700  0.699100  1.0  -0.574
  O  O824  1  0.681300  0.517800  0.667200  1.0  -0.7454
  O  O825  1  0.379300  0.305300  0.030300  1.0  -0.4004
  O  O826  1  0.402800  0.353100  0.774600  1.0  -0.5913
  O  O827  1  0.317600  0.319100  0.775400  1.0  -0.5793
  O  O828  1  0.470000  0.198600  0.129700  1.0  -0.4219
  O  O829  1  0.725700  0.146800  0.098300  1.0  -0.5539
  O  O830  1  0.724700  0.180600  0.184500  1.0  -0.6022
  O  O831  1  0.334800  0.171200  0.099900  1.0  -0.2729
  O  O832  1  0.197100  0.954800  0.086200  1.0  -0.5586
  O  O833  1  0.169400  0.981300  0.182200  1.0  -0.6121
  O  O834  1  0.358500  0.313800  0.172200  1.0  -0.2837
  O  O835  1  0.415600  0.548700  0.300900  1.0  -0.5736
  O  O836  1  0.318700  0.517800  0.332800  1.0  -0.7465
  O  O837  1  0.620700  0.694700  0.030300  1.0  -0.4027
  O  O838  1  0.597200  0.646900  0.774600  1.0  -0.5933
  O  O839  1  0.682400  0.680900  0.775400  1.0  -0.5811
  O  O840  1  0.530000  0.801400  0.129700  1.0  -0.4219
  O  O841  1  0.274300  0.853200  0.098300  1.0  -0.5529
  O  O842  1  0.275300  0.819400  0.184500  1.0  -0.6026
  O  O843  1  0.665200  0.828800  0.099900  1.0  -0.2732
  O  O844  1  0.802900  0.045200  0.086200  1.0  -0.5586
  O  O845  1  0.830600  0.018700  0.182200  1.0  -0.6122
  O  O846  1  0.641500  0.686200  0.172200  1.0  -0.2817
  O  O847  1  0.584400  0.451300  0.300900  1.0  -0.5735
  O  O848  1  0.681300  0.482200  0.332800  1.0  -0.7449
  O  O849  1  0.379300  0.694700  0.969700  1.0  -0.4018
  O  O850  1  0.402800  0.646900  0.225400  1.0  -0.5927
  O  O851  1  0.317600  0.680900  0.224600  1.0  -0.5796
  O  O852  1  0.470000  0.801400  0.870300  1.0  -0.425
  O  O853  1  0.725700  0.853200  0.901700  1.0  -0.5538
  O  O854  1  0.724700  0.819400  0.815500  1.0  -0.6036
  O  O855  1  0.334800  0.828800  0.900100  1.0  -0.2729
  O  O856  1  0.197100  0.045200  0.913800  1.0  -0.5596
  O  O857  1  0.169400  0.018700  0.817800  1.0  -0.6127
  O  O858  1  0.358500  0.686200  0.827800  1.0  -0.2846
  O  O859  1  0.415600  0.451300  0.699100  1.0  -0.5736
  O  O860  1  0.318700  0.482200  0.667200  1.0  -0.7467
  O  O861  1  0.348800  0.651200  0.348800  1.0  -1.1616
  O  O862  1  0.151900  0.848100  0.151900  1.0  -1.1306
  O  O863  1  0.651200  0.348800  0.348800  1.0  -1.1618
  O  O864  1  0.848100  0.151900  0.151900  1.0  -1.1308
  O  O865  1  0.651200  0.651200  0.651200  1.0  -1.1626
  O  O866  1  0.848100  0.848100  0.848100  1.0  -1.1319
  O  O867  1  0.348800  0.348800  0.651200  1.0  -1.1622
  O  O868  1  0.151900  0.151900  0.848100  1.0  -1.1312
