# generated using pymatgen
data_Zn8H72C99O38
_symmetry_space_group_name_H-M   'P 1'
_cell_length_a   26.66900000
_cell_length_b   26.66900000
_cell_length_c   86.62200000
_cell_angle_alpha   90.00000000
_cell_angle_beta   90.00000000
_cell_angle_gamma   120.00000000
_symmetry_Int_Tables_number   1
_chemical_formula_structural   Zn8H72C99O38
_chemical_formula_sum   'Zn48 H432 C594 O228'
_cell_volume   53354.65319122
_cell_formula_units_Z   6
loop_
 _symmetry_equiv_pos_site_id
 _symmetry_equiv_pos_as_xyz
  1  'x, y, z'
loop_
 _atom_site_type_symbol
 _atom_site_label
 _atom_site_symmetry_multiplicity
 _atom_site_fract_x
 _atom_site_fract_y
 _atom_site_fract_z
 _atom_site_occupancy
 _atom_site_charge
  Zn  Zn1  1  0.325060  0.594250  0.499370  1.0  1.0666
  Zn  Zn2  1  0.991730  0.927580  0.832700  1.0  1.0664
  Zn  Zn3  1  0.658400  0.260910  0.166030  1.0  1.0669
  Zn  Zn4  1  0.405750  0.730820  0.499370  1.0  1.0669
  Zn  Zn5  1  0.072420  0.064150  0.832700  1.0  1.0669
  Zn  Zn6  1  0.739090  0.397480  0.166030  1.0  1.0673
  Zn  Zn7  1  0.269180  0.674940  0.499370  1.0  1.0675
  Zn  Zn8  1  0.935850  0.008270  0.832700  1.0  1.0675
  Zn  Zn9  1  0.602520  0.341600  0.166030  1.0  1.0675
  Zn  Zn10  1  0.594250  0.325060  0.000630  1.0  1.0675
  Zn  Zn11  1  0.260910  0.658400  0.333970  1.0  1.0677
  Zn  Zn12  1  0.927580  0.991730  0.667300  1.0  1.0673
  Zn  Zn13  1  0.730820  0.405750  0.000630  1.0  1.0665
  Zn  Zn14  1  0.397480  0.739090  0.333970  1.0  1.0669
  Zn  Zn15  1  0.064150  0.072420  0.667300  1.0  1.0664
  Zn  Zn16  1  0.674940  0.269180  0.000630  1.0  1.0669
  Zn  Zn17  1  0.341600  0.602520  0.333970  1.0  1.0669
  Zn  Zn18  1  0.008270  0.935850  0.667300  1.0  1.0669
  Zn  Zn19  1  0.674940  0.405750  0.500630  1.0  1.0673
  Zn  Zn20  1  0.341600  0.739090  0.833970  1.0  1.0674
  Zn  Zn21  1  0.008270  0.072420  0.167300  1.0  1.0671
  Zn  Zn22  1  0.594250  0.269180  0.500630  1.0  1.067
  Zn  Zn23  1  0.260910  0.602520  0.833970  1.0  1.0674
  Zn  Zn24  1  0.927580  0.935850  0.167300  1.0  1.067
  Zn  Zn25  1  0.730820  0.325060  0.500630  1.0  1.067
  Zn  Zn26  1  0.397480  0.658400  0.833970  1.0  1.0671
  Zn  Zn27  1  0.064150  0.991730  0.167300  1.0  1.067
  Zn  Zn28  1  0.405750  0.674940  0.999370  1.0  1.0668
  Zn  Zn29  1  0.072420  0.008270  0.332700  1.0  1.0666
  Zn  Zn30  1  0.739090  0.341600  0.666030  1.0  1.067
  Zn  Zn31  1  0.269180  0.594250  0.999370  1.0  1.0669
  Zn  Zn32  1  0.935850  0.927580  0.332700  1.0  1.0669
  Zn  Zn33  1  0.602520  0.260910  0.666030  1.0  1.0674
  Zn  Zn34  1  0.325060  0.730820  0.999370  1.0  1.0673
  Zn  Zn35  1  0.991730  0.064150  0.332700  1.0  1.0673
  Zn  Zn36  1  0.658400  0.397480  0.666030  1.0  1.0673
  Zn  Zn37  1  0.333333  0.666667  0.529190  1.0  1.0786
  Zn  Zn38  1  0.000000  0.000000  0.862520  1.0  1.0786
  Zn  Zn39  1  0.666667  0.333333  0.195850  1.0  1.0782
  Zn  Zn40  1  0.666667  0.333333  0.970820  1.0  1.0767
  Zn  Zn41  1  0.333333  0.666667  0.304150  1.0  1.077
  Zn  Zn42  1  0.000000  0.000000  0.637480  1.0  1.0775
  Zn  Zn43  1  0.666667  0.333333  0.470810  1.0  1.0775
  Zn  Zn44  1  0.333333  0.666667  0.804150  1.0  1.077
  Zn  Zn45  1  0.000000  0.000000  0.137480  1.0  1.0775
  Zn  Zn46  1  0.333333  0.666667  0.029190  1.0  1.0786
  Zn  Zn47  1  0.000000  0.000000  0.362520  1.0  1.0786
  Zn  Zn48  1  0.666667  0.333333  0.695850  1.0  1.0782
  H  H49  1  0.345700  0.550500  0.560000  1.0  0.1104
  H  H50  1  0.290300  0.445100  0.523800  1.0  0.0952
  H  H51  1  0.347900  0.479100  0.574500  1.0  0.1026
  H  H52  1  0.284400  0.371500  0.538400  1.0  0.1145
  H  H53  1  0.330600  0.394200  0.587500  1.0  0.0615
  H  H54  1  0.388100  0.419800  0.577800  1.0  0.0533
  H  H55  1  0.350900  0.301100  0.561100  1.0  0.0619
  H  H56  1  0.385900  0.283700  0.572400  1.0  0.0699
  H  H57  1  0.522400  0.440200  0.553800  1.0  0.1168
  H  H58  1  0.411300  0.271300  0.549600  1.0  0.1166
  H  H59  1  0.581300  0.435800  0.535100  1.0  0.1121
  H  H60  1  0.467700  0.265200  0.530400  1.0  0.1051
  H  H61  1  0.012370  0.883830  0.893330  1.0  0.1104
  H  H62  1  0.956970  0.778430  0.857130  1.0  0.0956
  H  H63  1  0.014570  0.812430  0.907830  1.0  0.1028
  H  H64  1  0.951070  0.704830  0.871730  1.0  0.1134
  H  H65  1  0.997270  0.727530  0.920830  1.0  0.0615
  H  H66  1  0.054770  0.753130  0.911130  1.0  0.0533
  H  H67  1  0.017570  0.634430  0.894430  1.0  0.062
  H  H68  1  0.052570  0.617030  0.905730  1.0  0.0703
  H  H69  1  0.189070  0.773530  0.887130  1.0  0.1179
  H  H70  1  0.077970  0.604630  0.882930  1.0  0.1154
  H  H71  1  0.247970  0.769130  0.868430  1.0  0.1121
  H  H72  1  0.134370  0.598530  0.863730  1.0  0.1055
  H  H73  1  0.679030  0.217170  0.226670  1.0  0.1104
  H  H74  1  0.623630  0.111770  0.190470  1.0  0.0956
  H  H75  1  0.681230  0.145770  0.241170  1.0  0.1026
  H  H76  1  0.617730  0.038170  0.205070  1.0  0.1138
  H  H77  1  0.663930  0.060870  0.254170  1.0  0.0614
  H  H78  1  0.721430  0.086470  0.244470  1.0  0.0531
  H  H79  1  0.684230  0.967770  0.227770  1.0  0.0618
  H  H80  1  0.719230  0.950370  0.239070  1.0  0.0695
  H  H81  1  0.855730  0.106870  0.220470  1.0  0.1169
  H  H82  1  0.744630  0.937970  0.216270  1.0  0.1154
  H  H83  1  0.914630  0.102470  0.201770  1.0  0.1121
  H  H84  1  0.801030  0.931870  0.197070  1.0  0.1055
  H  H85  1  0.449500  0.795200  0.560000  1.0  0.1103
  H  H86  1  0.554900  0.845200  0.523800  1.0  0.0963
  H  H87  1  0.520900  0.868800  0.574500  1.0  0.1031
  H  H88  1  0.628500  0.912900  0.538400  1.0  0.1156
  H  H89  1  0.605800  0.936400  0.587500  1.0  0.0604
  H  H90  1  0.580200  0.968300  0.577800  1.0  0.0539
  H  H91  1  0.698900  0.049800  0.561100  1.0  0.0633
  H  H92  1  0.716300  0.102200  0.572400  1.0  0.0711
  H  H93  1  0.559800  0.082200  0.553800  1.0  0.1173
  H  H94  1  0.728700  0.140000  0.549600  1.0  0.1152
  H  H95  1  0.564200  0.145500  0.535100  1.0  0.111
  H  H96  1  0.734800  0.202500  0.530400  1.0  0.1056
  H  H97  1  0.116170  0.128530  0.893330  1.0  0.1103
  H  H98  1  0.221570  0.178530  0.857130  1.0  0.0961
  H  H99  1  0.187570  0.202130  0.907830  1.0  0.1033
  H  H100  1  0.295170  0.246230  0.871730  1.0  0.115
  H  H101  1  0.272470  0.269730  0.920830  1.0  0.0605
  H  H102  1  0.246870  0.301630  0.911130  1.0  0.0539
  H  H103  1  0.365570  0.383130  0.894430  1.0  0.0633
  H  H104  1  0.382970  0.435530  0.905730  1.0  0.0711
  H  H105  1  0.226470  0.415530  0.887130  1.0  0.1168
  H  H106  1  0.395370  0.473330  0.882930  1.0  0.1141
  H  H107  1  0.230870  0.478830  0.868430  1.0  0.1112
  H  H108  1  0.401470  0.535830  0.863730  1.0  0.1059
  H  H109  1  0.782830  0.461870  0.226670  1.0  0.1103
  H  H110  1  0.888230  0.511870  0.190470  1.0  0.0961
  H  H111  1  0.854230  0.535470  0.241170  1.0  0.103
  H  H112  1  0.961830  0.579570  0.205070  1.0  0.1153
  H  H113  1  0.939130  0.603070  0.254170  1.0  0.0608
  H  H114  1  0.913530  0.634970  0.244470  1.0  0.0538
  H  H115  1  0.032230  0.716470  0.227770  1.0  0.0632
  H  H116  1  0.049630  0.768870  0.239070  1.0  0.0707
  H  H117  1  0.893130  0.748870  0.220470  1.0  0.1178
  H  H118  1  0.062030  0.806670  0.216270  1.0  0.1141
  H  H119  1  0.897530  0.812170  0.201770  1.0  0.1112
  H  H120  1  0.068130  0.869170  0.197070  1.0  0.1059
  H  H121  1  0.204800  0.654300  0.560000  1.0  0.1108
  H  H122  1  0.154800  0.709700  0.523800  1.0  0.0951
  H  H123  1  0.131200  0.652100  0.574500  1.0  0.1022
  H  H124  1  0.087100  0.715600  0.538400  1.0  0.1151
  H  H125  1  0.063600  0.669400  0.587500  1.0  0.0618
  H  H126  1  0.031700  0.611900  0.577800  1.0  0.0536
  H  H127  1  0.950200  0.649100  0.561100  1.0  0.0622
  H  H128  1  0.897800  0.614100  0.572400  1.0  0.0772
  H  H129  1  0.917800  0.477600  0.553800  1.0  0.1173
  H  H130  1  0.860000  0.588700  0.549600  1.0  0.1151
  H  H131  1  0.854500  0.418700  0.535100  1.0  0.1112
  H  H132  1  0.797500  0.532300  0.530400  1.0  0.1057
  H  H133  1  0.871470  0.987630  0.893330  1.0  0.1108
  H  H134  1  0.821470  0.043030  0.857130  1.0  0.0956
  H  H135  1  0.797870  0.985430  0.907830  1.0  0.1026
  H  H136  1  0.753770  0.048930  0.871730  1.0  0.1145
  H  H137  1  0.730270  0.002730  0.920830  1.0  0.0619
  H  H138  1  0.698370  0.945230  0.911130  1.0  0.0536
  H  H139  1  0.616870  0.982430  0.894430  1.0  0.0622
  H  H140  1  0.564470  0.947430  0.905730  1.0  0.0772
  H  H141  1  0.584470  0.810930  0.887130  1.0  0.1163
  H  H142  1  0.526670  0.922030  0.882930  1.0  0.1151
  H  H143  1  0.521170  0.752030  0.868430  1.0  0.1116
  H  H144  1  0.464170  0.865630  0.863730  1.0  0.1057
  H  H145  1  0.538130  0.320970  0.226670  1.0  0.1108
  H  H146  1  0.488130  0.376370  0.190470  1.0  0.0956
  H  H147  1  0.464530  0.318770  0.241170  1.0  0.1021
  H  H148  1  0.420430  0.382270  0.205070  1.0  0.1145
  H  H149  1  0.396930  0.336070  0.254170  1.0  0.062
  H  H150  1  0.365030  0.278570  0.244470  1.0  0.0536
  H  H151  1  0.283530  0.315770  0.227770  1.0  0.0621
  H  H152  1  0.231130  0.280770  0.239070  1.0  0.0767
  H  H153  1  0.251130  0.144270  0.220470  1.0  0.1163
  H  H154  1  0.193330  0.255370  0.216270  1.0  0.1151
  H  H155  1  0.187830  0.085370  0.201770  1.0  0.1116
  H  H156  1  0.130830  0.198970  0.197070  1.0  0.1057
  H  H157  1  0.550500  0.345700  0.940000  1.0  0.1112
  H  H158  1  0.445100  0.290300  0.976200  1.0  0.0957
  H  H159  1  0.479100  0.347900  0.925500  1.0  0.1038
  H  H160  1  0.371500  0.284400  0.961600  1.0  0.1146
  H  H161  1  0.394200  0.330600  0.912500  1.0  0.061
  H  H162  1  0.419800  0.388100  0.922200  1.0  0.0528
  H  H163  1  0.301100  0.350900  0.938900  1.0  0.0615
  H  H164  1  0.283700  0.385900  0.927600  1.0  0.0768
  H  H165  1  0.440200  0.522400  0.946200  1.0  0.1167
  H  H166  1  0.271300  0.411300  0.950400  1.0  0.1149
  H  H167  1  0.435800  0.581300  0.964900  1.0  0.111
  H  H168  1  0.265200  0.467700  0.969600  1.0  0.1054
  H  H169  1  0.217170  0.679030  0.273330  1.0  0.1112
  H  H170  1  0.111770  0.623630  0.309530  1.0  0.0957
  H  H171  1  0.145770  0.681230  0.258830  1.0  0.1038
  H  H172  1  0.038170  0.617730  0.294930  1.0  0.1151
  H  H173  1  0.060870  0.663930  0.245830  1.0  0.0609
  H  H174  1  0.086470  0.721430  0.255530  1.0  0.0527
  H  H175  1  0.967770  0.684230  0.272230  1.0  0.0614
  H  H176  1  0.950370  0.719230  0.260930  1.0  0.0763
  H  H177  1  0.106870  0.855730  0.279530  1.0  0.1168
  H  H178  1  0.937970  0.744630  0.283730  1.0  0.1145
  H  H179  1  0.102470  0.914630  0.298230  1.0  0.111
  H  H180  1  0.931870  0.801030  0.302930  1.0  0.1058
  H  H181  1  0.883830  0.012370  0.606670  1.0  0.1112
  H  H182  1  0.778430  0.956970  0.642870  1.0  0.0957
  H  H183  1  0.812430  0.014570  0.592170  1.0  0.1032
  H  H184  1  0.704830  0.951070  0.628270  1.0  0.1148
  H  H185  1  0.727530  0.997270  0.579170  1.0  0.061
  H  H186  1  0.753130  0.054770  0.588870  1.0  0.0528
  H  H187  1  0.634430  0.017570  0.605570  1.0  0.0616
  H  H188  1  0.617030  0.052570  0.594270  1.0  0.0773
  H  H189  1  0.773530  0.189070  0.612870  1.0  0.1174
  H  H190  1  0.604630  0.077970  0.617070  1.0  0.1145
  H  H191  1  0.769130  0.247970  0.631570  1.0  0.111
  H  H192  1  0.598530  0.134370  0.636270  1.0  0.1058
  H  H193  1  0.795200  0.449500  0.940000  1.0  0.1108
  H  H194  1  0.845200  0.554900  0.976200  1.0  0.096
  H  H195  1  0.868800  0.520900  0.925500  1.0  0.1016
  H  H196  1  0.912900  0.628500  0.961600  1.0  0.1155
  H  H197  1  0.936400  0.605800  0.912500  1.0  0.0602
  H  H198  1  0.968300  0.580200  0.922200  1.0  0.0526
  H  H199  1  0.049800  0.698900  0.938900  1.0  0.0617
  H  H200  1  0.102200  0.716300  0.927600  1.0  0.0705
  H  H201  1  0.082200  0.559800  0.946200  1.0  0.118
  H  H202  1  0.140000  0.728700  0.950400  1.0  0.1172
  H  H203  1  0.145500  0.564200  0.964900  1.0  0.1113
  H  H204  1  0.202500  0.734800  0.969600  1.0  0.1058
  H  H205  1  0.461870  0.782830  0.273330  1.0  0.1108
  H  H206  1  0.511870  0.888230  0.309530  1.0  0.0955
  H  H207  1  0.535470  0.854230  0.258830  1.0  0.1015
  H  H208  1  0.579570  0.961830  0.294930  1.0  0.1149
  H  H209  1  0.603070  0.939130  0.245830  1.0  0.0607
  H  H210  1  0.634970  0.913530  0.255530  1.0  0.0526
  H  H211  1  0.716470  0.032230  0.272230  1.0  0.0617
  H  H212  1  0.768870  0.049630  0.260930  1.0  0.0701
  H  H213  1  0.748870  0.893130  0.279530  1.0  0.1175
  H  H214  1  0.806670  0.062030  0.283730  1.0  0.1159
  H  H215  1  0.812170  0.897530  0.298230  1.0  0.1116
  H  H216  1  0.869170  0.068130  0.302930  1.0  0.1063
  H  H217  1  0.128530  0.116170  0.606670  1.0  0.1108
  H  H218  1  0.178530  0.221570  0.642870  1.0  0.0955
  H  H219  1  0.202130  0.187570  0.592170  1.0  0.1015
  H  H220  1  0.246230  0.295170  0.628270  1.0  0.1144
  H  H221  1  0.269730  0.272470  0.579170  1.0  0.0602
  H  H222  1  0.301630  0.246870  0.588870  1.0  0.0526
  H  H223  1  0.383130  0.365570  0.605570  1.0  0.0618
  H  H224  1  0.435530  0.382970  0.594270  1.0  0.0705
  H  H225  1  0.415530  0.226470  0.612870  1.0  0.118
  H  H226  1  0.473330  0.395370  0.617070  1.0  0.1159
  H  H227  1  0.478830  0.230870  0.631570  1.0  0.1116
  H  H228  1  0.535830  0.401470  0.636270  1.0  0.1063
  H  H229  1  0.654300  0.204800  0.940000  1.0  0.1107
  H  H230  1  0.709700  0.154800  0.976200  1.0  0.0951
  H  H231  1  0.652100  0.131200  0.925500  1.0  0.1023
  H  H232  1  0.715600  0.087100  0.961600  1.0  0.1147
  H  H233  1  0.669400  0.063600  0.912500  1.0  0.0599
  H  H234  1  0.611900  0.031700  0.922200  1.0  0.054
  H  H235  1  0.649100  0.950200  0.938900  1.0  0.0625
  H  H236  1  0.614100  0.897800  0.927600  1.0  0.0691
  H  H237  1  0.477600  0.917800  0.946200  1.0  0.1173
  H  H238  1  0.588700  0.860000  0.950400  1.0  0.1141
  H  H239  1  0.418700  0.854500  0.964900  1.0  0.1103
  H  H240  1  0.532300  0.797500  0.969600  1.0  0.1061
  H  H241  1  0.320970  0.538130  0.273330  1.0  0.1107
  H  H242  1  0.376370  0.488130  0.309530  1.0  0.0959
  H  H243  1  0.318770  0.464530  0.258830  1.0  0.1022
  H  H244  1  0.382270  0.420430  0.294930  1.0  0.1142
  H  H245  1  0.336070  0.396930  0.245830  1.0  0.0603
  H  H246  1  0.278570  0.365030  0.255530  1.0  0.054
  H  H247  1  0.315770  0.283530  0.272230  1.0  0.0624
  H  H248  1  0.280770  0.231130  0.260930  1.0  0.0687
  H  H249  1  0.144270  0.251130  0.279530  1.0  0.1179
  H  H250  1  0.255370  0.193330  0.283730  1.0  0.1141
  H  H251  1  0.085370  0.187830  0.298230  1.0  0.1107
  H  H252  1  0.198970  0.130830  0.302930  1.0  0.1061
  H  H253  1  0.987630  0.871470  0.606670  1.0  0.1107
  H  H254  1  0.043030  0.821470  0.642870  1.0  0.0959
  H  H255  1  0.985430  0.797870  0.592170  1.0  0.1029
  H  H256  1  0.048930  0.753770  0.628270  1.0  0.1142
  H  H257  1  0.002730  0.730270  0.579170  1.0  0.0601
  H  H258  1  0.945230  0.698370  0.588870  1.0  0.0541
  H  H259  1  0.982430  0.616870  0.605570  1.0  0.0625
  H  H260  1  0.947430  0.564470  0.594270  1.0  0.0691
  H  H261  1  0.810930  0.584470  0.612870  1.0  0.1179
  H  H262  1  0.922030  0.526670  0.617070  1.0  0.1141
  H  H263  1  0.752030  0.521170  0.631570  1.0  0.1107
  H  H264  1  0.865630  0.464170  0.636270  1.0  0.1061
  H  H265  1  0.654300  0.449500  0.440000  1.0  0.1107
  H  H266  1  0.709700  0.554900  0.476200  1.0  0.0954
  H  H267  1  0.652100  0.520900  0.425500  1.0  0.1024
  H  H268  1  0.715600  0.628500  0.461600  1.0  0.1153
  H  H269  1  0.669400  0.605800  0.412500  1.0  0.0608
  H  H270  1  0.611900  0.580200  0.422200  1.0  0.053
  H  H271  1  0.649100  0.698900  0.438900  1.0  0.0619
  H  H272  1  0.614100  0.716300  0.427600  1.0  0.0712
  H  H273  1  0.477600  0.559800  0.446200  1.0  0.117
  H  H274  1  0.588700  0.728700  0.450400  1.0  0.1167
  H  H275  1  0.418700  0.564200  0.464900  1.0  0.1112
  H  H276  1  0.532300  0.734800  0.469600  1.0  0.1056
  H  H277  1  0.320970  0.782830  0.773330  1.0  0.1107
  H  H278  1  0.376370  0.888230  0.809530  1.0  0.0957
  H  H279  1  0.318770  0.854230  0.758830  1.0  0.1024
  H  H280  1  0.382270  0.961830  0.794930  1.0  0.1147
  H  H281  1  0.336070  0.939130  0.745830  1.0  0.0606
  H  H282  1  0.278570  0.913530  0.755530  1.0  0.0529
  H  H283  1  0.315770  0.032230  0.772230  1.0  0.0618
  H  H284  1  0.280770  0.049630  0.760930  1.0  0.0707
  H  H285  1  0.144270  0.893130  0.779530  1.0  0.1171
  H  H286  1  0.255370  0.062030  0.783730  1.0  0.1156
  H  H287  1  0.085370  0.897530  0.798230  1.0  0.1112
  H  H288  1  0.198970  0.068130  0.802930  1.0  0.1059
  H  H289  1  0.987630  0.116170  0.106670  1.0  0.1107
  H  H290  1  0.043030  0.221570  0.142870  1.0  0.0957
  H  H291  1  0.985430  0.187570  0.092170  1.0  0.1021
  H  H292  1  0.048930  0.295170  0.128270  1.0  0.1143
  H  H293  1  0.002730  0.272470  0.079170  1.0  0.0607
  H  H294  1  0.945230  0.246870  0.088870  1.0  0.053
  H  H295  1  0.982430  0.365570  0.105570  1.0  0.0619
  H  H296  1  0.947430  0.382970  0.094270  1.0  0.0716
  H  H297  1  0.810930  0.226470  0.112870  1.0  0.1178
  H  H298  1  0.922030  0.395370  0.117070  1.0  0.1156
  H  H299  1  0.752030  0.230870  0.131570  1.0  0.1112
  H  H300  1  0.865630  0.401470  0.136270  1.0  0.1059
  H  H301  1  0.550500  0.204800  0.440000  1.0  0.1106
  H  H302  1  0.445100  0.154800  0.476200  1.0  0.0965
  H  H303  1  0.479100  0.131200  0.425500  1.0  0.1025
  H  H304  1  0.371500  0.087100  0.461600  1.0  0.1154
  H  H305  1  0.394200  0.063600  0.412500  1.0  0.0603
  H  H306  1  0.419800  0.031700  0.422200  1.0  0.0564
  H  H307  1  0.301100  0.950200  0.438900  1.0  0.0625
  H  H308  1  0.283700  0.897800  0.427600  1.0  0.0698
  H  H309  1  0.440200  0.917800  0.446200  1.0  0.1177
  H  H310  1  0.271300  0.860000  0.450400  1.0  0.1144
  H  H311  1  0.435800  0.854500  0.464900  1.0  0.1106
  H  H312  1  0.265200  0.797500  0.469600  1.0  0.1055
  H  H313  1  0.217170  0.538130  0.773330  1.0  0.1106
  H  H314  1  0.111770  0.488130  0.809530  1.0  0.0961
  H  H315  1  0.145770  0.464530  0.758830  1.0  0.1024
  H  H316  1  0.038170  0.420430  0.794930  1.0  0.1151
  H  H317  1  0.060870  0.396930  0.745830  1.0  0.0608
  H  H318  1  0.086470  0.365030  0.755530  1.0  0.0564
  H  H319  1  0.967770  0.283530  0.772230  1.0  0.0625
  H  H320  1  0.950370  0.231130  0.760930  1.0  0.0692
  H  H321  1  0.106870  0.251130  0.779530  1.0  0.1165
  H  H322  1  0.937970  0.193330  0.783730  1.0  0.1138
  H  H323  1  0.102470  0.187830  0.798230  1.0  0.111
  H  H324  1  0.931870  0.130830  0.802930  1.0  0.1057
  H  H325  1  0.883830  0.871470  0.106670  1.0  0.1106
  H  H326  1  0.778430  0.821470  0.142870  1.0  0.0961
  H  H327  1  0.812430  0.797870  0.092170  1.0  0.1028
  H  H328  1  0.704830  0.753770  0.128270  1.0  0.1146
  H  H329  1  0.727530  0.730270  0.079170  1.0  0.0603
  H  H330  1  0.753130  0.698370  0.088870  1.0  0.0564
  H  H331  1  0.634430  0.616870  0.105570  1.0  0.0626
  H  H332  1  0.617030  0.564470  0.094270  1.0  0.0698
  H  H333  1  0.773530  0.584470  0.112870  1.0  0.1171
  H  H334  1  0.604630  0.526670  0.117070  1.0  0.1138
  H  H335  1  0.769130  0.521170  0.131570  1.0  0.111
  H  H336  1  0.598530  0.464170  0.136270  1.0  0.1057
  H  H337  1  0.795200  0.345700  0.440000  1.0  0.1108
  H  H338  1  0.845200  0.290300  0.476200  1.0  0.0951
  H  H339  1  0.868800  0.347900  0.425500  1.0  0.1021
  H  H340  1  0.912900  0.284400  0.461600  1.0  0.1149
  H  H341  1  0.936400  0.330600  0.412500  1.0  0.0613
  H  H342  1  0.968300  0.388100  0.422200  1.0  0.0532
  H  H343  1  0.049800  0.350900  0.438900  1.0  0.0618
  H  H344  1  0.102200  0.385900  0.427600  1.0  0.0784
  H  H345  1  0.082200  0.522400  0.446200  1.0  0.1181
  H  H346  1  0.140000  0.411300  0.450400  1.0  0.1143
  H  H347  1  0.145500  0.581300  0.464900  1.0  0.111
  H  H348  1  0.202500  0.467700  0.469600  1.0  0.1057
  H  H349  1  0.461870  0.679030  0.773330  1.0  0.1108
  H  H350  1  0.511870  0.623630  0.809530  1.0  0.0954
  H  H351  1  0.535470  0.681230  0.758830  1.0  0.102
  H  H352  1  0.579570  0.617730  0.794930  1.0  0.1144
  H  H353  1  0.603070  0.663930  0.745830  1.0  0.0615
  H  H354  1  0.634970  0.721430  0.755530  1.0  0.0529
  H  H355  1  0.716470  0.684230  0.772230  1.0  0.0617
  H  H356  1  0.768870  0.719230  0.760930  1.0  0.0779
  H  H357  1  0.748870  0.855730  0.779530  1.0  0.1169
  H  H358  1  0.806670  0.744630  0.783730  1.0  0.1143
  H  H359  1  0.812170  0.914630  0.798230  1.0  0.1111
  H  H360  1  0.869170  0.801030  0.802930  1.0  0.1057
  H  H361  1  0.128530  0.012370  0.106670  1.0  0.1108
  H  H362  1  0.178530  0.956970  0.142870  1.0  0.0954
  H  H363  1  0.202130  0.014570  0.092170  1.0  0.1025
  H  H364  1  0.246230  0.951070  0.128270  1.0  0.1145
  H  H365  1  0.269730  0.997270  0.079170  1.0  0.0614
  H  H366  1  0.301630  0.054770  0.088870  1.0  0.0532
  H  H367  1  0.383130  0.017570  0.105570  1.0  0.0619
  H  H368  1  0.435530  0.052570  0.094270  1.0  0.0784
  H  H369  1  0.415530  0.189070  0.112870  1.0  0.1169
  H  H370  1  0.473330  0.077970  0.117070  1.0  0.1143
  H  H371  1  0.478830  0.247970  0.131570  1.0  0.1111
  H  H372  1  0.535830  0.134370  0.136270  1.0  0.1057
  H  H373  1  0.449500  0.654300  0.060000  1.0  0.1107
  H  H374  1  0.554900  0.709700  0.023800  1.0  0.0956
  H  H375  1  0.520900  0.652100  0.074500  1.0  0.1034
  H  H376  1  0.628500  0.715600  0.038400  1.0  0.1144
  H  H377  1  0.605800  0.669400  0.087500  1.0  0.0625
  H  H378  1  0.580200  0.611900  0.077800  1.0  0.0534
  H  H379  1  0.698900  0.649100  0.061100  1.0  0.063
  H  H380  1  0.716300  0.614100  0.072400  1.0  0.0782
  H  H381  1  0.559800  0.477600  0.053800  1.0  0.1169
  H  H382  1  0.728700  0.588700  0.049600  1.0  0.1162
  H  H383  1  0.564200  0.418700  0.035100  1.0  0.111
  H  H384  1  0.734800  0.532300  0.030400  1.0  0.1056
  H  H385  1  0.116170  0.987630  0.393330  1.0  0.1107
  H  H386  1  0.221570  0.043030  0.357130  1.0  0.0955
  H  H387  1  0.187570  0.985430  0.407830  1.0  0.1028
  H  H388  1  0.295170  0.048930  0.371730  1.0  0.1145
  H  H389  1  0.272470  0.002730  0.420830  1.0  0.0624
  H  H390  1  0.246870  0.945230  0.411130  1.0  0.0533
  H  H391  1  0.365570  0.982430  0.394430  1.0  0.063
  H  H392  1  0.382970  0.947430  0.405730  1.0  0.0786
  H  H393  1  0.226470  0.810930  0.387130  1.0  0.1175
  H  H394  1  0.395370  0.922030  0.382930  1.0  0.115
  H  H395  1  0.230870  0.752030  0.368430  1.0  0.111
  H  H396  1  0.401470  0.865630  0.363730  1.0  0.1059
  H  H397  1  0.782830  0.320970  0.726670  1.0  0.1107
  H  H398  1  0.888230  0.376370  0.690470  1.0  0.0955
  H  H399  1  0.854230  0.318770  0.741170  1.0  0.1034
  H  H400  1  0.961830  0.382270  0.705070  1.0  0.1149
  H  H401  1  0.939130  0.336070  0.754170  1.0  0.0623
  H  H402  1  0.913530  0.278570  0.744470  1.0  0.0532
  H  H403  1  0.032230  0.315770  0.727770  1.0  0.0629
  H  H404  1  0.049630  0.280770  0.739070  1.0  0.0777
  H  H405  1  0.893130  0.144270  0.720470  1.0  0.117
  H  H406  1  0.062030  0.255370  0.716270  1.0  0.115
  H  H407  1  0.897530  0.085370  0.701770  1.0  0.111
  H  H408  1  0.068130  0.198970  0.697070  1.0  0.1059
  H  H409  1  0.204800  0.550500  0.060000  1.0  0.1102
  H  H410  1  0.154800  0.445100  0.023800  1.0  0.096
  H  H411  1  0.131200  0.479100  0.074500  1.0  0.1019
  H  H412  1  0.087100  0.371500  0.038400  1.0  0.1147
  H  H413  1  0.063600  0.394200  0.087500  1.0  0.0614
  H  H414  1  0.031700  0.419800  0.077800  1.0  0.0531
  H  H415  1  0.950200  0.301100  0.061100  1.0  0.0619
  H  H416  1  0.897800  0.283700  0.072400  1.0  0.0711
  H  H417  1  0.917800  0.440200  0.053800  1.0  0.1173
  H  H418  1  0.860000  0.271300  0.049600  1.0  0.1169
  H  H419  1  0.854500  0.435800  0.035100  1.0  0.1117
  H  H420  1  0.797500  0.265200  0.030400  1.0  0.105
  H  H421  1  0.871470  0.883830  0.393330  1.0  0.1102
  H  H422  1  0.821470  0.778430  0.357130  1.0  0.0957
  H  H423  1  0.797870  0.812430  0.407830  1.0  0.1023
  H  H424  1  0.753770  0.704830  0.371730  1.0  0.1138
  H  H425  1  0.730270  0.727530  0.420830  1.0  0.0614
  H  H426  1  0.698370  0.753130  0.411130  1.0  0.053
  H  H427  1  0.616870  0.634430  0.394430  1.0  0.062
  H  H428  1  0.564470  0.617030  0.405730  1.0  0.0711
  H  H429  1  0.584470  0.773530  0.387130  1.0  0.1182
  H  H430  1  0.526670  0.604630  0.382930  1.0  0.1158
  H  H431  1  0.521170  0.769130  0.368430  1.0  0.1122
  H  H432  1  0.464170  0.598530  0.363730  1.0  0.1054
  H  H433  1  0.538130  0.217170  0.726670  1.0  0.1102
  H  H434  1  0.488130  0.111770  0.690470  1.0  0.0957
  H  H435  1  0.464530  0.145770  0.741170  1.0  0.1018
  H  H436  1  0.420430  0.038170  0.705070  1.0  0.1143
  H  H437  1  0.396930  0.060870  0.754170  1.0  0.0618
  H  H438  1  0.365030  0.086470  0.744470  1.0  0.0531
  H  H439  1  0.283530  0.967770  0.727770  1.0  0.0618
  H  H440  1  0.231130  0.950370  0.739070  1.0  0.0706
  H  H441  1  0.251130  0.106870  0.720470  1.0  0.1169
  H  H442  1  0.193330  0.937970  0.716270  1.0  0.1158
  H  H443  1  0.187830  0.102470  0.701770  1.0  0.1122
  H  H444  1  0.130830  0.931870  0.697070  1.0  0.1054
  H  H445  1  0.345700  0.795200  0.060000  1.0  0.1103
  H  H446  1  0.290300  0.845200  0.023800  1.0  0.0951
  H  H447  1  0.347900  0.868800  0.074500  1.0  0.1023
  H  H448  1  0.284400  0.912900  0.038400  1.0  0.1152
  H  H449  1  0.330600  0.936400  0.087500  1.0  0.0609
  H  H450  1  0.388100  0.968300  0.077800  1.0  0.0566
  H  H451  1  0.350900  0.049800  0.061100  1.0  0.0627
  H  H452  1  0.385900  0.102200  0.072400  1.0  0.0723
  H  H453  1  0.522400  0.082200  0.053800  1.0  0.1168
  H  H454  1  0.411300  0.140000  0.049600  1.0  0.1133
  H  H455  1  0.581300  0.145500  0.035100  1.0  0.1111
  H  H456  1  0.467700  0.202500  0.030400  1.0  0.1056
  H  H457  1  0.012370  0.128530  0.393330  1.0  0.1103
  H  H458  1  0.956970  0.178530  0.357130  1.0  0.0957
  H  H459  1  0.014570  0.202130  0.407830  1.0  0.103
  H  H460  1  0.951070  0.246230  0.371730  1.0  0.1146
  H  H461  1  0.997270  0.269730  0.420830  1.0  0.061
  H  H462  1  0.054770  0.301630  0.411130  1.0  0.0566
  H  H463  1  0.017570  0.383130  0.394430  1.0  0.0627
  H  H464  1  0.052570  0.435530  0.405730  1.0  0.0723
  H  H465  1  0.189070  0.415530  0.387130  1.0  0.1159
  H  H466  1  0.077970  0.473330  0.382930  1.0  0.1133
  H  H467  1  0.247970  0.478830  0.368430  1.0  0.1116
  H  H468  1  0.134370  0.535830  0.363730  1.0  0.1056
  H  H469  1  0.679030  0.461870  0.726670  1.0  0.1103
  H  H470  1  0.623630  0.511870  0.690470  1.0  0.0957
  H  H471  1  0.681230  0.535470  0.741170  1.0  0.1023
  H  H472  1  0.617730  0.579570  0.705070  1.0  0.1146
  H  H473  1  0.663930  0.603070  0.754170  1.0  0.0611
  H  H474  1  0.721430  0.634970  0.744470  1.0  0.0566
  H  H475  1  0.684230  0.716470  0.727770  1.0  0.0626
  H  H476  1  0.719230  0.768870  0.739070  1.0  0.0719
  H  H477  1  0.855730  0.748870  0.720470  1.0  0.116
  H  H478  1  0.744630  0.806670  0.716270  1.0  0.1133
  H  H479  1  0.914630  0.812170  0.701770  1.0  0.1116
  H  H480  1  0.801030  0.869170  0.697070  1.0  0.1056
  C  C481  1  0.319470  0.552630  0.530810  1.0  0.7031
  C  C482  1  0.318930  0.505290  0.540080  1.0  -0.1324
  C  C483  1  0.335180  0.514920  0.555550  1.0  -0.0628
  C  C484  1  0.301270  0.452000  0.534110  1.0  0.0011
  C  C485  1  0.335680  0.471600  0.564250  1.0  -0.2365
  C  C486  1  0.299000  0.408130  0.542740  1.0  -0.1592
  C  C487  1  0.318410  0.417700  0.558080  1.0  0.2547
  C  C488  1  0.350110  0.386050  0.579250  1.0  0.0816
  C  C489  1  0.378830  0.314710  0.569440  1.0  0.0687
  C  C490  1  0.461100  0.355700  0.553240  1.0  0.3025
  C  C491  1  0.512000  0.405170  0.548990  1.0  -0.1473
  C  C492  1  0.445120  0.304250  0.546500  1.0  -0.2793
  C  C493  1  0.546930  0.402710  0.537800  1.0  -0.037
  C  C494  1  0.478900  0.300530  0.535070  1.0  -0.0374
  C  C495  1  0.530600  0.350320  0.530470  1.0  -0.1597
  C  C496  1  0.568200  0.345630  0.518780  1.0  0.7501
  C  C497  1  0.986140  0.885960  0.864140  1.0  0.7031
  C  C498  1  0.985600  0.838620  0.873410  1.0  -0.1324
  C  C499  1  0.001850  0.848250  0.888880  1.0  -0.0624
  C  C500  1  0.967940  0.785330  0.867440  1.0  0.0011
  C  C501  1  0.002350  0.804930  0.897580  1.0  -0.2422
  C  C502  1  0.965670  0.741460  0.876070  1.0  -0.1592
  C  C503  1  0.985080  0.751030  0.891410  1.0  0.2547
  C  C504  1  0.016780  0.719380  0.912580  1.0  0.0815
  C  C505  1  0.045500  0.648040  0.902770  1.0  0.0687
  C  C506  1  0.127770  0.689030  0.886570  1.0  0.3025
  C  C507  1  0.178670  0.738500  0.882320  1.0  -0.1473
  C  C508  1  0.111790  0.637580  0.879830  1.0  -0.2793
  C  C509  1  0.213600  0.736040  0.871130  1.0  -0.037
  C  C510  1  0.145570  0.633860  0.868400  1.0  -0.0374
  C  C511  1  0.197270  0.683650  0.863800  1.0  -0.1598
  C  C512  1  0.234870  0.678960  0.852110  1.0  0.7501
  C  C513  1  0.652800  0.219300  0.197480  1.0  0.7031
  C  C514  1  0.652260  0.171960  0.206750  1.0  -0.1324
  C  C515  1  0.668510  0.181590  0.222220  1.0  -0.0628
  C  C516  1  0.634600  0.118670  0.200780  1.0  0.0011
  C  C517  1  0.669010  0.138270  0.230920  1.0  -0.2365
  C  C518  1  0.632330  0.074800  0.209410  1.0  -0.1591
  C  C519  1  0.651740  0.084370  0.224750  1.0  0.2546
  C  C520  1  0.683440  0.052720  0.245920  1.0  0.0817
  C  C521  1  0.712160  0.981380  0.236110  1.0  0.0691
  C  C522  1  0.794430  0.022370  0.219910  1.0  0.3025
  C  C523  1  0.845330  0.071840  0.215660  1.0  -0.1473
  C  C524  1  0.778450  0.970920  0.213170  1.0  -0.2792
  C  C525  1  0.880260  0.069380  0.204470  1.0  -0.0332
  C  C526  1  0.812230  0.967200  0.201740  1.0  -0.0374
  C  C527  1  0.863930  0.016990  0.197140  1.0  -0.1598
  C  C528  1  0.901530  0.012300  0.185450  1.0  0.7501
  C  C529  1  0.447370  0.766840  0.530810  1.0  0.7043
  C  C530  1  0.494710  0.813640  0.540080  1.0  -0.1332
  C  C531  1  0.485080  0.820260  0.555550  1.0  -0.0635
  C  C532  1  0.548000  0.849270  0.534110  1.0  0.0003
  C  C533  1  0.528400  0.864080  0.564250  1.0  -0.2374
  C  C534  1  0.591870  0.890870  0.542740  1.0  -0.1563
  C  C535  1  0.582300  0.900710  0.558080  1.0  0.2541
  C  C536  1  0.613950  0.964060  0.579250  1.0  0.0824
  C  C537  1  0.685290  0.064120  0.569440  1.0  0.0672
  C  C538  1  0.644300  0.105400  0.553240  1.0  0.3006
  C  C539  1  0.594830  0.106830  0.548990  1.0  -0.1473
  C  C540  1  0.695750  0.140870  0.546500  1.0  -0.2736
  C  C541  1  0.597290  0.144220  0.537800  1.0  -0.035
  C  C542  1  0.699470  0.178370  0.535070  1.0  -0.0383
  C  C543  1  0.649680  0.180280  0.530470  1.0  -0.1594
  C  C544  1  0.654370  0.222570  0.518780  1.0  0.7504
  C  C545  1  0.114040  0.100170  0.864140  1.0  0.7043
  C  C546  1  0.161380  0.146970  0.873410  1.0  -0.1332
  C  C547  1  0.151750  0.153590  0.888880  1.0  -0.0635
  C  C548  1  0.214670  0.182600  0.867440  1.0  0.0003
  C  C549  1  0.195070  0.197410  0.897580  1.0  -0.2374
  C  C550  1  0.258540  0.224200  0.876070  1.0  -0.1563
  C  C551  1  0.248970  0.234040  0.891410  1.0  0.2541
  C  C552  1  0.280620  0.297390  0.912580  1.0  0.0822
  C  C553  1  0.351960  0.397450  0.902770  1.0  0.0672
  C  C554  1  0.310970  0.438730  0.886570  1.0  0.3006
  C  C555  1  0.261500  0.440160  0.882320  1.0  -0.1473
  C  C556  1  0.362420  0.474200  0.879830  1.0  -0.2736
  C  C557  1  0.263960  0.477550  0.871130  1.0  -0.035
  C  C558  1  0.366140  0.511700  0.868400  1.0  -0.0383
  C  C559  1  0.316350  0.513610  0.863800  1.0  -0.1594
  C  C560  1  0.321040  0.555900  0.852110  1.0  0.7504
  C  C561  1  0.780700  0.433510  0.197480  1.0  0.7043
  C  C562  1  0.828040  0.480310  0.206750  1.0  -0.1332
  C  C563  1  0.818410  0.486930  0.222220  1.0  -0.0635
  C  C564  1  0.881330  0.515940  0.200780  1.0  0.0003
  C  C565  1  0.861730  0.530750  0.230920  1.0  -0.2377
  C  C566  1  0.925200  0.557540  0.209410  1.0  -0.1564
  C  C567  1  0.915630  0.567380  0.224750  1.0  0.2542
  C  C568  1  0.947280  0.630730  0.245920  1.0  0.0825
  C  C569  1  0.018620  0.730790  0.236110  1.0  0.0676
  C  C570  1  0.977630  0.772070  0.219910  1.0  0.3006
  C  C571  1  0.928160  0.773500  0.215660  1.0  -0.1472
  C  C572  1  0.029080  0.807540  0.213170  1.0  -0.2736
  C  C573  1  0.930620  0.810890  0.204470  1.0  -0.035
  C  C574  1  0.032800  0.845040  0.201740  1.0  -0.0383
  C  C575  1  0.983010  0.846950  0.197140  1.0  -0.1594
  C  C576  1  0.987700  0.889240  0.185450  1.0  0.7504
  C  C577  1  0.233160  0.680530  0.530810  1.0  0.7037
  C  C578  1  0.186360  0.681070  0.540080  1.0  -0.1326
  C  C579  1  0.179740  0.664820  0.555550  1.0  -0.0623
  C  C580  1  0.150730  0.698730  0.534110  1.0  0.0002
  C  C581  1  0.135920  0.664320  0.564250  1.0  -0.2322
  C  C582  1  0.109130  0.701000  0.542740  1.0  -0.1584
  C  C583  1  0.099290  0.681590  0.558080  1.0  0.2554
  C  C584  1  0.035940  0.649890  0.579250  1.0  0.0833
  C  C585  1  0.935880  0.621170  0.569440  1.0  0.0682
  C  C586  1  0.894600  0.538900  0.553240  1.0  0.3024
  C  C587  1  0.893170  0.488000  0.548990  1.0  -0.1442
  C  C588  1  0.859130  0.554880  0.546500  1.0  -0.2767
  C  C589  1  0.855780  0.453070  0.537800  1.0  -0.0335
  C  C590  1  0.821630  0.521100  0.535070  1.0  -0.0375
  C  C591  1  0.819720  0.469400  0.530470  1.0  -0.1601
  C  C592  1  0.777430  0.431800  0.518780  1.0  0.7506
  C  C593  1  0.899830  0.013860  0.864140  1.0  0.7037
  C  C594  1  0.853030  0.014400  0.873410  1.0  -0.1326
  C  C595  1  0.846410  0.998150  0.888880  1.0  -0.062
  C  C596  1  0.817400  0.032060  0.867440  1.0  0.0002
  C  C597  1  0.802590  0.997650  0.897580  1.0  -0.2378
  C  C598  1  0.775800  0.034330  0.876070  1.0  -0.1584
  C  C599  1  0.765960  0.014920  0.891410  1.0  0.2554
  C  C600  1  0.702610  0.983220  0.912580  1.0  0.0831
  C  C601  1  0.602550  0.954500  0.902770  1.0  0.0682
  C  C602  1  0.561270  0.872230  0.886570  1.0  0.3024
  C  C603  1  0.559840  0.821330  0.882320  1.0  -0.1442
  C  C604  1  0.525800  0.888210  0.879830  1.0  -0.2767
  C  C605  1  0.522450  0.786400  0.871130  1.0  -0.0335
  C  C606  1  0.488300  0.854430  0.868400  1.0  -0.0375
  C  C607  1  0.486390  0.802730  0.863800  1.0  -0.1601
  C  C608  1  0.444100  0.765130  0.852110  1.0  0.7506
  C  C609  1  0.566490  0.347200  0.197480  1.0  0.7037
  C  C610  1  0.519690  0.347740  0.206750  1.0  -0.1326
  C  C611  1  0.513070  0.331490  0.222220  1.0  -0.0623
  C  C612  1  0.484060  0.365400  0.200780  1.0  0.0002
  C  C613  1  0.469250  0.330990  0.230920  1.0  -0.2325
  C  C614  1  0.442460  0.367670  0.209410  1.0  -0.1583
  C  C615  1  0.432620  0.348260  0.224750  1.0  0.2555
  C  C616  1  0.369270  0.316560  0.245920  1.0  0.0834
  C  C617  1  0.269210  0.287840  0.236110  1.0  0.0682
  C  C618  1  0.227930  0.205570  0.219910  1.0  0.3024
  C  C619  1  0.226500  0.154670  0.215660  1.0  -0.1442
  C  C620  1  0.192460  0.221550  0.213170  1.0  -0.2765
  C  C621  1  0.189110  0.119740  0.204470  1.0  -0.037
  C  C622  1  0.154960  0.187770  0.201740  1.0  -0.0375
  C  C623  1  0.153050  0.136070  0.197140  1.0  -0.1601
  C  C624  1  0.110760  0.098470  0.185450  1.0  0.7506
  C  C625  1  0.552630  0.319470  0.969190  1.0  0.7036
  C  C626  1  0.505290  0.318930  0.959920  1.0  -0.1327
  C  C627  1  0.514920  0.335180  0.944450  1.0  -0.0636
  C  C628  1  0.452000  0.301270  0.965890  1.0  -0.0005
  C  C629  1  0.471600  0.335680  0.935750  1.0  -0.2349
  C  C630  1  0.408130  0.299000  0.957260  1.0  -0.1579
  C  C631  1  0.417700  0.318410  0.941920  1.0  0.2552
  C  C632  1  0.386050  0.350110  0.920750  1.0  0.0831
  C  C633  1  0.314710  0.378830  0.930560  1.0  0.0694
  C  C634  1  0.355700  0.461100  0.946760  1.0  0.303
  C  C635  1  0.405170  0.512000  0.951010  1.0  -0.1457
  C  C636  1  0.304250  0.445120  0.953500  1.0  -0.277
  C  C637  1  0.402710  0.546930  0.962200  1.0  -0.0359
  C  C638  1  0.300530  0.478900  0.964930  1.0  -0.0377
  C  C639  1  0.350320  0.530600  0.969530  1.0  -0.1599
  C  C640  1  0.345630  0.568200  0.981220  1.0  0.7505
  C  C641  1  0.219300  0.652800  0.302520  1.0  0.7036
  C  C642  1  0.171960  0.652260  0.293250  1.0  -0.1327
  C  C643  1  0.181590  0.668510  0.277780  1.0  -0.0636
  C  C644  1  0.118670  0.634600  0.299220  1.0  -0.0005
  C  C645  1  0.138270  0.669010  0.269080  1.0  -0.2349
  C  C646  1  0.074800  0.632330  0.290590  1.0  -0.1577
  C  C647  1  0.084370  0.651740  0.275250  1.0  0.2551
  C  C648  1  0.052720  0.683440  0.254080  1.0  0.0831
  C  C649  1  0.981380  0.712160  0.263890  1.0  0.0698
  C  C650  1  0.022370  0.794430  0.280090  1.0  0.303
  C  C651  1  0.071840  0.845330  0.284340  1.0  -0.1457
  C  C652  1  0.970920  0.778450  0.286830  1.0  -0.2768
  C  C653  1  0.069380  0.880260  0.295530  1.0  -0.0328
  C  C654  1  0.967200  0.812230  0.298260  1.0  -0.0377
  C  C655  1  0.016990  0.863930  0.302860  1.0  -0.1601
  C  C656  1  0.012300  0.901530  0.314550  1.0  0.7505
  C  C657  1  0.885960  0.986140  0.635860  1.0  0.7037
  C  C658  1  0.838620  0.985600  0.626590  1.0  -0.1327
  C  C659  1  0.848250  0.001850  0.611120  1.0  -0.0637
  C  C660  1  0.785330  0.967940  0.632560  1.0  -0.0005
  C  C661  1  0.804930  0.002350  0.602420  1.0  -0.2384
  C  C662  1  0.741460  0.965670  0.623930  1.0  -0.1579
  C  C663  1  0.751030  0.985080  0.608590  1.0  0.2552
  C  C664  1  0.719380  0.016780  0.587420  1.0  0.0829
  C  C665  1  0.648040  0.045500  0.597230  1.0  0.0694
  C  C666  1  0.689030  0.127770  0.613430  1.0  0.303
  C  C667  1  0.738500  0.178670  0.617680  1.0  -0.1457
  C  C668  1  0.637580  0.111790  0.620170  1.0  -0.277
  C  C669  1  0.736040  0.213600  0.628870  1.0  -0.0359
  C  C670  1  0.633860  0.145570  0.631600  1.0  -0.0377
  C  C671  1  0.683650  0.197270  0.636200  1.0  -0.1601
  C  C672  1  0.678960  0.234870  0.647890  1.0  0.7505
  C  C673  1  0.766840  0.447370  0.969190  1.0  0.7032
  C  C674  1  0.813640  0.494710  0.959920  1.0  -0.1327
  C  C675  1  0.820260  0.485080  0.944450  1.0  -0.0632
  C  C676  1  0.849270  0.548000  0.965890  1.0  -0.002
  C  C677  1  0.864080  0.528400  0.935750  1.0  -0.2392
  C  C678  1  0.890870  0.591870  0.957260  1.0  -0.1564
  C  C679  1  0.900710  0.582300  0.941920  1.0  0.2552
  C  C680  1  0.964060  0.613950  0.920750  1.0  0.0818
  C  C681  1  0.064120  0.685290  0.930560  1.0  0.0689
  C  C682  1  0.105400  0.644300  0.946760  1.0  0.3019
  C  C683  1  0.106830  0.594830  0.951010  1.0  -0.1484
  C  C684  1  0.140870  0.695750  0.953500  1.0  -0.2803
  C  C685  1  0.144220  0.597290  0.962200  1.0  -0.0337
  C  C686  1  0.178370  0.699470  0.964930  1.0  -0.0381
  C  C687  1  0.180280  0.649680  0.969530  1.0  -0.1604
  C  C688  1  0.222570  0.654370  0.981220  1.0  0.75
  C  C689  1  0.433510  0.780700  0.302520  1.0  0.7032
  C  C690  1  0.480310  0.828040  0.293250  1.0  -0.1327
  C  C691  1  0.486930  0.818410  0.277780  1.0  -0.0632
  C  C692  1  0.515940  0.881330  0.299220  1.0  -0.002
  C  C693  1  0.530750  0.861730  0.269080  1.0  -0.2394
  C  C694  1  0.557540  0.925200  0.290590  1.0  -0.1564
  C  C695  1  0.567380  0.915630  0.275250  1.0  0.2553
  C  C696  1  0.630730  0.947280  0.254080  1.0  0.0818
  C  C697  1  0.730790  0.018620  0.263890  1.0  0.0693
  C  C698  1  0.772070  0.977630  0.280090  1.0  0.302
  C  C699  1  0.773500  0.928160  0.284340  1.0  -0.1484
  C  C700  1  0.807540  0.029080  0.286830  1.0  -0.2801
  C  C701  1  0.810890  0.930620  0.295530  1.0  -0.0338
  C  C702  1  0.845040  0.032800  0.298260  1.0  -0.0381
  C  C703  1  0.846950  0.983010  0.302860  1.0  -0.1604
  C  C704  1  0.889240  0.987700  0.314550  1.0  0.75
  C  C705  1  0.100170  0.114040  0.635860  1.0  0.7033
  C  C706  1  0.146970  0.161380  0.626590  1.0  -0.1327
  C  C707  1  0.153590  0.151750  0.611120  1.0  -0.0632
  C  C708  1  0.182600  0.214670  0.632560  1.0  -0.002
  C  C709  1  0.197410  0.195070  0.602420  1.0  -0.2392
  C  C710  1  0.224200  0.258540  0.623930  1.0  -0.1564
  C  C711  1  0.234040  0.248970  0.608590  1.0  0.2552
  C  C712  1  0.297390  0.280620  0.587420  1.0  0.0816
  C  C713  1  0.397450  0.351960  0.597230  1.0  0.0689
  C  C714  1  0.438730  0.310970  0.613430  1.0  0.3019
  C  C715  1  0.440160  0.261500  0.617680  1.0  -0.1484
  C  C716  1  0.474200  0.362420  0.620170  1.0  -0.2803
  C  C717  1  0.477550  0.263960  0.628870  1.0  -0.0337
  C  C718  1  0.511700  0.366140  0.631600  1.0  -0.0381
  C  C719  1  0.513610  0.316350  0.636200  1.0  -0.1604
  C  C720  1  0.555900  0.321040  0.647890  1.0  0.75
  C  C721  1  0.680530  0.233160  0.969190  1.0  0.7038
  C  C722  1  0.681070  0.186360  0.959920  1.0  -0.132
  C  C723  1  0.664820  0.179740  0.944450  1.0  -0.0641
  C  C724  1  0.698730  0.150730  0.965890  1.0  0.0004
  C  C725  1  0.664320  0.135920  0.935750  1.0  -0.2376
  C  C726  1  0.701000  0.109130  0.957260  1.0  -0.1542
  C  C727  1  0.681590  0.099290  0.941920  1.0  0.2548
  C  C728  1  0.649890  0.035940  0.920750  1.0  0.0817
  C  C729  1  0.621170  0.935880  0.930560  1.0  0.0704
  C  C730  1  0.538900  0.894600  0.946760  1.0  0.3011
  C  C731  1  0.488000  0.893170  0.951010  1.0  -0.1476
  C  C732  1  0.554880  0.859130  0.953500  1.0  -0.2743
  C  C733  1  0.453070  0.855780  0.962200  1.0  -0.0352
  C  C734  1  0.521100  0.821630  0.964930  1.0  -0.0379
  C  C735  1  0.469400  0.819720  0.969530  1.0  -0.1601
  C  C736  1  0.431800  0.777430  0.981220  1.0  0.7507
  C  C737  1  0.347200  0.566490  0.302520  1.0  0.7038
  C  C738  1  0.347740  0.519690  0.293250  1.0  -0.132
  C  C739  1  0.331490  0.513070  0.277780  1.0  -0.0641
  C  C740  1  0.365400  0.484060  0.299220  1.0  0.0004
  C  C741  1  0.330990  0.469250  0.269080  1.0  -0.2377
  C  C742  1  0.367670  0.442460  0.290590  1.0  -0.1542
  C  C743  1  0.348260  0.432620  0.275250  1.0  0.2549
  C  C744  1  0.316560  0.369270  0.254080  1.0  0.0819
  C  C745  1  0.287840  0.269210  0.263890  1.0  0.0703
  C  C746  1  0.205570  0.227930  0.280090  1.0  0.3011
  C  C747  1  0.154670  0.226500  0.284340  1.0  -0.1476
  C  C748  1  0.221550  0.192460  0.286830  1.0  -0.274
  C  C749  1  0.119740  0.189110  0.295530  1.0  -0.0384
  C  C750  1  0.187770  0.154960  0.298260  1.0  -0.0379
  C  C751  1  0.136070  0.153050  0.302860  1.0  -0.1601
  C  C752  1  0.098470  0.110760  0.314550  1.0  0.7507
  C  C753  1  0.013860  0.899830  0.635860  1.0  0.7038
  C  C754  1  0.014400  0.853030  0.626590  1.0  -0.132
  C  C755  1  0.998150  0.846410  0.611120  1.0  -0.0637
  C  C756  1  0.032060  0.817400  0.632560  1.0  0.0004
  C  C757  1  0.997650  0.802590  0.602420  1.0  -0.242
  C  C758  1  0.034330  0.775800  0.623930  1.0  -0.1542
  C  C759  1  0.014920  0.765960  0.608590  1.0  0.2548
  C  C760  1  0.983220  0.702610  0.587420  1.0  0.0816
  C  C761  1  0.954500  0.602550  0.597230  1.0  0.0703
  C  C762  1  0.872230  0.561270  0.613430  1.0  0.3011
  C  C763  1  0.821330  0.559840  0.617680  1.0  -0.1476
  C  C764  1  0.888210  0.525800  0.620170  1.0  -0.2743
  C  C765  1  0.786400  0.522450  0.628870  1.0  -0.0352
  C  C766  1  0.854430  0.488300  0.631600  1.0  -0.0379
  C  C767  1  0.802730  0.486390  0.636200  1.0  -0.1601
  C  C768  1  0.765130  0.444100  0.647890  1.0  0.7507
  C  C769  1  0.680530  0.447370  0.469190  1.0  0.7035
  C  C770  1  0.681070  0.494710  0.459920  1.0  -0.1325
  C  C771  1  0.664820  0.485080  0.444450  1.0  -0.0623
  C  C772  1  0.698730  0.548000  0.465890  1.0  -0.0011
  C  C773  1  0.664320  0.528400  0.435750  1.0  -0.2412
  C  C774  1  0.701000  0.591870  0.457260  1.0  -0.1554
  C  C775  1  0.681590  0.582300  0.441920  1.0  0.2563
  C  C776  1  0.649890  0.613950  0.420750  1.0  0.082
  C  C777  1  0.621170  0.685290  0.430560  1.0  0.07
  C  C778  1  0.538900  0.644300  0.446760  1.0  0.3014
  C  C779  1  0.488000  0.594830  0.451010  1.0  -0.1478
  C  C780  1  0.554880  0.695750  0.453500  1.0  -0.2795
  C  C781  1  0.453070  0.597290  0.462200  1.0  -0.0365
  C  C782  1  0.521100  0.699470  0.464930  1.0  -0.039
  C  C783  1  0.469400  0.649680  0.469530  1.0  -0.16
  C  C784  1  0.431800  0.654370  0.481220  1.0  0.7503
  C  C785  1  0.347200  0.780700  0.802520  1.0  0.7035
  C  C786  1  0.347740  0.828040  0.793250  1.0  -0.1325
  C  C787  1  0.331490  0.818410  0.777780  1.0  -0.0623
  C  C788  1  0.365400  0.881330  0.799220  1.0  -0.0011
  C  C789  1  0.330990  0.861730  0.769080  1.0  -0.2412
  C  C790  1  0.367670  0.925200  0.790590  1.0  -0.1553
  C  C791  1  0.348260  0.915630  0.775250  1.0  0.2562
  C  C792  1  0.316560  0.947280  0.754080  1.0  0.0821
  C  C793  1  0.287840  0.018620  0.763890  1.0  0.0704
  C  C794  1  0.205570  0.977630  0.780090  1.0  0.3015
  C  C795  1  0.154670  0.928160  0.784340  1.0  -0.1478
  C  C796  1  0.221550  0.029080  0.786830  1.0  -0.2792
  C  C797  1  0.119740  0.930620  0.795530  1.0  -0.0334
  C  C798  1  0.187770  0.032800  0.798260  1.0  -0.039
  C  C799  1  0.136070  0.983010  0.802860  1.0  -0.1602
  C  C800  1  0.098470  0.987700  0.814550  1.0  0.7503
  C  C801  1  0.013860  0.114040  0.135860  1.0  0.7035
  C  C802  1  0.014400  0.161380  0.126590  1.0  -0.1325
  C  C803  1  0.998150  0.151750  0.111120  1.0  -0.0619
  C  C804  1  0.032060  0.214670  0.132560  1.0  -0.0011
  C  C805  1  0.997650  0.195070  0.102420  1.0  -0.2444
  C  C806  1  0.034330  0.258540  0.123930  1.0  -0.1554
  C  C807  1  0.014920  0.248970  0.108590  1.0  0.2563
  C  C808  1  0.983220  0.280620  0.087420  1.0  0.0819
  C  C809  1  0.954500  0.351960  0.097230  1.0  0.07
  C  C810  1  0.872230  0.310970  0.113430  1.0  0.3014
  C  C811  1  0.821330  0.261500  0.117680  1.0  -0.1478
  C  C812  1  0.888210  0.362420  0.120170  1.0  -0.2795
  C  C813  1  0.786400  0.263960  0.128870  1.0  -0.0366
  C  C814  1  0.854430  0.366140  0.131600  1.0  -0.0391
  C  C815  1  0.802730  0.316350  0.136200  1.0  -0.1602
  C  C816  1  0.765130  0.321040  0.147890  1.0  0.7503
  C  C817  1  0.552630  0.233160  0.469190  1.0  0.7029
  C  C818  1  0.505290  0.186360  0.459920  1.0  -0.1321
  C  C819  1  0.514920  0.179740  0.444450  1.0  -0.0641
  C  C820  1  0.452000  0.150730  0.465890  1.0  -0.0004
  C  C821  1  0.471600  0.135920  0.435750  1.0  -0.2375
  C  C822  1  0.408130  0.109130  0.457260  1.0  -0.1551
  C  C823  1  0.417700  0.099290  0.441920  1.0  0.2545
  C  C824  1  0.386050  0.035940  0.420750  1.0  0.0819
  C  C825  1  0.314710  0.935880  0.430560  1.0  0.0708
  C  C826  1  0.355700  0.894600  0.446760  1.0  0.302
  C  C827  1  0.405170  0.893170  0.451010  1.0  -0.1458
  C  C828  1  0.304250  0.859130  0.453500  1.0  -0.2777
  C  C829  1  0.402710  0.855780  0.462200  1.0  -0.0334
  C  C830  1  0.300530  0.821630  0.464930  1.0  -0.0384
  C  C831  1  0.350320  0.819720  0.469530  1.0  -0.1597
  C  C832  1  0.345630  0.777430  0.481220  1.0  0.7504
  C  C833  1  0.219300  0.566490  0.802520  1.0  0.7028
  C  C834  1  0.171960  0.519690  0.793250  1.0  -0.1321
  C  C835  1  0.181590  0.513070  0.777780  1.0  -0.0641
  C  C836  1  0.118670  0.484060  0.799220  1.0  -0.0004
  C  C837  1  0.138270  0.469250  0.769080  1.0  -0.2378
  C  C838  1  0.074800  0.442460  0.790590  1.0  -0.1553
  C  C839  1  0.084370  0.432620  0.775250  1.0  0.2546
  C  C840  1  0.052720  0.369270  0.754080  1.0  0.082
  C  C841  1  0.981380  0.269210  0.763890  1.0  0.0712
  C  C842  1  0.022370  0.227930  0.780090  1.0  0.3021
  C  C843  1  0.071840  0.226500  0.784340  1.0  -0.1458
  C  C844  1  0.970920  0.192460  0.786830  1.0  -0.2776
  C  C845  1  0.069380  0.189110  0.795530  1.0  -0.034
  C  C846  1  0.967200  0.154960  0.798260  1.0  -0.0384
  C  C847  1  0.016990  0.153050  0.802860  1.0  -0.1597
  C  C848  1  0.012300  0.110760  0.814550  1.0  0.7504
  C  C849  1  0.885960  0.899830  0.135860  1.0  0.7029
  C  C850  1  0.838620  0.853030  0.126590  1.0  -0.1321
  C  C851  1  0.848250  0.846410  0.111120  1.0  -0.0641
  C  C852  1  0.785330  0.817400  0.132560  1.0  -0.0004
  C  C853  1  0.804930  0.802590  0.102420  1.0  -0.2375
  C  C854  1  0.741460  0.775800  0.123930  1.0  -0.1551
  C  C855  1  0.751030  0.765960  0.108590  1.0  0.2545
  C  C856  1  0.719380  0.702610  0.087420  1.0  0.0817
  C  C857  1  0.648040  0.602550  0.097230  1.0  0.0708
  C  C858  1  0.689030  0.561270  0.113430  1.0  0.302
  C  C859  1  0.738500  0.559840  0.117680  1.0  -0.1458
  C  C860  1  0.637580  0.525800  0.120170  1.0  -0.2777
  C  C861  1  0.736040  0.522450  0.128870  1.0  -0.0334
  C  C862  1  0.633860  0.488300  0.131600  1.0  -0.0384
  C  C863  1  0.683650  0.486390  0.136200  1.0  -0.1597
  C  C864  1  0.678960  0.444100  0.147890  1.0  0.7504
  C  C865  1  0.766840  0.319470  0.469190  1.0  0.7045
  C  C866  1  0.813640  0.318930  0.459920  1.0  -0.1327
  C  C867  1  0.820260  0.335180  0.444450  1.0  -0.0636
  C  C868  1  0.849270  0.301270  0.465890  1.0  0.0
  C  C869  1  0.864080  0.335680  0.435750  1.0  -0.2345
  C  C870  1  0.890870  0.299000  0.457260  1.0  -0.1561
  C  C871  1  0.900710  0.318410  0.441920  1.0  0.2546
  C  C872  1  0.964060  0.350110  0.420750  1.0  0.0808
  C  C873  1  0.064120  0.378830  0.430560  1.0  0.0688
  C  C874  1  0.105400  0.461100  0.446760  1.0  0.3026
  C  C875  1  0.106830  0.512000  0.451010  1.0  -0.148
  C  C876  1  0.140870  0.445120  0.453500  1.0  -0.2754
  C  C877  1  0.144220  0.546930  0.462200  1.0  -0.0326
  C  C878  1  0.178370  0.478900  0.464930  1.0  -0.0378
  C  C879  1  0.180280  0.530600  0.469530  1.0  -0.1605
  C  C880  1  0.222570  0.568200  0.481220  1.0  0.7499
  C  C881  1  0.433510  0.652800  0.802520  1.0  0.7045
  C  C882  1  0.480310  0.652260  0.793250  1.0  -0.1328
  C  C883  1  0.486930  0.668510  0.777780  1.0  -0.0636
  C  C884  1  0.515940  0.634600  0.799220  1.0  0.0
  C  C885  1  0.530750  0.669010  0.769080  1.0  -0.2347
  C  C886  1  0.557540  0.632330  0.790590  1.0  -0.1561
  C  C887  1  0.567380  0.651740  0.775250  1.0  0.2547
  C  C888  1  0.630730  0.683440  0.754080  1.0  0.0809
  C  C889  1  0.730790  0.712160  0.763890  1.0  0.0688
  C  C890  1  0.772070  0.794430  0.780090  1.0  0.3027
  C  C891  1  0.773500  0.845330  0.784340  1.0  -0.148
  C  C892  1  0.807540  0.778450  0.786830  1.0  -0.2752
  C  C893  1  0.810890  0.880260  0.795530  1.0  -0.0358
  C  C894  1  0.845040  0.812230  0.798260  1.0  -0.0378
  C  C895  1  0.846950  0.863930  0.802860  1.0  -0.1605
  C  C896  1  0.889240  0.901530  0.814550  1.0  0.7499
  C  C897  1  0.100170  0.986140  0.135860  1.0  0.7045
  C  C898  1  0.146970  0.985600  0.126590  1.0  -0.1327
  C  C899  1  0.153590  0.001850  0.111120  1.0  -0.0636
  C  C900  1  0.182600  0.967940  0.132560  1.0  0.0
  C  C901  1  0.197410  0.002350  0.102420  1.0  -0.2345
  C  C902  1  0.224200  0.965670  0.123930  1.0  -0.1561
  C  C903  1  0.234040  0.985080  0.108590  1.0  0.2546
  C  C904  1  0.297390  0.016780  0.087420  1.0  0.0807
  C  C905  1  0.397450  0.045500  0.097230  1.0  0.0688
  C  C906  1  0.438730  0.127770  0.113430  1.0  0.3026
  C  C907  1  0.440160  0.178670  0.117680  1.0  -0.148
  C  C908  1  0.474200  0.111790  0.120170  1.0  -0.2754
  C  C909  1  0.477550  0.213600  0.128870  1.0  -0.0326
  C  C910  1  0.511700  0.145570  0.131600  1.0  -0.0378
  C  C911  1  0.513610  0.197270  0.136200  1.0  -0.1605
  C  C912  1  0.555900  0.234870  0.147890  1.0  0.7499
  C  C913  1  0.447370  0.680530  0.030810  1.0  0.7044
  C  C914  1  0.494710  0.681070  0.040080  1.0  -0.1331
  C  C915  1  0.485080  0.664820  0.055550  1.0  -0.0625
  C  C916  1  0.548000  0.698730  0.034110  1.0  -0.0003
  C  C917  1  0.528400  0.664320  0.064250  1.0  -0.2328
  C  C918  1  0.591870  0.701000  0.042740  1.0  -0.1587
  C  C919  1  0.582300  0.681590  0.058080  1.0  0.2547
  C  C920  1  0.613950  0.649890  0.079250  1.0  0.081
  C  C921  1  0.685290  0.621170  0.069440  1.0  0.0669
  C  C922  1  0.644300  0.538900  0.053240  1.0  0.3017
  C  C923  1  0.594830  0.488000  0.048990  1.0  -0.1468
  C  C924  1  0.695750  0.554880  0.046500  1.0  -0.275
  C  C925  1  0.597290  0.453070  0.037800  1.0  -0.0363
  C  C926  1  0.699470  0.521100  0.035070  1.0  -0.0376
  C  C927  1  0.649680  0.469400  0.030470  1.0  -0.1603
  C  C928  1  0.654370  0.431800  0.018780  1.0  0.7501
  C  C929  1  0.114040  0.013860  0.364140  1.0  0.7044
  C  C930  1  0.161380  0.014400  0.373410  1.0  -0.1331
  C  C931  1  0.151750  0.998150  0.388880  1.0  -0.0625
  C  C932  1  0.214670  0.032060  0.367440  1.0  -0.0003
  C  C933  1  0.195070  0.997650  0.397580  1.0  -0.2384
  C  C934  1  0.258540  0.034330  0.376070  1.0  -0.1587
  C  C935  1  0.248970  0.014920  0.391410  1.0  0.2547
  C  C936  1  0.280620  0.983220  0.412580  1.0  0.0809
  C  C937  1  0.351960  0.954500  0.402770  1.0  0.0669
  C  C938  1  0.310970  0.872230  0.386570  1.0  0.3017
  C  C939  1  0.261500  0.821330  0.382320  1.0  -0.1468
  C  C940  1  0.362420  0.888210  0.379830  1.0  -0.275
  C  C941  1  0.263960  0.786400  0.371130  1.0  -0.0363
  C  C942  1  0.366140  0.854430  0.368400  1.0  -0.0376
  C  C943  1  0.316350  0.802730  0.363800  1.0  -0.1603
  C  C944  1  0.321040  0.765130  0.352110  1.0  0.7501
  C  C945  1  0.780700  0.347200  0.697480  1.0  0.7044
  C  C946  1  0.828040  0.347740  0.706750  1.0  -0.1332
  C  C947  1  0.818410  0.331490  0.722220  1.0  -0.0625
  C  C948  1  0.881330  0.365400  0.700780  1.0  -0.0003
  C  C949  1  0.861730  0.330990  0.730920  1.0  -0.2328
  C  C950  1  0.925200  0.367670  0.709410  1.0  -0.1586
  C  C951  1  0.915630  0.348260  0.724750  1.0  0.2546
  C  C952  1  0.947280  0.316560  0.745920  1.0  0.0811
  C  C953  1  0.018620  0.287840  0.736110  1.0  0.0673
  C  C954  1  0.977630  0.205570  0.719910  1.0  0.3017
  C  C955  1  0.928160  0.154670  0.715660  1.0  -0.1467
  C  C956  1  0.029080  0.221550  0.713170  1.0  -0.2748
  C  C957  1  0.930620  0.119740  0.704470  1.0  -0.0325
  C  C958  1  0.032800  0.187770  0.701740  1.0  -0.0376
  C  C959  1  0.983010  0.136070  0.697140  1.0  -0.1603
  C  C960  1  0.987700  0.098470  0.685450  1.0  0.7501
  C  C961  1  0.233160  0.552630  0.030810  1.0  0.7034
  C  C962  1  0.186360  0.505290  0.040080  1.0  -0.1323
  C  C963  1  0.179740  0.514920  0.055550  1.0  -0.0615
  C  C964  1  0.150730  0.452000  0.034110  1.0  0.0005
  C  C965  1  0.135920  0.471600  0.064250  1.0  -0.238
  C  C966  1  0.109130  0.408130  0.042740  1.0  -0.159
  C  C967  1  0.099290  0.417700  0.058080  1.0  0.2562
  C  C968  1  0.035940  0.386050  0.079250  1.0  0.0811
  C  C969  1  0.935880  0.314710  0.069440  1.0  0.0704
  C  C970  1  0.894600  0.355700  0.053240  1.0  0.3023
  C  C971  1  0.893170  0.405170  0.048990  1.0  -0.1478
  C  C972  1  0.859130  0.304250  0.046500  1.0  -0.2784
  C  C973  1  0.855780  0.402710  0.037800  1.0  -0.0335
  C  C974  1  0.821630  0.300530  0.035070  1.0  -0.038
  C  C975  1  0.819720  0.350320  0.030470  1.0  -0.1598
  C  C976  1  0.777430  0.345630  0.018780  1.0  0.7506
  C  C977  1  0.899830  0.885960  0.364140  1.0  0.7034
  C  C978  1  0.853030  0.838620  0.373410  1.0  -0.1323
  C  C979  1  0.846410  0.848250  0.388880  1.0  -0.0615
  C  C980  1  0.817400  0.785330  0.367440  1.0  0.0005
  C  C981  1  0.802590  0.804930  0.397580  1.0  -0.238
  C  C982  1  0.775800  0.741460  0.376070  1.0  -0.159
  C  C983  1  0.765960  0.751030  0.391410  1.0  0.2562
  C  C984  1  0.702610  0.719380  0.412580  1.0  0.0809
  C  C985  1  0.602550  0.648040  0.402770  1.0  0.0704
  C  C986  1  0.561270  0.689030  0.386570  1.0  0.3023
  C  C987  1  0.559840  0.738500  0.382320  1.0  -0.1478
  C  C988  1  0.525800  0.637580  0.379830  1.0  -0.2784
  C  C989  1  0.522450  0.736040  0.371130  1.0  -0.0335
  C  C990  1  0.488300  0.633860  0.368400  1.0  -0.038
  C  C991  1  0.486390  0.683650  0.363800  1.0  -0.1598
  C  C992  1  0.444100  0.678960  0.352110  1.0  0.7506
  C  C993  1  0.566490  0.219300  0.697480  1.0  0.7034
  C  C994  1  0.519690  0.171960  0.706750  1.0  -0.1323
  C  C995  1  0.513070  0.181590  0.722220  1.0  -0.0615
  C  C996  1  0.484060  0.118670  0.700780  1.0  0.0005
  C  C997  1  0.469250  0.138270  0.730920  1.0  -0.2384
  C  C998  1  0.442460  0.074800  0.709410  1.0  -0.1591
  C  C999  1  0.432620  0.084370  0.724750  1.0  0.2563
  C  C1000  1  0.369270  0.052720  0.745920  1.0  0.0812
  C  C1001  1  0.269210  0.981380  0.736110  1.0  0.0708
  C  C1002  1  0.227930  0.022370  0.719910  1.0  0.3023
  C  C1003  1  0.226500  0.071840  0.715660  1.0  -0.1478
  C  C1004  1  0.192460  0.970920  0.713170  1.0  -0.2785
  C  C1005  1  0.189110  0.069380  0.704470  1.0  -0.0337
  C  C1006  1  0.154960  0.967200  0.701740  1.0  -0.038
  C  C1007  1  0.153050  0.016990  0.697140  1.0  -0.1598
  C  C1008  1  0.110760  0.012300  0.685450  1.0  0.7506
  C  C1009  1  0.319470  0.766840  0.030810  1.0  0.7034
  C  C1010  1  0.318930  0.813640  0.040080  1.0  -0.1326
  C  C1011  1  0.335180  0.820260  0.055550  1.0  -0.0631
  C  C1012  1  0.301270  0.849270  0.034110  1.0  0.0008
  C  C1013  1  0.335680  0.864080  0.064250  1.0  -0.2362
  C  C1014  1  0.299000  0.890870  0.042740  1.0  -0.1564
  C  C1015  1  0.318410  0.900710  0.058080  1.0  0.2534
  C  C1016  1  0.350110  0.964060  0.079250  1.0  0.083
  C  C1017  1  0.378830  0.064120  0.069440  1.0  0.0691
  C  C1018  1  0.461100  0.105400  0.053240  1.0  0.3015
  C  C1019  1  0.512000  0.106830  0.048990  1.0  -0.1443
  C  C1020  1  0.445120  0.140870  0.046500  1.0  -0.277
  C  C1021  1  0.546930  0.144220  0.037800  1.0  -0.0337
  C  C1022  1  0.478900  0.178370  0.035070  1.0  -0.0384
  C  C1023  1  0.530600  0.180280  0.030470  1.0  -0.1591
  C  C1024  1  0.568200  0.222570  0.018780  1.0  0.7501
  C  C1025  1  0.986140  0.100170  0.364140  1.0  0.7034
  C  C1026  1  0.985600  0.146970  0.373410  1.0  -0.1326
  C  C1027  1  0.001850  0.153590  0.388880  1.0  -0.0631
  C  C1028  1  0.967940  0.182600  0.367440  1.0  0.0008
  C  C1029  1  0.002350  0.197410  0.397580  1.0  -0.2362
  C  C1030  1  0.965670  0.224200  0.376070  1.0  -0.1564
  C  C1031  1  0.985080  0.234040  0.391410  1.0  0.2534
  C  C1032  1  0.016780  0.297390  0.412580  1.0  0.0828
  C  C1033  1  0.045500  0.397450  0.402770  1.0  0.0691
  C  C1034  1  0.127770  0.438730  0.386570  1.0  0.3015
  C  C1035  1  0.178670  0.440160  0.382320  1.0  -0.1443
  C  C1036  1  0.111790  0.474200  0.379830  1.0  -0.277
  C  C1037  1  0.213600  0.477550  0.371130  1.0  -0.0337
  C  C1038  1  0.145570  0.511700  0.368400  1.0  -0.0384
  C  C1039  1  0.197270  0.513610  0.363800  1.0  -0.1591
  C  C1040  1  0.234870  0.555900  0.352110  1.0  0.7501
  C  C1041  1  0.652800  0.433510  0.697480  1.0  0.7034
  C  C1042  1  0.652260  0.480310  0.706750  1.0  -0.1326
  C  C1043  1  0.668510  0.486930  0.722220  1.0  -0.0631
  C  C1044  1  0.634600  0.515940  0.700780  1.0  0.0008
  C  C1045  1  0.669010  0.530750  0.730920  1.0  -0.2365
  C  C1046  1  0.632330  0.557540  0.709410  1.0  -0.1564
  C  C1047  1  0.651740  0.567380  0.724750  1.0  0.2535
  C  C1048  1  0.683440  0.630730  0.745920  1.0  0.0831
  C  C1049  1  0.712160  0.730790  0.736110  1.0  0.0691
  C  C1050  1  0.794430  0.772070  0.719910  1.0  0.3014
  C  C1051  1  0.845330  0.773500  0.715660  1.0  -0.1443
  C  C1052  1  0.778450  0.807540  0.713170  1.0  -0.2768
  C  C1053  1  0.880260  0.810890  0.704470  1.0  -0.0373
  C  C1054  1  0.812230  0.845040  0.701740  1.0  -0.0384
  C  C1055  1  0.863930  0.846950  0.697140  1.0  -0.1591
  C  C1056  1  0.901530  0.889240  0.685450  1.0  0.7501
  C  C1057  1  0.355710  0.333333  0.583330  1.0  -0.0257
  C  C1058  1  0.666667  0.022370  0.583330  1.0  -0.0254
  C  C1059  1  0.977630  0.644290  0.583330  1.0  -0.0243
  C  C1060  1  0.333333  0.355710  0.916670  1.0  -0.0254
  C  C1061  1  0.000000  0.689040  0.250000  1.0  -0.0255
  C  C1062  1  0.022370  0.666667  0.916670  1.0  -0.0258
  C  C1063  1  0.689040  0.000000  0.250000  1.0  -0.0258
  C  C1064  1  0.644290  0.977630  0.916670  1.0  -0.0243
  C  C1065  1  0.310960  0.310960  0.250000  1.0  -0.0256
  C  C1066  1  0.644290  0.666667  0.416670  1.0  -0.0259
  C  C1067  1  0.310960  0.000000  0.750000  1.0  -0.0259
  C  C1068  1  0.333333  0.977630  0.416670  1.0  -0.0254
  C  C1069  1  0.000000  0.310960  0.750000  1.0  -0.0253
  C  C1070  1  0.022370  0.355710  0.416670  1.0  -0.0241
  C  C1071  1  0.689040  0.689040  0.750000  1.0  -0.0253
  C  C1072  1  0.666667  0.644290  0.083330  1.0  -0.0253
  C  C1073  1  0.977630  0.333333  0.083330  1.0  -0.0258
  C  C1074  1  0.355710  0.022370  0.083330  1.0  -0.0241
  O  O1075  1  0.332000  0.598670  0.537630  1.0  -0.5924
  O  O1076  1  0.313440  0.543330  0.516340  1.0  -0.6202
  O  O1077  1  0.387550  0.609670  0.485240  1.0  -0.6328
  O  O1078  1  0.256170  0.552460  0.486780  1.0  -0.6158
  O  O1079  1  0.317410  0.372930  0.565400  1.0  -0.2849
  O  O1080  1  0.431100  0.364150  0.564770  1.0  -0.2835
  O  O1081  1  0.998670  0.932000  0.870960  1.0  -0.5924
  O  O1082  1  0.980110  0.876660  0.849670  1.0  -0.6202
  O  O1083  1  0.054220  0.943000  0.818570  1.0  -0.6328
  O  O1084  1  0.922840  0.885790  0.820110  1.0  -0.6158
  O  O1085  1  0.984080  0.706260  0.898730  1.0  -0.2848
  O  O1086  1  0.097770  0.697480  0.898100  1.0  -0.2836
  O  O1087  1  0.665330  0.265340  0.204300  1.0  -0.5888
  O  O1088  1  0.646770  0.210000  0.183010  1.0  -0.6202
  O  O1089  1  0.720880  0.276340  0.151910  1.0  -0.6328
  O  O1090  1  0.589500  0.219130  0.153450  1.0  -0.6159
  O  O1091  1  0.650740  0.039600  0.232070  1.0  -0.2849
  O  O1092  1  0.764430  0.030820  0.231440  1.0  -0.2833
  O  O1093  1  0.401330  0.733330  0.537630  1.0  -0.5939
  O  O1094  1  0.456670  0.770110  0.516340  1.0  -0.6208
  O  O1095  1  0.390330  0.777880  0.485240  1.0  -0.6293
  O  O1096  1  0.447540  0.703710  0.486780  1.0  -0.617
  O  O1097  1  0.627070  0.944480  0.565400  1.0  -0.2845
  O  O1098  1  0.635850  0.066950  0.564770  1.0  -0.2842
  O  O1099  1  0.068000  0.066660  0.870960  1.0  -0.5939
  O  O1100  1  0.123340  0.103440  0.849670  1.0  -0.6208
  O  O1101  1  0.057000  0.111210  0.818570  1.0  -0.6293
  O  O1102  1  0.114210  0.037040  0.820110  1.0  -0.617
  O  O1103  1  0.293740  0.277810  0.898730  1.0  -0.2844
  O  O1104  1  0.302520  0.400280  0.898100  1.0  -0.2842
  O  O1105  1  0.734660  0.400000  0.204300  1.0  -0.5902
  O  O1106  1  0.790000  0.436780  0.183010  1.0  -0.621
  O  O1107  1  0.723660  0.444550  0.151910  1.0  -0.629
  O  O1108  1  0.780870  0.370380  0.153450  1.0  -0.6171
  O  O1109  1  0.960400  0.611150  0.232070  1.0  -0.2845
  O  O1110  1  0.969180  0.733620  0.231440  1.0  -0.2843
  O  O1111  1  0.266670  0.668000  0.537630  1.0  -0.5933
  O  O1112  1  0.229890  0.686560  0.516340  1.0  -0.6202
  O  O1113  1  0.222120  0.612450  0.485240  1.0  -0.6331
  O  O1114  1  0.296290  0.743830  0.486780  1.0  -0.6159
  O  O1115  1  0.055520  0.682590  0.565400  1.0  -0.2847
  O  O1116  1  0.933050  0.568900  0.564770  1.0  -0.2843
  O  O1117  1  0.933340  0.001330  0.870960  1.0  -0.5895
  O  O1118  1  0.896560  0.019890  0.849670  1.0  -0.6202
  O  O1119  1  0.888790  0.945780  0.818570  1.0  -0.6331
  O  O1120  1  0.962960  0.077160  0.820110  1.0  -0.6159
  O  O1121  1  0.722190  0.015920  0.898730  1.0  -0.2846
  O  O1122  1  0.599720  0.902230  0.898100  1.0  -0.2843
  O  O1123  1  0.600000  0.334670  0.204300  1.0  -0.5897
  O  O1124  1  0.563220  0.353230  0.183010  1.0  -0.6202
  O  O1125  1  0.555450  0.279120  0.151910  1.0  -0.6332
  O  O1126  1  0.629620  0.410500  0.153450  1.0  -0.6159
  O  O1127  1  0.388850  0.349260  0.232070  1.0  -0.2847
  O  O1128  1  0.266380  0.235570  0.231440  1.0  -0.2842
  O  O1129  1  0.598670  0.332000  0.962370  1.0  -0.5895
  O  O1130  1  0.543330  0.313440  0.983660  1.0  -0.6213
  O  O1131  1  0.609670  0.387550  0.014760  1.0  -0.6326
  O  O1132  1  0.552460  0.256170  0.013220  1.0  -0.6152
  O  O1133  1  0.372930  0.317410  0.934600  1.0  -0.2849
  O  O1134  1  0.364150  0.431100  0.935230  1.0  -0.284
  O  O1135  1  0.265340  0.665330  0.295700  1.0  -0.5895
  O  O1136  1  0.210000  0.646770  0.316990  1.0  -0.6212
  O  O1137  1  0.276340  0.720880  0.348090  1.0  -0.6326
  O  O1138  1  0.219130  0.589500  0.346550  1.0  -0.6153
  O  O1139  1  0.039600  0.650740  0.267930  1.0  -0.2848
  O  O1140  1  0.030820  0.764430  0.268560  1.0  -0.2839
  O  O1141  1  0.932000  0.998670  0.629040  1.0  -0.5931
  O  O1142  1  0.876660  0.980110  0.650330  1.0  -0.6213
  O  O1143  1  0.943000  0.054220  0.681430  1.0  -0.6326
  O  O1144  1  0.885790  0.922840  0.679890  1.0  -0.6152
  O  O1145  1  0.706260  0.984080  0.601270  1.0  -0.2848
  O  O1146  1  0.697480  0.097770  0.601900  1.0  -0.2841
  O  O1147  1  0.733330  0.401330  0.962370  1.0  -0.5881
  O  O1148  1  0.770110  0.456670  0.983660  1.0  -0.6209
  O  O1149  1  0.777880  0.390330  0.014760  1.0  -0.632
  O  O1150  1  0.703710  0.447540  0.013220  1.0  -0.6165
  O  O1151  1  0.944480  0.627070  0.934600  1.0  -0.2866
  O  O1152  1  0.066950  0.635850  0.935230  1.0  -0.2843
  O  O1153  1  0.400000  0.734660  0.295700  1.0  -0.5881
  O  O1154  1  0.436780  0.790000  0.316990  1.0  -0.6211
  O  O1155  1  0.444550  0.723660  0.348090  1.0  -0.6317
  O  O1156  1  0.370380  0.780870  0.346550  1.0  -0.6165
  O  O1157  1  0.611150  0.960400  0.267930  1.0  -0.2866
  O  O1158  1  0.733620  0.969180  0.268560  1.0  -0.284
  O  O1159  1  0.066660  0.068000  0.629040  1.0  -0.5917
  O  O1160  1  0.103440  0.123340  0.650330  1.0  -0.6209
  O  O1161  1  0.111210  0.057000  0.681430  1.0  -0.632
  O  O1162  1  0.037040  0.114210  0.679890  1.0  -0.6166
  O  O1163  1  0.277810  0.293740  0.601270  1.0  -0.2866
  O  O1164  1  0.400280  0.302520  0.601900  1.0  -0.2843
  O  O1165  1  0.668000  0.266670  0.962370  1.0  -0.59
  O  O1166  1  0.686560  0.229890  0.983660  1.0  -0.6207
  O  O1167  1  0.612450  0.222120  0.014760  1.0  -0.63
  O  O1168  1  0.743830  0.296290  0.013220  1.0  -0.6174
  O  O1169  1  0.682590  0.055520  0.934600  1.0  -0.285
  O  O1170  1  0.568900  0.933050  0.935230  1.0  -0.2844
  O  O1171  1  0.334670  0.600000  0.295700  1.0  -0.5899
  O  O1172  1  0.353230  0.563220  0.316990  1.0  -0.6207
  O  O1173  1  0.279120  0.555450  0.348090  1.0  -0.6301
  O  O1174  1  0.410500  0.629620  0.346550  1.0  -0.6174
  O  O1175  1  0.349260  0.388850  0.267930  1.0  -0.2849
  O  O1176  1  0.235570  0.266380  0.268560  1.0  -0.2844
  O  O1177  1  0.001330  0.933340  0.629040  1.0  -0.5897
  O  O1178  1  0.019890  0.896560  0.650330  1.0  -0.6207
  O  O1179  1  0.945780  0.888790  0.681430  1.0  -0.63
  O  O1180  1  0.077160  0.962960  0.679890  1.0  -0.6174
  O  O1181  1  0.015920  0.722190  0.601270  1.0  -0.285
  O  O1182  1  0.902230  0.599720  0.601900  1.0  -0.2844
  O  O1183  1  0.668000  0.401330  0.462370  1.0  -0.5916
  O  O1184  1  0.686560  0.456670  0.483660  1.0  -0.6204
  O  O1185  1  0.612450  0.390330  0.514760  1.0  -0.6333
  O  O1186  1  0.743830  0.447540  0.513220  1.0  -0.6157
  O  O1187  1  0.682590  0.627070  0.434600  1.0  -0.287
  O  O1188  1  0.568900  0.635850  0.435230  1.0  -0.283
  O  O1189  1  0.334670  0.734660  0.795700  1.0  -0.5879
  O  O1190  1  0.353230  0.790000  0.816990  1.0  -0.6204
  O  O1191  1  0.279120  0.723660  0.848090  1.0  -0.6333
  O  O1192  1  0.410500  0.780870  0.846550  1.0  -0.6159
  O  O1193  1  0.349260  0.960400  0.767930  1.0  -0.2869
  O  O1194  1  0.235570  0.969180  0.768560  1.0  -0.2828
  O  O1195  1  0.001330  0.068000  0.129040  1.0  -0.5916
  O  O1196  1  0.019890  0.123340  0.150330  1.0  -0.6204
  O  O1197  1  0.945780  0.057000  0.181430  1.0  -0.6333
  O  O1198  1  0.077160  0.114210  0.179890  1.0  -0.6157
  O  O1199  1  0.015920  0.293740  0.101270  1.0  -0.2869
  O  O1200  1  0.902230  0.302520  0.101900  1.0  -0.2831
  O  O1201  1  0.598670  0.266670  0.462370  1.0  -0.5935
  O  O1202  1  0.543330  0.229890  0.483660  1.0  -0.6213
  O  O1203  1  0.609670  0.222120  0.514760  1.0  -0.6306
  O  O1204  1  0.552460  0.296290  0.513220  1.0  -0.6178
  O  O1205  1  0.372930  0.055520  0.434600  1.0  -0.2835
  O  O1206  1  0.364150  0.933050  0.435230  1.0  -0.282
  O  O1207  1  0.265340  0.600000  0.795700  1.0  -0.5899
  O  O1208  1  0.210000  0.563220  0.816990  1.0  -0.6215
  O  O1209  1  0.276340  0.555450  0.848090  1.0  -0.6303
  O  O1210  1  0.219130  0.629620  0.846550  1.0  -0.6178
  O  O1211  1  0.039600  0.388850  0.767930  1.0  -0.2835
  O  O1212  1  0.030820  0.266380  0.768560  1.0  -0.282
  O  O1213  1  0.932000  0.933340  0.129040  1.0  -0.5935
  O  O1214  1  0.876660  0.896560  0.150330  1.0  -0.6213
  O  O1215  1  0.943000  0.888790  0.181430  1.0  -0.6306
  O  O1216  1  0.885790  0.962960  0.179890  1.0  -0.6178
  O  O1217  1  0.706260  0.722190  0.101270  1.0  -0.2834
  O  O1218  1  0.697480  0.599720  0.101900  1.0  -0.282
  O  O1219  1  0.733330  0.332000  0.462370  1.0  -0.5921
  O  O1220  1  0.770110  0.313440  0.483660  1.0  -0.6206
  O  O1221  1  0.777880  0.387550  0.514760  1.0  -0.6319
  O  O1222  1  0.703710  0.256170  0.513220  1.0  -0.6157
  O  O1223  1  0.944480  0.317410  0.434600  1.0  -0.2855
  O  O1224  1  0.066950  0.431100  0.435230  1.0  -0.2855
  O  O1225  1  0.400000  0.665330  0.795700  1.0  -0.5884
  O  O1226  1  0.436780  0.646770  0.816990  1.0  -0.6206
  O  O1227  1  0.444550  0.720880  0.848090  1.0  -0.6321
  O  O1228  1  0.370380  0.589500  0.846550  1.0  -0.6157
  O  O1229  1  0.611150  0.650740  0.767930  1.0  -0.2854
  O  O1230  1  0.733620  0.764430  0.768560  1.0  -0.2854
  O  O1231  1  0.066660  0.998670  0.129040  1.0  -0.5882
  O  O1232  1  0.103440  0.980110  0.150330  1.0  -0.6206
  O  O1233  1  0.111210  0.054220  0.181430  1.0  -0.6319
  O  O1234  1  0.037040  0.922840  0.179890  1.0  -0.6157
  O  O1235  1  0.277810  0.984080  0.101270  1.0  -0.2855
  O  O1236  1  0.400280  0.097770  0.101900  1.0  -0.2855
  O  O1237  1  0.401330  0.668000  0.037630  1.0  -0.5923
  O  O1238  1  0.456670  0.686560  0.016340  1.0  -0.6199
  O  O1239  1  0.390330  0.612450  0.985240  1.0  -0.6332
  O  O1240  1  0.447540  0.743830  0.986780  1.0  -0.6162
  O  O1241  1  0.627070  0.682590  0.065400  1.0  -0.2849
  O  O1242  1  0.635850  0.568900  0.064770  1.0  -0.2863
  O  O1243  1  0.068000  0.001330  0.370960  1.0  -0.5923
  O  O1244  1  0.123340  0.019890  0.349670  1.0  -0.6199
  O  O1245  1  0.057000  0.945780  0.318570  1.0  -0.6332
  O  O1246  1  0.114210  0.077160  0.320110  1.0  -0.6162
  O  O1247  1  0.293740  0.015920  0.398730  1.0  -0.2847
  O  O1248  1  0.302520  0.902230  0.398100  1.0  -0.2864
  O  O1249  1  0.734660  0.334670  0.704300  1.0  -0.5887
  O  O1250  1  0.790000  0.353230  0.683010  1.0  -0.6198
  O  O1251  1  0.723660  0.279120  0.651910  1.0  -0.6333
  O  O1252  1  0.780870  0.410500  0.653450  1.0  -0.6162
  O  O1253  1  0.960400  0.349260  0.732070  1.0  -0.2849
  O  O1254  1  0.969180  0.235570  0.731440  1.0  -0.2861
  O  O1255  1  0.266670  0.598670  0.037630  1.0  -0.5922
  O  O1256  1  0.229890  0.543330  0.016340  1.0  -0.6194
  O  O1257  1  0.222120  0.609670  0.985240  1.0  -0.6332
  O  O1258  1  0.296290  0.552460  0.986780  1.0  -0.6154
  O  O1259  1  0.055520  0.372930  0.065400  1.0  -0.2853
  O  O1260  1  0.933050  0.364150  0.064770  1.0  -0.283
  O  O1261  1  0.933340  0.932000  0.370960  1.0  -0.5922
  O  O1262  1  0.896560  0.876660  0.349670  1.0  -0.6194
  O  O1263  1  0.888790  0.943000  0.318570  1.0  -0.6332
  O  O1264  1  0.962960  0.885790  0.320110  1.0  -0.6154
  O  O1265  1  0.722190  0.706260  0.398730  1.0  -0.2852
  O  O1266  1  0.599720  0.697480  0.398100  1.0  -0.283
  O  O1267  1  0.600000  0.265340  0.704300  1.0  -0.5884
  O  O1268  1  0.563220  0.210000  0.683010  1.0  -0.6196
  O  O1269  1  0.555450  0.276340  0.651910  1.0  -0.6329
  O  O1270  1  0.629620  0.219130  0.653450  1.0  -0.6155
  O  O1271  1  0.388850  0.039600  0.732070  1.0  -0.2854
  O  O1272  1  0.266380  0.030820  0.731440  1.0  -0.2831
  O  O1273  1  0.332000  0.733330  0.037630  1.0  -0.5938
  O  O1274  1  0.313440  0.770110  0.016340  1.0  -0.6209
  O  O1275  1  0.387550  0.777880  0.985240  1.0  -0.6301
  O  O1276  1  0.256170  0.703710  0.986780  1.0  -0.6179
  O  O1277  1  0.317410  0.944480  0.065400  1.0  -0.2831
  O  O1278  1  0.431100  0.066950  0.064770  1.0  -0.2811
  O  O1279  1  0.998670  0.066660  0.370960  1.0  -0.59
  O  O1280  1  0.980110  0.103440  0.349670  1.0  -0.6209
  O  O1281  1  0.054220  0.111210  0.318570  1.0  -0.6301
  O  O1282  1  0.922840  0.037040  0.320110  1.0  -0.6179
  O  O1283  1  0.984080  0.277810  0.398730  1.0  -0.283
  O  O1284  1  0.097770  0.400280  0.398100  1.0  -0.2811
  O  O1285  1  0.665330  0.400000  0.704300  1.0  -0.5902
  O  O1286  1  0.646770  0.436780  0.683010  1.0  -0.6209
  O  O1287  1  0.720880  0.444550  0.651910  1.0  -0.6302
  O  O1288  1  0.589500  0.370380  0.653450  1.0  -0.6179
  O  O1289  1  0.650740  0.611150  0.732070  1.0  -0.283
  O  O1290  1  0.764430  0.733620  0.731440  1.0  -0.2811
  O  O1291  1  0.333333  0.666667  0.506680  1.0  -1.2707
  O  O1292  1  0.000000  0.000000  0.840010  1.0  -1.2703
  O  O1293  1  0.666667  0.333333  0.173350  1.0  -1.2707
  O  O1294  1  0.666667  0.333333  0.993320  1.0  -1.2702
  O  O1295  1  0.333333  0.666667  0.326650  1.0  -1.2707
  O  O1296  1  0.000000  0.000000  0.659990  1.0  -1.2708
  O  O1297  1  0.666667  0.333333  0.493320  1.0  -1.2705
  O  O1298  1  0.333333  0.666667  0.826650  1.0  -1.2707
  O  O1299  1  0.000000  0.000000  0.159990  1.0  -1.2708
  O  O1300  1  0.333333  0.666667  0.006680  1.0  -1.2707
  O  O1301  1  0.000000  0.000000  0.340010  1.0  -1.2703
  O  O1302  1  0.666667  0.333333  0.673350  1.0  -1.2707
