# generated using pymatgen
data_GaAgPH30C42(N3F2)3
_symmetry_space_group_name_H-M   'P 1'
_cell_length_a   12.56300000
_cell_length_b   27.17200000
_cell_length_c   33.70000000
_cell_angle_alpha   90.00000000
_cell_angle_beta   90.00000000
_cell_angle_gamma   90.00000000
_symmetry_Int_Tables_number   1
_chemical_formula_structural   GaAgPH30C42(N3F2)3
_chemical_formula_sum   'Ga8 Ag8 P8 H240 C336 N72 F48'
_cell_volume   11503.89387320
_cell_formula_units_Z   8
loop_
 _symmetry_equiv_pos_site_id
 _symmetry_equiv_pos_as_xyz
  1  'x, y, z'
loop_
 _atom_site_type_symbol
 _atom_site_label
 _atom_site_symmetry_multiplicity
 _atom_site_fract_x
 _atom_site_fract_y
 _atom_site_fract_z
 _atom_site_occupancy
 _atom_site_charge
  Ga  Ga1  1  0.988200  0.433650  0.384900  1.0  1.2308
  Ga  Ga2  1  0.511800  0.933650  0.615100  1.0  1.2321
  Ga  Ga3  1  0.488200  0.933650  0.115100  1.0  1.2312
  Ga  Ga4  1  0.011800  0.433650  0.884900  1.0  1.232
  Ga  Ga5  1  0.511800  0.066350  0.884900  1.0  1.2322
  Ga  Ga6  1  0.988200  0.566350  0.115100  1.0  1.2316
  Ga  Ga7  1  0.011800  0.566350  0.615100  1.0  1.2327
  Ga  Ga8  1  0.488200  0.066350  0.384900  1.0  1.2309
  Ag  Ag9  1  0.738090  0.280310  0.636730  1.0  0.3726
  Ag  Ag10  1  0.761910  0.780310  0.363270  1.0  0.3733
  Ag  Ag11  1  0.238090  0.780310  0.863270  1.0  0.3728
  Ag  Ag12  1  0.261910  0.280310  0.136730  1.0  0.3731
  Ag  Ag13  1  0.761910  0.219690  0.136730  1.0  0.3733
  Ag  Ag14  1  0.738090  0.719690  0.863270  1.0  0.3731
  Ag  Ag15  1  0.261910  0.719690  0.363270  1.0  0.3735
  Ag  Ag16  1  0.238090  0.219690  0.636730  1.0  0.3729
  P  P17  1  0.471500  0.343580  0.624300  1.0  1.6827
  P  P18  1  0.028500  0.156420  0.124300  1.0  1.6836
  P  P19  1  0.471500  0.656420  0.875700  1.0  1.683
  P  P20  1  0.028500  0.843580  0.375700  1.0  1.6816
  P  P21  1  0.528500  0.656420  0.375700  1.0  1.6829
  P  P22  1  0.971500  0.843580  0.875700  1.0  1.6817
  P  P23  1  0.528500  0.343580  0.124300  1.0  1.6824
  P  P24  1  0.971500  0.156420  0.624300  1.0  1.6839
  H  H25  1  0.147100  0.492600  0.442300  1.0  0.0961
  H  H26  1  0.159900  0.483200  0.516300  1.0  0.1013
  H  H27  1  0.029900  0.419000  0.536800  1.0  0.1134
  H  H28  1  0.768500  0.299500  0.454500  1.0  0.1135
  H  H29  1  0.746400  0.283600  0.382600  1.0  0.1027
  H  H30  1  0.845500  0.350000  0.346000  1.0  0.094
  H  H31  1  0.944500  0.286300  0.504000  1.0  0.1201
  H  H32  1  0.878500  0.254100  0.562500  1.0  0.0853
  H  H33  1  0.724100  0.376500  0.586400  1.0  0.067
  H  H34  1  0.793900  0.414500  0.530400  1.0  0.1121
  H  H35  1  0.192700  0.468600  0.823500  1.0  0.0916
  H  H36  1  0.199700  0.450800  0.750800  1.0  0.1107
  H  H37  1  0.044000  0.398700  0.734900  1.0  0.1061
  H  H38  1  0.736400  0.316600  0.823300  1.0  0.1122
  H  H39  1  0.685700  0.323000  0.895200  1.0  0.1099
  H  H40  1  0.814400  0.381400  0.926100  1.0  0.0912
  H  H41  1  0.732700  0.385000  0.764300  1.0  0.1243
  H  H42  1  0.671400  0.347300  0.705900  1.0  0.0701
  H  H43  1  0.934500  0.270700  0.696200  1.0  0.0838
  H  H44  1  0.003900  0.305200  0.754900  1.0  0.1254
  H  H45  1  0.277200  0.967100  0.642600  1.0  0.0919
  H  H46  1  0.221700  0.051800  0.663700  1.0  0.1134
  H  H47  1  0.382300  0.106100  0.656500  1.0  0.1077
  H  H48  1  0.777700  0.077400  0.601400  1.0  0.1141
  H  H49  1  0.874900  0.004000  0.577000  1.0  0.1038
  H  H50  1  0.752000  0.932100  0.582000  1.0  0.0915
  H  H51  1  0.697000  0.099500  0.678700  1.0  0.1217
  H  H52  1  0.740200  0.182000  0.686900  1.0  0.0731
  H  H53  1  0.545800  0.220600  0.601600  1.0  0.0643
  H  H54  1  0.495300  0.139000  0.590800  1.0  0.1087
  H  H55  1  0.352900  0.992600  0.557700  1.0  0.0963
  H  H56  1  0.340100  0.983200  0.483700  1.0  0.1021
  H  H57  1  0.470100  0.919000  0.463200  1.0  0.1133
  H  H58  1  0.731500  0.799500  0.545500  1.0  0.1131
  H  H59  1  0.753600  0.783600  0.617400  1.0  0.1036
  H  H60  1  0.654500  0.850000  0.654000  1.0  0.0933
  H  H61  1  0.555500  0.786300  0.496000  1.0  0.1197
  H  H62  1  0.621500  0.754100  0.437500  1.0  0.0849
  H  H63  1  0.775900  0.876500  0.413600  1.0  0.068
  H  H64  1  0.706100  0.914500  0.469600  1.0  0.1116
  H  H65  1  0.307300  0.968600  0.176500  1.0  0.0914
  H  H66  1  0.300300  0.950800  0.249200  1.0  0.1109
  H  H67  1  0.456000  0.898700  0.265100  1.0  0.1065
  H  H68  1  0.763600  0.816600  0.176700  1.0  0.1115
  H  H69  1  0.814300  0.823000  0.104800  1.0  0.1108
  H  H70  1  0.685600  0.881400  0.073900  1.0  0.092
  H  H71  1  0.767300  0.885000  0.235700  1.0  0.1238
  H  H72  1  0.828600  0.847300  0.294100  1.0  0.0702
  H  H73  1  0.565500  0.770700  0.303800  1.0  0.0834
  H  H74  1  0.496100  0.805200  0.245100  1.0  0.1256
  H  H75  1  0.222800  0.467100  0.357400  1.0  0.092
  H  H76  1  0.278300  0.551800  0.336300  1.0  0.1133
  H  H77  1  0.117700  0.606100  0.343500  1.0  0.1076
  H  H78  1  0.722300  0.577400  0.398600  1.0  0.1146
  H  H79  1  0.625100  0.504000  0.423000  1.0  0.1033
  H  H80  1  0.748000  0.432100  0.418000  1.0  0.091
  H  H81  1  0.803000  0.599500  0.321300  1.0  0.1223
  H  H82  1  0.759800  0.682000  0.313100  1.0  0.073
  H  H83  1  0.954200  0.720600  0.398400  1.0  0.064
  H  H84  1  0.004700  0.639000  0.409200  1.0  0.1091
  H  H85  1  0.647100  0.992600  0.057700  1.0  0.0962
  H  H86  1  0.659900  0.983200  0.983700  1.0  0.1013
  H  H87  1  0.529900  0.919000  0.963200  1.0  0.1134
  H  H88  1  0.268500  0.799500  0.045500  1.0  0.113
  H  H89  1  0.246400  0.783600  0.117400  1.0  0.104
  H  H90  1  0.345500  0.850000  0.154000  1.0  0.0943
  H  H91  1  0.444500  0.786300  0.996000  1.0  0.1198
  H  H92  1  0.378500  0.754100  0.937500  1.0  0.0852
  H  H93  1  0.224100  0.876500  0.913600  1.0  0.0673
  H  H94  1  0.293900  0.914500  0.969600  1.0  0.1121
  H  H95  1  0.692700  0.968600  0.676500  1.0  0.0917
  H  H96  1  0.699700  0.950800  0.749200  1.0  0.1102
  H  H97  1  0.544000  0.898700  0.765100  1.0  0.1063
  H  H98  1  0.236400  0.816600  0.676700  1.0  0.1124
  H  H99  1  0.185700  0.823000  0.604800  1.0  0.1093
  H  H100  1  0.314400  0.881400  0.573900  1.0  0.0919
  H  H101  1  0.232700  0.885000  0.735700  1.0  0.1245
  H  H102  1  0.171400  0.847300  0.794100  1.0  0.0698
  H  H103  1  0.434500  0.770700  0.803800  1.0  0.0841
  H  H104  1  0.503900  0.805200  0.745100  1.0  0.1253
  H  H105  1  0.777200  0.467100  0.857400  1.0  0.0918
  H  H106  1  0.721700  0.551800  0.836300  1.0  0.1131
  H  H107  1  0.882300  0.606100  0.843500  1.0  0.1076
  H  H108  1  0.277700  0.577400  0.898600  1.0  0.114
  H  H109  1  0.374900  0.504000  0.923000  1.0  0.1036
  H  H110  1  0.252000  0.432100  0.918000  1.0  0.0913
  H  H111  1  0.197000  0.599500  0.821300  1.0  0.1217
  H  H112  1  0.240200  0.682000  0.813100  1.0  0.0727
  H  H113  1  0.045800  0.720600  0.898400  1.0  0.064
  H  H114  1  0.995300  0.639000  0.909200  1.0  0.1087
  H  H115  1  0.852900  0.492600  0.942300  1.0  0.0965
  H  H116  1  0.840100  0.483200  0.016300  1.0  0.1022
  H  H117  1  0.970100  0.419000  0.036800  1.0  0.1136
  H  H118  1  0.231500  0.299500  0.954500  1.0  0.113
  H  H119  1  0.253600  0.283600  0.882600  1.0  0.1031
  H  H120  1  0.154500  0.350000  0.846000  1.0  0.0933
  H  H121  1  0.055500  0.286300  0.004000  1.0  0.1197
  H  H122  1  0.121500  0.254100  0.062500  1.0  0.0849
  H  H123  1  0.275900  0.376500  0.086400  1.0  0.0677
  H  H124  1  0.206100  0.414500  0.030400  1.0  0.1119
  H  H125  1  0.807300  0.468600  0.323500  1.0  0.0912
  H  H126  1  0.800300  0.450800  0.250800  1.0  0.111
  H  H127  1  0.956000  0.398700  0.234900  1.0  0.1061
  H  H128  1  0.263600  0.316600  0.323300  1.0  0.1116
  H  H129  1  0.314300  0.323000  0.395200  1.0  0.1109
  H  H130  1  0.185600  0.381400  0.426100  1.0  0.0912
  H  H131  1  0.267300  0.385000  0.264300  1.0  0.1234
  H  H132  1  0.328600  0.347300  0.205900  1.0  0.0707
  H  H133  1  0.065500  0.270700  0.196200  1.0  0.0833
  H  H134  1  0.996100  0.305200  0.254900  1.0  0.1259
  H  H135  1  0.722800  0.967100  0.142600  1.0  0.0921
  H  H136  1  0.778300  0.051800  0.163700  1.0  0.1133
  H  H137  1  0.617700  0.106100  0.156500  1.0  0.1077
  H  H138  1  0.222300  0.077400  0.101400  1.0  0.1146
  H  H139  1  0.125100  0.004000  0.077000  1.0  0.1027
  H  H140  1  0.248000  0.932100  0.082000  1.0  0.091
  H  H141  1  0.303000  0.099500  0.178700  1.0  0.1228
  H  H142  1  0.259800  0.182000  0.186900  1.0  0.073
  H  H143  1  0.454200  0.220600  0.101600  1.0  0.0643
  H  H144  1  0.504700  0.139000  0.090800  1.0  0.1092
  H  H145  1  0.352900  0.007400  0.942300  1.0  0.0966
  H  H146  1  0.340100  0.016800  0.016300  1.0  0.1027
  H  H147  1  0.470100  0.081000  0.036800  1.0  0.1132
  H  H148  1  0.731500  0.200500  0.954500  1.0  0.1129
  H  H149  1  0.753600  0.216400  0.882600  1.0  0.1032
  H  H150  1  0.654500  0.150000  0.846000  1.0  0.0939
  H  H151  1  0.555500  0.213700  0.004000  1.0  0.121
  H  H152  1  0.621500  0.245900  0.062500  1.0  0.0856
  H  H153  1  0.775900  0.123500  0.086400  1.0  0.068
  H  H154  1  0.706100  0.085500  0.030400  1.0  0.1115
  H  H155  1  0.307300  0.031400  0.323500  1.0  0.091
  H  H156  1  0.300300  0.049200  0.250800  1.0  0.1108
  H  H157  1  0.456000  0.101300  0.234900  1.0  0.108
  H  H158  1  0.763600  0.183400  0.323300  1.0  0.1118
  H  H159  1  0.814300  0.177000  0.395200  1.0  0.1109
  H  H160  1  0.685600  0.118600  0.426100  1.0  0.0905
  H  H161  1  0.767300  0.115000  0.264300  1.0  0.1234
  H  H162  1  0.828600  0.152700  0.205900  1.0  0.0707
  H  H163  1  0.565500  0.229300  0.196200  1.0  0.083
  H  H164  1  0.496100  0.194800  0.254900  1.0  0.1262
  H  H165  1  0.222800  0.532900  0.142600  1.0  0.0916
  H  H166  1  0.278300  0.448200  0.163700  1.0  0.1127
  H  H167  1  0.117700  0.393900  0.156500  1.0  0.1077
  H  H168  1  0.722300  0.422600  0.101400  1.0  0.1143
  H  H169  1  0.625100  0.496000  0.077000  1.0  0.1028
  H  H170  1  0.748000  0.567900  0.082000  1.0  0.0916
  H  H171  1  0.803000  0.400500  0.178700  1.0  0.121
  H  H172  1  0.759800  0.318000  0.186900  1.0  0.0731
  H  H173  1  0.954200  0.279400  0.101600  1.0  0.0662
  H  H174  1  0.004700  0.361000  0.090800  1.0  0.1092
  H  H175  1  0.147100  0.507400  0.057700  1.0  0.0964
  H  H176  1  0.159900  0.516800  0.983700  1.0  0.102
  H  H177  1  0.029900  0.581000  0.963200  1.0  0.1135
  H  H178  1  0.768500  0.700500  0.045500  1.0  0.1133
  H  H179  1  0.746400  0.716400  0.117400  1.0  0.1034
  H  H180  1  0.845500  0.650000  0.154000  1.0  0.0949
  H  H181  1  0.944500  0.713700  0.996000  1.0  0.1203
  H  H182  1  0.878500  0.745900  0.937500  1.0  0.0859
  H  H183  1  0.724100  0.623500  0.913600  1.0  0.0669
  H  H184  1  0.793900  0.585500  0.969600  1.0  0.1119
  H  H185  1  0.192700  0.531400  0.676500  1.0  0.0915
  H  H186  1  0.199700  0.549200  0.749200  1.0  0.1105
  H  H187  1  0.044000  0.601300  0.765100  1.0  0.1082
  H  H188  1  0.736400  0.683400  0.676700  1.0  0.1123
  H  H189  1  0.685700  0.677000  0.604800  1.0  0.1095
  H  H190  1  0.814400  0.618600  0.573900  1.0  0.0915
  H  H191  1  0.732700  0.615000  0.735700  1.0  0.1235
  H  H192  1  0.671400  0.652700  0.794100  1.0  0.0701
  H  H193  1  0.934500  0.729300  0.803800  1.0  0.0837
  H  H194  1  0.003900  0.694800  0.745100  1.0  0.126
  H  H195  1  0.277200  0.032900  0.857400  1.0  0.0922
  H  H196  1  0.221700  0.948200  0.836300  1.0  0.1129
  H  H197  1  0.382300  0.893900  0.843500  1.0  0.1075
  H  H198  1  0.777700  0.922600  0.898600  1.0  0.1144
  H  H199  1  0.874900  0.996000  0.923000  1.0  0.1035
  H  H200  1  0.752000  0.067900  0.918000  1.0  0.0912
  H  H201  1  0.697000  0.900500  0.821300  1.0  0.12
  H  H202  1  0.740200  0.818000  0.813100  1.0  0.0726
  H  H203  1  0.545800  0.779400  0.898400  1.0  0.0661
  H  H204  1  0.495300  0.861000  0.909200  1.0  0.109
  H  H205  1  0.852900  0.507400  0.557700  1.0  0.0963
  H  H206  1  0.840100  0.516800  0.483700  1.0  0.1027
  H  H207  1  0.970100  0.581000  0.463200  1.0  0.1131
  H  H208  1  0.231500  0.700500  0.545500  1.0  0.1132
  H  H209  1  0.253600  0.716400  0.617400  1.0  0.103
  H  H210  1  0.154500  0.650000  0.654000  1.0  0.0938
  H  H211  1  0.055500  0.713700  0.496000  1.0  0.1206
  H  H212  1  0.121500  0.745900  0.437500  1.0  0.0855
  H  H213  1  0.275900  0.623500  0.413600  1.0  0.0676
  H  H214  1  0.206100  0.585500  0.469600  1.0  0.1115
  H  H215  1  0.807300  0.531400  0.176500  1.0  0.0912
  H  H216  1  0.800300  0.549200  0.249200  1.0  0.111
  H  H217  1  0.956000  0.601300  0.265100  1.0  0.1084
  H  H218  1  0.263600  0.683400  0.176700  1.0  0.1116
  H  H219  1  0.314300  0.677000  0.104800  1.0  0.1111
  H  H220  1  0.185600  0.618600  0.073900  1.0  0.0915
  H  H221  1  0.267300  0.615000  0.235700  1.0  0.1233
  H  H222  1  0.328600  0.652700  0.294100  1.0  0.0703
  H  H223  1  0.065500  0.729300  0.303800  1.0  0.0832
  H  H224  1  0.996100  0.694800  0.245100  1.0  0.126
  H  H225  1  0.722800  0.032900  0.357400  1.0  0.092
  H  H226  1  0.778300  0.948200  0.336300  1.0  0.113
  H  H227  1  0.617700  0.893900  0.343500  1.0  0.1075
  H  H228  1  0.222300  0.922600  0.398600  1.0  0.1147
  H  H229  1  0.125100  0.996000  0.423000  1.0  0.1033
  H  H230  1  0.248000  0.067900  0.418000  1.0  0.0912
  H  H231  1  0.303000  0.900500  0.321300  1.0  0.1207
  H  H232  1  0.259800  0.818000  0.313100  1.0  0.0727
  H  H233  1  0.454200  0.779400  0.398400  1.0  0.0663
  H  H234  1  0.504700  0.861000  0.409200  1.0  0.1092
  H  H235  1  0.647100  0.007400  0.442300  1.0  0.0964
  H  H236  1  0.659900  0.016800  0.516300  1.0  0.1019
  H  H237  1  0.529900  0.081000  0.536800  1.0  0.1134
  H  H238  1  0.268500  0.200500  0.454500  1.0  0.1135
  H  H239  1  0.246400  0.216400  0.382600  1.0  0.1032
  H  H240  1  0.345500  0.150000  0.346000  1.0  0.0943
  H  H241  1  0.444500  0.213700  0.504000  1.0  0.1207
  H  H242  1  0.378500  0.245900  0.562500  1.0  0.086
  H  H243  1  0.224100  0.123500  0.586400  1.0  0.0673
  H  H244  1  0.293900  0.085500  0.530400  1.0  0.1116
  H  H245  1  0.692700  0.031400  0.823500  1.0  0.0914
  H  H246  1  0.699700  0.049200  0.750800  1.0  0.1107
  H  H247  1  0.544000  0.101300  0.734900  1.0  0.1081
  H  H248  1  0.236400  0.183400  0.823300  1.0  0.1123
  H  H249  1  0.185700  0.177000  0.895200  1.0  0.11
  H  H250  1  0.314400  0.118600  0.926100  1.0  0.0909
  H  H251  1  0.232700  0.115000  0.764300  1.0  0.1237
  H  H252  1  0.171400  0.152700  0.705900  1.0  0.0704
  H  H253  1  0.434500  0.229300  0.696200  1.0  0.0834
  H  H254  1  0.503900  0.194800  0.754900  1.0  0.1262
  H  H255  1  0.777200  0.532900  0.642600  1.0  0.0921
  H  H256  1  0.721700  0.448200  0.663700  1.0  0.113
  H  H257  1  0.882300  0.393900  0.656500  1.0  0.1077
  H  H258  1  0.277700  0.422600  0.601400  1.0  0.1143
  H  H259  1  0.374900  0.496000  0.577000  1.0  0.1039
  H  H260  1  0.252000  0.567900  0.582000  1.0  0.0917
  H  H261  1  0.197000  0.400500  0.678700  1.0  0.1197
  H  H262  1  0.240200  0.318000  0.686900  1.0  0.0732
  H  H263  1  0.045800  0.279400  0.601600  1.0  0.0659
  H  H264  1  0.995300  0.361000  0.590800  1.0  0.1087
  C  C265  1  0.105800  0.470500  0.457750  1.0  0.0104
  C  C266  1  0.113500  0.465360  0.499250  1.0  -0.0895
  C  C267  1  0.042300  0.430300  0.510570  1.0  -0.1739
  C  C268  1  0.990300  0.413860  0.475700  1.0  0.1412
  C  C269  1  0.915200  0.375880  0.472640  1.0  -0.0965
  C  C270  1  0.873800  0.355830  0.437240  1.0  0.1774
  C  C271  1  0.801600  0.317000  0.433400  1.0  -0.0932
  C  C272  1  0.787600  0.309000  0.394300  1.0  -0.14
  C  C273  1  0.845500  0.345600  0.373970  1.0  0.0182
  C  C274  1  0.875400  0.354770  0.509800  1.0  0.1123
  C  C275  1  0.900300  0.305870  0.520580  1.0  -0.1863
  C  C276  1  0.860000  0.286800  0.555260  1.0  0.1495
  C  C277  1  0.770700  0.358300  0.569700  1.0  0.1571
  C  C278  1  0.810700  0.381000  0.535810  1.0  -0.1996
  C  C279  1  0.142500  0.449100  0.809500  1.0  0.0415
  C  C280  1  0.147200  0.439400  0.768860  1.0  -0.1465
  C  C281  1  0.062800  0.410800  0.760380  1.0  -0.1633
  C  C282  1  0.006900  0.402060  0.796300  1.0  0.1861
  C  C283  1  0.915500  0.374800  0.801710  1.0  -0.1012
  C  C284  1  0.859000  0.366970  0.837200  1.0  0.1791
  C  C285  1  0.770500  0.336100  0.843000  1.0  -0.1147
  C  C286  1  0.742500  0.339500  0.882200  1.0  -0.1136
  C  C287  1  0.814700  0.372200  0.898920  1.0  0.0648
  C  C288  1  0.873500  0.349500  0.765270  1.0  0.0159
  C  C289  1  0.775900  0.361700  0.750900  1.0  -0.1808
  C  C290  1  0.740000  0.339000  0.715700  1.0  0.1563
  C  C291  1  0.893400  0.294300  0.710220  1.0  0.147
  C  C292  1  0.935800  0.314700  0.745270  1.0  -0.1723
  C  C293  1  0.322100  0.995300  0.642380  1.0  0.0452
  C  C294  1  0.290200  0.042300  0.654490  1.0  -0.1082
  C  C295  1  0.378400  0.072000  0.650380  1.0  -0.086
  C  C296  1  0.461600  0.042710  0.635550  1.0  0.1297
  C  C297  1  0.566900  0.058250  0.626430  1.0  -0.0964
  C  C298  1  0.648500  0.028960  0.610870  1.0  0.173
  C  C299  1  0.750900  0.044800  0.599790  1.0  -0.1144
  C  C300  1  0.803800  0.004800  0.586510  1.0  -0.1137
  C  C301  1  0.734300  0.964800  0.589450  1.0  0.0205
  C  C302  1  0.592400  0.110200  0.633450  1.0  0.0773
  C  C303  1  0.665200  0.123660  0.662190  1.0  -0.2039
  C  C304  1  0.691300  0.173200  0.666667  1.0  0.1468
  C  C305  1  0.578100  0.195500  0.617110  1.0  0.1645
  C  C306  1  0.546700  0.146730  0.610500  1.0  -0.224
  C  C307  1  0.394200  0.970500  0.542250  1.0  0.0092
  C  C308  1  0.386500  0.965360  0.500750  1.0  -0.0908
  C  C309  1  0.457700  0.930300  0.489430  1.0  -0.1769
  C  C310  1  0.509700  0.913860  0.524300  1.0  0.1422
  C  C311  1  0.584800  0.875880  0.527360  1.0  -0.0963
  C  C312  1  0.626200  0.855830  0.562760  1.0  0.1773
  C  C313  1  0.698400  0.817000  0.566600  1.0  -0.0913
  C  C314  1  0.712400  0.809000  0.605700  1.0  -0.1393
  C  C315  1  0.654500  0.845600  0.626030  1.0  0.0174
  C  C316  1  0.624600  0.854770  0.490200  1.0  0.1118
  C  C317  1  0.599700  0.805870  0.479420  1.0  -0.185
  C  C318  1  0.640000  0.786800  0.444740  1.0  0.1497
  C  C319  1  0.729300  0.858300  0.430300  1.0  0.1567
  C  C320  1  0.689300  0.881000  0.464190  1.0  -0.1987
  C  C321  1  0.357500  0.949100  0.190500  1.0  0.0388
  C  C322  1  0.352800  0.939400  0.231140  1.0  -0.1465
  C  C323  1  0.437200  0.910800  0.239620  1.0  -0.1634
  C  C324  1  0.493100  0.902060  0.203700  1.0  0.1861
  C  C325  1  0.584500  0.874800  0.198290  1.0  -0.1017
  C  C326  1  0.641000  0.866970  0.162800  1.0  0.1789
  C  C327  1  0.729500  0.836100  0.157000  1.0  -0.1112
  C  C328  1  0.757500  0.839500  0.117800  1.0  -0.1139
  C  C329  1  0.685300  0.872200  0.101080  1.0  0.0636
  C  C330  1  0.626500  0.849500  0.234730  1.0  0.017
  C  C331  1  0.724100  0.861700  0.249100  1.0  -0.1795
  C  C332  1  0.760000  0.839000  0.284300  1.0  0.1543
  C  C333  1  0.606600  0.794300  0.289780  1.0  0.1475
  C  C334  1  0.564200  0.814700  0.254730  1.0  -0.1718
  C  C335  1  0.177900  0.495300  0.357620  1.0  0.0435
  C  C336  1  0.209800  0.542300  0.345510  1.0  -0.108
  C  C337  1  0.121600  0.572000  0.349620  1.0  -0.0853
  C  C338  1  0.038400  0.542710  0.364450  1.0  0.1301
  C  C339  1  0.933100  0.558250  0.373570  1.0  -0.0979
  C  C340  1  0.851500  0.528960  0.389130  1.0  0.173
  C  C341  1  0.749100  0.544800  0.400210  1.0  -0.1172
  C  C342  1  0.696200  0.504800  0.413490  1.0  -0.1126
  C  C343  1  0.765700  0.464800  0.410550  1.0  0.0202
  C  C344  1  0.907600  0.610200  0.366550  1.0  0.0758
  C  C345  1  0.834800  0.623660  0.337810  1.0  -0.2037
  C  C346  1  0.808700  0.673200  0.333333  1.0  0.1471
  C  C347  1  0.921900  0.695500  0.382890  1.0  0.1639
  C  C348  1  0.953300  0.646730  0.389500  1.0  -0.2233
  C  C349  1  0.605800  0.970500  0.042250  1.0  0.0112
  C  C350  1  0.613500  0.965360  0.000750  1.0  -0.09
  C  C351  1  0.542300  0.930300  0.989430  1.0  -0.1765
  C  C352  1  0.490300  0.913860  0.024300  1.0  0.1411
  C  C353  1  0.415200  0.875880  0.027360  1.0  -0.0966
  C  C354  1  0.373800  0.855830  0.062760  1.0  0.1774
  C  C355  1  0.301600  0.817000  0.066600  1.0  -0.0933
  C  C356  1  0.287600  0.809000  0.105700  1.0  -0.1408
  C  C357  1  0.345500  0.845600  0.126030  1.0  0.0186
  C  C358  1  0.375400  0.854770  0.990200  1.0  0.1111
  C  C359  1  0.400300  0.805870  0.979420  1.0  -0.1864
  C  C360  1  0.360000  0.786800  0.944740  1.0  0.1505
  C  C361  1  0.270700  0.858300  0.930300  1.0  0.1557
  C  C362  1  0.310700  0.881000  0.964190  1.0  -0.1996
  C  C363  1  0.642500  0.949100  0.690500  1.0  0.0405
  C  C364  1  0.647200  0.939400  0.731140  1.0  -0.1458
  C  C365  1  0.562800  0.910800  0.739620  1.0  -0.1641
  C  C366  1  0.506900  0.902060  0.703700  1.0  0.1853
  C  C367  1  0.415500  0.874800  0.698290  1.0  -0.1017
  C  C368  1  0.359000  0.866970  0.662800  1.0  0.1791
  C  C369  1  0.270500  0.836100  0.657000  1.0  -0.1133
  C  C370  1  0.242500  0.839500  0.617800  1.0  -0.1136
  C  C371  1  0.314700  0.872200  0.601080  1.0  0.0653
  C  C372  1  0.373500  0.849500  0.734730  1.0  0.0157
  C  C373  1  0.275900  0.861700  0.749100  1.0  -0.1805
  C  C374  1  0.240000  0.839000  0.784300  1.0  0.1559
  C  C375  1  0.393400  0.794300  0.789780  1.0  0.1472
  C  C376  1  0.435800  0.814700  0.754730  1.0  -0.1737
  C  C377  1  0.822100  0.495300  0.857620  1.0  0.0451
  C  C378  1  0.790200  0.542300  0.845510  1.0  -0.1078
  C  C379  1  0.878400  0.572000  0.849620  1.0  -0.0857
  C  C380  1  0.961600  0.542710  0.864450  1.0  0.1297
  C  C381  1  0.066900  0.558250  0.873570  1.0  -0.0967
  C  C382  1  0.148500  0.528960  0.889130  1.0  0.1735
  C  C383  1  0.250900  0.544800  0.900210  1.0  -0.1144
  C  C384  1  0.303800  0.504800  0.913490  1.0  -0.1136
  C  C385  1  0.234300  0.464800  0.910550  1.0  0.0203
  C  C386  1  0.092400  0.610200  0.866550  1.0  0.0773
  C  C387  1  0.165200  0.623660  0.837810  1.0  -0.2041
  C  C388  1  0.191300  0.673200  0.833340  1.0  0.147
  C  C389  1  0.078100  0.695500  0.882890  1.0  0.1642
  C  C390  1  0.046700  0.646730  0.889500  1.0  -0.2235
  C  C391  1  0.894200  0.470500  0.957750  1.0  0.0086
  C  C392  1  0.886500  0.465360  0.999250  1.0  -0.0907
  C  C393  1  0.957700  0.430300  0.010570  1.0  -0.1753
  C  C394  1  0.009700  0.413860  0.975700  1.0  0.1421
  C  C395  1  0.084800  0.375880  0.972640  1.0  -0.0962
  C  C396  1  0.126200  0.355830  0.937240  1.0  0.1772
  C  C397  1  0.198400  0.317000  0.933400  1.0  -0.091
  C  C398  1  0.212400  0.309000  0.894300  1.0  -0.1386
  C  C399  1  0.154500  0.345600  0.873970  1.0  0.0173
  C  C400  1  0.124600  0.354770  0.009800  1.0  0.1128
  C  C401  1  0.099700  0.305870  0.020580  1.0  -0.1844
  C  C402  1  0.140000  0.286800  0.055260  1.0  0.1491
  C  C403  1  0.229300  0.358300  0.069700  1.0  0.1574
  C  C404  1  0.189300  0.381000  0.035810  1.0  -0.1987
  C  C405  1  0.857500  0.449100  0.309500  1.0  0.0399
  C  C406  1  0.852800  0.439400  0.268860  1.0  -0.1466
  C  C407  1  0.937200  0.410800  0.260380  1.0  -0.1633
  C  C408  1  0.993100  0.402060  0.296300  1.0  0.1868
  C  C409  1  0.084500  0.374800  0.301710  1.0  -0.1011
  C  C410  1  0.141000  0.366970  0.337200  1.0  0.1792
  C  C411  1  0.229500  0.336100  0.343000  1.0  -0.113
  C  C412  1  0.257500  0.339500  0.382200  1.0  -0.1132
  C  C413  1  0.185300  0.372200  0.398920  1.0  0.0639
  C  C414  1  0.126500  0.349500  0.265270  1.0  0.0172
  C  C415  1  0.224100  0.361700  0.250900  1.0  -0.1799
  C  C416  1  0.260000  0.339000  0.215700  1.0  0.1543
  C  C417  1  0.106600  0.294300  0.210220  1.0  0.1474
  C  C418  1  0.064200  0.314700  0.245270  1.0  -0.171
  C  C419  1  0.677900  0.995300  0.142380  1.0  0.0446
  C  C420  1  0.709800  0.042300  0.154490  1.0  -0.1084
  C  C421  1  0.621600  0.072000  0.150380  1.0  -0.0855
  C  C422  1  0.538400  0.042710  0.135550  1.0  0.13
  C  C423  1  0.433100  0.058250  0.126430  1.0  -0.0977
  C  C424  1  0.351500  0.028960  0.110870  1.0  0.1727
  C  C425  1  0.249100  0.044800  0.099790  1.0  -0.1171
  C  C426  1  0.196200  0.004800  0.086510  1.0  -0.1125
  C  C427  1  0.265700  0.964800  0.089450  1.0  0.0206
  C  C428  1  0.407600  0.110200  0.133450  1.0  0.0758
  C  C429  1  0.334800  0.123660  0.162190  1.0  -0.204
  C  C430  1  0.308700  0.173200  0.166660  1.0  0.1461
  C  C431  1  0.421900  0.195500  0.117110  1.0  0.1643
  C  C432  1  0.453300  0.146730  0.110500  1.0  -0.2237
  C  C433  1  0.394200  0.029500  0.957750  1.0  0.008
  C  C434  1  0.386500  0.034640  0.999250  1.0  -0.0902
  C  C435  1  0.457700  0.069700  0.010570  1.0  -0.1741
  C  C436  1  0.509700  0.086140  0.975700  1.0  0.1421
  C  C437  1  0.584800  0.124120  0.972640  1.0  -0.095
  C  C438  1  0.626200  0.144170  0.937240  1.0  0.1768
  C  C439  1  0.698400  0.183000  0.933400  1.0  -0.0914
  C  C440  1  0.712400  0.191000  0.894300  1.0  -0.1377
  C  C441  1  0.654500  0.154400  0.873970  1.0  0.0181
  C  C442  1  0.624600  0.145230  0.009800  1.0  0.1124
  C  C443  1  0.599700  0.194130  0.020580  1.0  -0.188
  C  C444  1  0.640000  0.213200  0.055260  1.0  0.1504
  C  C445  1  0.729300  0.141700  0.069700  1.0  0.1576
  C  C446  1  0.689300  0.119000  0.035810  1.0  -0.1976
  C  C447  1  0.357500  0.050900  0.309500  1.0  0.04
  C  C448  1  0.352800  0.060600  0.268860  1.0  -0.1463
  C  C449  1  0.437200  0.089200  0.260380  1.0  -0.1633
  C  C450  1  0.493100  0.097940  0.296300  1.0  0.1869
  C  C451  1  0.584500  0.125200  0.301710  1.0  -0.1006
  C  C452  1  0.641000  0.133030  0.337200  1.0  0.1795
  C  C453  1  0.729500  0.163900  0.343000  1.0  -0.1126
  C  C454  1  0.757500  0.160500  0.382200  1.0  -0.1125
  C  C455  1  0.685300  0.127800  0.398920  1.0  0.0643
  C  C456  1  0.626500  0.150500  0.265270  1.0  0.0171
  C  C457  1  0.724100  0.138300  0.250900  1.0  -0.179
  C  C458  1  0.760000  0.161000  0.215700  1.0  0.1543
  C  C459  1  0.606600  0.205700  0.210220  1.0  0.1466
  C  C460  1  0.564200  0.185300  0.245270  1.0  -0.1727
  C  C461  1  0.177900  0.504700  0.142380  1.0  0.044
  C  C462  1  0.209800  0.457700  0.154490  1.0  -0.1102
  C  C463  1  0.121600  0.428000  0.150380  1.0  -0.0861
  C  C464  1  0.038400  0.457290  0.135550  1.0  0.1301
  C  C465  1  0.933100  0.441750  0.126430  1.0  -0.0973
  C  C466  1  0.851500  0.471040  0.110870  1.0  0.1728
  C  C467  1  0.749100  0.455200  0.099790  1.0  -0.1179
  C  C468  1  0.696200  0.495200  0.086510  1.0  -0.1128
  C  C469  1  0.765700  0.535200  0.089450  1.0  0.0195
  C  C470  1  0.907600  0.389800  0.133450  1.0  0.0763
  C  C471  1  0.834800  0.376340  0.162190  1.0  -0.2036
  C  C472  1  0.808700  0.326800  0.166660  1.0  0.1467
  C  C473  1  0.921900  0.304500  0.117110  1.0  0.1633
  C  C474  1  0.953300  0.353270  0.110500  1.0  -0.2243
  C  C475  1  0.105800  0.529500  0.042250  1.0  0.0103
  C  C476  1  0.113500  0.534640  0.000750  1.0  -0.0899
  C  C477  1  0.042300  0.569700  0.989430  1.0  -0.1751
  C  C478  1  0.990300  0.586140  0.024300  1.0  0.1414
  C  C479  1  0.915200  0.624120  0.027360  1.0  -0.0958
  C  C480  1  0.873800  0.644170  0.062760  1.0  0.1772
  C  C481  1  0.801600  0.683000  0.066600  1.0  -0.0919
  C  C482  1  0.787600  0.691000  0.105700  1.0  -0.1397
  C  C483  1  0.845500  0.654400  0.126030  1.0  0.0181
  C  C484  1  0.875400  0.645230  0.990200  1.0  0.1115
  C  C485  1  0.900300  0.694130  0.979420  1.0  -0.1881
  C  C486  1  0.860000  0.713200  0.944740  1.0  0.1519
  C  C487  1  0.770700  0.641700  0.930300  1.0  0.1558
  C  C488  1  0.810700  0.619000  0.964190  1.0  -0.1973
  C  C489  1  0.142500  0.550900  0.690500  1.0  0.0405
  C  C490  1  0.147200  0.560600  0.731140  1.0  -0.1456
  C  C491  1  0.062800  0.589200  0.739620  1.0  -0.1642
  C  C492  1  0.006900  0.597940  0.703700  1.0  0.1852
  C  C493  1  0.915500  0.625200  0.698290  1.0  -0.1013
  C  C494  1  0.859000  0.633030  0.662800  1.0  0.1794
  C  C495  1  0.770500  0.663900  0.657000  1.0  -0.1138
  C  C496  1  0.742500  0.660500  0.617800  1.0  -0.1133
  C  C497  1  0.814700  0.627800  0.601080  1.0  0.0657
  C  C498  1  0.873500  0.650500  0.734730  1.0  0.0152
  C  C499  1  0.775900  0.638300  0.749100  1.0  -0.18
  C  C500  1  0.740000  0.661000  0.784300  1.0  0.1553
  C  C501  1  0.893400  0.705700  0.789780  1.0  0.1465
  C  C502  1  0.935800  0.685300  0.754730  1.0  -0.1724
  C  C503  1  0.322100  0.004700  0.857620  1.0  0.0447
  C  C504  1  0.290200  0.957700  0.845510  1.0  -0.1091
  C  C505  1  0.378400  0.928000  0.849620  1.0  -0.0863
  C  C506  1  0.461600  0.957290  0.864450  1.0  0.1299
  C  C507  1  0.566900  0.941750  0.873570  1.0  -0.0965
  C  C508  1  0.648500  0.971040  0.889130  1.0  0.1736
  C  C509  1  0.750900  0.955200  0.900210  1.0  -0.1153
  C  C510  1  0.803800  0.995200  0.913490  1.0  -0.1138
  C  C511  1  0.734300  0.035200  0.910550  1.0  0.02
  C  C512  1  0.592400  0.889800  0.866550  1.0  0.0779
  C  C513  1  0.665200  0.876340  0.837810  1.0  -0.204
  C  C514  1  0.691300  0.826800  0.833340  1.0  0.1471
  C  C515  1  0.578100  0.804500  0.882890  1.0  0.1647
  C  C516  1  0.546700  0.853270  0.889500  1.0  -0.2233
  C  C517  1  0.894200  0.529500  0.542250  1.0  0.0084
  C  C518  1  0.886500  0.534640  0.500750  1.0  -0.0903
  C  C519  1  0.957700  0.569700  0.489430  1.0  -0.1751
  C  C520  1  0.009700  0.586140  0.524300  1.0  0.1423
  C  C521  1  0.084800  0.624120  0.527360  1.0  -0.0952
  C  C522  1  0.126200  0.644170  0.562760  1.0  0.1769
  C  C523  1  0.198400  0.683000  0.566600  1.0  -0.0906
  C  C524  1  0.212400  0.691000  0.605700  1.0  -0.1378
  C  C525  1  0.154500  0.654400  0.626030  1.0  0.0176
  C  C526  1  0.124600  0.645230  0.490200  1.0  0.1119
  C  C527  1  0.099700  0.694130  0.479420  1.0  -0.1885
  C  C528  1  0.140000  0.713200  0.444740  1.0  0.1507
  C  C529  1  0.229300  0.641700  0.430300  1.0  0.1566
  C  C530  1  0.189300  0.619000  0.464190  1.0  -0.1974
  C  C531  1  0.857500  0.550900  0.190500  1.0  0.0392
  C  C532  1  0.852800  0.560600  0.231140  1.0  -0.146
  C  C533  1  0.937200  0.589200  0.239620  1.0  -0.1634
  C  C534  1  0.993100  0.597940  0.203700  1.0  0.1861
  C  C535  1  0.084500  0.625200  0.198290  1.0  -0.1011
  C  C536  1  0.141000  0.633030  0.162800  1.0  0.1793
  C  C537  1  0.229500  0.663900  0.157000  1.0  -0.1118
  C  C538  1  0.257500  0.660500  0.117800  1.0  -0.113
  C  C539  1  0.185300  0.627800  0.101080  1.0  0.0648
  C  C540  1  0.126500  0.650500  0.234730  1.0  0.0167
  C  C541  1  0.224100  0.638300  0.249100  1.0  -0.1791
  C  C542  1  0.260000  0.661000  0.284300  1.0  0.1545
  C  C543  1  0.106600  0.705700  0.289780  1.0  0.1461
  C  C544  1  0.064200  0.685300  0.254730  1.0  -0.1723
  C  C545  1  0.677900  0.004700  0.357620  1.0  0.0433
  C  C546  1  0.709800  0.957700  0.345510  1.0  -0.11
  C  C547  1  0.621600  0.928000  0.349620  1.0  -0.086
  C  C548  1  0.538400  0.957290  0.364450  1.0  0.1303
  C  C549  1  0.433100  0.941750  0.373570  1.0  -0.0977
  C  C550  1  0.351500  0.971040  0.389130  1.0  0.173
  C  C551  1  0.249100  0.955200  0.400210  1.0  -0.1179
  C  C552  1  0.196200  0.995200  0.413490  1.0  -0.1132
  C  C553  1  0.265700  0.035200  0.410550  1.0  0.0185
  C  C554  1  0.407600  0.889800  0.366550  1.0  0.0764
  C  C555  1  0.334800  0.876340  0.337810  1.0  -0.2033
  C  C556  1  0.308700  0.826800  0.333333  1.0  0.1469
  C  C557  1  0.421900  0.804500  0.382890  1.0  0.1643
  C  C558  1  0.453300  0.853270  0.389500  1.0  -0.2236
  C  C559  1  0.605800  0.029500  0.457750  1.0  0.0095
  C  C560  1  0.613500  0.034640  0.499250  1.0  -0.0894
  C  C561  1  0.542300  0.069700  0.510570  1.0  -0.1734
  C  C562  1  0.490300  0.086140  0.475700  1.0  0.1413
  C  C563  1  0.415200  0.124120  0.472640  1.0  -0.0956
  C  C564  1  0.373800  0.144170  0.437240  1.0  0.1773
  C  C565  1  0.301600  0.183000  0.433400  1.0  -0.0929
  C  C566  1  0.287600  0.191000  0.394300  1.0  -0.1393
  C  C567  1  0.345500  0.154400  0.373970  1.0  0.0186
  C  C568  1  0.375400  0.145230  0.509800  1.0  0.1122
  C  C569  1  0.400300  0.194130  0.520580  1.0  -0.1879
  C  C570  1  0.360000  0.213200  0.555260  1.0  0.1515
  C  C571  1  0.270700  0.141700  0.569700  1.0  0.1576
  C  C572  1  0.310700  0.119000  0.535810  1.0  -0.1973
  C  C573  1  0.642500  0.050900  0.809500  1.0  0.0414
  C  C574  1  0.647200  0.060600  0.768860  1.0  -0.1464
  C  C575  1  0.562800  0.089200  0.760380  1.0  -0.1633
  C  C576  1  0.506900  0.097940  0.796300  1.0  0.186
  C  C577  1  0.415500  0.125200  0.801710  1.0  -0.1008
  C  C578  1  0.359000  0.133030  0.837200  1.0  0.1793
  C  C579  1  0.270500  0.163900  0.843000  1.0  -0.1141
  C  C580  1  0.242500  0.160500  0.882200  1.0  -0.1139
  C  C581  1  0.314700  0.127800  0.898920  1.0  0.0642
  C  C582  1  0.373500  0.150500  0.765270  1.0  0.0159
  C  C583  1  0.275900  0.138300  0.750900  1.0  -0.1798
  C  C584  1  0.240000  0.161000  0.715700  1.0  0.1558
  C  C585  1  0.393400  0.205700  0.710220  1.0  0.1469
  C  C586  1  0.435800  0.185300  0.745270  1.0  -0.1721
  C  C587  1  0.822100  0.504700  0.642380  1.0  0.0448
  C  C588  1  0.790200  0.457700  0.654490  1.0  -0.1095
  C  C589  1  0.878400  0.428000  0.650380  1.0  -0.0867
  C  C590  1  0.961600  0.457290  0.635550  1.0  0.1298
  C  C591  1  0.066900  0.441750  0.626430  1.0  -0.0961
  C  C592  1  0.148500  0.471040  0.610870  1.0  0.1731
  C  C593  1  0.250900  0.455200  0.599790  1.0  -0.1153
  C  C594  1  0.303800  0.495200  0.586510  1.0  -0.1136
  C  C595  1  0.234300  0.535200  0.589450  1.0  0.0205
  C  C596  1  0.092400  0.389800  0.633450  1.0  0.0778
  C  C597  1  0.165200  0.376340  0.662190  1.0  -0.2037
  C  C598  1  0.191300  0.326800  0.666667  1.0  0.1476
  C  C599  1  0.078100  0.304500  0.617110  1.0  0.1638
  C  C600  1  0.046700  0.353270  0.610500  1.0  -0.2241
  N  N601  1  0.032000  0.439720  0.443180  1.0  -0.3846
  N  N602  1  0.899600  0.372640  0.399310  1.0  -0.3719
  N  N603  1  0.794600  0.312880  0.579590  1.0  -0.3395
  N  N604  1  0.058200  0.427260  0.826220  1.0  -0.3859
  N  N605  1  0.883800  0.388840  0.872760  1.0  -0.3638
  N  N606  1  0.797700  0.306700  0.695780  1.0  -0.3171
  N  N607  1  0.423300  0.994890  0.630450  1.0  -0.3869
  N  N608  1  0.641100  0.978170  0.603930  1.0  -0.3755
  N  N609  1  0.650900  0.208880  0.643930  1.0  -0.3412
  N  N610  1  0.468000  0.939720  0.556820  1.0  -0.3842
  N  N611  1  0.600400  0.872640  0.600690  1.0  -0.3715
  N  N612  1  0.705400  0.812880  0.420410  1.0  -0.3397
  N  N613  1  0.441800  0.927260  0.173780  1.0  -0.3861
  N  N614  1  0.616200  0.888840  0.127240  1.0  -0.3642
  N  N615  1  0.702300  0.806700  0.304220  1.0  -0.3169
  N  N616  1  0.076700  0.494890  0.369550  1.0  -0.386
  N  N617  1  0.858900  0.478170  0.396070  1.0  -0.3766
  N  N618  1  0.849100  0.708880  0.356070  1.0  -0.3404
  N  N619  1  0.532000  0.939720  0.056820  1.0  -0.384
  N  N620  1  0.399600  0.872640  0.100690  1.0  -0.3714
  N  N621  1  0.294600  0.812880  0.920410  1.0  -0.3399
  N  N622  1  0.558200  0.927260  0.673780  1.0  -0.386
  N  N623  1  0.383800  0.888840  0.627240  1.0  -0.364
  N  N624  1  0.297700  0.806700  0.804220  1.0  -0.3175
  N  N625  1  0.923300  0.494890  0.869550  1.0  -0.3867
  N  N626  1  0.141100  0.478170  0.896070  1.0  -0.3755
  N  N627  1  0.150900  0.708880  0.856070  1.0  -0.3398
  N  N628  1  0.968000  0.439720  0.943180  1.0  -0.3848
  N  N629  1  0.100400  0.372640  0.899310  1.0  -0.3718
  N  N630  1  0.205400  0.312880  0.079590  1.0  -0.3384
  N  N631  1  0.941800  0.427260  0.326220  1.0  -0.3854
  N  N632  1  0.116200  0.388840  0.372760  1.0  -0.3641
  N  N633  1  0.202300  0.306700  0.195780  1.0  -0.3168
  N  N634  1  0.576700  0.994890  0.130450  1.0  -0.3859
  N  N635  1  0.358900  0.978170  0.103930  1.0  -0.3764
  N  N636  1  0.349100  0.208880  0.143930  1.0  -0.3385
  N  N637  1  0.468000  0.060280  0.943180  1.0  -0.3844
  N  N638  1  0.600400  0.127360  0.899310  1.0  -0.372
  N  N639  1  0.705400  0.187120  0.079590  1.0  -0.3386
  N  N640  1  0.441800  0.072740  0.326220  1.0  -0.386
  N  N641  1  0.616200  0.111160  0.372760  1.0  -0.3641
  N  N642  1  0.702300  0.193300  0.195780  1.0  -0.3174
  N  N643  1  0.076700  0.505110  0.130450  1.0  -0.3856
  N  N644  1  0.858900  0.521830  0.103930  1.0  -0.3766
  N  N645  1  0.849100  0.291120  0.143930  1.0  -0.3408
  N  N646  1  0.032000  0.560280  0.056820  1.0  -0.3841
  N  N647  1  0.899600  0.627360  0.100690  1.0  -0.3726
  N  N648  1  0.794600  0.687120  0.920410  1.0  -0.3373
  N  N649  1  0.058200  0.572740  0.673780  1.0  -0.3862
  N  N650  1  0.883800  0.611160  0.627240  1.0  -0.3639
  N  N651  1  0.797700  0.693300  0.804220  1.0  -0.317
  N  N652  1  0.423300  0.005110  0.869550  1.0  -0.3871
  N  N653  1  0.641100  0.021830  0.896070  1.0  -0.3757
  N  N654  1  0.650900  0.791120  0.856070  1.0  -0.3389
  N  N655  1  0.968000  0.560280  0.556820  1.0  -0.3841
  N  N656  1  0.100400  0.627360  0.600690  1.0  -0.372
  N  N657  1  0.205400  0.687120  0.420410  1.0  -0.3388
  N  N658  1  0.941800  0.572740  0.173780  1.0  -0.3864
  N  N659  1  0.116200  0.611160  0.127240  1.0  -0.3642
  N  N660  1  0.202300  0.693300  0.304220  1.0  -0.3176
  N  N661  1  0.576700  0.005110  0.369550  1.0  -0.3858
  N  N662  1  0.358900  0.021830  0.396070  1.0  -0.3769
  N  N663  1  0.349100  0.791120  0.356070  1.0  -0.3421
  N  N664  1  0.532000  0.060280  0.443180  1.0  -0.3845
  N  N665  1  0.399600  0.127360  0.399310  1.0  -0.3729
  N  N666  1  0.294600  0.187120  0.579590  1.0  -0.338
  N  N667  1  0.558200  0.072740  0.826220  1.0  -0.3863
  N  N668  1  0.383800  0.111160  0.872760  1.0  -0.3638
  N  N669  1  0.297700  0.193300  0.695780  1.0  -0.3165
  N  N670  1  0.923300  0.505110  0.630450  1.0  -0.3873
  N  N671  1  0.141100  0.521830  0.603930  1.0  -0.3757
  N  N672  1  0.150900  0.291120  0.643930  1.0  -0.3405
  F  F673  1  0.582400  0.349500  0.638700  1.0  -0.3701
  F  F674  1  0.455400  0.297100  0.650400  1.0  -0.4522
  F  F675  1  0.365700  0.335600  0.601800  1.0  -0.4038
  F  F676  1  0.490800  0.390800  0.595500  1.0  -0.4093
  F  F677  1  0.504700  0.311200  0.582600  1.0  -0.4078
  F  F678  1  0.422400  0.376900  0.655500  1.0  -0.398
  F  F679  1  0.917600  0.150500  0.138700  1.0  -0.372
  F  F680  1  0.044600  0.202900  0.150400  1.0  -0.4515
  F  F681  1  0.134300  0.164400  0.101800  1.0  -0.4039
  F  F682  1  0.009200  0.109200  0.095500  1.0  -0.4067
  F  F683  1  0.995300  0.188800  0.082600  1.0  -0.4073
  F  F684  1  0.077600  0.123100  0.155500  1.0  -0.3987
  F  F685  1  0.582400  0.650500  0.861300  1.0  -0.3704
  F  F686  1  0.455400  0.702900  0.849600  1.0  -0.4517
  F  F687  1  0.365700  0.664400  0.898200  1.0  -0.4018
  F  F688  1  0.490800  0.609200  0.904500  1.0  -0.4065
  F  F689  1  0.504700  0.688800  0.917400  1.0  -0.4066
  F  F690  1  0.422400  0.623100  0.844500  1.0  -0.3979
  F  F691  1  0.917600  0.849500  0.361300  1.0  -0.3719
  F  F692  1  0.044600  0.797100  0.349600  1.0  -0.4522
  F  F693  1  0.134300  0.835600  0.398200  1.0  -0.4025
  F  F694  1  0.009200  0.890800  0.404500  1.0  -0.4089
  F  F695  1  0.995300  0.811200  0.417400  1.0  -0.4072
  F  F696  1  0.077600  0.876900  0.344500  1.0  -0.3991
  F  F697  1  0.417600  0.650500  0.361300  1.0  -0.3727
  F  F698  1  0.544600  0.702900  0.349600  1.0  -0.4516
  F  F699  1  0.634300  0.664400  0.398200  1.0  -0.402
  F  F700  1  0.509200  0.609200  0.404500  1.0  -0.4081
  F  F701  1  0.495300  0.688800  0.417400  1.0  -0.4066
  F  F702  1  0.577600  0.623100  0.344500  1.0  -0.3984
  F  F703  1  0.082400  0.849500  0.861300  1.0  -0.37
  F  F704  1  0.955400  0.797100  0.849600  1.0  -0.4521
  F  F705  1  0.865700  0.835600  0.898200  1.0  -0.4024
  F  F706  1  0.990800  0.890800  0.904500  1.0  -0.407
  F  F707  1  0.004700  0.811200  0.917400  1.0  -0.4069
  F  F708  1  0.922400  0.876900  0.844500  1.0  -0.3991
  F  F709  1  0.417600  0.349500  0.138700  1.0  -0.3715
  F  F710  1  0.544600  0.297100  0.150400  1.0  -0.4523
  F  F711  1  0.634300  0.335600  0.101800  1.0  -0.4042
  F  F712  1  0.509200  0.390800  0.095500  1.0  -0.4102
  F  F713  1  0.495300  0.311200  0.082600  1.0  -0.4077
  F  F714  1  0.577600  0.376900  0.155500  1.0  -0.3984
  F  F715  1  0.082400  0.150500  0.638700  1.0  -0.3699
  F  F716  1  0.955400  0.202900  0.650400  1.0  -0.4515
  F  F717  1  0.865700  0.164400  0.601800  1.0  -0.4035
  F  F718  1  0.990800  0.109200  0.595500  1.0  -0.4055
  F  F719  1  0.004700  0.188800  0.582600  1.0  -0.4075
  F  F720  1  0.922400  0.123100  0.655500  1.0  -0.3981
