# generated using pymatgen
data_GaAgH30C43SN9(OF)3
_symmetry_space_group_name_H-M   'P 1'
_cell_length_a   37.28560000
_cell_length_b   37.28560000
_cell_length_c   14.96780000
_cell_angle_alpha   98.82960000
_cell_angle_beta   98.82960000
_cell_angle_gamma   126.82670000
_symmetry_Int_Tables_number   1
_chemical_formula_structural   GaAgH30C43SN9(OF)3
_chemical_formula_sum   'Ga12 Ag12 H360 C516 S12 N108 O36 F36'
_cell_volume   15645.93114920
_cell_formula_units_Z   12
loop_
 _symmetry_equiv_pos_site_id
 _symmetry_equiv_pos_as_xyz
  1  'x, y, z'
loop_
 _atom_site_type_symbol
 _atom_site_label
 _atom_site_symmetry_multiplicity
 _atom_site_fract_x
 _atom_site_fract_y
 _atom_site_fract_z
 _atom_site_occupancy
 _atom_site_charge
  Ga  Ga1  1  0.169900  0.119350  0.108690  1.0  1.1958
  Ga  Ga2  1  0.943570  0.388150  0.596320  1.0  1.2352
  Ga  Ga3  1  0.880650  0.830100  0.391310  1.0  1.1957
  Ga  Ga4  1  0.611850  0.056430  0.903680  1.0  1.2349
  Ga  Ga5  1  0.830100  0.880650  0.891310  1.0  1.1952
  Ga  Ga6  1  0.056430  0.611850  0.403680  1.0  1.2339
  Ga  Ga7  1  0.119350  0.169900  0.608690  1.0  1.1953
  Ga  Ga8  1  0.388150  0.943570  0.096320  1.0  1.2346
  Ga  Ga9  1  0.289390  0.710610  0.250000  1.0  1.2036
  Ga  Ga10  1  0.710610  0.289390  0.750000  1.0  1.2032
  Ga  Ga11  1  0.532190  0.467810  0.750000  1.0  1.2182
  Ga  Ga12  1  0.467810  0.532190  0.250000  1.0  1.2171
  Ag  Ag13  1  0.029090  0.277620  0.088510  1.0  0.385
  Ag  Ag14  1  0.458370  0.200850  0.978910  1.0  0.3804
  Ag  Ag15  1  0.722380  0.970910  0.411490  1.0  0.3853
  Ag  Ag16  1  0.799150  0.541630  0.521090  1.0  0.3808
  Ag  Ag17  1  0.970910  0.722380  0.911490  1.0  0.3853
  Ag  Ag18  1  0.541630  0.799150  0.021090  1.0  0.3803
  Ag  Ag19  1  0.277620  0.029090  0.588510  1.0  0.3843
  Ag  Ag20  1  0.200850  0.458370  0.478910  1.0  0.3805
  Ag  Ag21  1  0.140490  0.859510  0.250000  1.0  0.3526
  Ag  Ag22  1  0.859510  0.140490  0.750000  1.0  0.352
  Ag  Ag23  1  0.382600  0.617400  0.750000  1.0  0.3105
  Ag  Ag24  1  0.617400  0.382600  0.250000  1.0  0.3098
  H  H25  1  0.114800  0.073600  0.886100  1.0  0.1066
  H  H26  1  0.064400  0.087200  0.792900  1.0  0.1106
  H  H27  1  0.064300  0.143500  0.908800  1.0  0.1074
  H  H28  1  0.131000  0.213800  0.296100  1.0  0.1136
  H  H29  1  0.180700  0.210300  0.418500  1.0  0.0871
  H  H30  1  0.202900  0.166100  0.333900  1.0  0.0994
  H  H31  1  0.023900  0.133100  0.060300  1.0  0.1225
  H  H32  1  0.994600  0.174200  0.056300  1.0  0.0795
  H  H33  1  0.122400  0.294000  0.135100  1.0  0.0825
  H  H34  1  0.154000  0.256400  0.146000  1.0  0.1139
  H  H35  1  0.118200  0.013600  0.975500  1.0  0.0972
  H  H36  1  0.158800  0.987400  0.899600  1.0  0.1152
  H  H37  1  0.240600  0.059800  0.929600  1.0  0.1133
  H  H38  1  0.326600  0.245400  0.060300  1.0  0.1147
  H  H39  1  0.299600  0.288600  0.125000  1.0  0.1048
  H  H40  1  0.220400  0.227800  0.140300  1.0  0.1004
  H  H41  1  0.303300  0.178500  0.891700  1.0  0.1025
  H  H42  1  0.367000  0.184800  0.864800  1.0  0.0621
  H  H43  1  0.391200  0.161800  0.102100  1.0  0.0839
  H  H44  1  0.322900  0.145500  0.126800  1.0  0.1228
  H  H45  1  0.279900  0.194700  0.249000  1.0  0.1084
  H  H46  1  0.321600  0.171600  0.340400  1.0  0.1004
  H  H47  1  0.263100  0.086500  0.323000  1.0  0.124
  H  H48  1  0.072000  0.958400  0.164900  1.0  0.108
  H  H49  1  0.012800  0.964600  0.085600  1.0  0.117
  H  H50  1  0.057100  0.043500  0.060000  1.0  0.1082
  H  H51  1  0.194700  0.999900  0.133300  1.0  0.1178
  H  H52  1  0.193300  0.940300  0.161900  1.0  0.0755
  H  H53  1  0.119200  0.924600  0.347000  1.0  0.1228
  H  H54  1  0.120200  0.985400  0.314400  1.0  0.1131
  H  H55  1  0.978100  0.469300  0.780300  1.0  0.1053
  H  H56  1  0.005900  0.475300  0.949400  1.0  0.1002
  H  H57  1  0.999400  0.404400  0.947900  1.0  0.1359
  H  H58  1  0.929200  0.248800  0.664700  1.0  0.1162
  H  H59  1  0.886700  0.219900  0.491400  1.0  0.1111
  H  H60  1  0.885600  0.282600  0.454000  1.0  0.1027
  H  H61  1  0.908900  0.270900  0.840000  1.0  0.1172
  H  H62  1  0.934700  0.246900  0.948900  1.0  0.0792
  H  H63  1  0.065400  0.340200  0.953500  1.0  0.0765
  H  H64  1  0.042900  0.366700  0.845800  1.0  0.1213
  H  H65  1  0.038300  0.492100  0.626000  1.0  0.0999
  H  H66  1  0.046000  0.563400  0.630700  1.0  0.1089
  H  H67  1  0.965600  0.539600  0.601800  1.0  0.1286
  H  H68  1  0.793400  0.371600  0.542400  1.0  0.1101
  H  H69  1  0.767400  0.292600  0.542100  1.0  0.1096
  H  H70  1  0.839200  0.299000  0.576000  1.0  0.105
  H  H71  1  0.875200  0.468400  0.433700  1.0  0.1289
  H  H72  1  0.840100  0.502500  0.416300  1.0  0.092
  H  H73  1  0.829000  0.506400  0.673200  1.0  0.0917
  H  H74  1  0.859500  0.468100  0.693500  1.0  0.1237
  H  H75  1  0.865600  0.357400  0.409800  1.0  0.0966
  H  H76  1  0.858400  0.325600  0.242300  1.0  0.113
  H  H77  1  0.927300  0.328100  0.248000  1.0  0.1282
  H  H78  1  0.077800  0.390800  0.537900  1.0  0.1333
  H  H79  1  0.108900  0.437700  0.708300  1.0  0.1115
  H  H80  1  0.048100  0.443100  0.741900  1.0  0.0971
  H  H81  1  0.068400  0.408400  0.378300  1.0  0.1065
  H  H82  1  0.085500  0.375100  0.266100  1.0  0.0743
  H  H83  1  0.967200  0.248800  0.223900  1.0  0.0709
  H  H84  1  0.947000  0.277400  0.335500  1.0  0.1248
  H  H85  1  0.320100  0.786700  0.441000  1.0  0.096
  H  H86  1  0.346900  0.787900  0.606700  1.0  0.1104
  H  H87  1  0.337500  0.714900  0.592300  1.0  0.1208
  H  H88  1  0.267700  0.565300  0.298600  1.0  0.1178
  H  H89  1  0.230000  0.541600  0.124100  1.0  0.1161
  H  H90  1  0.234900  0.607900  0.092800  1.0  0.0985
  H  H91  1  0.252100  0.595900  0.501600  1.0  0.1121
  H  H92  1  0.281600  0.577600  0.618800  1.0  0.0698
  H  H93  1  0.404900  0.651900  0.582600  1.0  0.0733
  H  H94  1  0.380000  0.671800  0.460100  1.0  0.1357
  H  H95  1  0.183500  0.617300  0.209900  1.0  0.1054
  H  H96  1  0.110900  0.609700  0.177400  1.0  0.1118
  H  H97  1  0.137300  0.690900  0.199600  1.0  0.116
  H  H98  1  0.203200  0.781400  0.378400  1.0  0.1217
  H  H99  1  0.171100  0.818300  0.376400  1.0  0.0757
  H  H100  1  0.640500  0.528500  0.873000  1.0  0.096
  H  H101  1  0.676200  0.501400  0.967700  1.0  0.1173
  H  H102  1  0.608600  0.420200  0.964200  1.0  0.1015
  H  H103  1  0.419900  0.313900  0.826900  1.0  0.1128
  H  H104  1  0.367400  0.323400  0.730500  1.0  0.1167
  H  H105  1  0.419600  0.400200  0.699100  1.0  0.1021
  H  H106  1  0.525000  0.377200  0.043600  1.0  0.1012
  H  H107  1  0.510400  0.313400  0.085400  1.0  0.0779
  H  H108  1  0.483500  0.247700  0.824400  1.0  0.0618
  H  H109  1  0.495400  0.307800  0.770000  1.0  0.1302
  H  H110  1  0.478800  0.426400  0.528900  1.0  0.0956
  H  H111  1  0.428700  0.442100  0.437400  1.0  0.1136
  H  H112  1  0.426900  0.494300  0.559700  1.0  0.1034
  H  H113  1  0.499200  0.591200  0.686900  1.0  0.1282
  H  H114  1  0.463800  0.626600  0.694100  1.0  0.0819
  H  H115  1  0.926400  0.885200  0.613900  1.0  0.1041
  H  H116  1  0.912800  0.935600  0.707100  1.0  0.1107
  H  H117  1  0.856500  0.935700  0.591200  1.0  0.1075
  H  H118  1  0.786200  0.869000  0.203900  1.0  0.1136
  H  H119  1  0.789700  0.819300  0.081500  1.0  0.0866
  H  H120  1  0.833900  0.797100  0.166100  1.0  0.1018
  H  H121  1  0.866900  0.976100  0.439700  1.0  0.1222
  H  H122  1  0.825800  0.005400  0.443700  1.0  0.0797
  H  H123  1  0.706000  0.877600  0.364900  1.0  0.0809
  H  H124  1  0.743600  0.846000  0.354000  1.0  0.1137
  H  H125  1  0.986400  0.881800  0.524500  1.0  0.0977
  H  H126  1  0.012600  0.841200  0.600400  1.0  0.114
  H  H127  1  0.940200  0.759400  0.570400  1.0  0.1139
  H  H128  1  0.754600  0.673400  0.439700  1.0  0.1143
  H  H129  1  0.711400  0.700400  0.375000  1.0  0.1028
  H  H130  1  0.772200  0.779600  0.359700  1.0  0.0974
  H  H131  1  0.821500  0.696700  0.608300  1.0  0.1031
  H  H132  1  0.815200  0.633000  0.635200  1.0  0.0629
  H  H133  1  0.838200  0.608800  0.397900  1.0  0.0843
  H  H134  1  0.854500  0.677100  0.373200  1.0  0.124
  H  H135  1  0.805300  0.720100  0.251000  1.0  0.107
  H  H136  1  0.828400  0.678400  0.159600  1.0  0.1007
  H  H137  1  0.913500  0.736900  0.177000  1.0  0.1237
  H  H138  1  0.041600  0.928000  0.335100  1.0  0.107
  H  H139  1  0.035400  0.987200  0.414400  1.0  0.1172
  H  H140  1  0.956500  0.942900  0.440000  1.0  0.1088
  H  H141  1  0.000100  0.805300  0.366700  1.0  0.116
  H  H142  1  0.059700  0.806700  0.338100  1.0  0.076
  H  H143  1  0.075400  0.880800  0.153000  1.0  0.1224
  H  H144  1  0.014600  0.879800  0.185600  1.0  0.1123
  H  H145  1  0.530700  0.021900  0.719700  1.0  0.1034
  H  H146  1  0.524700  0.994100  0.550600  1.0  0.0983
  H  H147  1  0.595600  0.000600  0.552100  1.0  0.1363
  H  H148  1  0.751200  0.070800  0.835300  1.0  0.1155
  H  H149  1  0.780100  0.113300  0.008600  1.0  0.111
  H  H150  1  0.717400  0.114400  0.046000  1.0  0.1012
  H  H151  1  0.729100  0.091100  0.660000  1.0  0.1171
  H  H152  1  0.753100  0.065300  0.551100  1.0  0.0794
  H  H153  1  0.659800  0.934600  0.546500  1.0  0.0767
  H  H154  1  0.633300  0.957100  0.654200  1.0  0.1176
  H  H155  1  0.507900  0.961700  0.874000  1.0  0.0994
  H  H156  1  0.436600  0.954000  0.869300  1.0  0.1088
  H  H157  1  0.460400  0.034400  0.898200  1.0  0.1279
  H  H158  1  0.628400  0.206600  0.957600  1.0  0.1108
  H  H159  1  0.707400  0.232600  0.957900  1.0  0.1099
  H  H160  1  0.701000  0.160800  0.924000  1.0  0.1052
  H  H161  1  0.531600  0.124800  0.066300  1.0  0.1281
  H  H162  1  0.497500  0.159900  0.083700  1.0  0.0925
  H  H163  1  0.493600  0.171000  0.826800  1.0  0.0918
  H  H164  1  0.531900  0.140500  0.806500  1.0  0.1255
  H  H165  1  0.642600  0.134400  0.090200  1.0  0.1
  H  H166  1  0.674400  0.141600  0.257700  1.0  0.1158
  H  H167  1  0.671900  0.072700  0.252000  1.0  0.1278
  H  H168  1  0.609200  0.922200  0.962100  1.0  0.1329
  H  H169  1  0.562300  0.891100  0.791700  1.0  0.1119
  H  H170  1  0.556900  0.951900  0.758100  1.0  0.0985
  H  H171  1  0.591600  0.931600  0.121700  1.0  0.1059
  H  H172  1  0.624900  0.914500  0.233900  1.0  0.0745
  H  H173  1  0.751200  0.032800  0.276100  1.0  0.0697
  H  H174  1  0.722600  0.053000  0.164500  1.0  0.1242
  H  H175  1  0.213300  0.679900  0.059000  1.0  0.0945
  H  H176  1  0.212100  0.653100  0.893300  1.0  0.1079
  H  H177  1  0.285100  0.662500  0.907700  1.0  0.122
  H  H178  1  0.434700  0.732300  0.201400  1.0  0.117
  H  H179  1  0.458400  0.770000  0.375900  1.0  0.1156
  H  H180  1  0.392100  0.765100  0.407200  1.0  0.0967
  H  H181  1  0.404100  0.747900  0.998400  1.0  0.1132
  H  H182  1  0.422400  0.718400  0.881200  1.0  0.0687
  H  H183  1  0.348100  0.595100  0.917400  1.0  0.073
  H  H184  1  0.328200  0.620000  0.039900  1.0  0.1356
  H  H185  1  0.382700  0.816500  0.290100  1.0  0.1053
  H  H186  1  0.390300  0.889100  0.322600  1.0  0.1089
  H  H187  1  0.309100  0.862700  0.300400  1.0  0.1162
  H  H188  1  0.218600  0.796800  0.121600  1.0  0.1245
  H  H189  1  0.181700  0.828900  0.123600  1.0  0.0752
  H  H190  1  0.471500  0.359500  0.627000  1.0  0.0948
  H  H191  1  0.498600  0.323800  0.532300  1.0  0.1192
  H  H192  1  0.579800  0.391400  0.535800  1.0  0.1014
  H  H193  1  0.686100  0.580100  0.673100  1.0  0.1125
  H  H194  1  0.676600  0.632600  0.769500  1.0  0.1196
  H  H195  1  0.599800  0.580400  0.800900  1.0  0.1031
  H  H196  1  0.622800  0.475000  0.456400  1.0  0.1007
  H  H197  1  0.686600  0.489600  0.414600  1.0  0.0774
  H  H198  1  0.752300  0.516500  0.675600  1.0  0.0618
  H  H199  1  0.692200  0.504600  0.730000  1.0  0.1296
  H  H200  1  0.573600  0.521200  0.971100  1.0  0.0938
  H  H201  1  0.557900  0.571300  0.062600  1.0  0.1124
  H  H202  1  0.505700  0.573100  0.940300  1.0  0.105
  H  H203  1  0.408800  0.500800  0.813100  1.0  0.1269
  H  H204  1  0.373400  0.536200  0.805900  1.0  0.081
  H  H205  1  0.885200  0.926400  0.113900  1.0  0.1066
  H  H206  1  0.935600  0.912800  0.207100  1.0  0.1103
  H  H207  1  0.935700  0.856500  0.091200  1.0  0.1076
  H  H208  1  0.869000  0.786200  0.703900  1.0  0.1137
  H  H209  1  0.819300  0.789700  0.581500  1.0  0.0861
  H  H210  1  0.797100  0.833900  0.666100  1.0  0.099
  H  H211  1  0.976100  0.866900  0.939700  1.0  0.1228
  H  H212  1  0.005400  0.825800  0.943700  1.0  0.079
  H  H213  1  0.877600  0.706000  0.864900  1.0  0.0826
  H  H214  1  0.846000  0.743600  0.854000  1.0  0.1135
  H  H215  1  0.881800  0.986400  0.024500  1.0  0.0984
  H  H216  1  0.841200  0.012600  0.100400  1.0  0.1159
  H  H217  1  0.759400  0.940200  0.070400  1.0  0.1135
  H  H218  1  0.673400  0.754600  0.939700  1.0  0.1154
  H  H219  1  0.700400  0.711400  0.875000  1.0  0.1055
  H  H220  1  0.779600  0.772200  0.859700  1.0  0.1003
  H  H221  1  0.696700  0.821500  0.108300  1.0  0.1024
  H  H222  1  0.633000  0.815200  0.135200  1.0  0.0627
  H  H223  1  0.608800  0.838200  0.897900  1.0  0.0839
  H  H224  1  0.677100  0.854500  0.873200  1.0  0.124
  H  H225  1  0.720100  0.805300  0.751000  1.0  0.1071
  H  H226  1  0.678400  0.828400  0.659600  1.0  0.0989
  H  H227  1  0.736900  0.913500  0.677000  1.0  0.1238
  H  H228  1  0.928000  0.041600  0.835100  1.0  0.108
  H  H229  1  0.987200  0.035400  0.914400  1.0  0.1171
  H  H230  1  0.942900  0.956500  0.940000  1.0  0.1079
  H  H231  1  0.805300  0.000100  0.866700  1.0  0.1174
  H  H232  1  0.806700  0.059700  0.838100  1.0  0.0765
  H  H233  1  0.880800  0.075400  0.653000  1.0  0.1224
  H  H234  1  0.879800  0.014600  0.685600  1.0  0.1133
  H  H235  1  0.021900  0.530700  0.219700  1.0  0.1044
  H  H236  1  0.994100  0.524700  0.050600  1.0  0.099
  H  H237  1  0.000600  0.595600  0.052100  1.0  0.1357
  H  H238  1  0.070800  0.751200  0.335300  1.0  0.1159
  H  H239  1  0.113300  0.780100  0.508600  1.0  0.1114
  H  H240  1  0.114400  0.717400  0.546000  1.0  0.1032
  H  H241  1  0.091100  0.729100  0.160000  1.0  0.1172
  H  H242  1  0.065300  0.753100  0.051100  1.0  0.0789
  H  H243  1  0.934600  0.659800  0.046500  1.0  0.076
  H  H244  1  0.957100  0.633300  0.154200  1.0  0.1208
  H  H245  1  0.961700  0.507900  0.374000  1.0  0.1002
  H  H246  1  0.954000  0.436600  0.369300  1.0  0.108
  H  H247  1  0.034400  0.460400  0.398200  1.0  0.1281
  H  H248  1  0.206600  0.628400  0.457600  1.0  0.11
  H  H249  1  0.232600  0.707400  0.457900  1.0  0.1151
  H  H250  1  0.160800  0.701000  0.424000  1.0  0.1059
  H  H251  1  0.124800  0.531600  0.566300  1.0  0.1286
  H  H252  1  0.159900  0.497500  0.583700  1.0  0.0921
  H  H253  1  0.171000  0.493600  0.326800  1.0  0.092
  H  H254  1  0.140500  0.531900  0.306500  1.0  0.1245
  H  H255  1  0.134400  0.642600  0.590200  1.0  0.0978
  H  H256  1  0.141600  0.674400  0.757700  1.0  0.1136
  H  H257  1  0.072700  0.671900  0.752000  1.0  0.1288
  H  H258  1  0.922200  0.609200  0.462100  1.0  0.1326
  H  H259  1  0.891100  0.562300  0.291700  1.0  0.111
  H  H260  1  0.951900  0.556900  0.258100  1.0  0.0972
  H  H261  1  0.931600  0.591600  0.621700  1.0  0.1064
  H  H262  1  0.914500  0.624900  0.733900  1.0  0.0742
  H  H263  1  0.032800  0.751200  0.776100  1.0  0.0709
  H  H264  1  0.053000  0.722600  0.664500  1.0  0.1258
  H  H265  1  0.679900  0.213300  0.559000  1.0  0.0966
  H  H266  1  0.653100  0.212100  0.393300  1.0  0.1091
  H  H267  1  0.662500  0.285100  0.407700  1.0  0.1212
  H  H268  1  0.732300  0.434700  0.701400  1.0  0.118
  H  H269  1  0.770000  0.458400  0.875900  1.0  0.1171
  H  H270  1  0.765100  0.392100  0.907200  1.0  0.0987
  H  H271  1  0.747900  0.404100  0.498400  1.0  0.1126
  H  H272  1  0.718400  0.422400  0.381200  1.0  0.0689
  H  H273  1  0.595100  0.348100  0.417400  1.0  0.0733
  H  H274  1  0.620000  0.328200  0.539900  1.0  0.1362
  H  H275  1  0.816500  0.382700  0.790100  1.0  0.1056
  H  H276  1  0.889100  0.390300  0.822600  1.0  0.1112
  H  H277  1  0.862700  0.309100  0.800400  1.0  0.1161
  H  H278  1  0.796800  0.218600  0.621600  1.0  0.1229
  H  H279  1  0.828900  0.181700  0.623600  1.0  0.0762
  H  H280  1  0.359500  0.471500  0.127000  1.0  0.0949
  H  H281  1  0.323800  0.498600  0.032300  1.0  0.117
  H  H282  1  0.391400  0.579800  0.035800  1.0  0.1016
  H  H283  1  0.580100  0.686100  0.173100  1.0  0.113
  H  H284  1  0.632600  0.676600  0.269500  1.0  0.1168
  H  H285  1  0.580400  0.599800  0.300900  1.0  0.1027
  H  H286  1  0.475000  0.622800  0.956400  1.0  0.1007
  H  H287  1  0.489600  0.686600  0.914600  1.0  0.0777
  H  H288  1  0.516500  0.752300  0.175600  1.0  0.0621
  H  H289  1  0.504600  0.692200  0.230000  1.0  0.1286
  H  H290  1  0.521200  0.573600  0.471100  1.0  0.0958
  H  H291  1  0.571300  0.557900  0.562600  1.0  0.1142
  H  H292  1  0.573100  0.505700  0.440300  1.0  0.1032
  H  H293  1  0.500800  0.408800  0.313100  1.0  0.1272
  H  H294  1  0.536200  0.373400  0.305900  1.0  0.081
  H  H295  1  0.073600  0.114800  0.386100  1.0  0.1038
  H  H296  1  0.087200  0.064400  0.292900  1.0  0.1107
  H  H297  1  0.143500  0.064300  0.408800  1.0  0.1071
  H  H298  1  0.213800  0.131000  0.796100  1.0  0.1137
  H  H299  1  0.210300  0.180700  0.918500  1.0  0.0872
  H  H300  1  0.166100  0.202900  0.833900  1.0  0.1023
  H  H301  1  0.133100  0.023900  0.560300  1.0  0.1213
  H  H302  1  0.174200  0.994600  0.556300  1.0  0.0805
  H  H303  1  0.294000  0.122400  0.635100  1.0  0.0819
  H  H304  1  0.256400  0.154000  0.646000  1.0  0.113
  H  H305  1  0.013600  0.118200  0.475500  1.0  0.0976
  H  H306  1  0.987400  0.158800  0.399600  1.0  0.1141
  H  H307  1  0.059800  0.240600  0.429600  1.0  0.1123
  H  H308  1  0.245400  0.326600  0.560300  1.0  0.1138
  H  H309  1  0.288600  0.299600  0.625000  1.0  0.102
  H  H310  1  0.227800  0.220400  0.640300  1.0  0.0987
  H  H311  1  0.178500  0.303300  0.391700  1.0  0.1027
  H  H312  1  0.184800  0.367000  0.364800  1.0  0.0628
  H  H313  1  0.161800  0.391200  0.602100  1.0  0.0837
  H  H314  1  0.145500  0.322900  0.626800  1.0  0.1237
  H  H315  1  0.194700  0.279900  0.749000  1.0  0.1089
  H  H316  1  0.171600  0.321600  0.840400  1.0  0.1016
  H  H317  1  0.086500  0.263100  0.823000  1.0  0.1236
  H  H318  1  0.958400  0.072000  0.664900  1.0  0.1074
  H  H319  1  0.964600  0.012800  0.585600  1.0  0.1182
  H  H320  1  0.043500  0.057100  0.560000  1.0  0.1088
  H  H321  1  0.999900  0.194700  0.633300  1.0  0.1165
  H  H322  1  0.940300  0.193300  0.661900  1.0  0.076
  H  H323  1  0.924600  0.119200  0.847000  1.0  0.1228
  H  H324  1  0.985400  0.120200  0.814400  1.0  0.113
  H  H325  1  0.469300  0.978100  0.280300  1.0  0.1038
  H  H326  1  0.475300  0.005900  0.449400  1.0  0.0989
  H  H327  1  0.404400  0.999400  0.447900  1.0  0.1365
  H  H328  1  0.248800  0.929200  0.164700  1.0  0.1153
  H  H329  1  0.219900  0.886700  0.991400  1.0  0.111
  H  H330  1  0.282600  0.885600  0.954000  1.0  0.1014
  H  H331  1  0.270900  0.908900  0.340000  1.0  0.1181
  H  H332  1  0.246900  0.934700  0.448900  1.0  0.0795
  H  H333  1  0.340200  0.065400  0.453500  1.0  0.078
  H  H334  1  0.366700  0.042900  0.345800  1.0  0.1218
  H  H335  1  0.492100  0.038300  0.126000  1.0  0.1001
  H  H336  1  0.563400  0.046000  0.130700  1.0  0.1085
  H  H337  1  0.539600  0.965600  0.101800  1.0  0.1282
  H  H338  1  0.371600  0.793400  0.042400  1.0  0.1104
  H  H339  1  0.292600  0.767400  0.042100  1.0  0.1137
  H  H340  1  0.299000  0.839200  0.076000  1.0  0.1034
  H  H341  1  0.468400  0.875200  0.933700  1.0  0.1283
  H  H342  1  0.502500  0.840100  0.916300  1.0  0.0927
  H  H343  1  0.506400  0.829000  0.173200  1.0  0.0921
  H  H344  1  0.468100  0.859500  0.193500  1.0  0.1244
  H  H345  1  0.357400  0.865600  0.909800  1.0  0.1001
  H  H346  1  0.325600  0.858400  0.742300  1.0  0.1162
  H  H347  1  0.328100  0.927300  0.748000  1.0  0.1281
  H  H348  1  0.390800  0.077800  0.037900  1.0  0.1328
  H  H349  1  0.437700  0.108900  0.208300  1.0  0.1127
  H  H350  1  0.443100  0.048100  0.241900  1.0  0.0992
  H  H351  1  0.408400  0.068400  0.878300  1.0  0.1061
  H  H352  1  0.375100  0.085500  0.766100  1.0  0.0749
  H  H353  1  0.248800  0.967200  0.723900  1.0  0.0698
  H  H354  1  0.277400  0.947000  0.835500  1.0  0.1244
  H  H355  1  0.786700  0.320100  0.941000  1.0  0.094
  H  H356  1  0.787900  0.346900  0.106700  1.0  0.108
  H  H357  1  0.714900  0.337500  0.092300  1.0  0.1221
  H  H358  1  0.565300  0.267700  0.798600  1.0  0.1175
  H  H359  1  0.541600  0.230000  0.624100  1.0  0.1154
  H  H360  1  0.607900  0.234900  0.592800  1.0  0.097
  H  H361  1  0.595900  0.252100  0.001600  1.0  0.1125
  H  H362  1  0.577600  0.281600  0.118800  1.0  0.0695
  H  H363  1  0.651900  0.404900  0.082600  1.0  0.0731
  H  H364  1  0.671800  0.380000  0.960100  1.0  0.135
  H  H365  1  0.617300  0.183500  0.709900  1.0  0.1049
  H  H366  1  0.609700  0.110900  0.677400  1.0  0.1088
  H  H367  1  0.690900  0.137300  0.699600  1.0  0.1159
  H  H368  1  0.781400  0.203200  0.878400  1.0  0.1231
  H  H369  1  0.818300  0.171100  0.876400  1.0  0.075
  H  H370  1  0.528500  0.640500  0.373000  1.0  0.0961
  H  H371  1  0.501400  0.676200  0.467700  1.0  0.1204
  H  H372  1  0.420200  0.608600  0.464200  1.0  0.1024
  H  H373  1  0.313900  0.419900  0.326900  1.0  0.1123
  H  H374  1  0.323400  0.367400  0.230500  1.0  0.1197
  H  H375  1  0.400200  0.419600  0.199100  1.0  0.1036
  H  H376  1  0.377200  0.525000  0.543600  1.0  0.101
  H  H377  1  0.313400  0.510400  0.585400  1.0  0.0768
  H  H378  1  0.247700  0.483500  0.324400  1.0  0.0614
  H  H379  1  0.307800  0.495400  0.270000  1.0  0.131
  H  H380  1  0.426400  0.478800  0.028900  1.0  0.0929
  H  H381  1  0.442100  0.428700  0.937400  1.0  0.1139
  H  H382  1  0.494300  0.426900  0.059700  1.0  0.1047
  H  H383  1  0.591200  0.499200  0.186900  1.0  0.1279
  H  H384  1  0.626600  0.463800  0.194100  1.0  0.0816
  C  C385  1  0.107550  0.092370  0.913200  1.0  0.0589
  C  C386  1  0.079730  0.100230  0.859500  1.0  -0.1446
  C  C387  1  0.079320  0.130720  0.923600  1.0  -0.1799
  C  C388  1  0.106070  0.139870  0.018000  1.0  0.1321
  C  C389  1  0.113870  0.166590  0.104400  1.0  -0.0902
  C  C390  1  0.138740  0.173840  0.194300  1.0  0.1569
  C  C391  1  0.144160  0.198860  0.285000  1.0  -0.1701
  C  C392  1  0.171370  0.197090  0.351600  1.0  -0.1082
  C  C393  1  0.183400  0.171940  0.303600  1.0  0.0115
  C  C394  1  0.092360  0.190920  0.101300  1.0  0.0759
  C  C395  1  0.045090  0.166450  0.076100  1.0  -0.1369
  C  C396  1  0.027680  0.191400  0.073800  1.0  0.1457
  C  C397  1  0.101580  0.260720  0.120100  1.0  0.1342
  C  C398  1  0.120770  0.238190  0.125300  1.0  -0.1541
  C  C399  1  0.149820  0.034280  0.974500  1.0  0.0444
  C  C400  1  0.172280  0.018820  0.931800  1.0  -0.1562
  C  C401  1  0.216540  0.058400  0.947400  1.0  -0.1364
  C  C402  1  0.221340  0.097860  0.994600  1.0  0.115
  C  C403  1  0.260360  0.145740  0.019200  1.0  -0.0622
  C  C404  1  0.261380  0.182580  0.058500  1.0  0.1794
  C  C405  1  0.297580  0.231640  0.073000  1.0  -0.1967
  C  C406  1  0.282980  0.255600  0.109000  1.0  -0.0931
  C  C407  1  0.238740  0.221300  0.116800  1.0  0.0461
  C  C408  1  0.304290  0.157150  0.004300  1.0  0.1145
  C  C409  1  0.319200  0.172180  0.933700  1.0  -0.1817
  C  C410  1  0.359610  0.178790  0.921500  1.0  0.1579
  C  C411  1  0.372350  0.164210  0.057000  1.0  0.1502
  C  C412  1  0.331600  0.154040  0.072600  1.0  -0.1906
  C  C413  1  0.265490  0.164150  0.254300  1.0  -0.0164
  C  C414  1  0.288970  0.151190  0.305500  1.0  -0.1405
  C  C415  1  0.257080  0.104660  0.296400  1.0  -0.1596
  C  C416  1  0.211310  0.087770  0.237300  1.0  0.1596
  C  C417  1  0.168020  0.043140  0.214200  1.0  -0.1098
  C  C418  1  0.124440  0.029060  0.169300  1.0  0.1217
  C  C419  1  0.078840  0.985200  0.149600  1.0  -0.1724
  C  C420  1  0.046150  0.988210  0.104400  1.0  -0.1025
  C  C421  1  0.071210  0.032590  0.091700  1.0  0.0548
  C  C422  1  0.168810  0.005870  0.238000  1.0  0.0104
  C  C423  1  0.183870  0.988110  0.183400  1.0  -0.1748
  C  C424  1  0.183220  0.952720  0.201600  1.0  0.1846
  C  C425  1  0.137800  0.943200  0.311200  1.0  -0.0021
  C  C426  1  0.138850  0.978750  0.292300  1.0  -0.1439
  C  C427  1  0.978200  0.446360  0.800000  1.0  0.0303
  C  C428  1  0.994360  0.450260  0.894900  1.0  -0.0786
  C  C429  1  0.990470  0.411270  0.894400  1.0  -0.1569
  C  C430  1  0.969990  0.382890  0.796300  1.0  0.1978
  C  C431  1  0.958670  0.339570  0.762400  1.0  -0.0799
  C  C432  1  0.935930  0.310530  0.667400  1.0  0.1204
  C  C433  1  0.922950  0.264830  0.630100  1.0  -0.1732
  C  C434  1  0.899960  0.249220  0.535500  1.0  -0.1012
  C  C435  1  0.899520  0.284600  0.515300  1.0  0.0378
  C  C436  1  0.973560  0.321960  0.833400  1.0  0.0815
  C  C437  1  0.941520  0.286000  0.863200  1.0  -0.1801
  C  C438  1  0.957200  0.271800  0.927800  1.0  0.1447
  C  C439  1  0.033020  0.326020  0.930600  1.0  0.1474
  C  C440  1  0.020020  0.342040  0.866700  1.0  -0.1972
  C  C441  1  0.012790  0.492450  0.617400  1.0  0.0513
  C  C442  1  0.017450  0.532630  0.620000  1.0  -0.1001
  C  C443  1  0.973480  0.519680  0.604300  1.0  -0.1732
  C  C444  1  0.941460  0.470040  0.592300  1.0  0.1426
  C  C445  1  0.893760  0.441740  0.579200  1.0  -0.0489
  C  C446  1  0.863410  0.395170  0.575900  1.0  0.1091
  C  C447  1  0.813240  0.363640  0.554200  1.0  -0.17
  C  C448  1  0.798860  0.320260  0.553500  1.0  -0.103
  C  C449  1  0.839500  0.324440  0.573000  1.0  0.0636
  C  C450  1  0.870770  0.464810  0.566900  1.0  0.0426
  C  C451  1  0.865230  0.475350  0.483300  1.0  -0.1907
  C  C452  1  0.844960  0.496040  0.473900  1.0  0.1557
  C  C453  1  0.837860  0.497740  0.623400  1.0  0.1531
  C  C454  1  0.856590  0.475610  0.636400  1.0  -0.1449
  C  C455  1  0.887310  0.354570  0.391600  1.0  0.0388
  C  C456  1  0.882940  0.336680  0.297600  1.0  -0.111
  C  C457  1  0.920670  0.338130  0.300800  1.0  -0.1855
  C  C458  1  0.948370  0.357550  0.398800  1.0  0.1524
  C  C459  1  0.990200  0.365360  0.435800  1.0  -0.0521
  C  C460  1  0.019400  0.389060  0.531600  1.0  0.1427
  C  C461  1  0.063110  0.399690  0.570700  1.0  -0.1514
  C  C462  1  0.079900  0.424820  0.663800  1.0  -0.1076
  C  C463  1  0.045640  0.427980  0.681300  1.0  0.0365
  C  C464  1  0.005050  0.347050  0.368700  1.0  0.0961
  C  C465  1  0.046770  0.375370  0.347200  1.0  -0.1879
  C  C466  1  0.056720  0.355160  0.279800  1.0  0.1402
  C  C467  1  0.988000  0.281760  0.255800  1.0  0.1532
  C  C468  1  0.975480  0.298580  0.321800  1.0  -0.1943
  C  C469  1  0.319640  0.762660  0.456100  1.0  0.0229
  C  C470  1  0.335060  0.763860  0.549500  1.0  -0.0902
  C  C471  1  0.329630  0.723970  0.541500  1.0  -0.1717
  C  C472  1  0.310050  0.698250  0.443100  1.0  0.1736
  C  C473  1  0.298940  0.655320  0.402300  1.0  -0.1086
  C  C474  1  0.278320  0.628780  0.307700  1.0  0.1756
  C  C475  1  0.263850  0.583350  0.266000  1.0  -0.1547
  C  C476  1  0.243420  0.570440  0.170300  1.0  -0.0918
  C  C477  1  0.246060  0.607580  0.153900  1.0  0.0498
  C  C478  1  0.313340  0.637440  0.471000  1.0  0.109
  C  C479  1  0.283980  0.608460  0.517200  1.0  -0.2029
  C  C480  1  0.302110  0.597910  0.587600  1.0  0.1733
  C  C481  1  0.373460  0.640820  0.565900  1.0  0.1667
  C  C482  1  0.359180  0.653240  0.493100  1.0  -0.2081
  C  C483  1  0.183420  0.642920  0.212700  1.0  0.0533
  C  C484  1  0.142420  0.638160  0.194600  1.0  -0.0974
  C  C485  1  0.156950  0.682630  0.206500  1.0  -0.1828
  C  C486  1  0.207340  0.714420  0.231400  1.0  0.1419
  C  C487  1  0.199900  0.791580  0.325600  1.0  -0.2196
  C  C488  1  0.180150  0.813070  0.323200  1.0  0.1691
  C  C489  1  0.623000  0.498840  0.884300  1.0  0.075
  C  C490  1  0.643620  0.484320  0.937300  1.0  -0.1198
  C  C491  1  0.606450  0.440190  0.935600  1.0  -0.1618
  C  C492  1  0.564410  0.429450  0.883700  1.0  0.169
  C  C493  1  0.518110  0.388570  0.868300  1.0  -0.0175
  C  C494  1  0.477010  0.379690  0.817800  1.0  0.1485
  C  C495  1  0.429640  0.339740  0.803600  1.0  -0.1706
  C  C496  1  0.400890  0.344730  0.751400  1.0  -0.1169
  C  C497  1  0.430770  0.387910  0.734600  1.0  0.0547
  C  C498  1  0.511160  0.350320  0.903300  1.0  0.0626
  C  C499  1  0.515850  0.350710  0.996100  1.0  -0.192
  C  C500  1  0.507180  0.312380  0.020700  1.0  0.164
  C  C501  1  0.491390  0.274350  0.869100  1.0  0.1681
  C  C502  1  0.498590  0.309910  0.835200  1.0  -0.1865
  C  C503  1  0.472380  0.445760  0.556700  1.0  0.0718
  C  C504  1  0.443870  0.453970  0.504100  1.0  -0.1366
  C  C505  1  0.443530  0.482810  0.571500  1.0  -0.0515
  C  C506  1  0.471600  0.492920  0.661400  1.0  0.1585
  C  C507  1  0.474070  0.579750  0.713300  1.0  -0.1752
  C  C508  1  0.452200  0.600300  0.716600  1.0  0.1564
  C  C509  1  0.185890  0.423710  0.073900  1.0  0.5125
  C  C510  1  0.768290  0.511090  0.160900  1.0  0.4643
  C  C511  1  0.124020  0.866580  0.880300  1.0  0.4497
  C  C512  1  0.907630  0.892450  0.586800  1.0  0.0645
  C  C513  1  0.899770  0.920270  0.640500  1.0  -0.1413
  C  C514  1  0.869280  0.920680  0.576400  1.0  -0.1802
  C  C515  1  0.860130  0.893930  0.482000  1.0  0.1333
  C  C516  1  0.833410  0.886130  0.395600  1.0  -0.09
  C  C517  1  0.826160  0.861260  0.305700  1.0  0.1571
  C  C518  1  0.801140  0.855840  0.215000  1.0  -0.1696
  C  C519  1  0.802910  0.828630  0.148400  1.0  -0.1097
  C  C520  1  0.828060  0.816600  0.196400  1.0  0.0055
  C  C521  1  0.809080  0.907640  0.398700  1.0  0.0757
  C  C522  1  0.833550  0.954910  0.423900  1.0  -0.1358
  C  C523  1  0.808600  0.972320  0.426200  1.0  0.144
  C  C524  1  0.739280  0.898420  0.379900  1.0  0.1374
  C  C525  1  0.761810  0.879230  0.374700  1.0  -0.1559
  C  C526  1  0.965720  0.850180  0.525500  1.0  0.0414
  C  C527  1  0.981180  0.827720  0.568200  1.0  -0.1537
  C  C528  1  0.941600  0.783460  0.552600  1.0  -0.1371
  C  C529  1  0.902140  0.778660  0.505400  1.0  0.1157
  C  C530  1  0.854260  0.739640  0.480800  1.0  -0.0633
  C  C531  1  0.817420  0.738620  0.441500  1.0  0.1793
  C  C532  1  0.768360  0.702420  0.427000  1.0  -0.1913
  C  C533  1  0.744400  0.717020  0.391000  1.0  -0.096
  C  C534  1  0.778700  0.761260  0.383200  1.0  0.0442
  C  C535  1  0.842850  0.695710  0.495700  1.0  0.115
  C  C536  1  0.827820  0.680800  0.566300  1.0  -0.1825
  C  C537  1  0.821210  0.640390  0.578500  1.0  0.1578
  C  C538  1  0.835790  0.627650  0.443000  1.0  0.1488
  C  C539  1  0.845960  0.668400  0.427400  1.0  -0.1929
  C  C540  1  0.835850  0.734510  0.245700  1.0  -0.0136
  C  C541  1  0.848810  0.711030  0.194500  1.0  -0.1393
  C  C542  1  0.895340  0.742920  0.203600  1.0  -0.1599
  C  C543  1  0.912230  0.788690  0.262700  1.0  0.1584
  C  C544  1  0.956860  0.831980  0.285800  1.0  -0.1102
  C  C545  1  0.970940  0.875560  0.330700  1.0  0.1219
  C  C546  1  0.014800  0.921160  0.350400  1.0  -0.1718
  C  C547  1  0.011790  0.953850  0.395600  1.0  -0.104
  C  C548  1  0.967410  0.928790  0.408300  1.0  0.0536
  C  C549  1  0.994130  0.831190  0.262000  1.0  0.0124
  C  C550  1  0.011890  0.816130  0.316600  1.0  -0.1767
  C  C551  1  0.047280  0.816780  0.298400  1.0  0.1837
  C  C552  1  0.056800  0.862200  0.188800  1.0  -0.0016
  C  C553  1  0.021250  0.861150  0.207700  1.0  -0.1442
  C  C554  1  0.553640  0.021800  0.700000  1.0  0.0296
  C  C555  1  0.549740  0.005640  0.605100  1.0  -0.0782
  C  C556  1  0.588730  0.009530  0.605600  1.0  -0.1562
  C  C557  1  0.617110  0.030010  0.703700  1.0  0.2004
  C  C558  1  0.660430  0.041330  0.737600  1.0  -0.08
  C  C559  1  0.689470  0.064070  0.832600  1.0  0.1185
  C  C560  1  0.735170  0.077050  0.869900  1.0  -0.1717
  C  C561  1  0.750780  0.100040  0.964500  1.0  -0.1006
  C  C562  1  0.715400  0.100480  0.984700  1.0  0.038
  C  C563  1  0.678040  0.026440  0.666667  1.0  0.0858
  C  C564  1  0.714000  0.058480  0.636800  1.0  -0.1809
  C  C565  1  0.728200  0.042800  0.572200  1.0  0.1449
  C  C566  1  0.673980  0.966980  0.569400  1.0  0.1461
  C  C567  1  0.657960  0.979980  0.633300  1.0  -0.1961
  C  C568  1  0.507550  0.987210  0.882600  1.0  0.0494
  C  C569  1  0.467370  0.982550  0.880000  1.0  -0.1006
  C  C570  1  0.480320  0.026520  0.895700  1.0  -0.173
  C  C571  1  0.529960  0.058540  0.907700  1.0  0.1424
  C  C572  1  0.558260  0.106240  0.920800  1.0  -0.049
  C  C573  1  0.604830  0.136590  0.924100  1.0  0.1084
  C  C574  1  0.636360  0.186760  0.945800  1.0  -0.1699
  C  C575  1  0.679740  0.201140  0.946500  1.0  -0.1025
  C  C576  1  0.675560  0.160500  0.927000  1.0  0.0657
  C  C577  1  0.535190  0.129230  0.933100  1.0  0.0431
  C  C578  1  0.524650  0.134770  0.016700  1.0  -0.1908
  C  C579  1  0.503960  0.155040  0.026100  1.0  0.1536
  C  C580  1  0.502260  0.162140  0.876600  1.0  0.1537
  C  C581  1  0.524390  0.143410  0.863600  1.0  -0.1422
  C  C582  1  0.645430  0.112690  0.108400  1.0  0.0357
  C  C583  1  0.663320  0.117060  0.202400  1.0  -0.1112
  C  C584  1  0.661870  0.079330  0.199200  1.0  -0.1856
  C  C585  1  0.642450  0.051630  0.101200  1.0  0.1503
  C  C586  1  0.634640  0.009800  0.064200  1.0  -0.052
  C  C587  1  0.610940  0.980600  0.968400  1.0  0.1444
  C  C588  1  0.600310  0.936890  0.929300  1.0  -0.1541
  C  C589  1  0.575180  0.920100  0.836200  1.0  -0.1112
  C  C590  1  0.572020  0.954360  0.818700  1.0  0.035
  C  C591  1  0.652950  0.994950  0.131300  1.0  0.0963
  C  C592  1  0.624630  0.953230  0.152800  1.0  -0.1883
  C  C593  1  0.644840  0.943280  0.220200  1.0  0.1409
  C  C594  1  0.718240  0.012000  0.244200  1.0  0.1537
  C  C595  1  0.701420  0.024520  0.178200  1.0  -0.1925
  C  C596  1  0.237340  0.680360  0.043900  1.0  0.0277
  C  C597  1  0.236140  0.664940  0.950500  1.0  -0.093
  C  C598  1  0.276030  0.670370  0.958500  1.0  -0.1713
  C  C599  1  0.301750  0.689950  0.056900  1.0  0.173
  C  C600  1  0.344680  0.701060  0.097700  1.0  -0.1078
  C  C601  1  0.371220  0.721680  0.192300  1.0  0.1753
  C  C602  1  0.416650  0.736150  0.234000  1.0  -0.1554
  C  C603  1  0.429560  0.756580  0.329700  1.0  -0.0908
  C  C604  1  0.392420  0.753940  0.346100  1.0  0.0487
  C  C605  1  0.362560  0.686660  0.029000  1.0  0.1112
  C  C606  1  0.391540  0.716020  0.982800  1.0  -0.2041
  C  C607  1  0.402090  0.697890  0.912400  1.0  0.174
  C  C608  1  0.359180  0.626540  0.934100  1.0  0.1653
  C  C609  1  0.346760  0.640820  0.006900  1.0  -0.2105
  C  C610  1  0.357080  0.816580  0.287300  1.0  0.0558
  C  C611  1  0.361840  0.857580  0.305400  1.0  -0.0966
  C  C612  1  0.317370  0.843050  0.293500  1.0  -0.1829
  C  C613  1  0.285580  0.792660  0.268600  1.0  0.1424
  C  C614  1  0.208420  0.800100  0.174400  1.0  -0.2191
  C  C615  1  0.186930  0.819850  0.176800  1.0  0.1699
  C  C616  1  0.501160  0.377000  0.615700  1.0  0.0753
  C  C617  1  0.515680  0.356380  0.562700  1.0  -0.1193
  C  C618  1  0.559810  0.393550  0.564400  1.0  -0.1622
  C  C619  1  0.570550  0.435590  0.616300  1.0  0.1698
  C  C620  1  0.611430  0.481890  0.631700  1.0  -0.0176
  C  C621  1  0.620310  0.522990  0.682200  1.0  0.1493
  C  C622  1  0.660260  0.570360  0.696400  1.0  -0.173
  C  C623  1  0.655270  0.599110  0.748600  1.0  -0.1137
  C  C624  1  0.612090  0.569230  0.765400  1.0  0.0579
  C  C625  1  0.649680  0.488840  0.596700  1.0  0.0608
  C  C626  1  0.649290  0.484150  0.503900  1.0  -0.1907
  C  C627  1  0.687620  0.492820  0.479300  1.0  0.1625
  C  C628  1  0.725650  0.508610  0.630900  1.0  0.169
  C  C629  1  0.690090  0.501410  0.664800  1.0  -0.1862
  C  C630  1  0.554240  0.527620  0.943300  1.0  0.0754
  C  C631  1  0.546030  0.556130  0.995900  1.0  -0.1349
  C  C632  1  0.517190  0.556470  0.928500  1.0  -0.0515
  C  C633  1  0.507080  0.528400  0.838600  1.0  0.1577
  C  C634  1  0.420250  0.525930  0.786700  1.0  -0.1764
  C  C635  1  0.399700  0.547800  0.783400  1.0  0.1589
  C  C636  1  0.576290  0.814110  0.426100  1.0  0.514
  C  C637  1  0.488910  0.231710  0.339100  1.0  0.4654
  C  C638  1  0.133420  0.875980  0.619700  1.0  0.4501
  C  C639  1  0.892450  0.907630  0.086800  1.0  0.0583
  C  C640  1  0.920270  0.899770  0.140500  1.0  -0.144
  C  C641  1  0.920680  0.869280  0.076400  1.0  -0.1788
  C  C642  1  0.893930  0.860130  0.982000  1.0  0.1338
  C  C643  1  0.886130  0.833410  0.895600  1.0  -0.0915
  C  C644  1  0.861260  0.826160  0.805700  1.0  0.1578
  C  C645  1  0.855840  0.801140  0.715000  1.0  -0.1696
  C  C646  1  0.828630  0.802910  0.648400  1.0  -0.1084
  C  C647  1  0.816600  0.828060  0.696400  1.0  0.0097
  C  C648  1  0.907640  0.809080  0.898700  1.0  0.0767
  C  C649  1  0.954910  0.833550  0.923900  1.0  -0.1362
  C  C650  1  0.972320  0.808600  0.926200  1.0  0.147
  C  C651  1  0.898420  0.739280  0.879900  1.0  0.1335
  C  C652  1  0.879230  0.761810  0.874700  1.0  -0.1537
  C  C653  1  0.850180  0.965720  0.025500  1.0  0.0412
  C  C654  1  0.827720  0.981180  0.068200  1.0  -0.1559
  C  C655  1  0.783460  0.941600  0.052600  1.0  -0.1378
  C  C656  1  0.778660  0.902140  0.005400  1.0  0.1172
  C  C657  1  0.739640  0.854260  0.980800  1.0  -0.0633
  C  C658  1  0.738620  0.817420  0.941500  1.0  0.1786
  C  C659  1  0.702420  0.768360  0.927000  1.0  -0.1941
  C  C660  1  0.717020  0.744400  0.891000  1.0  -0.0967
  C  C661  1  0.761260  0.778700  0.883200  1.0  0.0469
  C  C662  1  0.695710  0.842850  0.995700  1.0  0.1134
  C  C663  1  0.680800  0.827820  0.066300  1.0  -0.1811
  C  C664  1  0.640390  0.821210  0.078500  1.0  0.1582
  C  C665  1  0.627650  0.835790  0.943000  1.0  0.1487
  C  C666  1  0.668400  0.845960  0.927400  1.0  -0.1909
  C  C667  1  0.734510  0.835850  0.745700  1.0  -0.0159
  C  C668  1  0.711030  0.848810  0.694500  1.0  -0.1429
  C  C669  1  0.742920  0.895340  0.703600  1.0  -0.1617
  C  C670  1  0.788690  0.912230  0.762700  1.0  0.1582
  C  C671  1  0.831980  0.956860  0.785800  1.0  -0.1105
  C  C672  1  0.875560  0.970940  0.830700  1.0  0.1214
  C  C673  1  0.921160  0.014800  0.850400  1.0  -0.1725
  C  C674  1  0.953850  0.011790  0.895600  1.0  -0.1034
  C  C675  1  0.928790  0.967410  0.908300  1.0  0.0557
  C  C676  1  0.831190  0.994130  0.762000  1.0  0.0108
  C  C677  1  0.816130  0.011890  0.816600  1.0  -0.173
  C  C678  1  0.816780  0.047280  0.798400  1.0  0.185
  C  C679  1  0.862200  0.056800  0.688800  1.0  -0.0008
  C  C680  1  0.861150  0.021250  0.707700  1.0  -0.144
  C  C681  1  0.021800  0.553640  0.200000  1.0  0.0297
  C  C682  1  0.005640  0.549740  0.105100  1.0  -0.0778
  C  C683  1  0.009530  0.588730  0.105600  1.0  -0.156
  C  C684  1  0.030010  0.617110  0.203700  1.0  0.1996
  C  C685  1  0.041330  0.660430  0.237600  1.0  -0.0791
  C  C686  1  0.064070  0.689470  0.332600  1.0  0.1203
  C  C687  1  0.077050  0.735170  0.369900  1.0  -0.1737
  C  C688  1  0.100040  0.750780  0.464500  1.0  -0.1024
  C  C689  1  0.100480  0.715400  0.484700  1.0  0.0386
  C  C690  1  0.026440  0.678040  0.166600  1.0  0.0821
  C  C691  1  0.058480  0.714000  0.136800  1.0  -0.1813
  C  C692  1  0.042800  0.728200  0.072200  1.0  0.1457
  C  C693  1  0.966980  0.673980  0.069400  1.0  0.1488
  C  C694  1  0.979980  0.657960  0.133300  1.0  -0.1957
  C  C695  1  0.987210  0.507550  0.382600  1.0  0.0503
  C  C696  1  0.982550  0.467370  0.380000  1.0  -0.1
  C  C697  1  0.026520  0.480320  0.395700  1.0  -0.1733
  C  C698  1  0.058540  0.529960  0.407700  1.0  0.1423
  C  C699  1  0.106240  0.558260  0.420800  1.0  -0.0497
  C  C700  1  0.136590  0.604830  0.424100  1.0  0.1092
  C  C701  1  0.186760  0.636360  0.445800  1.0  -0.1686
  C  C702  1  0.201140  0.679740  0.446500  1.0  -0.1027
  C  C703  1  0.160500  0.675560  0.427000  1.0  0.0637
  C  C704  1  0.129230  0.535190  0.433100  1.0  0.0428
  C  C705  1  0.134770  0.524650  0.516700  1.0  -0.1915
  C  C706  1  0.155040  0.503960  0.526100  1.0  0.155
  C  C707  1  0.162140  0.502260  0.376600  1.0  0.1536
  C  C708  1  0.143410  0.524390  0.363600  1.0  -0.1441
  C  C709  1  0.112690  0.645430  0.608400  1.0  0.0385
  C  C710  1  0.117060  0.663320  0.702400  1.0  -0.1105
  C  C711  1  0.079330  0.661870  0.699200  1.0  -0.1876
  C  C712  1  0.051630  0.642450  0.601200  1.0  0.1504
  C  C713  1  0.009800  0.634640  0.564200  1.0  -0.0519
  C  C714  1  0.980600  0.610940  0.468400  1.0  0.1429
  C  C715  1  0.936890  0.600310  0.429300  1.0  -0.1532
  C  C716  1  0.920100  0.575180  0.336200  1.0  -0.1097
  C  C717  1  0.954360  0.572020  0.318700  1.0  0.0346
  C  C718  1  0.994950  0.652950  0.631300  1.0  0.0958
  C  C719  1  0.953230  0.624630  0.652800  1.0  -0.1884
  C  C720  1  0.943280  0.644840  0.720200  1.0  0.1407
  C  C721  1  0.012000  0.718240  0.744200  1.0  0.1527
  C  C722  1  0.024520  0.701420  0.678200  1.0  -0.1941
  C  C723  1  0.680360  0.237340  0.543900  1.0  0.0227
  C  C724  1  0.664940  0.236140  0.450500  1.0  -0.0914
  C  C725  1  0.670370  0.276030  0.458500  1.0  -0.1718
  C  C726  1  0.689950  0.301750  0.556900  1.0  0.1722
  C  C727  1  0.701060  0.344680  0.597700  1.0  -0.1077
  C  C728  1  0.721680  0.371220  0.692300  1.0  0.1751
  C  C729  1  0.736150  0.416650  0.734000  1.0  -0.1543
  C  C730  1  0.756580  0.429560  0.829700  1.0  -0.093
  C  C731  1  0.753940  0.392420  0.846100  1.0  0.0495
  C  C732  1  0.686660  0.362560  0.529000  1.0  0.1079
  C  C733  1  0.716020  0.391540  0.482800  1.0  -0.2036
  C  C734  1  0.697890  0.402090  0.412400  1.0  0.174
  C  C735  1  0.626540  0.359180  0.434100  1.0  0.1672
  C  C736  1  0.640820  0.346760  0.506900  1.0  -0.2072
  C  C737  1  0.816580  0.357080  0.787300  1.0  0.0527
  C  C738  1  0.857580  0.361840  0.805400  1.0  -0.0953
  C  C739  1  0.843050  0.317370  0.793500  1.0  -0.1825
  C  C740  1  0.792660  0.285580  0.768600  1.0  0.1429
  C  C741  1  0.800100  0.208420  0.674400  1.0  -0.2192
  C  C742  1  0.819850  0.186930  0.676800  1.0  0.1701
  C  C743  1  0.377000  0.501160  0.115700  1.0  0.0757
  C  C744  1  0.356380  0.515680  0.062700  1.0  -0.1205
  C  C745  1  0.393550  0.559810  0.064400  1.0  -0.1634
  C  C746  1  0.435590  0.570550  0.116300  1.0  0.168
  C  C747  1  0.481890  0.611430  0.131700  1.0  -0.0167
  C  C748  1  0.522990  0.620310  0.182200  1.0  0.1493
  C  C749  1  0.570360  0.660260  0.196400  1.0  -0.1719
  C  C750  1  0.599110  0.655270  0.248600  1.0  -0.1171
  C  C751  1  0.569230  0.612090  0.265400  1.0  0.0574
  C  C752  1  0.488840  0.649680  0.096700  1.0  0.062
  C  C753  1  0.484150  0.649290  0.003900  1.0  -0.1917
  C  C754  1  0.492820  0.687620  0.979300  1.0  0.1632
  C  C755  1  0.508610  0.725650  0.130900  1.0  0.1687
  C  C756  1  0.501410  0.690090  0.164800  1.0  -0.1849
  C  C757  1  0.527620  0.554240  0.443300  1.0  0.0716
  C  C758  1  0.556130  0.546030  0.495900  1.0  -0.1368
  C  C759  1  0.556470  0.517190  0.428500  1.0  -0.0511
  C  C760  1  0.528400  0.507080  0.338600  1.0  0.1585
  C  C761  1  0.525930  0.420250  0.286700  1.0  -0.1751
  C  C762  1  0.547800  0.399700  0.283400  1.0  0.1573
  C  C763  1  0.814110  0.576290  0.926100  1.0  0.5141
  C  C764  1  0.231710  0.488910  0.839100  1.0  0.4662
  C  C765  1  0.875980  0.133420  0.119700  1.0  0.4502
  C  C766  1  0.092370  0.107550  0.413200  1.0  0.0638
  C  C767  1  0.100230  0.079730  0.359500  1.0  -0.1414
  C  C768  1  0.130720  0.079320  0.423600  1.0  -0.1792
  C  C769  1  0.139870  0.106070  0.518000  1.0  0.1332
  C  C770  1  0.166590  0.113870  0.604400  1.0  -0.0912
  C  C771  1  0.173840  0.138740  0.694300  1.0  0.1569
  C  C772  1  0.198860  0.144160  0.785000  1.0  -0.1705
  C  C773  1  0.197090  0.171370  0.851600  1.0  -0.1092
  C  C774  1  0.171940  0.183400  0.803600  1.0  0.0051
  C  C775  1  0.190920  0.092360  0.601300  1.0  0.0749
  C  C776  1  0.166450  0.045090  0.576100  1.0  -0.1364
  C  C777  1  0.191400  0.027680  0.573800  1.0  0.1451
  C  C778  1  0.260720  0.101580  0.620100  1.0  0.1366
  C  C779  1  0.238190  0.120770  0.625300  1.0  -0.1559
  C  C780  1  0.034280  0.149820  0.474500  1.0  0.0434
  C  C781  1  0.018820  0.172280  0.431800  1.0  -0.1536
  C  C782  1  0.058400  0.216540  0.447400  1.0  -0.1373
  C  C783  1  0.097860  0.221340  0.494600  1.0  0.1151
  C  C784  1  0.145740  0.260360  0.519200  1.0  -0.0634
  C  C785  1  0.182580  0.261380  0.558500  1.0  0.179
  C  C786  1  0.231640  0.297580  0.573000  1.0  -0.1931
  C  C787  1  0.255600  0.282980  0.609000  1.0  -0.0956
  C  C788  1  0.221300  0.238740  0.616800  1.0  0.0452
  C  C789  1  0.157150  0.304290  0.504300  1.0  0.1139
  C  C790  1  0.172180  0.319200  0.433700  1.0  -0.1816
  C  C791  1  0.178790  0.359610  0.421500  1.0  0.1573
  C  C792  1  0.164210  0.372350  0.557000  1.0  0.1487
  C  C793  1  0.154040  0.331600  0.572600  1.0  -0.1922
  C  C794  1  0.164150  0.265490  0.754300  1.0  -0.0116
  C  C795  1  0.151190  0.288970  0.805500  1.0  -0.1376
  C  C796  1  0.104660  0.257080  0.796400  1.0  -0.1611
  C  C797  1  0.087770  0.211310  0.737300  1.0  0.1591
  C  C798  1  0.043140  0.168020  0.714200  1.0  -0.1106
  C  C799  1  0.029060  0.124440  0.669300  1.0  0.1223
  C  C800  1  0.985200  0.078840  0.649600  1.0  -0.1726
  C  C801  1  0.988210  0.046150  0.604400  1.0  -0.1044
  C  C802  1  0.032590  0.071210  0.591700  1.0  0.0538
  C  C803  1  0.005870  0.168810  0.738000  1.0  0.0116
  C  C804  1  0.988110  0.183870  0.683400  1.0  -0.176
  C  C805  1  0.952720  0.183220  0.701600  1.0  0.182
  C  C806  1  0.943200  0.137800  0.811200  1.0  -0.0025
  C  C807  1  0.978750  0.138850  0.792300  1.0  -0.1453
  C  C808  1  0.446360  0.978200  0.300000  1.0  0.0317
  C  C809  1  0.450260  0.994360  0.394900  1.0  -0.0784
  C  C810  1  0.411270  0.990470  0.394400  1.0  -0.1588
  C  C811  1  0.382890  0.969990  0.296300  1.0  0.1975
  C  C812  1  0.339570  0.958670  0.262400  1.0  -0.0801
  C  C813  1  0.310530  0.935930  0.167400  1.0  0.1202
  C  C814  1  0.264830  0.922950  0.130100  1.0  -0.1722
  C  C815  1  0.249220  0.899960  0.035500  1.0  -0.0994
  C  C816  1  0.284600  0.899520  0.015300  1.0  0.037
  C  C817  1  0.321960  0.973560  0.333400  1.0  0.0823
  C  C818  1  0.286000  0.941520  0.363200  1.0  -0.1795
  C  C819  1  0.271800  0.957200  0.427800  1.0  0.1439
  C  C820  1  0.326020  0.033020  0.430600  1.0  0.1445
  C  C821  1  0.342040  0.020020  0.366700  1.0  -0.1947
  C  C822  1  0.492450  0.012790  0.117400  1.0  0.0488
  C  C823  1  0.532630  0.017450  0.120000  1.0  -0.0996
  C  C824  1  0.519680  0.973480  0.104300  1.0  -0.1725
  C  C825  1  0.470040  0.941460  0.092300  1.0  0.1425
  C  C826  1  0.441740  0.893760  0.079200  1.0  -0.0504
  C  C827  1  0.395170  0.863410  0.075900  1.0  0.1097
  C  C828  1  0.363640  0.813240  0.054200  1.0  -0.1689
  C  C829  1  0.320260  0.798860  0.053500  1.0  -0.1024
  C  C830  1  0.324440  0.839500  0.073000  1.0  0.0653
  C  C831  1  0.464810  0.870770  0.066900  1.0  0.0425
  C  C832  1  0.475350  0.865230  0.983300  1.0  -0.1914
  C  C833  1  0.496040  0.844960  0.973900  1.0  0.1558
  C  C834  1  0.497740  0.837860  0.123400  1.0  0.1542
  C  C835  1  0.475610  0.856590  0.136400  1.0  -0.1453
  C  C836  1  0.354570  0.887310  0.891600  1.0  0.037
  C  C837  1  0.336680  0.882940  0.797600  1.0  -0.1099
  C  C838  1  0.338130  0.920670  0.800800  1.0  -0.1853
  C  C839  1  0.357550  0.948370  0.898800  1.0  0.151
  C  C840  1  0.365360  0.990200  0.935800  1.0  -0.052
  C  C841  1  0.389060  0.019400  0.031600  1.0  0.1433
  C  C842  1  0.399690  0.063110  0.070700  1.0  -0.1537
  C  C843  1  0.424820  0.079900  0.163800  1.0  -0.1113
  C  C844  1  0.427980  0.045640  0.181300  1.0  0.0355
  C  C845  1  0.347050  0.005050  0.868700  1.0  0.0967
  C  C846  1  0.375370  0.046770  0.847200  1.0  -0.188
  C  C847  1  0.355160  0.056720  0.779800  1.0  0.14
  C  C848  1  0.281760  0.988000  0.755800  1.0  0.1553
  C  C849  1  0.298580  0.975480  0.821800  1.0  -0.1915
  C  C850  1  0.762660  0.319640  0.956100  1.0  0.0264
  C  C851  1  0.763860  0.335060  0.049500  1.0  -0.0913
  C  C852  1  0.723970  0.329630  0.041500  1.0  -0.1722
  C  C853  1  0.698250  0.310050  0.943100  1.0  0.1729
  C  C854  1  0.655320  0.298940  0.902300  1.0  -0.1081
  C  C855  1  0.628780  0.278320  0.807700  1.0  0.1748
  C  C856  1  0.583350  0.263850  0.766000  1.0  -0.1544
  C  C857  1  0.570440  0.243420  0.670300  1.0  -0.0905
  C  C858  1  0.607580  0.246060  0.653900  1.0  0.0482
  C  C859  1  0.637440  0.313340  0.971000  1.0  0.1104
  C  C860  1  0.608460  0.283980  0.017200  1.0  -0.2053
  C  C861  1  0.597910  0.302110  0.087600  1.0  0.173
  C  C862  1  0.640820  0.373460  0.065900  1.0  0.1657
  C  C863  1  0.653240  0.359180  0.993100  1.0  -0.2098
  C  C864  1  0.642920  0.183420  0.712700  1.0  0.054
  C  C865  1  0.638160  0.142420  0.694600  1.0  -0.0968
  C  C866  1  0.682630  0.156950  0.706500  1.0  -0.1813
  C  C867  1  0.714420  0.207340  0.731400  1.0  0.1427
  C  C868  1  0.791580  0.199900  0.825600  1.0  -0.2194
  C  C869  1  0.813070  0.180150  0.823200  1.0  0.1704
  C  C870  1  0.498840  0.623000  0.384300  1.0  0.0738
  C  C871  1  0.484320  0.643620  0.437300  1.0  -0.1193
  C  C872  1  0.440190  0.606450  0.435600  1.0  -0.1622
  C  C873  1  0.429450  0.564410  0.383700  1.0  0.168
  C  C874  1  0.388570  0.518110  0.368300  1.0  -0.0175
  C  C875  1  0.379690  0.477010  0.317800  1.0  0.1487
  C  C876  1  0.339740  0.429640  0.303600  1.0  -0.1711
  C  C877  1  0.344730  0.400890  0.251400  1.0  -0.1172
  C  C878  1  0.387910  0.430770  0.234600  1.0  0.0589
  C  C879  1  0.350320  0.511160  0.403300  1.0  0.06
  C  C880  1  0.350710  0.515850  0.496100  1.0  -0.1907
  C  C881  1  0.312380  0.507180  0.520700  1.0  0.1624
  C  C882  1  0.274350  0.491390  0.369100  1.0  0.1693
  C  C883  1  0.309910  0.498590  0.335200  1.0  -0.1865
  C  C884  1  0.445760  0.472380  0.056700  1.0  0.0772
  C  C885  1  0.453970  0.443870  0.004100  1.0  -0.1342
  C  C886  1  0.482810  0.443530  0.071500  1.0  -0.0537
  C  C887  1  0.492920  0.471600  0.161400  1.0  0.1586
  C  C888  1  0.579750  0.474070  0.213300  1.0  -0.1768
  C  C889  1  0.600300  0.452200  0.216600  1.0  0.1595
  C  C890  1  0.423710  0.185890  0.573900  1.0  0.512
  C  C891  1  0.511090  0.768290  0.660900  1.0  0.4641
  C  C892  1  0.866580  0.124020  0.380300  1.0  0.4502
  C  C893  1  0.237390  0.762610  0.250000  1.0  -0.0756
  C  C894  1  0.215010  0.784990  0.250000  1.0  0.0621
  C  C895  1  0.762610  0.237390  0.750000  1.0  -0.0747
  C  C896  1  0.784990  0.215010  0.750000  1.0  0.0625
  C  C897  1  0.480170  0.519830  0.750000  1.0  -0.0546
  C  C898  1  0.457730  0.542270  0.750000  1.0  0.0694
  C  C899  1  0.519830  0.480170  0.250000  1.0  -0.0548
  C  C900  1  0.542270  0.457730  0.250000  1.0  0.0692
  S  S901  1  0.162150  0.397050  0.162340  1.0  1.2232
  S  S902  1  0.750870  0.485550  0.256590  1.0  1.1959
  S  S903  1  0.104590  0.844870  0.973950  1.0  0.8769
  S  S904  1  0.602950  0.837850  0.337660  1.0  1.2205
  S  S905  1  0.514450  0.249130  0.243410  1.0  1.197
  S  S906  1  0.155130  0.895410  0.526050  1.0  0.8776
  S  S907  1  0.837850  0.602950  0.837660  1.0  1.2211
  S  S908  1  0.249130  0.514450  0.743410  1.0  1.1973
  S  S909  1  0.895410  0.155130  0.026050  1.0  0.8785
  S  S910  1  0.397050  0.162150  0.662340  1.0  1.2228
  S  S911  1  0.485550  0.750870  0.756590  1.0  1.1967
  S  S912  1  0.844870  0.104590  0.473950  1.0  0.8748
  N  N913  1  0.122800  0.114460  0.007100  1.0  -0.4047
  N  N914  1  0.163260  0.157240  0.208100  1.0  -0.4129
  N  N915  1  0.056180  0.237820  0.095200  1.0  -0.3067
  N  N916  1  0.178280  0.080660  0.012200  1.0  -0.3747
  N  N917  1  0.225310  0.177790  0.087000  1.0  -0.3392
  N  N918  1  0.386700  0.177260  0.981200  1.0  -0.3283
  N  N919  1  0.218630  0.125490  0.213300  1.0  -0.3343
  N  N920  1  0.118940  0.058620  0.130900  1.0  -0.3834
  N  N921  1  0.169830  0.935490  0.268900  1.0  -0.3011
  N  N922  1  0.962790  0.405290  0.740100  1.0  -0.3842
  N  N923  1  0.920980  0.321240  0.592600  1.0  -0.3682
  N  N924  1  0.002450  0.291570  0.961900  1.0  -0.3213
  N  N925  1  0.967680  0.454320  0.601100  1.0  -0.3843
  N  N926  1  0.878900  0.368640  0.587100  1.0  -0.4144
  N  N927  1  0.492800  0.168020  0.956800  1.0  -0.3271
  N  N928  1  0.926150  0.367210  0.452700  1.0  -0.3628
  N  N929  1  0.009220  0.407240  0.602600  1.0  -0.3967
  N  N930  1  0.027860  0.309260  0.233800  1.0  -0.3594
  N  N931  1  0.304530  0.723810  0.392000  1.0  -0.3617
  N  N932  1  0.266480  0.643040  0.234900  1.0  -0.378
  N  N933  1  0.345640  0.614320  0.613000  1.0  -0.327
  N  N934  1  0.222060  0.687520  0.234140  1.0  -0.3579
  N  N935  1  0.576780  0.467200  0.851900  1.0  -0.3566
  N  N936  1  0.476950  0.410350  0.773800  1.0  -0.4279
  N  N937  1  0.494510  0.273990  0.957500  1.0  -0.3598
  N  N938  1  0.488660  0.468400  0.648500  1.0  -0.3588
  N  N939  1  0.885540  0.877200  0.492900  1.0  -0.4049
  N  N940  1  0.842760  0.836740  0.291900  1.0  -0.4113
  N  N941  1  0.762180  0.943820  0.404800  1.0  -0.3078
  N  N942  1  0.919340  0.821720  0.487800  1.0  -0.3716
  N  N943  1  0.822210  0.774690  0.413000  1.0  -0.3381
  N  N944  1  0.822740  0.613300  0.518800  1.0  -0.3229
  N  N945  1  0.874510  0.781370  0.286700  1.0  -0.3342
  N  N946  1  0.941380  0.881060  0.369100  1.0  -0.384
  N  N947  1  0.064510  0.830170  0.231100  1.0  -0.3027
  N  N948  1  0.594710  0.037210  0.759900  1.0  -0.3846
  N  N949  1  0.678760  0.079020  0.907400  1.0  -0.3673
  N  N950  1  0.708430  0.997550  0.538100  1.0  -0.3225
  N  N951  1  0.545680  0.032320  0.898900  1.0  -0.3852
  N  N952  1  0.631360  0.121100  0.912900  1.0  -0.4149
  N  N953  1  0.831980  0.507200  0.543200  1.0  -0.3253
  N  N954  1  0.632790  0.073850  0.047300  1.0  -0.3629
  N  N955  1  0.592760  0.990780  0.897400  1.0  -0.3979
  N  N956  1  0.690740  0.972140  0.266200  1.0  -0.3596
  N  N957  1  0.276190  0.695470  0.108000  1.0  -0.3618
  N  N958  1  0.356960  0.733520  0.265100  1.0  -0.3732
  N  N959  1  0.385680  0.654360  0.887000  1.0  -0.3305
  N  N960  1  0.312480  0.777940  0.265860  1.0  -0.3574
  N  N961  1  0.532800  0.423220  0.648100  1.0  -0.3586
  N  N962  1  0.589650  0.523050  0.726200  1.0  -0.4295
  N  N963  1  0.726010  0.505490  0.542500  1.0  -0.3596
  N  N964  1  0.531600  0.511340  0.851500  1.0  -0.3604
  N  N965  1  0.877200  0.885540  0.992900  1.0  -0.4044
  N  N966  1  0.836740  0.842760  0.791900  1.0  -0.4125
  N  N967  1  0.943820  0.762180  0.904800  1.0  -0.3085
  N  N968  1  0.821720  0.919340  0.987800  1.0  -0.3729
  N  N969  1  0.774690  0.822210  0.913000  1.0  -0.3388
  N  N970  1  0.613300  0.822740  0.018800  1.0  -0.3262
  N  N971  1  0.781370  0.874510  0.786700  1.0  -0.3323
  N  N972  1  0.881060  0.941380  0.869100  1.0  -0.3855
  N  N973  1  0.830170  0.064510  0.731100  1.0  -0.3023
  N  N974  1  0.037210  0.594710  0.259900  1.0  -0.3855
  N  N975  1  0.079020  0.678760  0.407400  1.0  -0.3684
  N  N976  1  0.997550  0.708430  0.038100  1.0  -0.3212
  N  N977  1  0.032320  0.545680  0.398900  1.0  -0.384
  N  N978  1  0.121100  0.631360  0.412900  1.0  -0.4144
  N  N979  1  0.507200  0.831980  0.043200  1.0  -0.325
  N  N980  1  0.073850  0.632790  0.547300  1.0  -0.3628
  N  N981  1  0.990780  0.592760  0.397400  1.0  -0.3938
  N  N982  1  0.972140  0.690740  0.766200  1.0  -0.3586
  N  N983  1  0.695470  0.276190  0.608000  1.0  -0.3624
  N  N984  1  0.733520  0.356960  0.765100  1.0  -0.3775
  N  N985  1  0.654360  0.385680  0.387000  1.0  -0.3294
  N  N986  1  0.777940  0.312480  0.765860  1.0  -0.3571
  N  N987  1  0.423220  0.532800  0.148100  1.0  -0.357
  N  N988  1  0.523050  0.589650  0.226200  1.0  -0.4275
  N  N989  1  0.505490  0.726010  0.042500  1.0  -0.3621
  N  N990  1  0.511340  0.531600  0.351500  1.0  -0.3578
  N  N991  1  0.114460  0.122800  0.507100  1.0  -0.4047
  N  N992  1  0.157240  0.163260  0.708100  1.0  -0.4113
  N  N993  1  0.237820  0.056180  0.595200  1.0  -0.3093
  N  N994  1  0.080660  0.178280  0.512200  1.0  -0.3701
  N  N995  1  0.177790  0.225310  0.587000  1.0  -0.3387
  N  N996  1  0.177260  0.386700  0.481200  1.0  -0.3235
  N  N997  1  0.125490  0.218630  0.713300  1.0  -0.3352
  N  N998  1  0.058620  0.118940  0.630900  1.0  -0.3841
  N  N999  1  0.935490  0.169830  0.768900  1.0  -0.3044
  N  N1000  1  0.405290  0.962790  0.240100  1.0  -0.383
  N  N1001  1  0.321240  0.920980  0.092600  1.0  -0.3664
  N  N1002  1  0.291570  0.002450  0.461900  1.0  -0.3209
  N  N1003  1  0.454320  0.967680  0.101100  1.0  -0.3837
  N  N1004  1  0.368640  0.878900  0.087100  1.0  -0.4136
  N  N1005  1  0.168020  0.492800  0.456800  1.0  -0.3251
  N  N1006  1  0.367210  0.926150  0.952700  1.0  -0.3626
  N  N1007  1  0.407240  0.009220  0.102600  1.0  -0.3974
  N  N1008  1  0.309260  0.027860  0.733800  1.0  -0.3602
  N  N1009  1  0.723810  0.304530  0.892000  1.0  -0.3616
  N  N1010  1  0.643040  0.266480  0.734900  1.0  -0.3729
  N  N1011  1  0.614320  0.345640  0.113000  1.0  -0.3299
  N  N1012  1  0.687520  0.222060  0.734140  1.0  -0.3579
  N  N1013  1  0.467200  0.576780  0.351900  1.0  -0.358
  N  N1014  1  0.410350  0.476950  0.273800  1.0  -0.4302
  N  N1015  1  0.273990  0.494510  0.457500  1.0  -0.3607
  N  N1016  1  0.468400  0.488660  0.148500  1.0  -0.3604
  N  N1017  1  0.173110  0.826890  0.250000  1.0  -0.328
  N  N1018  1  0.826890  0.173110  0.750000  1.0  -0.3254
  N  N1019  1  0.416020  0.583980  0.750000  1.0  -0.3446
  N  N1020  1  0.583980  0.416020  0.250000  1.0  -0.3436
  O  O1021  1  0.191330  0.386310  0.198700  1.0  -0.5606
  O  O1022  1  0.167400  0.433620  0.226900  1.0  -0.5692
  O  O1023  1  0.114080  0.356500  0.109400  1.0  -0.6861
  O  O1024  1  0.706470  0.475050  0.250000  1.0  -0.6101
  O  O1025  1  0.790000  0.523020  0.339800  1.0  -0.7181
  O  O1026  1  0.748230  0.445210  0.232600  1.0  -0.58
  O  O1027  1  0.060180  0.800520  0.941300  1.0  -0.662
  O  O1028  1  0.140800  0.856240  0.049500  1.0  -0.5542
  O  O1029  1  0.093940  0.883620  0.008600  1.0  -0.61
  O  O1030  1  0.613690  0.808670  0.301300  1.0  -0.5592
  O  O1031  1  0.566380  0.832600  0.273100  1.0  -0.5687
  O  O1032  1  0.643500  0.885920  0.390600  1.0  -0.6856
  O  O1033  1  0.524950  0.293530  0.250000  1.0  -0.6111
  O  O1034  1  0.476980  0.210000  0.160200  1.0  -0.7208
  O  O1035  1  0.554790  0.251770  0.267400  1.0  -0.5793
  O  O1036  1  0.199480  0.939820  0.558700  1.0  -0.6609
  O  O1037  1  0.143760  0.859200  0.450500  1.0  -0.5554
  O  O1038  1  0.116380  0.906060  0.491400  1.0  -0.6095
  O  O1039  1  0.808670  0.613690  0.801300  1.0  -0.5591
  O  O1040  1  0.832600  0.566380  0.773100  1.0  -0.569
  O  O1041  1  0.885920  0.643500  0.890600  1.0  -0.6861
  O  O1042  1  0.293530  0.524950  0.750000  1.0  -0.6107
  O  O1043  1  0.210000  0.476980  0.660200  1.0  -0.7196
  O  O1044  1  0.251770  0.554790  0.767400  1.0  -0.5822
  O  O1045  1  0.939820  0.199480  0.058700  1.0  -0.6621
  O  O1046  1  0.859200  0.143760  0.950500  1.0  -0.5561
  O  O1047  1  0.906060  0.116380  0.991400  1.0  -0.6104
  O  O1048  1  0.386310  0.191330  0.698700  1.0  -0.5586
  O  O1049  1  0.433620  0.167400  0.726900  1.0  -0.5687
  O  O1050  1  0.356500  0.114080  0.609400  1.0  -0.6857
  O  O1051  1  0.475050  0.706470  0.750000  1.0  -0.6119
  O  O1052  1  0.523020  0.790000  0.839800  1.0  -0.7186
  O  O1053  1  0.445210  0.748230  0.732600  1.0  -0.5761
  O  O1054  1  0.800520  0.060180  0.441300  1.0  -0.6605
  O  O1055  1  0.856240  0.140800  0.549500  1.0  -0.5545
  O  O1056  1  0.883620  0.093940  0.508600  1.0  -0.6103
  F  F1057  1  0.163160  0.436320  0.033800  1.0  -0.1756
  F  F1058  1  0.182400  0.394320  0.004800  1.0  -0.1758
  F  F1059  1  0.230590  0.462650  0.110500  1.0  -0.1752
  F  F1060  1  0.808110  0.522310  0.154900  1.0  -0.1664
  F  F1061  1  0.772650  0.549290  0.172800  1.0  -0.1571
  F  F1062  1  0.735600  0.481200  0.077600  1.0  -0.1852
  F  F1063  1  0.160450  0.914810  0.922600  1.0  -0.1878
  F  F1064  1  0.090790  0.864810  0.824700  1.0  -0.1638
  F  F1065  1  0.131540  0.837200  0.855600  1.0  -0.2244
  F  F1066  1  0.563680  0.836840  0.466200  1.0  -0.1723
  F  F1067  1  0.605680  0.817600  0.495200  1.0  -0.1758
  F  F1068  1  0.537350  0.769410  0.389500  1.0  -0.1774
  F  F1069  1  0.477690  0.191890  0.345100  1.0  -0.1666
  F  F1070  1  0.450710  0.227350  0.327200  1.0  -0.1624
  F  F1071  1  0.518800  0.264400  0.422400  1.0  -0.1852
  F  F1072  1  0.085190  0.839550  0.577400  1.0  -0.1877
  F  F1073  1  0.135190  0.909210  0.675300  1.0  -0.162
  F  F1074  1  0.162800  0.868460  0.644400  1.0  -0.2242
  F  F1075  1  0.836840  0.563680  0.966200  1.0  -0.1732
  F  F1076  1  0.817600  0.605680  0.995200  1.0  -0.1745
  F  F1077  1  0.769410  0.537350  0.889500  1.0  -0.1762
  F  F1078  1  0.191890  0.477690  0.845100  1.0  -0.1664
  F  F1079  1  0.227350  0.450710  0.827200  1.0  -0.1572
  F  F1080  1  0.264400  0.518800  0.922400  1.0  -0.1838
  F  F1081  1  0.839550  0.085190  0.077400  1.0  -0.1892
  F  F1082  1  0.909210  0.135190  0.175300  1.0  -0.1627
  F  F1083  1  0.868460  0.162800  0.144400  1.0  -0.2237
  F  F1084  1  0.436320  0.163160  0.533800  1.0  -0.174
  F  F1085  1  0.394320  0.182400  0.504800  1.0  -0.1767
  F  F1086  1  0.462650  0.230590  0.610500  1.0  -0.1756
  F  F1087  1  0.522310  0.808110  0.654900  1.0  -0.1658
  F  F1088  1  0.549290  0.772650  0.672800  1.0  -0.1597
  F  F1089  1  0.481200  0.735600  0.577600  1.0  -0.1857
  F  F1090  1  0.914810  0.160450  0.422600  1.0  -0.1866
  F  F1091  1  0.864810  0.090790  0.324700  1.0  -0.1626
  F  F1092  1  0.837200  0.131540  0.355600  1.0  -0.2276
