# generated using pymatgen
data_K3H72C63N30Cl3O17
_symmetry_space_group_name_H-M   'P 1'
_cell_length_a   33.33730000
_cell_length_b   33.33730000
_cell_length_c   33.33730000
_cell_angle_alpha   90.00000000
_cell_angle_beta   90.00000000
_cell_angle_gamma   90.00000000
_symmetry_Int_Tables_number   1
_chemical_formula_structural   K3H72C63N30Cl3O17
_chemical_formula_sum   'K48 H1152 C1008 N480 Cl48 O272'
_cell_volume   37050.26083277
_cell_formula_units_Z   16
loop_
 _symmetry_equiv_pos_site_id
 _symmetry_equiv_pos_as_xyz
  1  'x, y, z'
loop_
 _atom_site_type_symbol
 _atom_site_label
 _atom_site_symmetry_multiplicity
 _atom_site_fract_x
 _atom_site_fract_y
 _atom_site_fract_z
 _atom_site_occupancy
 _atom_site_charge
  K  K1  1  0.091640  0.181380  0.097580  1.0  0.9632
  K  K2  1  0.408360  0.818620  0.597580  1.0  0.9619
  K  K3  1  0.908360  0.681380  0.402420  1.0  0.9633
  K  K4  1  0.591640  0.318620  0.902420  1.0  0.9622
  K  K5  1  0.097580  0.091640  0.181380  1.0  0.9578
  K  K6  1  0.597580  0.408360  0.818620  1.0  0.9589
  K  K7  1  0.402420  0.908360  0.681380  1.0  0.9585
  K  K8  1  0.902420  0.591640  0.318620  1.0  0.9598
  K  K9  1  0.181380  0.097580  0.091640  1.0  0.9624
  K  K10  1  0.818620  0.597580  0.408360  1.0  0.9625
  K  K11  1  0.681380  0.402420  0.908360  1.0  0.9627
  K  K12  1  0.318620  0.902420  0.591640  1.0  0.9629
  K  K13  1  0.908360  0.818620  0.902420  1.0  0.962
  K  K14  1  0.591640  0.181380  0.402420  1.0  0.9633
  K  K15  1  0.091640  0.318620  0.597580  1.0  0.9621
  K  K16  1  0.408360  0.681380  0.097580  1.0  0.9631
  K  K17  1  0.902420  0.908360  0.818620  1.0  0.9597
  K  K18  1  0.402420  0.591640  0.181380  1.0  0.9586
  K  K19  1  0.597580  0.091640  0.318620  1.0  0.959
  K  K20  1  0.097580  0.408360  0.681380  1.0  0.9577
  K  K21  1  0.818620  0.902420  0.908360  1.0  0.9628
  K  K22  1  0.181380  0.402420  0.591640  1.0  0.9628
  K  K23  1  0.318620  0.597580  0.091640  1.0  0.9626
  K  K24  1  0.681380  0.097580  0.408360  1.0  0.9624
  K  K25  1  0.929110  0.340180  0.155650  1.0  1.0039
  K  K26  1  0.570890  0.659820  0.655650  1.0  1.0044
  K  K27  1  0.070890  0.840180  0.344350  1.0  1.0034
  K  K28  1  0.429110  0.159820  0.844350  1.0  1.0042
  K  K29  1  0.155650  0.929110  0.340180  1.0  1.0054
  K  K30  1  0.655650  0.570890  0.659820  1.0  1.0055
  K  K31  1  0.344350  0.070890  0.840180  1.0  1.0053
  K  K32  1  0.844350  0.429110  0.159820  1.0  1.0059
  K  K33  1  0.340180  0.155650  0.929110  1.0  0.9994
  K  K34  1  0.659820  0.655650  0.570890  1.0  0.999
  K  K35  1  0.840180  0.344350  0.070890  1.0  0.9995
  K  K36  1  0.159820  0.844350  0.429110  1.0  1.0
  K  K37  1  0.070890  0.659820  0.844350  1.0  1.004
  K  K38  1  0.429110  0.340180  0.344350  1.0  1.0036
  K  K39  1  0.929110  0.159820  0.655650  1.0  1.0045
  K  K40  1  0.570890  0.840180  0.155650  1.0  1.0039
  K  K41  1  0.844350  0.070890  0.659820  1.0  1.0057
  K  K42  1  0.344350  0.429110  0.340180  1.0  1.0058
  K  K43  1  0.655650  0.929110  0.159820  1.0  1.0056
  K  K44  1  0.155650  0.570890  0.840180  1.0  1.0051
  K  K45  1  0.659820  0.844350  0.070890  1.0  0.9996
  K  K46  1  0.340180  0.344350  0.429110  1.0  0.9998
  K  K47  1  0.159820  0.655650  0.929110  1.0  0.9995
  K  K48  1  0.840180  0.155650  0.570890  1.0  0.9991
  H  H49  1  0.012000  0.122800  0.185900  1.0  0.1412
  H  H50  1  0.488000  0.877200  0.685900  1.0  0.1427
  H  H51  1  0.988000  0.622800  0.314100  1.0  0.1416
  H  H52  1  0.512000  0.377200  0.814100  1.0  0.1407
  H  H53  1  0.185900  0.012000  0.122800  1.0  0.1434
  H  H54  1  0.685900  0.488000  0.877200  1.0  0.1404
  H  H55  1  0.314100  0.988000  0.622800  1.0  0.1408
  H  H56  1  0.814100  0.512000  0.377200  1.0  0.139
  H  H57  1  0.122800  0.185900  0.012000  1.0  0.1432
  H  H58  1  0.877200  0.685900  0.488000  1.0  0.1411
  H  H59  1  0.622800  0.314100  0.988000  1.0  0.1441
  H  H60  1  0.377200  0.814100  0.512000  1.0  0.1424
  H  H61  1  0.988000  0.877200  0.814100  1.0  0.1412
  H  H62  1  0.512000  0.122800  0.314100  1.0  0.1415
  H  H63  1  0.012000  0.377200  0.685900  1.0  0.1419
  H  H64  1  0.488000  0.622800  0.185900  1.0  0.1416
  H  H65  1  0.814100  0.988000  0.877200  1.0  0.1398
  H  H66  1  0.314100  0.512000  0.122800  1.0  0.1415
  H  H67  1  0.685900  0.012000  0.377200  1.0  0.1402
  H  H68  1  0.185900  0.488000  0.622800  1.0  0.1419
  H  H69  1  0.877200  0.814100  0.988000  1.0  0.1426
  H  H70  1  0.122800  0.314100  0.512000  1.0  0.1428
  H  H71  1  0.377200  0.685900  0.012000  1.0  0.1428
  H  H72  1  0.622800  0.185900  0.488000  1.0  0.1424
  H  H73  1  0.972700  0.128800  0.210800  1.0  0.111
  H  H74  1  0.527300  0.871200  0.710800  1.0  0.1097
  H  H75  1  0.027300  0.628800  0.289200  1.0  0.1099
  H  H76  1  0.472700  0.371200  0.789200  1.0  0.111
  H  H77  1  0.210800  0.972700  0.128800  1.0  0.1111
  H  H78  1  0.710800  0.527300  0.871200  1.0  0.1117
  H  H79  1  0.289200  0.027300  0.628800  1.0  0.1123
  H  H80  1  0.789200  0.472700  0.371200  1.0  0.1119
  H  H81  1  0.128800  0.210800  0.972700  1.0  0.1108
  H  H82  1  0.871200  0.710800  0.527300  1.0  0.1105
  H  H83  1  0.628800  0.289200  0.027300  1.0  0.1106
  H  H84  1  0.371200  0.789200  0.472700  1.0  0.1101
  H  H85  1  0.027300  0.871200  0.789200  1.0  0.1104
  H  H86  1  0.472700  0.128800  0.289200  1.0  0.1102
  H  H87  1  0.972700  0.371200  0.710800  1.0  0.1104
  H  H88  1  0.527300  0.628800  0.210800  1.0  0.1107
  H  H89  1  0.789200  0.027300  0.871200  1.0  0.1106
  H  H90  1  0.289200  0.472700  0.128800  1.0  0.111
  H  H91  1  0.710800  0.972700  0.371200  1.0  0.1131
  H  H92  1  0.210800  0.527300  0.628800  1.0  0.1126
  H  H93  1  0.871200  0.789200  0.027300  1.0  0.11
  H  H94  1  0.128800  0.289200  0.472700  1.0  0.1109
  H  H95  1  0.371200  0.710800  0.972700  1.0  0.1101
  H  H96  1  0.628800  0.210800  0.527300  1.0  0.1107
  H  H97  1  0.912300  0.187700  0.230200  1.0  0.1253
  H  H98  1  0.587700  0.812300  0.730200  1.0  0.1248
  H  H99  1  0.087700  0.687700  0.269800  1.0  0.1249
  H  H100  1  0.412300  0.312300  0.769800  1.0  0.126
  H  H101  1  0.230200  0.912300  0.187700  1.0  0.1267
  H  H102  1  0.730200  0.587700  0.812300  1.0  0.1268
  H  H103  1  0.269800  0.087700  0.687700  1.0  0.1276
  H  H104  1  0.769800  0.412300  0.312300  1.0  0.127
  H  H105  1  0.187700  0.230200  0.912300  1.0  0.1253
  H  H106  1  0.812300  0.730200  0.587700  1.0  0.1254
  H  H107  1  0.687700  0.269800  0.087700  1.0  0.1255
  H  H108  1  0.312300  0.769800  0.412300  1.0  0.1252
  H  H109  1  0.087700  0.812300  0.769800  1.0  0.1253
  H  H110  1  0.412300  0.187700  0.269800  1.0  0.1252
  H  H111  1  0.912300  0.312300  0.730200  1.0  0.1253
  H  H112  1  0.587700  0.687700  0.230200  1.0  0.1251
  H  H113  1  0.769800  0.087700  0.812300  1.0  0.1267
  H  H114  1  0.269800  0.412300  0.187700  1.0  0.1266
  H  H115  1  0.730200  0.912300  0.312300  1.0  0.127
  H  H116  1  0.230200  0.587700  0.687700  1.0  0.1279
  H  H117  1  0.812300  0.769800  0.087700  1.0  0.1258
  H  H118  1  0.187700  0.269800  0.412300  1.0  0.1251
  H  H119  1  0.312300  0.730200  0.912300  1.0  0.1254
  H  H120  1  0.687700  0.230200  0.587700  1.0  0.1251
  H  H121  1  0.900000  0.232100  0.221400  1.0  0.1382
  H  H122  1  0.600000  0.767900  0.721400  1.0  0.1368
  H  H123  1  0.100000  0.732100  0.278600  1.0  0.1364
  H  H124  1  0.400000  0.267900  0.778600  1.0  0.1373
  H  H125  1  0.221400  0.900000  0.232100  1.0  0.1388
  H  H126  1  0.721400  0.600000  0.767900  1.0  0.138
  H  H127  1  0.278600  0.100000  0.732100  1.0  0.1369
  H  H128  1  0.778600  0.400000  0.267900  1.0  0.138
  H  H129  1  0.232100  0.221400  0.900000  1.0  0.1371
  H  H130  1  0.767900  0.721400  0.600000  1.0  0.1373
  H  H131  1  0.732100  0.278600  0.100000  1.0  0.1364
  H  H132  1  0.267900  0.778600  0.400000  1.0  0.1379
  H  H133  1  0.100000  0.767900  0.778600  1.0  0.1367
  H  H134  1  0.400000  0.232100  0.278600  1.0  0.1382
  H  H135  1  0.900000  0.267900  0.721400  1.0  0.1376
  H  H136  1  0.600000  0.732100  0.221400  1.0  0.1366
  H  H137  1  0.778600  0.100000  0.767900  1.0  0.1375
  H  H138  1  0.278600  0.400000  0.232100  1.0  0.1385
  H  H139  1  0.721400  0.900000  0.267900  1.0  0.1384
  H  H140  1  0.221400  0.600000  0.732100  1.0  0.1374
  H  H141  1  0.767900  0.778600  0.100000  1.0  0.1374
  H  H142  1  0.232100  0.278600  0.400000  1.0  0.1372
  H  H143  1  0.267900  0.721400  0.900000  1.0  0.138
  H  H144  1  0.732100  0.221400  0.600000  1.0  0.1362
  H  H145  1  0.911100  0.144200  0.167900  1.0  0.125
  H  H146  1  0.588900  0.855800  0.667900  1.0  0.1251
  H  H147  1  0.088900  0.644200  0.332100  1.0  0.1253
  H  H148  1  0.411100  0.355800  0.832100  1.0  0.1243
  H  H149  1  0.167900  0.911100  0.144200  1.0  0.1247
  H  H150  1  0.667900  0.588900  0.855800  1.0  0.1237
  H  H151  1  0.332100  0.088900  0.644200  1.0  0.1239
  H  H152  1  0.832100  0.411100  0.355800  1.0  0.1249
  H  H153  1  0.144200  0.167900  0.911100  1.0  0.1253
  H  H154  1  0.855800  0.667900  0.588900  1.0  0.1245
  H  H155  1  0.644200  0.332100  0.088900  1.0  0.1253
  H  H156  1  0.355800  0.832100  0.411100  1.0  0.1256
  H  H157  1  0.088900  0.855800  0.832100  1.0  0.1247
  H  H158  1  0.411100  0.144200  0.332100  1.0  0.1248
  H  H159  1  0.911100  0.355800  0.667900  1.0  0.1245
  H  H160  1  0.588900  0.644200  0.167900  1.0  0.1254
  H  H161  1  0.832100  0.088900  0.855800  1.0  0.1232
  H  H162  1  0.332100  0.411100  0.144200  1.0  0.1246
  H  H163  1  0.667900  0.911100  0.355800  1.0  0.1253
  H  H164  1  0.167900  0.588900  0.644200  1.0  0.1241
  H  H165  1  0.855800  0.832100  0.088900  1.0  0.125
  H  H166  1  0.144200  0.332100  0.411100  1.0  0.1253
  H  H167  1  0.355800  0.667900  0.911100  1.0  0.1252
  H  H168  1  0.644200  0.167900  0.588900  1.0  0.1249
  H  H169  1  0.899400  0.151700  0.102100  1.0  0.1157
  H  H170  1  0.600600  0.848300  0.602100  1.0  0.1163
  H  H171  1  0.100600  0.651700  0.397900  1.0  0.1162
  H  H172  1  0.399400  0.348300  0.897900  1.0  0.1157
  H  H173  1  0.102100  0.899400  0.151700  1.0  0.1169
  H  H174  1  0.602100  0.600600  0.848300  1.0  0.1173
  H  H175  1  0.397900  0.100600  0.651700  1.0  0.1167
  H  H176  1  0.897900  0.399400  0.348300  1.0  0.1184
  H  H177  1  0.151700  0.102100  0.899400  1.0  0.1158
  H  H178  1  0.848300  0.602100  0.600600  1.0  0.1164
  H  H179  1  0.651700  0.397900  0.100600  1.0  0.1157
  H  H180  1  0.348300  0.897900  0.399400  1.0  0.1162
  H  H181  1  0.100600  0.848300  0.897900  1.0  0.1162
  H  H182  1  0.399400  0.151700  0.397900  1.0  0.116
  H  H183  1  0.899400  0.348300  0.602100  1.0  0.1158
  H  H184  1  0.600600  0.651700  0.102100  1.0  0.116
  H  H185  1  0.897900  0.100600  0.848300  1.0  0.1174
  H  H186  1  0.397900  0.399400  0.151700  1.0  0.1172
  H  H187  1  0.602100  0.899400  0.348300  1.0  0.1182
  H  H188  1  0.102100  0.600600  0.651700  1.0  0.1167
  H  H189  1  0.848300  0.897900  0.100600  1.0  0.1163
  H  H190  1  0.151700  0.397900  0.399400  1.0  0.1159
  H  H191  1  0.348300  0.602100  0.899400  1.0  0.1164
  H  H192  1  0.651700  0.102100  0.600600  1.0  0.1157
  H  H193  1  0.984800  0.142300  0.043400  1.0  0.1262
  H  H194  1  0.515200  0.857700  0.543400  1.0  0.1266
  H  H195  1  0.015200  0.642300  0.456600  1.0  0.1272
  H  H196  1  0.484800  0.357700  0.956600  1.0  0.1256
  H  H197  1  0.043400  0.984800  0.142300  1.0  0.1253
  H  H198  1  0.543400  0.515200  0.857700  1.0  0.1264
  H  H199  1  0.456600  0.015200  0.642300  1.0  0.1255
  H  H200  1  0.956600  0.484800  0.357700  1.0  0.1254
  H  H201  1  0.142300  0.043400  0.984800  1.0  0.1293
  H  H202  1  0.857700  0.543400  0.515200  1.0  0.1268
  H  H203  1  0.642300  0.456600  0.015200  1.0  0.1272
  H  H204  1  0.357700  0.956600  0.484800  1.0  0.1265
  H  H205  1  0.015200  0.857700  0.956600  1.0  0.1267
  H  H206  1  0.484800  0.142300  0.456600  1.0  0.1264
  H  H207  1  0.984800  0.357700  0.543400  1.0  0.1263
  H  H208  1  0.515200  0.642300  0.043400  1.0  0.1265
  H  H209  1  0.956600  0.015200  0.857700  1.0  0.1262
  H  H210  1  0.456600  0.484800  0.142300  1.0  0.125
  H  H211  1  0.543400  0.984800  0.357700  1.0  0.1255
  H  H212  1  0.043400  0.515200  0.642300  1.0  0.1254
  H  H213  1  0.857700  0.956600  0.015200  1.0  0.1264
  H  H214  1  0.142300  0.456600  0.484800  1.0  0.129
  H  H215  1  0.357700  0.543400  0.984800  1.0  0.1267
  H  H216  1  0.642300  0.043400  0.515200  1.0  0.1276
  H  H217  1  0.939100  0.151400  0.036800  1.0  0.1107
  H  H218  1  0.560900  0.848600  0.536800  1.0  0.1119
  H  H219  1  0.060900  0.651400  0.463200  1.0  0.1104
  H  H220  1  0.439100  0.348600  0.963200  1.0  0.111
  H  H221  1  0.036800  0.939100  0.151400  1.0  0.1098
  H  H222  1  0.536800  0.560900  0.848600  1.0  0.1103
  H  H223  1  0.463200  0.060900  0.651400  1.0  0.1106
  H  H224  1  0.963200  0.439100  0.348600  1.0  0.1102
  H  H225  1  0.151400  0.036800  0.939100  1.0  0.114
  H  H226  1  0.848600  0.536800  0.560900  1.0  0.1126
  H  H227  1  0.651400  0.463200  0.060900  1.0  0.114
  H  H228  1  0.348600  0.963200  0.439100  1.0  0.1135
  H  H229  1  0.060900  0.848600  0.963200  1.0  0.1118
  H  H230  1  0.439100  0.151400  0.463200  1.0  0.1111
  H  H231  1  0.939100  0.348600  0.536800  1.0  0.1115
  H  H232  1  0.560900  0.651400  0.036800  1.0  0.1097
  H  H233  1  0.963200  0.060900  0.848600  1.0  0.1105
  H  H234  1  0.463200  0.439100  0.151400  1.0  0.1104
  H  H235  1  0.536800  0.939100  0.348600  1.0  0.1099
  H  H236  1  0.036800  0.560900  0.651400  1.0  0.1103
  H  H237  1  0.848600  0.963200  0.060900  1.0  0.1127
  H  H238  1  0.151400  0.463200  0.439100  1.0  0.1139
  H  H239  1  0.348600  0.536800  0.939100  1.0  0.1131
  H  H240  1  0.651400  0.036800  0.560900  1.0  0.1147
  H  H241  1  0.877200  0.211000  0.056200  1.0  0.1187
  H  H242  1  0.622800  0.789000  0.556200  1.0  0.118
  H  H243  1  0.122800  0.711000  0.443800  1.0  0.1179
  H  H244  1  0.377200  0.289000  0.943800  1.0  0.1181
  H  H245  1  0.056200  0.877200  0.211000  1.0  0.1188
  H  H246  1  0.556200  0.622800  0.789000  1.0  0.1179
  H  H247  1  0.443800  0.122800  0.711000  1.0  0.1188
  H  H248  1  0.943800  0.377200  0.289000  1.0  0.1197
  H  H249  1  0.211000  0.056200  0.877200  1.0  0.1186
  H  H250  1  0.789000  0.556200  0.622800  1.0  0.1191
  H  H251  1  0.711000  0.443800  0.122800  1.0  0.1188
  H  H252  1  0.289000  0.943800  0.377200  1.0  0.1187
  H  H253  1  0.122800  0.789000  0.943800  1.0  0.1178
  H  H254  1  0.377200  0.211000  0.443800  1.0  0.1183
  H  H255  1  0.877200  0.289000  0.556200  1.0  0.1184
  H  H256  1  0.622800  0.711000  0.056200  1.0  0.1182
  H  H257  1  0.943800  0.122800  0.789000  1.0  0.1181
  H  H258  1  0.443800  0.377200  0.211000  1.0  0.1187
  H  H259  1  0.556200  0.877200  0.289000  1.0  0.1191
  H  H260  1  0.056200  0.622800  0.711000  1.0  0.119
  H  H261  1  0.789000  0.943800  0.122800  1.0  0.1192
  H  H262  1  0.211000  0.443800  0.377200  1.0  0.1188
  H  H263  1  0.289000  0.556200  0.877200  1.0  0.1191
  H  H264  1  0.711000  0.056200  0.622800  1.0  0.1188
  H  H265  1  0.871400  0.251300  0.079600  1.0  0.1441
  H  H266  1  0.628600  0.748700  0.579600  1.0  0.1433
  H  H267  1  0.128600  0.751300  0.420400  1.0  0.1432
  H  H268  1  0.371400  0.248700  0.920400  1.0  0.1432
  H  H269  1  0.079600  0.871400  0.251300  1.0  0.1444
  H  H270  1  0.579600  0.628600  0.748700  1.0  0.1441
  H  H271  1  0.420400  0.128600  0.751300  1.0  0.1444
  H  H272  1  0.920400  0.371400  0.248700  1.0  0.1447
  H  H273  1  0.251300  0.079600  0.871400  1.0  0.1429
  H  H274  1  0.748700  0.579600  0.628600  1.0  0.1424
  H  H275  1  0.751300  0.420400  0.128600  1.0  0.1433
  H  H276  1  0.248700  0.920400  0.371400  1.0  0.1422
  H  H277  1  0.128600  0.748700  0.920400  1.0  0.1428
  H  H278  1  0.371400  0.251300  0.420400  1.0  0.1437
  H  H279  1  0.871400  0.248700  0.579600  1.0  0.1447
  H  H280  1  0.628600  0.751300  0.079600  1.0  0.1428
  H  H281  1  0.920400  0.128600  0.748700  1.0  0.1455
  H  H282  1  0.420400  0.371400  0.251300  1.0  0.1455
  H  H283  1  0.579600  0.871400  0.248700  1.0  0.1435
  H  H284  1  0.079600  0.628600  0.751300  1.0  0.1434
  H  H285  1  0.748700  0.920400  0.128600  1.0  0.1429
  H  H286  1  0.251300  0.420400  0.371400  1.0  0.1422
  H  H287  1  0.248700  0.579600  0.871400  1.0  0.143
  H  H288  1  0.751300  0.079600  0.628600  1.0  0.1424
  H  H289  1  0.045500  0.283800  0.972900  1.0  0.1341
  H  H290  1  0.454500  0.716200  0.472900  1.0  0.1347
  H  H291  1  0.954500  0.783800  0.527100  1.0  0.1366
  H  H292  1  0.545500  0.216200  0.027100  1.0  0.1357
  H  H293  1  0.972900  0.045500  0.283800  1.0  0.1329
  H  H294  1  0.472900  0.454500  0.716200  1.0  0.1322
  H  H295  1  0.527100  0.954500  0.783800  1.0  0.1335
  H  H296  1  0.027100  0.545500  0.216200  1.0  0.1334
  H  H297  1  0.283800  0.972900  0.045500  1.0  0.1347
  H  H298  1  0.716200  0.472900  0.454500  1.0  0.1341
  H  H299  1  0.783800  0.527100  0.954500  1.0  0.1343
  H  H300  1  0.216200  0.027100  0.545500  1.0  0.1342
  H  H301  1  0.954500  0.716200  0.027100  1.0  0.1374
  H  H302  1  0.545500  0.283800  0.527100  1.0  0.135
  H  H303  1  0.045500  0.216200  0.472900  1.0  0.1339
  H  H304  1  0.454500  0.783800  0.972900  1.0  0.1348
  H  H305  1  0.027100  0.954500  0.716200  1.0  0.1329
  H  H306  1  0.527100  0.545500  0.283800  1.0  0.1335
  H  H307  1  0.472900  0.045500  0.216200  1.0  0.1328
  H  H308  1  0.972900  0.454500  0.783800  1.0  0.1328
  H  H309  1  0.716200  0.027100  0.954500  1.0  0.1351
  H  H310  1  0.283800  0.527100  0.545500  1.0  0.1335
  H  H311  1  0.216200  0.472900  0.045500  1.0  0.1341
  H  H312  1  0.783800  0.972900  0.454500  1.0  0.1347
  H  H313  1  0.069600  0.248400  0.992300  1.0  0.1193
  H  H314  1  0.430400  0.751600  0.492300  1.0  0.1199
  H  H315  1  0.930400  0.748400  0.507700  1.0  0.1202
  H  H316  1  0.569600  0.251600  0.007700  1.0  0.1188
  H  H317  1  0.992300  0.069600  0.248400  1.0  0.12
  H  H318  1  0.492300  0.430400  0.751600  1.0  0.1208
  H  H319  1  0.507700  0.930400  0.748400  1.0  0.1201
  H  H320  1  0.007700  0.569600  0.251600  1.0  0.1196
  H  H321  1  0.248400  0.992300  0.069600  1.0  0.1193
  H  H322  1  0.751600  0.492300  0.430400  1.0  0.118
  H  H323  1  0.748400  0.507700  0.930400  1.0  0.1186
  H  H324  1  0.251600  0.007700  0.569600  1.0  0.1179
  H  H325  1  0.930400  0.751600  0.007700  1.0  0.1193
  H  H326  1  0.569600  0.248400  0.507700  1.0  0.1198
  H  H327  1  0.069600  0.251600  0.492300  1.0  0.1192
  H  H328  1  0.430400  0.748400  0.992300  1.0  0.1201
  H  H329  1  0.007700  0.930400  0.751600  1.0  0.1206
  H  H330  1  0.507700  0.569600  0.248400  1.0  0.1197
  H  H331  1  0.492300  0.069600  0.251600  1.0  0.1198
  H  H332  1  0.992300  0.430400  0.748400  1.0  0.1201
  H  H333  1  0.751600  0.007700  0.930400  1.0  0.1177
  H  H334  1  0.248400  0.507700  0.569600  1.0  0.1187
  H  H335  1  0.251600  0.492300  0.069600  1.0  0.1187
  H  H336  1  0.748400  0.992300  0.430400  1.0  0.1185
  H  H337  1  0.982600  0.344100  0.995000  1.0  0.1231
  H  H338  1  0.517400  0.655900  0.495000  1.0  0.1233
  H  H339  1  0.017400  0.844100  0.505000  1.0  0.123
  H  H340  1  0.482600  0.155900  0.005000  1.0  0.1236
  H  H341  1  0.995000  0.982600  0.344100  1.0  0.1176
  H  H342  1  0.495000  0.517400  0.655900  1.0  0.1171
  H  H343  1  0.505000  0.017400  0.844100  1.0  0.1175
  H  H344  1  0.005000  0.482600  0.155900  1.0  0.1191
  H  H345  1  0.344100  0.995000  0.982600  1.0  0.1243
  H  H346  1  0.655900  0.495000  0.517400  1.0  0.124
  H  H347  1  0.844100  0.505000  0.017400  1.0  0.1243
  H  H348  1  0.155900  0.005000  0.482600  1.0  0.1259
  H  H349  1  0.017400  0.655900  0.005000  1.0  0.1241
  H  H350  1  0.482600  0.344100  0.505000  1.0  0.123
  H  H351  1  0.982600  0.155900  0.495000  1.0  0.1231
  H  H352  1  0.517400  0.844100  0.995000  1.0  0.1233
  H  H353  1  0.005000  0.017400  0.655900  1.0  0.1186
  H  H354  1  0.505000  0.482600  0.344100  1.0  0.1168
  H  H355  1  0.495000  0.982600  0.155900  1.0  0.1178
  H  H356  1  0.995000  0.517400  0.844100  1.0  0.118
  H  H357  1  0.655900  0.005000  0.017400  1.0  0.1257
  H  H358  1  0.344100  0.505000  0.482600  1.0  0.1243
  H  H359  1  0.155900  0.495000  0.982600  1.0  0.1248
  H  H360  1  0.844100  0.995000  0.517400  1.0  0.1239
  H  H361  1  0.956200  0.356800  0.031800  1.0  0.1339
  H  H362  1  0.543800  0.643200  0.531800  1.0  0.1335
  H  H363  1  0.043800  0.856800  0.468200  1.0  0.1343
  H  H364  1  0.456200  0.143200  0.968200  1.0  0.1329
  H  H365  1  0.031800  0.956200  0.356800  1.0  0.1322
  H  H366  1  0.531800  0.543800  0.643200  1.0  0.1313
  H  H367  1  0.468200  0.043800  0.856800  1.0  0.1307
  H  H368  1  0.968200  0.456200  0.143200  1.0  0.1311
  H  H369  1  0.356800  0.031800  0.956200  1.0  0.1325
  H  H370  1  0.643200  0.531800  0.543800  1.0  0.1334
  H  H371  1  0.856800  0.468200  0.043800  1.0  0.1326
  H  H372  1  0.143200  0.968200  0.456200  1.0  0.1334
  H  H373  1  0.043800  0.643200  0.968200  1.0  0.133
  H  H374  1  0.456200  0.356800  0.468200  1.0  0.1336
  H  H375  1  0.956200  0.143200  0.531800  1.0  0.1332
  H  H376  1  0.543800  0.856800  0.031800  1.0  0.1347
  H  H377  1  0.968200  0.043800  0.643200  1.0  0.1308
  H  H378  1  0.468200  0.456200  0.356800  1.0  0.1314
  H  H379  1  0.531800  0.956200  0.143200  1.0  0.1315
  H  H380  1  0.031800  0.543800  0.856800  1.0  0.1319
  H  H381  1  0.643200  0.968200  0.043800  1.0  0.1336
  H  H382  1  0.356800  0.468200  0.456200  1.0  0.1327
  H  H383  1  0.143200  0.531800  0.956200  1.0  0.1333
  H  H384  1  0.856800  0.031800  0.543800  1.0  0.1325
  H  H385  1  0.059200  0.353500  0.008200  1.0  0.1218
  H  H386  1  0.440800  0.646500  0.508200  1.0  0.1213
  H  H387  1  0.940800  0.853500  0.491800  1.0  0.1213
  H  H388  1  0.559200  0.146500  0.991800  1.0  0.1224
  H  H389  1  0.008200  0.059200  0.353500  1.0  0.1193
  H  H390  1  0.508200  0.440800  0.646500  1.0  0.1191
  H  H391  1  0.491800  0.940800  0.853500  1.0  0.1204
  H  H392  1  0.991800  0.559200  0.146500  1.0  0.1215
  H  H393  1  0.353500  0.008200  0.059200  1.0  0.1214
  H  H394  1  0.646500  0.508200  0.440800  1.0  0.1206
  H  H395  1  0.853500  0.491800  0.940800  1.0  0.1205
  H  H396  1  0.146500  0.991800  0.559200  1.0  0.1208
  H  H397  1  0.940800  0.646500  0.991800  1.0  0.1224
  H  H398  1  0.559200  0.353500  0.491800  1.0  0.1218
  H  H399  1  0.059200  0.146500  0.508200  1.0  0.1213
  H  H400  1  0.440800  0.853500  0.008200  1.0  0.1216
  H  H401  1  0.991800  0.940800  0.646500  1.0  0.121
  H  H402  1  0.491800  0.559200  0.353500  1.0  0.1204
  H  H403  1  0.508200  0.059200  0.146500  1.0  0.1191
  H  H404  1  0.008200  0.440800  0.853500  1.0  0.1195
  H  H405  1  0.646500  0.991800  0.940800  1.0  0.1209
  H  H406  1  0.353500  0.491800  0.559200  1.0  0.12
  H  H407  1  0.146500  0.508200  0.059200  1.0  0.1209
  H  H408  1  0.853500  0.008200  0.440800  1.0  0.1212
  H  H409  1  0.096100  0.375800  0.060200  1.0  0.1082
  H  H410  1  0.403900  0.624200  0.560200  1.0  0.1073
  H  H411  1  0.903900  0.875800  0.439800  1.0  0.108
  H  H412  1  0.596100  0.124200  0.939800  1.0  0.1082
  H  H413  1  0.060200  0.096100  0.375800  1.0  0.1089
  H  H414  1  0.560200  0.403900  0.624200  1.0  0.1087
  H  H415  1  0.439800  0.903900  0.875800  1.0  0.1082
  H  H416  1  0.939800  0.596100  0.124200  1.0  0.1093
  H  H417  1  0.375800  0.060200  0.096100  1.0  0.1074
  H  H418  1  0.624200  0.560200  0.403900  1.0  0.1071
  H  H419  1  0.875800  0.439800  0.903900  1.0  0.1077
  H  H420  1  0.124200  0.939800  0.596100  1.0  0.1076
  H  H421  1  0.903900  0.624200  0.939800  1.0  0.1079
  H  H422  1  0.596100  0.375800  0.439800  1.0  0.1082
  H  H423  1  0.096100  0.124200  0.560200  1.0  0.1074
  H  H424  1  0.403900  0.875800  0.060200  1.0  0.1081
  H  H425  1  0.939800  0.903900  0.624200  1.0  0.1089
  H  H426  1  0.439800  0.596100  0.375800  1.0  0.1081
  H  H427  1  0.560200  0.096100  0.124200  1.0  0.1088
  H  H428  1  0.060200  0.403900  0.875800  1.0  0.1092
  H  H429  1  0.624200  0.939800  0.903900  1.0  0.1074
  H  H430  1  0.375800  0.439800  0.596100  1.0  0.1075
  H  H431  1  0.124200  0.560200  0.096100  1.0  0.1075
  H  H432  1  0.875800  0.060200  0.403900  1.0  0.1075
  H  H433  1  0.145000  0.343200  0.109300  1.0  0.1167
  H  H434  1  0.355000  0.656800  0.609300  1.0  0.1175
  H  H435  1  0.855000  0.843200  0.390700  1.0  0.1171
  H  H436  1  0.645000  0.156800  0.890700  1.0  0.1164
  H  H437  1  0.109300  0.145000  0.343200  1.0  0.1155
  H  H438  1  0.609300  0.355000  0.656800  1.0  0.1165
  H  H439  1  0.390700  0.855000  0.843200  1.0  0.117
  H  H440  1  0.890700  0.645000  0.156800  1.0  0.1167
  H  H441  1  0.343200  0.109300  0.145000  1.0  0.1182
  H  H442  1  0.656800  0.609300  0.355000  1.0  0.1184
  H  H443  1  0.843200  0.390700  0.855000  1.0  0.1182
  H  H444  1  0.156800  0.890700  0.645000  1.0  0.1177
  H  H445  1  0.855000  0.656800  0.890700  1.0  0.1172
  H  H446  1  0.645000  0.343200  0.390700  1.0  0.1155
  H  H447  1  0.145000  0.156800  0.609300  1.0  0.1173
  H  H448  1  0.355000  0.843200  0.109300  1.0  0.118
  H  H449  1  0.890700  0.855000  0.656800  1.0  0.1162
  H  H450  1  0.390700  0.645000  0.343200  1.0  0.1154
  H  H451  1  0.609300  0.145000  0.156800  1.0  0.1164
  H  H452  1  0.109300  0.355000  0.843200  1.0  0.1173
  H  H453  1  0.656800  0.890700  0.855000  1.0  0.1188
  H  H454  1  0.343200  0.390700  0.645000  1.0  0.118
  H  H455  1  0.156800  0.609300  0.145000  1.0  0.1178
  H  H456  1  0.843200  0.109300  0.355000  1.0  0.1179
  H  H457  1  0.151500  0.297200  0.102400  1.0  0.1173
  H  H458  1  0.348500  0.702800  0.602400  1.0  0.1178
  H  H459  1  0.848500  0.797200  0.397600  1.0  0.1176
  H  H460  1  0.651500  0.202800  0.897600  1.0  0.1161
  H  H461  1  0.102400  0.151500  0.297200  1.0  0.1169
  H  H462  1  0.602400  0.348500  0.702800  1.0  0.1175
  H  H463  1  0.397600  0.848500  0.797200  1.0  0.1175
  H  H464  1  0.897600  0.651500  0.202800  1.0  0.1164
  H  H465  1  0.297200  0.102400  0.151500  1.0  0.1168
  H  H466  1  0.702800  0.602400  0.348500  1.0  0.1178
  H  H467  1  0.797200  0.397600  0.848500  1.0  0.1181
  H  H468  1  0.202800  0.897600  0.651500  1.0  0.1172
  H  H469  1  0.848500  0.702800  0.897600  1.0  0.1176
  H  H470  1  0.651500  0.297200  0.397600  1.0  0.1175
  H  H471  1  0.151500  0.202800  0.602400  1.0  0.1159
  H  H472  1  0.348500  0.797200  0.102400  1.0  0.1177
  H  H473  1  0.897600  0.848500  0.702800  1.0  0.1181
  H  H474  1  0.397600  0.651500  0.297200  1.0  0.1169
  H  H475  1  0.602400  0.151500  0.202800  1.0  0.1163
  H  H476  1  0.102400  0.348500  0.797200  1.0  0.117
  H  H477  1  0.702800  0.897600  0.848500  1.0  0.1179
  H  H478  1  0.297200  0.397600  0.651500  1.0  0.1171
  H  H479  1  0.202800  0.602400  0.151500  1.0  0.1169
  H  H480  1  0.797200  0.102400  0.348500  1.0  0.118
  H  H481  1  0.037000  0.403700  0.140400  1.0  0.1425
  H  H482  1  0.463000  0.596300  0.640400  1.0  0.1426
  H  H483  1  0.963000  0.903700  0.359600  1.0  0.1415
  H  H484  1  0.537000  0.096300  0.859600  1.0  0.1439
  H  H485  1  0.140400  0.037000  0.403700  1.0  0.1445
  H  H486  1  0.640400  0.463000  0.596300  1.0  0.1431
  H  H487  1  0.359600  0.963000  0.903700  1.0  0.1425
  H  H488  1  0.859600  0.537000  0.096300  1.0  0.1418
  H  H489  1  0.403700  0.140400  0.037000  1.0  0.1419
  H  H490  1  0.596300  0.640400  0.463000  1.0  0.1435
  H  H491  1  0.903700  0.359600  0.963000  1.0  0.1415
  H  H492  1  0.096300  0.859600  0.537000  1.0  0.1426
  H  H493  1  0.963000  0.596300  0.859600  1.0  0.1429
  H  H494  1  0.537000  0.403700  0.359600  1.0  0.1424
  H  H495  1  0.037000  0.096300  0.640400  1.0  0.1429
  H  H496  1  0.463000  0.903700  0.140400  1.0  0.142
  H  H497  1  0.859600  0.963000  0.596300  1.0  0.1419
  H  H498  1  0.359600  0.537000  0.403700  1.0  0.1432
  H  H499  1  0.640400  0.037000  0.096300  1.0  0.1429
  H  H500  1  0.140400  0.463000  0.903700  1.0  0.1433
  H  H501  1  0.596300  0.859600  0.963000  1.0  0.1421
  H  H502  1  0.403700  0.359600  0.537000  1.0  0.1421
  H  H503  1  0.096300  0.640400  0.037000  1.0  0.1428
  H  H504  1  0.903700  0.140400  0.463000  1.0  0.1428
  H  H505  1  0.082900  0.402000  0.130100  1.0  0.1233
  H  H506  1  0.417100  0.598000  0.630100  1.0  0.1233
  H  H507  1  0.917100  0.902000  0.369900  1.0  0.1229
  H  H508  1  0.582900  0.098000  0.869900  1.0  0.1236
  H  H509  1  0.130100  0.082900  0.402000  1.0  0.1252
  H  H510  1  0.630100  0.417100  0.598000  1.0  0.1238
  H  H511  1  0.369900  0.917100  0.902000  1.0  0.1256
  H  H512  1  0.869900  0.582900  0.098000  1.0  0.1249
  H  H513  1  0.402000  0.130100  0.082900  1.0  0.1233
  H  H514  1  0.598000  0.630100  0.417100  1.0  0.1248
  H  H515  1  0.902000  0.369900  0.917100  1.0  0.1244
  H  H516  1  0.098000  0.869900  0.582900  1.0  0.1247
  H  H517  1  0.917100  0.598000  0.869900  1.0  0.1242
  H  H518  1  0.582900  0.402000  0.369900  1.0  0.1224
  H  H519  1  0.082900  0.098000  0.630100  1.0  0.1225
  H  H520  1  0.417100  0.902000  0.130100  1.0  0.1235
  H  H521  1  0.869900  0.917100  0.598000  1.0  0.1248
  H  H522  1  0.369900  0.582900  0.402000  1.0  0.1253
  H  H523  1  0.630100  0.082900  0.098000  1.0  0.1244
  H  H524  1  0.130100  0.417100  0.902000  1.0  0.1257
  H  H525  1  0.598000  0.869900  0.917100  1.0  0.1259
  H  H526  1  0.402000  0.369900  0.582900  1.0  0.1232
  H  H527  1  0.098000  0.630100  0.082900  1.0  0.1249
  H  H528  1  0.902000  0.130100  0.417100  1.0  0.1236
  H  H529  1  0.115800  0.217600  0.219600  1.0  0.1283
  H  H530  1  0.384200  0.782400  0.719600  1.0  0.1307
  H  H531  1  0.884200  0.717600  0.280400  1.0  0.1298
  H  H532  1  0.615800  0.282400  0.780400  1.0  0.1292
  H  H533  1  0.219600  0.115800  0.217600  1.0  0.1301
  H  H534  1  0.719600  0.384200  0.782400  1.0  0.1296
  H  H535  1  0.280400  0.884200  0.717600  1.0  0.1287
  H  H536  1  0.780400  0.615800  0.282400  1.0  0.1287
  H  H537  1  0.217600  0.219600  0.115800  1.0  0.1287
  H  H538  1  0.782400  0.719600  0.384200  1.0  0.127
  H  H539  1  0.717600  0.280400  0.884200  1.0  0.1288
  H  H540  1  0.282400  0.780400  0.615800  1.0  0.1264
  H  H541  1  0.884200  0.782400  0.780400  1.0  0.1303
  H  H542  1  0.615800  0.217600  0.280400  1.0  0.1288
  H  H543  1  0.115800  0.282400  0.719600  1.0  0.1289
  H  H544  1  0.384200  0.717600  0.219600  1.0  0.1295
  H  H545  1  0.780400  0.884200  0.782400  1.0  0.1298
  H  H546  1  0.280400  0.615800  0.217600  1.0  0.1293
  H  H547  1  0.719600  0.115800  0.282400  1.0  0.129
  H  H548  1  0.219600  0.384200  0.717600  1.0  0.1287
  H  H549  1  0.782400  0.780400  0.884200  1.0  0.1272
  H  H550  1  0.217600  0.280400  0.615800  1.0  0.1282
  H  H551  1  0.282400  0.719600  0.115800  1.0  0.1268
  H  H552  1  0.717600  0.219600  0.384200  1.0  0.1284
  H  H553  1  0.103600  0.244700  0.256000  1.0  0.1133
  H  H554  1  0.396400  0.755300  0.756000  1.0  0.1129
  H  H555  1  0.896400  0.744700  0.244000  1.0  0.1136
  H  H556  1  0.603600  0.255300  0.744000  1.0  0.1141
  H  H557  1  0.256000  0.103600  0.244700  1.0  0.1143
  H  H558  1  0.756000  0.396400  0.755300  1.0  0.1135
  H  H559  1  0.244000  0.896400  0.744700  1.0  0.1138
  H  H560  1  0.744000  0.603600  0.255300  1.0  0.1131
  H  H561  1  0.244700  0.256000  0.103600  1.0  0.1121
  H  H562  1  0.755300  0.756000  0.396400  1.0  0.1127
  H  H563  1  0.744700  0.244000  0.896400  1.0  0.1126
  H  H564  1  0.255300  0.744000  0.603600  1.0  0.1135
  H  H565  1  0.896400  0.755300  0.744000  1.0  0.1144
  H  H566  1  0.603600  0.244700  0.244000  1.0  0.1135
  H  H567  1  0.103600  0.255300  0.756000  1.0  0.1129
  H  H568  1  0.396400  0.744700  0.256000  1.0  0.1132
  H  H569  1  0.744000  0.896400  0.755300  1.0  0.1134
  H  H570  1  0.244000  0.603600  0.244700  1.0  0.1134
  H  H571  1  0.756000  0.103600  0.255300  1.0  0.1132
  H  H572  1  0.256000  0.396400  0.744700  1.0  0.1145
  H  H573  1  0.755300  0.744000  0.896400  1.0  0.1122
  H  H574  1  0.244700  0.244000  0.603600  1.0  0.1137
  H  H575  1  0.255300  0.756000  0.103600  1.0  0.1124
  H  H576  1  0.744700  0.256000  0.396400  1.0  0.1127
  H  H577  1  0.003400  0.327100  0.258300  1.0  0.1198
  H  H578  1  0.496600  0.672900  0.758300  1.0  0.1197
  H  H579  1  0.996600  0.827100  0.241700  1.0  0.119
  H  H580  1  0.503400  0.172900  0.741700  1.0  0.1193
  H  H581  1  0.258300  0.003400  0.327100  1.0  0.1202
  H  H582  1  0.758300  0.496600  0.672900  1.0  0.1199
  H  H583  1  0.241700  0.996600  0.827100  1.0  0.1196
  H  H584  1  0.741700  0.503400  0.172900  1.0  0.1196
  H  H585  1  0.327100  0.258300  0.003400  1.0  0.1203
  H  H586  1  0.672900  0.758300  0.496600  1.0  0.1207
  H  H587  1  0.827100  0.241700  0.996600  1.0  0.1206
  H  H588  1  0.172900  0.741700  0.503400  1.0  0.1194
  H  H589  1  0.996600  0.672900  0.741700  1.0  0.1194
  H  H590  1  0.503400  0.327100  0.241700  1.0  0.1199
  H  H591  1  0.003400  0.172900  0.758300  1.0  0.12
  H  H592  1  0.496600  0.827100  0.258300  1.0  0.1189
  H  H593  1  0.741700  0.996600  0.672900  1.0  0.1197
  H  H594  1  0.241700  0.503400  0.327100  1.0  0.1201
  H  H595  1  0.758300  0.003400  0.172900  1.0  0.1202
  H  H596  1  0.258300  0.496600  0.827100  1.0  0.1195
  H  H597  1  0.672900  0.741700  0.996600  1.0  0.1205
  H  H598  1  0.327100  0.241700  0.503400  1.0  0.1193
  H  H599  1  0.172900  0.758300  0.003400  1.0  0.1206
  H  H600  1  0.827100  0.258300  0.496600  1.0  0.1207
  H  H601  1  0.040700  0.306200  0.277600  1.0  0.1125
  H  H602  1  0.459300  0.693800  0.777600  1.0  0.1129
  H  H603  1  0.959300  0.806200  0.222400  1.0  0.1128
  H  H604  1  0.540700  0.193800  0.722400  1.0  0.1127
  H  H605  1  0.277600  0.040700  0.306200  1.0  0.1136
  H  H606  1  0.777600  0.459300  0.693800  1.0  0.1137
  H  H607  1  0.222400  0.959300  0.806200  1.0  0.114
  H  H608  1  0.722400  0.540700  0.193800  1.0  0.1144
  H  H609  1  0.306200  0.277600  0.040700  1.0  0.1105
  H  H610  1  0.693800  0.777600  0.459300  1.0  0.1116
  H  H611  1  0.806200  0.222400  0.959300  1.0  0.1123
  H  H612  1  0.193800  0.722400  0.540700  1.0  0.1121
  H  H613  1  0.959300  0.693800  0.722400  1.0  0.1121
  H  H614  1  0.540700  0.306200  0.222400  1.0  0.1131
  H  H615  1  0.040700  0.193800  0.777600  1.0  0.1135
  H  H616  1  0.459300  0.806200  0.277600  1.0  0.1123
  H  H617  1  0.722400  0.959300  0.693800  1.0  0.1139
  H  H618  1  0.222400  0.540700  0.306200  1.0  0.1136
  H  H619  1  0.777600  0.040700  0.193800  1.0  0.1144
  H  H620  1  0.277600  0.459300  0.806200  1.0  0.1136
  H  H621  1  0.693800  0.722400  0.959300  1.0  0.1119
  H  H622  1  0.306200  0.222400  0.540700  1.0  0.1123
  H  H623  1  0.193800  0.777600  0.040700  1.0  0.1103
  H  H624  1  0.806200  0.277600  0.459300  1.0  0.112
  H  H625  1  0.056700  0.249600  0.305600  1.0  0.1157
  H  H626  1  0.443300  0.750400  0.805600  1.0  0.1176
  H  H627  1  0.943300  0.749600  0.194400  1.0  0.1161
  H  H628  1  0.556700  0.250400  0.694400  1.0  0.1149
  H  H629  1  0.305600  0.056700  0.249600  1.0  0.114
  H  H630  1  0.805600  0.443300  0.750400  1.0  0.1131
  H  H631  1  0.194400  0.943300  0.749600  1.0  0.1147
  H  H632  1  0.694400  0.556700  0.250400  1.0  0.1157
  H  H633  1  0.249600  0.305600  0.056700  1.0  0.1144
  H  H634  1  0.750400  0.805600  0.443300  1.0  0.1173
  H  H635  1  0.749600  0.194400  0.943300  1.0  0.1146
  H  H636  1  0.250400  0.694400  0.556700  1.0  0.1167
  H  H637  1  0.943300  0.750400  0.694400  1.0  0.1142
  H  H638  1  0.556700  0.249600  0.194400  1.0  0.1161
  H  H639  1  0.056700  0.250400  0.805600  1.0  0.117
  H  H640  1  0.443300  0.749600  0.305600  1.0  0.1167
  H  H641  1  0.694400  0.943300  0.750400  1.0  0.1134
  H  H642  1  0.194400  0.556700  0.249600  1.0  0.1145
  H  H643  1  0.805600  0.056700  0.250400  1.0  0.1146
  H  H644  1  0.305600  0.443300  0.749600  1.0  0.1149
  H  H645  1  0.750400  0.694400  0.943300  1.0  0.115
  H  H646  1  0.249600  0.194400  0.556700  1.0  0.1165
  H  H647  1  0.250400  0.805600  0.056700  1.0  0.1149
  H  H648  1  0.749600  0.305600  0.443300  1.0  0.1167
  H  H649  1  0.053200  0.202800  0.304000  1.0  0.121
  H  H650  1  0.446800  0.797200  0.804000  1.0  0.1214
  H  H651  1  0.946800  0.702800  0.196000  1.0  0.1213
  H  H652  1  0.553200  0.297200  0.696000  1.0  0.121
  H  H653  1  0.304000  0.053200  0.202800  1.0  0.1225
  H  H654  1  0.804000  0.446800  0.797200  1.0  0.1218
  H  H655  1  0.196000  0.946800  0.702800  1.0  0.1231
  H  H656  1  0.696000  0.553200  0.297200  1.0  0.1214
  H  H657  1  0.202800  0.304000  0.053200  1.0  0.1215
  H  H658  1  0.797200  0.804000  0.446800  1.0  0.122
  H  H659  1  0.702800  0.196000  0.946800  1.0  0.1211
  H  H660  1  0.297200  0.696000  0.553200  1.0  0.1234
  H  H661  1  0.946800  0.797200  0.696000  1.0  0.1219
  H  H662  1  0.553200  0.202800  0.196000  1.0  0.1207
  H  H663  1  0.053200  0.297200  0.804000  1.0  0.1201
  H  H664  1  0.446800  0.702800  0.304000  1.0  0.1219
  H  H665  1  0.696000  0.946800  0.797200  1.0  0.1223
  H  H666  1  0.196000  0.553200  0.202800  1.0  0.1227
  H  H667  1  0.804000  0.053200  0.297200  1.0  0.1216
  H  H668  1  0.304000  0.446800  0.702800  1.0  0.1221
  H  H669  1  0.797200  0.696000  0.946800  1.0  0.1219
  H  H670  1  0.202800  0.196000  0.553200  1.0  0.1227
  H  H671  1  0.297200  0.804000  0.053200  1.0  0.1218
  H  H672  1  0.702800  0.304000  0.446800  1.0  0.1224
  H  H673  1  0.011900  0.222500  0.356400  1.0  0.1252
  H  H674  1  0.488100  0.777500  0.856400  1.0  0.1246
  H  H675  1  0.988100  0.722500  0.143600  1.0  0.1251
  H  H676  1  0.511900  0.277500  0.643600  1.0  0.1258
  H  H677  1  0.356400  0.011900  0.222500  1.0  0.1234
  H  H678  1  0.856400  0.488100  0.777500  1.0  0.1235
  H  H679  1  0.143600  0.988100  0.722500  1.0  0.1255
  H  H680  1  0.643600  0.511900  0.277500  1.0  0.1258
  H  H681  1  0.222500  0.356400  0.011900  1.0  0.1266
  H  H682  1  0.777500  0.856400  0.488100  1.0  0.1273
  H  H683  1  0.722500  0.143600  0.988100  1.0  0.1225
  H  H684  1  0.277500  0.643600  0.511900  1.0  0.1236
  H  H685  1  0.988100  0.777500  0.643600  1.0  0.125
  H  H686  1  0.511900  0.222500  0.143600  1.0  0.1259
  H  H687  1  0.011900  0.277500  0.856400  1.0  0.125
  H  H688  1  0.488100  0.722500  0.356400  1.0  0.1247
  H  H689  1  0.643600  0.988100  0.777500  1.0  0.126
  H  H690  1  0.143600  0.511900  0.222500  1.0  0.1255
  H  H691  1  0.856400  0.011900  0.277500  1.0  0.1238
  H  H692  1  0.356400  0.488100  0.722500  1.0  0.1232
  H  H693  1  0.777500  0.643600  0.988100  1.0  0.1227
  H  H694  1  0.222500  0.143600  0.511900  1.0  0.1232
  H  H695  1  0.277500  0.856400  0.011900  1.0  0.1264
  H  H696  1  0.722500  0.356400  0.488100  1.0  0.1274
  H  H697  1  0.992100  0.256400  0.330500  1.0  0.1121
  H  H698  1  0.507900  0.743600  0.830500  1.0  0.1119
  H  H699  1  0.007900  0.756400  0.169500  1.0  0.1134
  H  H700  1  0.492100  0.243600  0.669500  1.0  0.1114
  H  H701  1  0.330500  0.992100  0.256400  1.0  0.115
  H  H702  1  0.830500  0.507900  0.743600  1.0  0.1144
  H  H703  1  0.169500  0.007900  0.756400  1.0  0.1158
  H  H704  1  0.669500  0.492100  0.243600  1.0  0.1151
  H  H705  1  0.256400  0.330500  0.992100  1.0  0.1089
  H  H706  1  0.743600  0.830500  0.507900  1.0  0.1097
  H  H707  1  0.756400  0.169500  0.007900  1.0  0.1086
  H  H708  1  0.243600  0.669500  0.492100  1.0  0.1092
  H  H709  1  0.007900  0.743600  0.669500  1.0  0.1112
  H  H710  1  0.492100  0.256400  0.169500  1.0  0.1133
  H  H711  1  0.992100  0.243600  0.830500  1.0  0.112
  H  H712  1  0.507900  0.756400  0.330500  1.0  0.1123
  H  H713  1  0.669500  0.007900  0.743600  1.0  0.1151
  H  H714  1  0.169500  0.492100  0.256400  1.0  0.1161
  H  H715  1  0.830500  0.992100  0.243600  1.0  0.1141
  H  H716  1  0.330500  0.507900  0.756400  1.0  0.1154
  H  H717  1  0.743600  0.669500  0.007900  1.0  0.1094
  H  H718  1  0.256400  0.169500  0.492100  1.0  0.1084
  H  H719  1  0.243600  0.830500  0.992100  1.0  0.1098
  H  H720  1  0.756400  0.330500  0.507900  1.0  0.109
  H  H721  1  0.962400  0.182700  0.340300  1.0  0.1178
  H  H722  1  0.537600  0.817300  0.840300  1.0  0.1175
  H  H723  1  0.037600  0.682700  0.159700  1.0  0.1167
  H  H724  1  0.462400  0.317300  0.659700  1.0  0.1171
  H  H725  1  0.340300  0.962400  0.182700  1.0  0.1175
  H  H726  1  0.840300  0.537600  0.817300  1.0  0.1172
  H  H727  1  0.159700  0.037600  0.682700  1.0  0.1186
  H  H728  1  0.659700  0.462400  0.317300  1.0  0.1175
  H  H729  1  0.182700  0.340300  0.962400  1.0  0.1162
  H  H730  1  0.817300  0.840300  0.537600  1.0  0.1158
  H  H731  1  0.682700  0.159700  0.037600  1.0  0.1174
  H  H732  1  0.317300  0.659700  0.462400  1.0  0.117
  H  H733  1  0.037600  0.817300  0.659700  1.0  0.1172
  H  H734  1  0.462400  0.182700  0.159700  1.0  0.1165
  H  H735  1  0.962400  0.317300  0.840300  1.0  0.1169
  H  H736  1  0.537600  0.682700  0.340300  1.0  0.1181
  H  H737  1  0.659700  0.037600  0.817300  1.0  0.1175
  H  H738  1  0.159700  0.462400  0.182700  1.0  0.1185
  H  H739  1  0.840300  0.962400  0.317300  1.0  0.1173
  H  H740  1  0.340300  0.537600  0.682700  1.0  0.1173
  H  H741  1  0.817300  0.659700  0.037600  1.0  0.1174
  H  H742  1  0.182700  0.159700  0.462400  1.0  0.1168
  H  H743  1  0.317300  0.840300  0.962400  1.0  0.1158
  H  H744  1  0.682700  0.340300  0.537600  1.0  0.1163
  H  H745  1  0.944300  0.215500  0.311900  1.0  0.0988
  H  H746  1  0.555700  0.784500  0.811900  1.0  0.0972
  H  H747  1  0.055700  0.715500  0.188100  1.0  0.0981
  H  H748  1  0.444300  0.284500  0.688100  1.0  0.0978
  H  H749  1  0.311900  0.944300  0.215500  1.0  0.0964
  H  H750  1  0.811900  0.555700  0.784500  1.0  0.0968
  H  H751  1  0.188100  0.055700  0.715500  1.0  0.0948
  H  H752  1  0.688100  0.444300  0.284500  1.0  0.0962
  H  H753  1  0.215500  0.311900  0.944300  1.0  0.0965
  H  H754  1  0.784500  0.811900  0.555700  1.0  0.0964
  H  H755  1  0.715500  0.188100  0.055700  1.0  0.0959
  H  H756  1  0.284500  0.688100  0.444300  1.0  0.0969
  H  H757  1  0.055700  0.784500  0.688100  1.0  0.0971
  H  H758  1  0.444300  0.215500  0.188100  1.0  0.0986
  H  H759  1  0.944300  0.284500  0.811900  1.0  0.0981
  H  H760  1  0.555700  0.715500  0.311900  1.0  0.0979
  H  H761  1  0.688100  0.055700  0.784500  1.0  0.0963
  H  H762  1  0.188100  0.444300  0.215500  1.0  0.096
  H  H763  1  0.811900  0.944300  0.284500  1.0  0.0966
  H  H764  1  0.311900  0.555700  0.715500  1.0  0.0952
  H  H765  1  0.784500  0.688100  0.055700  1.0  0.0967
  H  H766  1  0.215500  0.188100  0.444300  1.0  0.0962
  H  H767  1  0.284500  0.811900  0.944300  1.0  0.0976
  H  H768  1  0.715500  0.311900  0.555700  1.0  0.0955
  H  H769  1  0.954800  0.158500  0.274200  1.0  0.0996
  H  H770  1  0.545200  0.841500  0.774200  1.0  0.0987
  H  H771  1  0.045200  0.658500  0.225800  1.0  0.0993
  H  H772  1  0.454800  0.341500  0.725800  1.0  0.0998
  H  H773  1  0.274200  0.954800  0.158500  1.0  0.098
  H  H774  1  0.774200  0.545200  0.841500  1.0  0.0975
  H  H775  1  0.225800  0.045200  0.658500  1.0  0.1
  H  H776  1  0.725800  0.454800  0.341500  1.0  0.1005
  H  H777  1  0.158500  0.274200  0.954800  1.0  0.1022
  H  H778  1  0.841500  0.774200  0.545200  1.0  0.1002
  H  H779  1  0.658500  0.225800  0.045200  1.0  0.1014
  H  H780  1  0.341500  0.725800  0.454800  1.0  0.1011
  H  H781  1  0.045200  0.841500  0.725800  1.0  0.0998
  H  H782  1  0.454800  0.158500  0.225800  1.0  0.0998
  H  H783  1  0.954800  0.341500  0.774200  1.0  0.0997
  H  H784  1  0.545200  0.658500  0.274200  1.0  0.0986
  H  H785  1  0.725800  0.045200  0.841500  1.0  0.0984
  H  H786  1  0.225800  0.454800  0.158500  1.0  0.0988
  H  H787  1  0.774200  0.954800  0.341500  1.0  0.0997
  H  H788  1  0.274200  0.545200  0.658500  1.0  0.0994
  H  H789  1  0.841500  0.725800  0.045200  1.0  0.1014
  H  H790  1  0.158500  0.225800  0.454800  1.0  0.1017
  H  H791  1  0.341500  0.774200  0.954800  1.0  0.1012
  H  H792  1  0.658500  0.274200  0.545200  1.0  0.1004
  H  H793  1  0.999600  0.155700  0.288500  1.0  0.1053
  H  H794  1  0.500400  0.844300  0.788500  1.0  0.1057
  H  H795  1  0.000400  0.655700  0.211500  1.0  0.1044
  H  H796  1  0.499600  0.344300  0.711500  1.0  0.104
  H  H797  1  0.288500  0.999600  0.155700  1.0  0.1066
  H  H798  1  0.788500  0.500400  0.844300  1.0  0.1077
  H  H799  1  0.211500  0.000400  0.655700  1.0  0.1072
  H  H800  1  0.711500  0.499600  0.344300  1.0  0.1073
  H  H801  1  0.155700  0.288500  0.999600  1.0  0.1041
  H  H802  1  0.844300  0.788500  0.500400  1.0  0.103
  H  H803  1  0.655700  0.211500  0.000400  1.0  0.1036
  H  H804  1  0.344300  0.711500  0.499600  1.0  0.1039
  H  H805  1  0.000400  0.844300  0.711500  1.0  0.1057
  H  H806  1  0.499600  0.155700  0.211500  1.0  0.1034
  H  H807  1  0.999600  0.344300  0.788500  1.0  0.1043
  H  H808  1  0.500400  0.655700  0.288500  1.0  0.1056
  H  H809  1  0.711500  0.000400  0.844300  1.0  0.1081
  H  H810  1  0.211500  0.499600  0.155700  1.0  0.1073
  H  H811  1  0.788500  0.999600  0.344300  1.0  0.1064
  H  H812  1  0.288500  0.500400  0.655700  1.0  0.1072
  H  H813  1  0.844300  0.711500  0.000400  1.0  0.1027
  H  H814  1  0.155700  0.211500  0.499600  1.0  0.1045
  H  H815  1  0.344300  0.788500  0.999600  1.0  0.1036
  H  H816  1  0.655700  0.288500  0.500400  1.0  0.1039
  H  H817  1  0.896900  0.233200  0.976900  1.0  0.1003
  H  H818  1  0.603100  0.766800  0.476900  1.0  0.1003
  H  H819  1  0.103100  0.733200  0.523100  1.0  0.1003
  H  H820  1  0.396900  0.266800  0.023100  1.0  0.1002
  H  H821  1  0.976900  0.896900  0.233200  1.0  0.1009
  H  H822  1  0.476900  0.603100  0.766800  1.0  0.1007
  H  H823  1  0.523100  0.103100  0.733200  1.0  0.1009
  H  H824  1  0.023100  0.396900  0.266800  1.0  0.1007
  H  H825  1  0.233200  0.976900  0.896900  1.0  0.1015
  H  H826  1  0.766800  0.476900  0.603100  1.0  0.1036
  H  H827  1  0.733200  0.523100  0.103100  1.0  0.1011
  H  H828  1  0.266800  0.023100  0.396900  1.0  0.1035
  H  H829  1  0.103100  0.766800  0.023100  1.0  0.1003
  H  H830  1  0.396900  0.233200  0.523100  1.0  0.101
  H  H831  1  0.896900  0.266800  0.476900  1.0  0.1001
  H  H832  1  0.603100  0.733200  0.976900  1.0  0.1
  H  H833  1  0.023100  0.103100  0.766800  1.0  0.0999
  H  H834  1  0.523100  0.396900  0.233200  1.0  0.1008
  H  H835  1  0.476900  0.896900  0.266800  1.0  0.1014
  H  H836  1  0.976900  0.603100  0.733200  1.0  0.1011
  H  H837  1  0.766800  0.023100  0.103100  1.0  0.1036
  H  H838  1  0.233200  0.523100  0.396900  1.0  0.1014
  H  H839  1  0.266800  0.476900  0.896900  1.0  0.1032
  H  H840  1  0.733200  0.976900  0.603100  1.0  0.1016
  H  H841  1  0.902300  0.189900  0.994700  1.0  0.1039
  H  H842  1  0.597700  0.810100  0.494700  1.0  0.103
  H  H843  1  0.097700  0.689900  0.505300  1.0  0.1047
  H  H844  1  0.402300  0.310100  0.005300  1.0  0.1049
  H  H845  1  0.994700  0.902300  0.189900  1.0  0.1032
  H  H846  1  0.494700  0.597700  0.810100  1.0  0.1037
  H  H847  1  0.505300  0.097700  0.689900  1.0  0.1042
  H  H848  1  0.005300  0.402300  0.310100  1.0  0.1049
  H  H849  1  0.189900  0.994700  0.902300  1.0  0.1032
  H  H850  1  0.810100  0.494700  0.597700  1.0  0.1039
  H  H851  1  0.689900  0.505300  0.097700  1.0  0.1039
  H  H852  1  0.310100  0.005300  0.402300  1.0  0.1028
  H  H853  1  0.097700  0.810100  0.005300  1.0  0.1033
  H  H854  1  0.402300  0.189900  0.505300  1.0  0.1044
  H  H855  1  0.902300  0.310100  0.494700  1.0  0.1041
  H  H856  1  0.597700  0.689900  0.994700  1.0  0.1045
  H  H857  1  0.005300  0.097700  0.810100  1.0  0.1037
  H  H858  1  0.505300  0.402300  0.189900  1.0  0.103
  H  H859  1  0.494700  0.902300  0.310100  1.0  0.1053
  H  H860  1  0.994700  0.597700  0.689900  1.0  0.104
  H  H861  1  0.810100  0.005300  0.097700  1.0  0.1038
  H  H862  1  0.189900  0.505300  0.402300  1.0  0.1036
  H  H863  1  0.310100  0.494700  0.902300  1.0  0.1026
  H  H864  1  0.689900  0.994700  0.597700  1.0  0.1037
  H  H865  1  0.922500  0.192200  0.925600  1.0  0.1045
  H  H866  1  0.577500  0.807800  0.425600  1.0  0.1046
  H  H867  1  0.077500  0.692200  0.574400  1.0  0.1057
  H  H868  1  0.422500  0.307800  0.074400  1.0  0.1048
  H  H869  1  0.925600  0.922500  0.192200  1.0  0.101
  H  H870  1  0.425600  0.577500  0.807800  1.0  0.104
  H  H871  1  0.574400  0.077500  0.692200  1.0  0.1034
  H  H872  1  0.074400  0.422500  0.307800  1.0  0.1028
  H  H873  1  0.192200  0.925600  0.922500  1.0  0.1046
  H  H874  1  0.807800  0.425600  0.577500  1.0  0.1057
  H  H875  1  0.692200  0.574400  0.077500  1.0  0.1057
  H  H876  1  0.307800  0.074400  0.422500  1.0  0.1039
  H  H877  1  0.077500  0.807800  0.074400  1.0  0.1048
  H  H878  1  0.422500  0.192200  0.574400  1.0  0.1059
  H  H879  1  0.922500  0.307800  0.425600  1.0  0.105
  H  H880  1  0.577500  0.692200  0.925600  1.0  0.1037
  H  H881  1  0.074400  0.077500  0.807800  1.0  0.103
  H  H882  1  0.574400  0.422500  0.192200  1.0  0.1026
  H  H883  1  0.425600  0.922500  0.307800  1.0  0.1041
  H  H884  1  0.925600  0.577500  0.692200  1.0  0.1005
  H  H885  1  0.807800  0.074400  0.077500  1.0  0.1043
  H  H886  1  0.192200  0.574400  0.422500  1.0  0.1048
  H  H887  1  0.307800  0.425600  0.922500  1.0  0.1045
  H  H888  1  0.692200  0.925600  0.577500  1.0  0.1062
  H  H889  1  0.957800  0.177800  0.953200  1.0  0.1167
  H  H890  1  0.542200  0.822200  0.453200  1.0  0.1206
  H  H891  1  0.042200  0.677800  0.546800  1.0  0.1164
  H  H892  1  0.457800  0.322200  0.046800  1.0  0.1195
  H  H893  1  0.953200  0.957800  0.177800  1.0  0.1184
  H  H894  1  0.453200  0.542200  0.822200  1.0  0.1194
  H  H895  1  0.546800  0.042200  0.677800  1.0  0.1179
  H  H896  1  0.046800  0.457800  0.322200  1.0  0.118
  H  H897  1  0.177800  0.953200  0.957800  1.0  0.1157
  H  H898  1  0.822200  0.453200  0.542200  1.0  0.1133
  H  H899  1  0.677800  0.546800  0.042200  1.0  0.1164
  H  H900  1  0.322200  0.046800  0.457800  1.0  0.1136
  H  H901  1  0.042200  0.822200  0.046800  1.0  0.1204
  H  H902  1  0.457800  0.177800  0.546800  1.0  0.1164
  H  H903  1  0.957800  0.322200  0.453200  1.0  0.1203
  H  H904  1  0.542200  0.677800  0.953200  1.0  0.1164
  H  H905  1  0.046800  0.042200  0.822200  1.0  0.1178
  H  H906  1  0.546800  0.457800  0.177800  1.0  0.1185
  H  H907  1  0.453200  0.957800  0.322200  1.0  0.1192
  H  H908  1  0.953200  0.542200  0.677800  1.0  0.118
  H  H909  1  0.822200  0.046800  0.042200  1.0  0.1142
  H  H910  1  0.177800  0.546800  0.457800  1.0  0.1167
  H  H911  1  0.322200  0.453200  0.957800  1.0  0.1127
  H  H912  1  0.677800  0.953200  0.542200  1.0  0.1154
  H  H913  1  0.995600  0.227200  0.930100  1.0  0.1058
  H  H914  1  0.504400  0.772800  0.430100  1.0  0.1046
  H  H915  1  0.004400  0.727200  0.569900  1.0  0.1072
  H  H916  1  0.495600  0.272800  0.069900  1.0  0.1054
  H  H917  1  0.930100  0.995600  0.227200  1.0  0.1098
  H  H918  1  0.430100  0.504400  0.772800  1.0  0.1071
  H  H919  1  0.569900  0.004400  0.727200  1.0  0.1059
  H  H920  1  0.069900  0.495600  0.272800  1.0  0.1081
  H  H921  1  0.227200  0.930100  0.995600  1.0  0.114
  H  H922  1  0.772800  0.430100  0.504400  1.0  0.1124
  H  H923  1  0.727200  0.569900  0.004400  1.0  0.1123
  H  H924  1  0.272800  0.069900  0.495600  1.0  0.113
  H  H925  1  0.004400  0.772800  0.069900  1.0  0.1066
  H  H926  1  0.495600  0.227200  0.569900  1.0  0.1054
  H  H927  1  0.995600  0.272800  0.430100  1.0  0.1066
  H  H928  1  0.504400  0.727200  0.930100  1.0  0.1053
  H  H929  1  0.069900  0.004400  0.772800  1.0  0.1077
  H  H930  1  0.569900  0.495600  0.227200  1.0  0.1086
  H  H931  1  0.430100  0.995600  0.272800  1.0  0.1097
  H  H932  1  0.930100  0.504400  0.727200  1.0  0.1053
  H  H933  1  0.772800  0.069900  0.004400  1.0  0.1123
  H  H934  1  0.227200  0.569900  0.495600  1.0  0.1131
  H  H935  1  0.272800  0.430100  0.995600  1.0  0.1136
  H  H936  1  0.727200  0.930100  0.504400  1.0  0.1126
  H  H937  1  0.960000  0.242100  0.903200  1.0  0.1144
  H  H938  1  0.540000  0.757900  0.403200  1.0  0.1159
  H  H939  1  0.040000  0.742100  0.596800  1.0  0.1139
  H  H940  1  0.460000  0.257900  0.096800  1.0  0.1132
  H  H941  1  0.903200  0.960000  0.242100  1.0  0.1101
  H  H942  1  0.403200  0.540000  0.757900  1.0  0.1113
  H  H943  1  0.596800  0.040000  0.742100  1.0  0.1101
  H  H944  1  0.096800  0.460000  0.257900  1.0  0.1115
  H  H945  1  0.242100  0.903200  0.960000  1.0  0.1051
  H  H946  1  0.757900  0.403200  0.540000  1.0  0.1072
  H  H947  1  0.742100  0.596800  0.040000  1.0  0.1098
  H  H948  1  0.257900  0.096800  0.460000  1.0  0.1089
  H  H949  1  0.040000  0.757900  0.096800  1.0  0.1139
  H  H950  1  0.460000  0.242100  0.596800  1.0  0.1131
  H  H951  1  0.960000  0.257900  0.403200  1.0  0.1154
  H  H952  1  0.540000  0.742100  0.903200  1.0  0.1149
  H  H953  1  0.096800  0.040000  0.757900  1.0  0.111
  H  H954  1  0.596800  0.460000  0.242100  1.0  0.1103
  H  H955  1  0.403200  0.960000  0.257900  1.0  0.1114
  H  H956  1  0.903200  0.540000  0.742100  1.0  0.11
  H  H957  1  0.757900  0.096800  0.040000  1.0  0.1086
  H  H958  1  0.242100  0.596800  0.460000  1.0  0.1099
  H  H959  1  0.257900  0.403200  0.960000  1.0  0.1074
  H  H960  1  0.742100  0.903200  0.540000  1.0  0.1054
  H  H961  1  0.937300  0.284000  0.953100  1.0  0.1054
  H  H962  1  0.562700  0.716000  0.453100  1.0  0.105
  H  H963  1  0.062700  0.784000  0.546900  1.0  0.1061
  H  H964  1  0.437300  0.216000  0.046900  1.0  0.1047
  H  H965  1  0.953100  0.937300  0.284000  1.0  0.1065
  H  H966  1  0.453100  0.562700  0.716000  1.0  0.1061
  H  H967  1  0.546900  0.062700  0.784000  1.0  0.1052
  H  H968  1  0.046900  0.437300  0.216000  1.0  0.1061
  H  H969  1  0.284000  0.953100  0.937300  1.0  0.1052
  H  H970  1  0.716000  0.453100  0.562700  1.0  0.1047
  H  H971  1  0.784000  0.546900  0.062700  1.0  0.1047
  H  H972  1  0.216000  0.046900  0.437300  1.0  0.1057
  H  H973  1  0.062700  0.716000  0.046900  1.0  0.1058
  H  H974  1  0.437300  0.284000  0.546900  1.0  0.1052
  H  H975  1  0.937300  0.216000  0.453100  1.0  0.104
  H  H976  1  0.562700  0.784000  0.953100  1.0  0.1064
  H  H977  1  0.046900  0.062700  0.716000  1.0  0.1053
  H  H978  1  0.546900  0.437300  0.284000  1.0  0.1064
  H  H979  1  0.453100  0.937300  0.216000  1.0  0.1057
  H  H980  1  0.953100  0.562700  0.784000  1.0  0.1063
  H  H981  1  0.716000  0.046900  0.062700  1.0  0.1048
  H  H982  1  0.284000  0.546900  0.437300  1.0  0.1054
  H  H983  1  0.216000  0.453100  0.937300  1.0  0.1057
  H  H984  1  0.784000  0.953100  0.562700  1.0  0.1045
  H  H985  1  0.983000  0.293000  0.946400  1.0  0.1087
  H  H986  1  0.517000  0.707000  0.446400  1.0  0.1083
  H  H987  1  0.017000  0.793000  0.553600  1.0  0.1071
  H  H988  1  0.483000  0.207000  0.053600  1.0  0.1082
  H  H989  1  0.946400  0.983000  0.293000  1.0  0.1074
  H  H990  1  0.446400  0.517000  0.707000  1.0  0.1082
  H  H991  1  0.553600  0.017000  0.793000  1.0  0.1076
  H  H992  1  0.053600  0.483000  0.207000  1.0  0.1081
  H  H993  1  0.293000  0.946400  0.983000  1.0  0.1079
  H  H994  1  0.707000  0.446400  0.517000  1.0  0.1078
  H  H995  1  0.793000  0.553600  0.017000  1.0  0.108
  H  H996  1  0.207000  0.053600  0.483000  1.0  0.1067
  H  H997  1  0.017000  0.707000  0.053600  1.0  0.1086
  H  H998  1  0.483000  0.293000  0.553600  1.0  0.1062
  H  H999  1  0.983000  0.207000  0.446400  1.0  0.1079
  H  H1000  1  0.517000  0.793000  0.946400  1.0  0.1103
  H  H1001  1  0.053600  0.017000  0.707000  1.0  0.1073
  H  H1002  1  0.553600  0.483000  0.293000  1.0  0.1069
  H  H1003  1  0.446400  0.983000  0.207000  1.0  0.1094
  H  H1004  1  0.946400  0.517000  0.793000  1.0  0.1081
  H  H1005  1  0.707000  0.053600  0.017000  1.0  0.1083
  H  H1006  1  0.293000  0.553600  0.483000  1.0  0.1067
  H  H1007  1  0.207000  0.446400  0.983000  1.0  0.1084
  H  H1008  1  0.793000  0.946400  0.517000  1.0  0.1073
  H  H1009  1  0.143600  0.383800  0.164500  1.0  0.1051
  H  H1010  1  0.356400  0.616200  0.664500  1.0  0.1041
  H  H1011  1  0.856400  0.883800  0.335500  1.0  0.1026
  H  H1012  1  0.643600  0.116200  0.835500  1.0  0.104
  H  H1013  1  0.164500  0.143600  0.383800  1.0  0.1052
  H  H1014  1  0.664500  0.356400  0.616200  1.0  0.1047
  H  H1015  1  0.335500  0.856400  0.883800  1.0  0.1051
  H  H1016  1  0.835500  0.643600  0.116200  1.0  0.1062
  H  H1017  1  0.383800  0.164500  0.143600  1.0  0.1038
  H  H1018  1  0.616200  0.664500  0.356400  1.0  0.1026
  H  H1019  1  0.883800  0.335500  0.856400  1.0  0.1044
  H  H1020  1  0.116200  0.835500  0.643600  1.0  0.1037
  H  H1021  1  0.856400  0.616200  0.835500  1.0  0.1041
  H  H1022  1  0.643600  0.383800  0.335500  1.0  0.1032
  H  H1023  1  0.143600  0.116200  0.664500  1.0  0.1039
  H  H1024  1  0.356400  0.883800  0.164500  1.0  0.1048
  H  H1025  1  0.835500  0.856400  0.616200  1.0  0.1055
  H  H1026  1  0.335500  0.643600  0.383800  1.0  0.1049
  H  H1027  1  0.664500  0.143600  0.116200  1.0  0.106
  H  H1028  1  0.164500  0.356400  0.883800  1.0  0.105
  H  H1029  1  0.616200  0.835500  0.856400  1.0  0.1043
  H  H1030  1  0.383800  0.335500  0.643600  1.0  0.103
  H  H1031  1  0.116200  0.664500  0.143600  1.0  0.1038
  H  H1032  1  0.883800  0.164500  0.356400  1.0  0.1032
  H  H1033  1  0.124100  0.389700  0.206800  1.0  0.1071
  H  H1034  1  0.375900  0.610300  0.706800  1.0  0.109
  H  H1035  1  0.875900  0.889700  0.293200  1.0  0.1064
  H  H1036  1  0.624100  0.110300  0.793200  1.0  0.1088
  H  H1037  1  0.206800  0.124100  0.389700  1.0  0.1104
  H  H1038  1  0.706800  0.375900  0.610300  1.0  0.1084
  H  H1039  1  0.293200  0.875900  0.889700  1.0  0.1109
  H  H1040  1  0.793200  0.624100  0.110300  1.0  0.1102
  H  H1041  1  0.389700  0.206800  0.124100  1.0  0.1077
  H  H1042  1  0.610300  0.706800  0.375900  1.0  0.1073
  H  H1043  1  0.889700  0.293200  0.875900  1.0  0.1072
  H  H1044  1  0.110300  0.793200  0.624100  1.0  0.1068
  H  H1045  1  0.875900  0.610300  0.793200  1.0  0.1079
  H  H1046  1  0.624100  0.389700  0.293200  1.0  0.1072
  H  H1047  1  0.124100  0.110300  0.706800  1.0  0.1098
  H  H1048  1  0.375900  0.889700  0.206800  1.0  0.1065
  H  H1049  1  0.793200  0.875900  0.610300  1.0  0.1088
  H  H1050  1  0.293200  0.624100  0.389700  1.0  0.1107
  H  H1051  1  0.706800  0.124100  0.110300  1.0  0.1096
  H  H1052  1  0.206800  0.375900  0.889700  1.0  0.1106
  H  H1053  1  0.610300  0.793200  0.875900  1.0  0.1073
  H  H1054  1  0.389700  0.293200  0.624100  1.0  0.1073
  H  H1055  1  0.110300  0.706800  0.124100  1.0  0.107
  H  H1056  1  0.889700  0.206800  0.375900  1.0  0.1075
  H  H1057  1  0.188100  0.374100  0.218600  1.0  0.1028
  H  H1058  1  0.311900  0.625900  0.718600  1.0  0.1004
  H  H1059  1  0.811900  0.874100  0.281400  1.0  0.1011
  H  H1060  1  0.688100  0.125900  0.781400  1.0  0.1026
  H  H1061  1  0.218600  0.188100  0.374100  1.0  0.1009
  H  H1062  1  0.718600  0.311900  0.625900  1.0  0.1019
  H  H1063  1  0.281400  0.811900  0.874100  1.0  0.1013
  H  H1064  1  0.781400  0.688100  0.125900  1.0  0.1025
  H  H1065  1  0.374100  0.218600  0.188100  1.0  0.1031
  H  H1066  1  0.625900  0.718600  0.311900  1.0  0.1045
  H  H1067  1  0.874100  0.281400  0.811900  1.0  0.1028
  H  H1068  1  0.125900  0.781400  0.688100  1.0  0.1035
  H  H1069  1  0.811900  0.625900  0.781400  1.0  0.1002
  H  H1070  1  0.688100  0.374100  0.281400  1.0  0.103
  H  H1071  1  0.188100  0.125900  0.718600  1.0  0.1028
  H  H1072  1  0.311900  0.874100  0.218600  1.0  0.1009
  H  H1073  1  0.781400  0.811900  0.625900  1.0  0.102
  H  H1074  1  0.281400  0.688100  0.374100  1.0  0.1006
  H  H1075  1  0.718600  0.188100  0.125900  1.0  0.1022
  H  H1076  1  0.218600  0.311900  0.874100  1.0  0.1017
  H  H1077  1  0.625900  0.781400  0.811900  1.0  0.103
  H  H1078  1  0.374100  0.281400  0.688100  1.0  0.1042
  H  H1079  1  0.125900  0.718600  0.188100  1.0  0.1034
  H  H1080  1  0.874100  0.218600  0.311900  1.0  0.1035
  H  H1081  1  0.187400  0.338600  0.187700  1.0  0.1013
  H  H1082  1  0.312600  0.661400  0.687700  1.0  0.1016
  H  H1083  1  0.812600  0.838600  0.312300  1.0  0.1008
  H  H1084  1  0.687400  0.161400  0.812300  1.0  0.1013
  H  H1085  1  0.187700  0.187400  0.338600  1.0  0.1036
  H  H1086  1  0.687700  0.312600  0.661400  1.0  0.1037
  H  H1087  1  0.312300  0.812600  0.838600  1.0  0.1023
  H  H1088  1  0.812300  0.687400  0.161400  1.0  0.1034
  H  H1089  1  0.338600  0.187700  0.187400  1.0  0.1033
  H  H1090  1  0.661400  0.687700  0.312600  1.0  0.1023
  H  H1091  1  0.838600  0.312300  0.812600  1.0  0.1026
  H  H1092  1  0.161400  0.812300  0.687400  1.0  0.1019
  H  H1093  1  0.812600  0.661400  0.812300  1.0  0.1003
  H  H1094  1  0.687400  0.338600  0.312300  1.0  0.1012
  H  H1095  1  0.187400  0.161400  0.687700  1.0  0.102
  H  H1096  1  0.312600  0.838600  0.187700  1.0  0.1013
  H  H1097  1  0.812300  0.812600  0.661400  1.0  0.1033
  H  H1098  1  0.312300  0.687400  0.338600  1.0  0.1038
  H  H1099  1  0.687700  0.187400  0.161400  1.0  0.1029
  H  H1100  1  0.187700  0.312600  0.838600  1.0  0.1028
  H  H1101  1  0.661400  0.812300  0.812600  1.0  0.1019
  H  H1102  1  0.338600  0.312300  0.687400  1.0  0.1024
  H  H1103  1  0.161400  0.687700  0.187400  1.0  0.103
  H  H1104  1  0.838600  0.187700  0.312600  1.0  0.1026
  H  H1105  1  0.177200  0.330500  0.263700  1.0  0.1151
  H  H1106  1  0.322800  0.669500  0.763700  1.0  0.1165
  H  H1107  1  0.822800  0.830500  0.236300  1.0  0.1156
  H  H1108  1  0.677200  0.169500  0.736300  1.0  0.1163
  H  H1109  1  0.263700  0.177200  0.330500  1.0  0.1144
  H  H1110  1  0.763700  0.322800  0.669500  1.0  0.1149
  H  H1111  1  0.236300  0.822800  0.830500  1.0  0.1176
  H  H1112  1  0.736300  0.677200  0.169500  1.0  0.1175
  H  H1113  1  0.330500  0.263700  0.177200  1.0  0.1148
  H  H1114  1  0.669500  0.763700  0.322800  1.0  0.1154
  H  H1115  1  0.830500  0.236300  0.822800  1.0  0.1129
  H  H1116  1  0.169500  0.736300  0.677200  1.0  0.1132
  H  H1117  1  0.822800  0.669500  0.736300  1.0  0.1154
  H  H1118  1  0.677200  0.330500  0.236300  1.0  0.1164
  H  H1119  1  0.177200  0.169500  0.763700  1.0  0.1151
  H  H1120  1  0.322800  0.830500  0.263700  1.0  0.1168
  H  H1121  1  0.736300  0.822800  0.669500  1.0  0.1176
  H  H1122  1  0.236300  0.677200  0.330500  1.0  0.1175
  H  H1123  1  0.763700  0.177200  0.169500  1.0  0.1144
  H  H1124  1  0.263700  0.322800  0.830500  1.0  0.1142
  H  H1125  1  0.669500  0.736300  0.822800  1.0  0.1133
  H  H1126  1  0.330500  0.236300  0.677200  1.0  0.1131
  H  H1127  1  0.169500  0.763700  0.177200  1.0  0.1137
  H  H1128  1  0.830500  0.263700  0.322800  1.0  0.1158
  H  H1129  1  0.167400  0.297400  0.231900  1.0  0.107
  H  H1130  1  0.332600  0.702600  0.731900  1.0  0.1073
  H  H1131  1  0.832600  0.797400  0.268100  1.0  0.1063
  H  H1132  1  0.667400  0.202600  0.768100  1.0  0.1069
  H  H1133  1  0.231900  0.167400  0.297400  1.0  0.1078
  H  H1134  1  0.731900  0.332600  0.702600  1.0  0.1064
  H  H1135  1  0.268100  0.832600  0.797400  1.0  0.1064
  H  H1136  1  0.768100  0.667400  0.202600  1.0  0.1072
  H  H1137  1  0.297400  0.231900  0.167400  1.0  0.1043
  H  H1138  1  0.702600  0.731900  0.332600  1.0  0.1047
  H  H1139  1  0.797400  0.268100  0.832600  1.0  0.1002
  H  H1140  1  0.202600  0.768100  0.667400  1.0  0.1034
  H  H1141  1  0.832600  0.702600  0.768100  1.0  0.1074
  H  H1142  1  0.667400  0.297400  0.268100  1.0  0.1074
  H  H1143  1  0.167400  0.202600  0.731900  1.0  0.1063
  H  H1144  1  0.332600  0.797400  0.231900  1.0  0.1065
  H  H1145  1  0.768100  0.832600  0.702600  1.0  0.1081
  H  H1146  1  0.268100  0.667400  0.297400  1.0  0.1072
  H  H1147  1  0.731900  0.167400  0.202600  1.0  0.1061
  H  H1148  1  0.231900  0.332600  0.797400  1.0  0.1065
  H  H1149  1  0.702600  0.768100  0.832600  1.0  0.1043
  H  H1150  1  0.297400  0.268100  0.667400  1.0  0.1042
  H  H1151  1  0.202600  0.731900  0.167400  1.0  0.1027
  H  H1152  1  0.797400  0.231900  0.332600  1.0  0.1007
  H  H1153  1  0.112100  0.306900  0.274600  1.0  0.1031
  H  H1154  1  0.387900  0.693100  0.774600  1.0  0.1038
  H  H1155  1  0.887900  0.806900  0.225400  1.0  0.1028
  H  H1156  1  0.612100  0.193100  0.725400  1.0  0.1032
  H  H1157  1  0.274600  0.112100  0.306900  1.0  0.1029
  H  H1158  1  0.774600  0.387900  0.693100  1.0  0.1044
  H  H1159  1  0.225400  0.887900  0.806900  1.0  0.1029
  H  H1160  1  0.725400  0.612100  0.193100  1.0  0.1017
  H  H1161  1  0.306900  0.274600  0.112100  1.0  0.1016
  H  H1162  1  0.693100  0.774600  0.387900  1.0  0.1015
  H  H1163  1  0.806900  0.225400  0.887900  1.0  0.1012
  H  H1164  1  0.193100  0.725400  0.612100  1.0  0.1015
  H  H1165  1  0.887900  0.693100  0.725400  1.0  0.1031
  H  H1166  1  0.612100  0.306900  0.225400  1.0  0.1031
  H  H1167  1  0.112100  0.193100  0.774600  1.0  0.1025
  H  H1168  1  0.387900  0.806900  0.274600  1.0  0.1043
  H  H1169  1  0.725400  0.887900  0.693100  1.0  0.1028
  H  H1170  1  0.225400  0.612100  0.306900  1.0  0.1025
  H  H1171  1  0.774600  0.112100  0.193100  1.0  0.1026
  H  H1172  1  0.274600  0.387900  0.806900  1.0  0.104
  H  H1173  1  0.693100  0.725400  0.887900  1.0  0.1007
  H  H1174  1  0.306900  0.225400  0.612100  1.0  0.102
  H  H1175  1  0.193100  0.774600  0.112100  1.0  0.1005
  H  H1176  1  0.806900  0.274600  0.387900  1.0  0.1026
  H  H1177  1  0.109700  0.352300  0.261900  1.0  0.11
  H  H1178  1  0.390300  0.647700  0.761900  1.0  0.1117
  H  H1179  1  0.890300  0.852300  0.238100  1.0  0.11
  H  H1180  1  0.609700  0.147700  0.738100  1.0  0.1098
  H  H1181  1  0.261900  0.109700  0.352300  1.0  0.11
  H  H1182  1  0.761900  0.390300  0.647700  1.0  0.1093
  H  H1183  1  0.238100  0.890300  0.852300  1.0  0.1111
  H  H1184  1  0.738100  0.609700  0.147700  1.0  0.1094
  H  H1185  1  0.352300  0.261900  0.109700  1.0  0.111
  H  H1186  1  0.647700  0.761900  0.390300  1.0  0.1085
  H  H1187  1  0.852300  0.238100  0.890300  1.0  0.1102
  H  H1188  1  0.147700  0.738100  0.609700  1.0  0.1093
  H  H1189  1  0.890300  0.647700  0.738100  1.0  0.1092
  H  H1190  1  0.609700  0.352300  0.238100  1.0  0.1104
  H  H1191  1  0.109700  0.147700  0.761900  1.0  0.1112
  H  H1192  1  0.390300  0.852300  0.261900  1.0  0.1113
  H  H1193  1  0.738100  0.890300  0.647700  1.0  0.1091
  H  H1194  1  0.238100  0.609700  0.352300  1.0  0.1106
  H  H1195  1  0.761900  0.109700  0.147700  1.0  0.1096
  H  H1196  1  0.261900  0.390300  0.852300  1.0  0.1106
  H  H1197  1  0.647700  0.738100  0.890300  1.0  0.1088
  H  H1198  1  0.352300  0.238100  0.609700  1.0  0.1097
  H  H1199  1  0.147700  0.761900  0.109700  1.0  0.1099
  H  H1200  1  0.852300  0.261900  0.390300  1.0  0.1107
  C  C1201  1  0.048050  0.187920  0.205300  1.0  0.4517
  C  C1202  1  0.451950  0.812080  0.705300  1.0  0.4493
  C  C1203  1  0.951950  0.687920  0.294700  1.0  0.4518
  C  C1204  1  0.548050  0.312080  0.794700  1.0  0.4555
  C  C1205  1  0.205300  0.048050  0.187920  1.0  0.4456
  C  C1206  1  0.705300  0.451950  0.812080  1.0  0.4452
  C  C1207  1  0.294700  0.951950  0.687920  1.0  0.449
  C  C1208  1  0.794700  0.548050  0.312080  1.0  0.4472
  C  C1209  1  0.187920  0.205300  0.048050  1.0  0.4469
  C  C1210  1  0.812080  0.705300  0.451950  1.0  0.4478
  C  C1211  1  0.687920  0.294700  0.951950  1.0  0.4435
  C  C1212  1  0.312080  0.794700  0.548050  1.0  0.4473
  C  C1213  1  0.951950  0.812080  0.794700  1.0  0.4517
  C  C1214  1  0.548050  0.187920  0.294700  1.0  0.4554
  C  C1215  1  0.048050  0.312080  0.705300  1.0  0.4513
  C  C1216  1  0.451950  0.687920  0.205300  1.0  0.4494
  C  C1217  1  0.794700  0.951950  0.812080  1.0  0.4493
  C  C1218  1  0.294700  0.548050  0.187920  1.0  0.4475
  C  C1219  1  0.705300  0.048050  0.312080  1.0  0.4453
  C  C1220  1  0.205300  0.451950  0.687920  1.0  0.4448
  C  C1221  1  0.812080  0.794700  0.951950  1.0  0.4453
  C  C1222  1  0.187920  0.294700  0.548050  1.0  0.4451
  C  C1223  1  0.312080  0.705300  0.048050  1.0  0.4491
  C  C1224  1  0.687920  0.205300  0.451950  1.0  0.4461
  C  C1225  1  0.025270  0.230160  0.256260  1.0  0.162
  C  C1226  1  0.474730  0.769840  0.756260  1.0  0.1619
  C  C1227  1  0.974730  0.730160  0.243740  1.0  0.1622
  C  C1228  1  0.525270  0.269840  0.743740  1.0  0.1628
  C  C1229  1  0.256260  0.025270  0.230160  1.0  0.1621
  C  C1230  1  0.756260  0.474730  0.769840  1.0  0.1624
  C  C1231  1  0.243740  0.974730  0.730160  1.0  0.1623
  C  C1232  1  0.743740  0.525270  0.269840  1.0  0.1625
  C  C1233  1  0.230160  0.256260  0.025270  1.0  0.1612
  C  C1234  1  0.769840  0.756260  0.474730  1.0  0.1611
  C  C1235  1  0.730160  0.243740  0.974730  1.0  0.1612
  C  C1236  1  0.269840  0.743740  0.525270  1.0  0.1604
  C  C1237  1  0.974730  0.769840  0.743740  1.0  0.1624
  C  C1238  1  0.525270  0.230160  0.243740  1.0  0.1625
  C  C1239  1  0.025270  0.269840  0.756260  1.0  0.1621
  C  C1240  1  0.474730  0.730160  0.256260  1.0  0.1618
  C  C1241  1  0.743740  0.974730  0.769840  1.0  0.1626
  C  C1242  1  0.243740  0.525270  0.230160  1.0  0.1621
  C  C1243  1  0.756260  0.025270  0.269840  1.0  0.1624
  C  C1244  1  0.256260  0.474730  0.730160  1.0  0.1621
  C  C1245  1  0.769840  0.743740  0.974730  1.0  0.1608
  C  C1246  1  0.230160  0.243740  0.525270  1.0  0.1607
  C  C1247  1  0.269840  0.756260  0.025270  1.0  0.1607
  C  C1248  1  0.730160  0.256260  0.474730  1.0  0.1618
  C  C1249  1  0.991310  0.199890  0.245360  1.0  0.1539
  C  C1250  1  0.508690  0.800110  0.745360  1.0  0.1548
  C  C1251  1  0.008690  0.699890  0.254640  1.0  0.1545
  C  C1252  1  0.491310  0.300110  0.754640  1.0  0.1537
  C  C1253  1  0.245360  0.991310  0.199890  1.0  0.1544
  C  C1254  1  0.745360  0.508690  0.800110  1.0  0.1535
  C  C1255  1  0.254640  0.008690  0.699890  1.0  0.1554
  C  C1256  1  0.754640  0.491310  0.300110  1.0  0.1557
  C  C1257  1  0.199890  0.245360  0.991310  1.0  0.1549
  C  C1258  1  0.800110  0.745360  0.508690  1.0  0.1556
  C  C1259  1  0.699890  0.254640  0.008690  1.0  0.1553
  C  C1260  1  0.300110  0.754640  0.491310  1.0  0.1552
  C  C1261  1  0.008690  0.800110  0.754640  1.0  0.1546
  C  C1262  1  0.491310  0.199890  0.254640  1.0  0.1536
  C  C1263  1  0.991310  0.300110  0.745360  1.0  0.154
  C  C1264  1  0.508690  0.699890  0.245360  1.0  0.1546
  C  C1265  1  0.754640  0.008690  0.800110  1.0  0.155
  C  C1266  1  0.254640  0.491310  0.199890  1.0  0.1559
  C  C1267  1  0.745360  0.991310  0.300110  1.0  0.1539
  C  C1268  1  0.245360  0.508690  0.699890  1.0  0.1541
  C  C1269  1  0.800110  0.754640  0.008690  1.0  0.1555
  C  C1270  1  0.199890  0.254640  0.491310  1.0  0.1549
  C  C1271  1  0.300110  0.745360  0.991310  1.0  0.1554
  C  C1272  1  0.699890  0.245360  0.508690  1.0  0.1553
  C  C1273  1  0.967720  0.265350  0.233210  1.0  0.4616
  C  C1274  1  0.532280  0.734650  0.733210  1.0  0.4615
  C  C1275  1  0.032280  0.765350  0.266790  1.0  0.4621
  C  C1276  1  0.467720  0.234650  0.766790  1.0  0.4605
  C  C1277  1  0.233210  0.967720  0.265350  1.0  0.463
  C  C1278  1  0.733210  0.532280  0.734650  1.0  0.4618
  C  C1279  1  0.266790  0.032280  0.765350  1.0  0.4635
  C  C1280  1  0.766790  0.467720  0.234650  1.0  0.4624
  C  C1281  1  0.265350  0.233210  0.967720  1.0  0.4625
  C  C1282  1  0.734650  0.733210  0.532280  1.0  0.464
  C  C1283  1  0.765350  0.266790  0.032280  1.0  0.4658
  C  C1284  1  0.234650  0.766790  0.467720  1.0  0.463
  C  C1285  1  0.032280  0.734650  0.766790  1.0  0.4623
  C  C1286  1  0.467720  0.265350  0.266790  1.0  0.4608
  C  C1287  1  0.967720  0.234650  0.733210  1.0  0.4604
  C  C1288  1  0.532280  0.765350  0.233210  1.0  0.4618
  C  C1289  1  0.766790  0.032280  0.734650  1.0  0.4617
  C  C1290  1  0.266790  0.467720  0.265350  1.0  0.4638
  C  C1291  1  0.733210  0.967720  0.234650  1.0  0.4622
  C  C1292  1  0.233210  0.532280  0.765350  1.0  0.463
  C  C1293  1  0.734650  0.766790  0.032280  1.0  0.4637
  C  C1294  1  0.265350  0.266790  0.467720  1.0  0.4631
  C  C1295  1  0.234650  0.733210  0.967720  1.0  0.462
  C  C1296  1  0.765350  0.233210  0.532280  1.0  0.4655
  C  C1297  1  0.991180  0.141960  0.192600  1.0  -0.0512
  C  C1298  1  0.508820  0.858040  0.692600  1.0  -0.0516
  C  C1299  1  0.008820  0.641960  0.307400  1.0  -0.0487
  C  C1300  1  0.491180  0.358040  0.807400  1.0  -0.0512
  C  C1301  1  0.192600  0.991180  0.141960  1.0  -0.0573
  C  C1302  1  0.692600  0.508820  0.858040  1.0  -0.0563
  C  C1303  1  0.307400  0.008820  0.641960  1.0  -0.0559
  C  C1304  1  0.807400  0.491180  0.358040  1.0  -0.0547
  C  C1305  1  0.141960  0.192600  0.991180  1.0  -0.0511
  C  C1306  1  0.858040  0.692600  0.508820  1.0  -0.0514
  C  C1307  1  0.641960  0.307400  0.008820  1.0  -0.0511
  C  C1308  1  0.358040  0.807400  0.491180  1.0  -0.0516
  C  C1309  1  0.008820  0.858040  0.807400  1.0  -0.0516
  C  C1310  1  0.491180  0.141960  0.307400  1.0  -0.049
  C  C1311  1  0.991180  0.358040  0.692600  1.0  -0.0518
  C  C1312  1  0.508820  0.641960  0.192600  1.0  -0.0506
  C  C1313  1  0.807400  0.008820  0.858040  1.0  -0.0545
  C  C1314  1  0.307400  0.491180  0.141960  1.0  -0.0565
  C  C1315  1  0.692600  0.991180  0.358040  1.0  -0.0562
  C  C1316  1  0.192600  0.508820  0.641960  1.0  -0.0569
  C  C1317  1  0.858040  0.807400  0.008820  1.0  -0.0513
  C  C1318  1  0.141960  0.307400  0.491180  1.0  -0.0513
  C  C1319  1  0.358040  0.692600  0.991180  1.0  -0.0518
  C  C1320  1  0.641960  0.192600  0.508820  1.0  -0.0507
  C  C1321  1  0.920120  0.211800  0.215980  1.0  -0.0376
  C  C1322  1  0.579880  0.788200  0.715980  1.0  -0.0387
  C  C1323  1  0.079880  0.711800  0.284020  1.0  -0.0376
  C  C1324  1  0.420120  0.288200  0.784020  1.0  -0.0375
  C  C1325  1  0.215980  0.920120  0.211800  1.0  -0.0376
  C  C1326  1  0.715980  0.579880  0.788200  1.0  -0.0409
  C  C1327  1  0.284020  0.079880  0.711800  1.0  -0.0389
  C  C1328  1  0.784020  0.420120  0.288200  1.0  -0.0388
  C  C1329  1  0.211800  0.215980  0.920120  1.0  -0.0402
  C  C1330  1  0.788200  0.715980  0.579880  1.0  -0.0385
  C  C1331  1  0.711800  0.284020  0.079880  1.0  -0.0398
  C  C1332  1  0.288200  0.784020  0.420120  1.0  -0.038
  C  C1333  1  0.079880  0.788200  0.784020  1.0  -0.0381
  C  C1334  1  0.420120  0.211800  0.284020  1.0  -0.037
  C  C1335  1  0.920120  0.288200  0.715980  1.0  -0.0383
  C  C1336  1  0.579880  0.711800  0.215980  1.0  -0.0386
  C  C1337  1  0.784020  0.079880  0.788200  1.0  -0.0406
  C  C1338  1  0.284020  0.420120  0.211800  1.0  -0.0373
  C  C1339  1  0.715980  0.920120  0.288200  1.0  -0.0389
  C  C1340  1  0.215980  0.579880  0.711800  1.0  -0.0393
  C  C1341  1  0.788200  0.784020  0.079880  1.0  -0.04
  C  C1342  1  0.211800  0.284020  0.420120  1.0  -0.0389
  C  C1343  1  0.288200  0.715980  0.920120  1.0  -0.0393
  C  C1344  1  0.711800  0.215980  0.579880  1.0  -0.0384
  C  C1345  1  0.985330  0.151770  0.118940  1.0  0.5241
  C  C1346  1  0.514670  0.848230  0.618940  1.0  0.5238
  C  C1347  1  0.014670  0.651770  0.381060  1.0  0.5236
  C  C1348  1  0.485330  0.348230  0.881060  1.0  0.524
  C  C1349  1  0.118940  0.985330  0.151770  1.0  0.5248
  C  C1350  1  0.618940  0.514670  0.848230  1.0  0.5254
  C  C1351  1  0.381060  0.014670  0.651770  1.0  0.5238
  C  C1352  1  0.881060  0.485330  0.348230  1.0  0.5252
  C  C1353  1  0.151770  0.118940  0.985330  1.0  0.5265
  C  C1354  1  0.848230  0.618940  0.514670  1.0  0.5259
  C  C1355  1  0.651770  0.381060  0.014670  1.0  0.527
  C  C1356  1  0.348230  0.881060  0.485330  1.0  0.5246
  C  C1357  1  0.014670  0.848230  0.881060  1.0  0.5233
  C  C1358  1  0.485330  0.151770  0.381060  1.0  0.5248
  C  C1359  1  0.985330  0.348230  0.618940  1.0  0.5242
  C  C1360  1  0.514670  0.651770  0.118940  1.0  0.5233
  C  C1361  1  0.881060  0.014670  0.848230  1.0  0.5264
  C  C1362  1  0.381060  0.485330  0.151770  1.0  0.5249
  C  C1363  1  0.618940  0.985330  0.348230  1.0  0.5241
  C  C1364  1  0.118940  0.514670  0.651770  1.0  0.5235
  C  C1365  1  0.848230  0.881060  0.014670  1.0  0.5262
  C  C1366  1  0.151770  0.381060  0.485330  1.0  0.5255
  C  C1367  1  0.348230  0.618940  0.985330  1.0  0.5252
  C  C1368  1  0.651770  0.118940  0.514670  1.0  0.5263
  C  C1369  1  0.928370  0.164970  0.156330  1.0  -0.0241
  C  C1370  1  0.571630  0.835030  0.656330  1.0  -0.0209
  C  C1371  1  0.071630  0.664970  0.343670  1.0  -0.0214
  C  C1372  1  0.428370  0.335030  0.843670  1.0  -0.0223
  C  C1373  1  0.156330  0.928370  0.164970  1.0  -0.0231
  C  C1374  1  0.656330  0.571630  0.835030  1.0  -0.0221
  C  C1375  1  0.343670  0.071630  0.664970  1.0  -0.0234
  C  C1376  1  0.843670  0.428370  0.335030  1.0  -0.0221
  C  C1377  1  0.164970  0.156330  0.928370  1.0  -0.0249
  C  C1378  1  0.835030  0.656330  0.571630  1.0  -0.0224
  C  C1379  1  0.664970  0.343670  0.071630  1.0  -0.024
  C  C1380  1  0.335030  0.843670  0.428370  1.0  -0.0234
  C  C1381  1  0.071630  0.835030  0.843670  1.0  -0.0205
  C  C1382  1  0.428370  0.164970  0.343670  1.0  -0.0237
  C  C1383  1  0.928370  0.335030  0.656330  1.0  -0.0227
  C  C1384  1  0.571630  0.664970  0.156330  1.0  -0.0216
  C  C1385  1  0.843670  0.071630  0.835030  1.0  -0.0227
  C  C1386  1  0.343670  0.428370  0.164970  1.0  -0.0234
  C  C1387  1  0.656330  0.928370  0.335030  1.0  -0.0215
  C  C1388  1  0.156330  0.571630  0.664970  1.0  -0.0229
  C  C1389  1  0.835030  0.843670  0.071630  1.0  -0.0223
  C  C1390  1  0.164970  0.343670  0.428370  1.0  -0.0247
  C  C1391  1  0.335030  0.656330  0.928370  1.0  -0.0236
  C  C1392  1  0.664970  0.156330  0.571630  1.0  -0.0247
  C  C1393  1  0.919680  0.170700  0.111670  1.0  -0.0349
  C  C1394  1  0.580320  0.829300  0.611670  1.0  -0.0339
  C  C1395  1  0.080320  0.670700  0.388330  1.0  -0.0344
  C  C1396  1  0.419680  0.329300  0.888330  1.0  -0.0347
  C  C1397  1  0.111670  0.919680  0.170700  1.0  -0.035
  C  C1398  1  0.611670  0.580320  0.829300  1.0  -0.0344
  C  C1399  1  0.388330  0.080320  0.670700  1.0  -0.0351
  C  C1400  1  0.888330  0.419680  0.329300  1.0  -0.034
  C  C1401  1  0.170700  0.111670  0.919680  1.0  -0.0351
  C  C1402  1  0.829300  0.611670  0.580320  1.0  -0.0339
  C  C1403  1  0.670700  0.388330  0.080320  1.0  -0.035
  C  C1404  1  0.329300  0.888330  0.419680  1.0  -0.0347
  C  C1405  1  0.080320  0.829300  0.888330  1.0  -0.034
  C  C1406  1  0.419680  0.170700  0.388330  1.0  -0.0349
  C  C1407  1  0.919680  0.329300  0.611670  1.0  -0.0347
  C  C1408  1  0.580320  0.670700  0.111670  1.0  -0.0346
  C  C1409  1  0.888330  0.080320  0.829300  1.0  -0.0342
  C  C1410  1  0.388330  0.419680  0.170700  1.0  -0.0352
  C  C1411  1  0.611670  0.919680  0.329300  1.0  -0.0341
  C  C1412  1  0.111670  0.580320  0.670700  1.0  -0.035
  C  C1413  1  0.829300  0.888330  0.080320  1.0  -0.0332
  C  C1414  1  0.170700  0.388330  0.419680  1.0  -0.0352
  C  C1415  1  0.329300  0.611670  0.919680  1.0  -0.0351
  C  C1416  1  0.670700  0.111670  0.580320  1.0  -0.0351
  C  C1417  1  0.904450  0.229990  0.146170  1.0  0.4431
  C  C1418  1  0.595550  0.770010  0.646170  1.0  0.442
  C  C1419  1  0.095550  0.729990  0.353830  1.0  0.4424
  C  C1420  1  0.404450  0.270010  0.853830  1.0  0.4439
  C  C1421  1  0.146170  0.904450  0.229990  1.0  0.4455
  C  C1422  1  0.646170  0.595550  0.770010  1.0  0.4459
  C  C1423  1  0.353830  0.095550  0.729990  1.0  0.4448
  C  C1424  1  0.853830  0.404450  0.270010  1.0  0.4461
  C  C1425  1  0.229990  0.146170  0.904450  1.0  0.4432
  C  C1426  1  0.770010  0.646170  0.595550  1.0  0.4445
  C  C1427  1  0.729990  0.353830  0.095550  1.0  0.4427
  C  C1428  1  0.270010  0.853830  0.404450  1.0  0.4466
  C  C1429  1  0.095550  0.770010  0.853830  1.0  0.4435
  C  C1430  1  0.404450  0.229990  0.353830  1.0  0.4444
  C  C1431  1  0.904450  0.270010  0.646170  1.0  0.4426
  C  C1432  1  0.595550  0.729990  0.146170  1.0  0.4411
  C  C1433  1  0.853830  0.095550  0.770010  1.0  0.4457
  C  C1434  1  0.353830  0.404450  0.229990  1.0  0.4452
  C  C1435  1  0.646170  0.904450  0.270010  1.0  0.4463
  C  C1436  1  0.146170  0.595550  0.729990  1.0  0.4452
  C  C1437  1  0.770010  0.853830  0.095550  1.0  0.4448
  C  C1438  1  0.229990  0.353830  0.404450  1.0  0.4436
  C  C1439  1  0.270010  0.646170  0.904450  1.0  0.4471
  C  C1440  1  0.729990  0.146170  0.595550  1.0  0.4419
  C  C1441  1  0.963590  0.161370  0.049030  1.0  -0.0456
  C  C1442  1  0.536410  0.838630  0.549030  1.0  -0.0455
  C  C1443  1  0.036410  0.661370  0.450970  1.0  -0.0454
  C  C1444  1  0.463590  0.338630  0.950970  1.0  -0.0467
  C  C1445  1  0.049030  0.963590  0.161370  1.0  -0.0488
  C  C1446  1  0.549030  0.536410  0.838630  1.0  -0.0518
  C  C1447  1  0.450970  0.036410  0.661370  1.0  -0.0513
  C  C1448  1  0.950970  0.463590  0.338630  1.0  -0.0508
  C  C1449  1  0.161370  0.049030  0.963590  1.0  -0.0473
  C  C1450  1  0.838630  0.549030  0.536410  1.0  -0.0501
  C  C1451  1  0.661370  0.450970  0.036410  1.0  -0.0478
  C  C1452  1  0.338630  0.950970  0.463590  1.0  -0.0501
  C  C1453  1  0.036410  0.838630  0.950970  1.0  -0.0452
  C  C1454  1  0.463590  0.161370  0.450970  1.0  -0.0461
  C  C1455  1  0.963590  0.338630  0.549030  1.0  -0.0468
  C  C1456  1  0.536410  0.661370  0.049030  1.0  -0.0448
  C  C1457  1  0.950970  0.036410  0.838630  1.0  -0.0505
  C  C1458  1  0.450970  0.463590  0.161370  1.0  -0.0488
  C  C1459  1  0.549030  0.963590  0.338630  1.0  -0.0531
  C  C1460  1  0.049030  0.536410  0.661370  1.0  -0.0509
  C  C1461  1  0.838630  0.950970  0.036410  1.0  -0.0503
  C  C1462  1  0.161370  0.450970  0.463590  1.0  -0.0481
  C  C1463  1  0.338630  0.549030  0.963590  1.0  -0.0501
  C  C1464  1  0.661370  0.049030  0.536410  1.0  -0.0472
  C  C1465  1  0.890780  0.230830  0.072500  1.0  -0.0204
  C  C1466  1  0.609220  0.769170  0.572500  1.0  -0.0195
  C  C1467  1  0.109220  0.730830  0.427500  1.0  -0.0182
  C  C1468  1  0.390780  0.269170  0.927500  1.0  -0.0203
  C  C1469  1  0.072500  0.890780  0.230830  1.0  -0.0164
  C  C1470  1  0.572500  0.609220  0.769170  1.0  -0.0189
  C  C1471  1  0.427500  0.109220  0.730830  1.0  -0.0173
  C  C1472  1  0.927500  0.390780  0.269170  1.0  -0.0162
  C  C1473  1  0.230830  0.072500  0.890780  1.0  -0.0182
  C  C1474  1  0.769170  0.572500  0.609220  1.0  -0.0192
  C  C1475  1  0.730830  0.427500  0.109220  1.0  -0.0192
  C  C1476  1  0.269170  0.927500  0.390780  1.0  -0.0191
  C  C1477  1  0.109220  0.769170  0.927500  1.0  -0.0186
  C  C1478  1  0.390780  0.230830  0.427500  1.0  -0.0201
  C  C1479  1  0.890780  0.269170  0.572500  1.0  -0.0206
  C  C1480  1  0.609220  0.730830  0.072500  1.0  -0.0194
  C  C1481  1  0.927500  0.109220  0.769170  1.0  -0.0174
  C  C1482  1  0.427500  0.390780  0.230830  1.0  -0.0163
  C  C1483  1  0.572500  0.890780  0.269170  1.0  -0.0166
  C  C1484  1  0.072500  0.609220  0.730830  1.0  -0.0189
  C  C1485  1  0.769170  0.927500  0.109220  1.0  -0.0197
  C  C1486  1  0.230830  0.427500  0.390780  1.0  -0.0193
  C  C1487  1  0.269170  0.572500  0.890780  1.0  -0.0182
  C  C1488  1  0.730830  0.072500  0.609220  1.0  -0.0187
  C  C1489  1  0.011930  0.212380  0.024560  1.0  0.5685
  C  C1490  1  0.488070  0.787620  0.524560  1.0  0.5684
  C  C1491  1  0.988070  0.712380  0.475440  1.0  0.5688
  C  C1492  1  0.511930  0.287620  0.975440  1.0  0.57
  C  C1493  1  0.024560  0.011930  0.212380  1.0  0.5735
  C  C1494  1  0.524560  0.488070  0.787620  1.0  0.5774
  C  C1495  1  0.475440  0.988070  0.712380  1.0  0.5736
  C  C1496  1  0.975440  0.511930  0.287620  1.0  0.5748
  C  C1497  1  0.212380  0.024560  0.011930  1.0  0.5726
  C  C1498  1  0.787620  0.524560  0.488070  1.0  0.5704
  C  C1499  1  0.712380  0.475440  0.988070  1.0  0.5687
  C  C1500  1  0.287620  0.975440  0.511930  1.0  0.5737
  C  C1501  1  0.988070  0.787620  0.975440  1.0  0.5696
  C  C1502  1  0.511930  0.212380  0.475440  1.0  0.5701
  C  C1503  1  0.011930  0.287620  0.524560  1.0  0.5685
  C  C1504  1  0.488070  0.712380  0.024560  1.0  0.568
  C  C1505  1  0.975440  0.988070  0.787620  1.0  0.576
  C  C1506  1  0.475440  0.511930  0.212380  1.0  0.5731
  C  C1507  1  0.524560  0.011930  0.287620  1.0  0.5764
  C  C1508  1  0.024560  0.488070  0.712380  1.0  0.574
  C  C1509  1  0.787620  0.975440  0.988070  1.0  0.5701
  C  C1510  1  0.212380  0.475440  0.511930  1.0  0.573
  C  C1511  1  0.287620  0.524560  0.011930  1.0  0.5737
  C  C1512  1  0.712380  0.024560  0.488070  1.0  0.5691
  C  C1513  1  0.944490  0.229900  0.016600  1.0  0.1602
  C  C1514  1  0.555510  0.770100  0.516600  1.0  0.1592
  C  C1515  1  0.055510  0.729900  0.483400  1.0  0.1603
  C  C1516  1  0.444490  0.270100  0.983400  1.0  0.1605
  C  C1517  1  0.016600  0.944490  0.229900  1.0  0.1577
  C  C1518  1  0.516600  0.555510  0.770100  1.0  0.1598
  C  C1519  1  0.483400  0.055510  0.729900  1.0  0.1574
  C  C1520  1  0.983400  0.444490  0.270100  1.0  0.16
  C  C1521  1  0.229900  0.016600  0.944490  1.0  0.1576
  C  C1522  1  0.770100  0.516600  0.555510  1.0  0.1574
  C  C1523  1  0.729900  0.483400  0.055510  1.0  0.157
  C  C1524  1  0.270100  0.983400  0.444490  1.0  0.1573
  C  C1525  1  0.055510  0.770100  0.983400  1.0  0.1599
  C  C1526  1  0.444490  0.229900  0.483400  1.0  0.1608
  C  C1527  1  0.944490  0.270100  0.516600  1.0  0.1596
  C  C1528  1  0.555510  0.729900  0.016600  1.0  0.1598
  C  C1529  1  0.983400  0.055510  0.770100  1.0  0.1597
  C  C1530  1  0.483400  0.444490  0.229900  1.0  0.1576
  C  C1531  1  0.516600  0.944490  0.270100  1.0  0.1601
  C  C1532  1  0.016600  0.555510  0.729900  1.0  0.1576
  C  C1533  1  0.770100  0.983400  0.055510  1.0  0.1573
  C  C1534  1  0.229900  0.483400  0.444490  1.0  0.1572
  C  C1535  1  0.270100  0.516600  0.944490  1.0  0.1576
  C  C1536  1  0.729900  0.016600  0.555510  1.0  0.1573
  C  C1537  1  0.972360  0.264280  0.000270  1.0  0.1601
  C  C1538  1  0.527640  0.735720  0.500270  1.0  0.161
  C  C1539  1  0.027640  0.764280  0.499730  1.0  0.1612
  C  C1540  1  0.472360  0.235720  0.999730  1.0  0.1603
  C  C1541  1  0.000270  0.972360  0.264280  1.0  0.1629
  C  C1542  1  0.500270  0.527640  0.735720  1.0  0.1629
  C  C1543  1  0.499730  0.027640  0.764280  1.0  0.1632
  C  C1544  1  0.999730  0.472360  0.235720  1.0  0.163
  C  C1545  1  0.264280  0.000270  0.972360  1.0  0.164
  C  C1546  1  0.735720  0.500270  0.527640  1.0  0.1622
  C  C1547  1  0.764280  0.499730  0.027640  1.0  0.1628
  C  C1548  1  0.235720  0.999730  0.472360  1.0  0.1636
  C  C1549  1  0.027640  0.735720  0.999730  1.0  0.1608
  C  C1550  1  0.472360  0.264280  0.499730  1.0  0.1604
  C  C1551  1  0.972360  0.235720  0.500270  1.0  0.1604
  C  C1552  1  0.527640  0.764280  0.000270  1.0  0.161
  C  C1553  1  0.999730  0.027640  0.735720  1.0  0.1626
  C  C1554  1  0.499730  0.472360  0.264280  1.0  0.1628
  C  C1555  1  0.500270  0.972360  0.235720  1.0  0.1631
  C  C1556  1  0.000270  0.527640  0.764280  1.0  0.1634
  C  C1557  1  0.735720  0.999730  0.027640  1.0  0.1623
  C  C1558  1  0.264280  0.499730  0.472360  1.0  0.1642
  C  C1559  1  0.235720  0.500270  0.972360  1.0  0.164
  C  C1560  1  0.764280  0.000270  0.527640  1.0  0.1625
  C  C1561  1  0.932590  0.289030  0.053680  1.0  0.4798
  C  C1562  1  0.567410  0.710970  0.553680  1.0  0.4805
  C  C1563  1  0.067410  0.789030  0.446320  1.0  0.4754
  C  C1564  1  0.432590  0.210970  0.946320  1.0  0.4744
  C  C1565  1  0.053680  0.932590  0.289030  1.0  0.4758
  C  C1566  1  0.553680  0.567410  0.710970  1.0  0.4717
  C  C1567  1  0.446320  0.067410  0.789030  1.0  0.4726
  C  C1568  1  0.946320  0.432590  0.210970  1.0  0.4706
  C  C1569  1  0.289030  0.053680  0.932590  1.0  0.4723
  C  C1570  1  0.710970  0.553680  0.567410  1.0  0.4717
  C  C1571  1  0.789030  0.446320  0.067410  1.0  0.4742
  C  C1572  1  0.210970  0.946320  0.432590  1.0  0.4718
  C  C1573  1  0.067410  0.710970  0.946320  1.0  0.4742
  C  C1574  1  0.432590  0.289030  0.446320  1.0  0.4752
  C  C1575  1  0.932590  0.210970  0.553680  1.0  0.4791
  C  C1576  1  0.567410  0.789030  0.053680  1.0  0.482
  C  C1577  1  0.946320  0.067410  0.710970  1.0  0.4703
  C  C1578  1  0.446320  0.432590  0.289030  1.0  0.4732
  C  C1579  1  0.553680  0.932590  0.210970  1.0  0.4729
  C  C1580  1  0.053680  0.567410  0.789030  1.0  0.4749
  C  C1581  1  0.710970  0.946320  0.067410  1.0  0.4723
  C  C1582  1  0.289030  0.446320  0.432590  1.0  0.4731
  C  C1583  1  0.210970  0.553680  0.932590  1.0  0.4716
  C  C1584  1  0.789030  0.053680  0.567410  1.0  0.473
  C  C1585  1  0.049090  0.268490  0.997350  1.0  -0.0143
  C  C1586  1  0.450910  0.731510  0.497350  1.0  -0.0137
  C  C1587  1  0.950910  0.768490  0.502650  1.0  -0.0137
  C  C1588  1  0.549090  0.231510  0.002650  1.0  -0.0137
  C  C1589  1  0.997350  0.049090  0.268490  1.0  -0.0126
  C  C1590  1  0.497350  0.450910  0.731510  1.0  -0.0124
  C  C1591  1  0.502650  0.950910  0.768490  1.0  -0.0131
  C  C1592  1  0.002650  0.549090  0.231510  1.0  -0.0134
  C  C1593  1  0.268490  0.997350  0.049090  1.0  -0.0142
  C  C1594  1  0.731510  0.497350  0.450910  1.0  -0.0146
  C  C1595  1  0.768490  0.502650  0.950910  1.0  -0.0145
  C  C1596  1  0.231510  0.002650  0.549090  1.0  -0.015
  C  C1597  1  0.950910  0.731510  0.002650  1.0  -0.0138
  C  C1598  1  0.549090  0.268490  0.502650  1.0  -0.0138
  C  C1599  1  0.049090  0.231510  0.497350  1.0  -0.0143
  C  C1600  1  0.450910  0.768490  0.997350  1.0  -0.0137
  C  C1601  1  0.002650  0.950910  0.731510  1.0  -0.0134
  C  C1602  1  0.502650  0.549090  0.268490  1.0  -0.0128
  C  C1603  1  0.497350  0.049090  0.231510  1.0  -0.0133
  C  C1604  1  0.997350  0.450910  0.768490  1.0  -0.0121
  C  C1605  1  0.731510  0.002650  0.950910  1.0  -0.0151
  C  C1606  1  0.268490  0.502650  0.549090  1.0  -0.0146
  C  C1607  1  0.231510  0.497350  0.049090  1.0  -0.0148
  C  C1608  1  0.768490  0.997350  0.450910  1.0  -0.0138
  C  C1609  1  0.977110  0.338520  0.023050  1.0  -0.0468
  C  C1610  1  0.522890  0.661480  0.523050  1.0  -0.0471
  C  C1611  1  0.022890  0.838520  0.476950  1.0  -0.0471
  C  C1612  1  0.477110  0.161480  0.976950  1.0  -0.0465
  C  C1613  1  0.023050  0.977110  0.338520  1.0  -0.0513
  C  C1614  1  0.523050  0.522890  0.661480  1.0  -0.0513
  C  C1615  1  0.476950  0.022890  0.838520  1.0  -0.0504
  C  C1616  1  0.976950  0.477110  0.161480  1.0  -0.0518
  C  C1617  1  0.338520  0.023050  0.977110  1.0  -0.0484
  C  C1618  1  0.661480  0.523050  0.522890  1.0  -0.0485
  C  C1619  1  0.838520  0.476950  0.022890  1.0  -0.0483
  C  C1620  1  0.161480  0.976950  0.477110  1.0  -0.0487
  C  C1621  1  0.022890  0.661480  0.976950  1.0  -0.0473
  C  C1622  1  0.477110  0.338520  0.476950  1.0  -0.0471
  C  C1623  1  0.977110  0.161480  0.523050  1.0  -0.0461
  C  C1624  1  0.522890  0.838520  0.023050  1.0  -0.0468
  C  C1625  1  0.976950  0.022890  0.661480  1.0  -0.0519
  C  C1626  1  0.476950  0.477110  0.338520  1.0  -0.0509
  C  C1627  1  0.523050  0.977110  0.161480  1.0  -0.0512
  C  C1628  1  0.023050  0.522890  0.838520  1.0  -0.0506
  C  C1629  1  0.661480  0.976950  0.022890  1.0  -0.0487
  C  C1630  1  0.338520  0.476950  0.477110  1.0  -0.0486
  C  C1631  1  0.161480  0.523050  0.977110  1.0  -0.0482
  C  C1632  1  0.838520  0.023050  0.522890  1.0  -0.0486
  C  C1633  1  0.091940  0.284440  0.055360  1.0  0.4466
  C  C1634  1  0.408060  0.715560  0.555360  1.0  0.4435
  C  C1635  1  0.908060  0.784440  0.444640  1.0  0.4462
  C  C1636  1  0.591940  0.215560  0.944640  1.0  0.4454
  C  C1637  1  0.055360  0.091940  0.284440  1.0  0.446
  C  C1638  1  0.555360  0.408060  0.715560  1.0  0.4457
  C  C1639  1  0.444640  0.908060  0.784440  1.0  0.4466
  C  C1640  1  0.944640  0.591940  0.215560  1.0  0.4461
  C  C1641  1  0.284440  0.055360  0.091940  1.0  0.4456
  C  C1642  1  0.715560  0.555360  0.408060  1.0  0.446
  C  C1643  1  0.784440  0.444640  0.908060  1.0  0.4453
  C  C1644  1  0.215560  0.944640  0.591940  1.0  0.4459
  C  C1645  1  0.908060  0.715560  0.944640  1.0  0.4449
  C  C1646  1  0.591940  0.284440  0.444640  1.0  0.4469
  C  C1647  1  0.091940  0.215560  0.555360  1.0  0.4441
  C  C1648  1  0.408060  0.784440  0.055360  1.0  0.4458
  C  C1649  1  0.944640  0.908060  0.715560  1.0  0.4459
  C  C1650  1  0.444640  0.591940  0.284440  1.0  0.4468
  C  C1651  1  0.555360  0.091940  0.215560  1.0  0.4459
  C  C1652  1  0.055360  0.408060  0.784440  1.0  0.4459
  C  C1653  1  0.715560  0.944640  0.908060  1.0  0.4455
  C  C1654  1  0.284440  0.444640  0.591940  1.0  0.4453
  C  C1655  1  0.215560  0.555360  0.091940  1.0  0.4463
  C  C1656  1  0.784440  0.055360  0.408060  1.0  0.4454
  C  C1657  1  0.052920  0.338850  0.032930  1.0  -0.0016
  C  C1658  1  0.447080  0.661150  0.532930  1.0  -0.0022
  C  C1659  1  0.947080  0.838850  0.467070  1.0  -0.0022
  C  C1660  1  0.552920  0.161150  0.967070  1.0  -0.0022
  C  C1661  1  0.032930  0.052920  0.338850  1.0  -0.0038
  C  C1662  1  0.532930  0.447080  0.661150  1.0  -0.0039
  C  C1663  1  0.467070  0.947080  0.838850  1.0  -0.0015
  C  C1664  1  0.967070  0.552920  0.161150  1.0  -0.0029
  C  C1665  1  0.338850  0.032930  0.052920  1.0  -0.0019
  C  C1666  1  0.661150  0.532930  0.447080  1.0  -0.0041
  C  C1667  1  0.838850  0.467070  0.947080  1.0  1e-04
  C  C1668  1  0.161150  0.967070  0.552920  1.0  -0.0022
  C  C1669  1  0.947080  0.661150  0.967070  1.0  -0.002
  C  C1670  1  0.552920  0.338850  0.467070  1.0  -0.0019
  C  C1671  1  0.052920  0.161150  0.532930  1.0  -0.0026
  C  C1672  1  0.447080  0.838850  0.032930  1.0  -0.0015
  C  C1673  1  0.967070  0.947080  0.661150  1.0  -0.0024
  C  C1674  1  0.467070  0.552920  0.338850  1.0  -0.0022
  C  C1675  1  0.532930  0.052920  0.161150  1.0  -0.0049
  C  C1676  1  0.032930  0.447080  0.838850  1.0  -0.0033
  C  C1677  1  0.661150  0.967070  0.947080  1.0  -0.0019
  C  C1678  1  0.338850  0.467070  0.552920  1.0  -0.0005
  C  C1679  1  0.161150  0.532930  0.052920  1.0  -0.0038
  C  C1680  1  0.838850  0.032930  0.447080  1.0  -0.0019
  C  C1681  1  0.078730  0.353480  0.068050  1.0  -0.0026
  C  C1682  1  0.421270  0.646520  0.568050  1.0  -0.0051
  C  C1683  1  0.921270  0.853480  0.431950  1.0  -0.0039
  C  C1684  1  0.578730  0.146520  0.931950  1.0  -0.0035
  C  C1685  1  0.068050  0.078730  0.353480  1.0  -0.0081
  C  C1686  1  0.568050  0.421270  0.646520  1.0  -0.0068
  C  C1687  1  0.431950  0.921270  0.853480  1.0  -0.0073
  C  C1688  1  0.931950  0.578730  0.146520  1.0  -0.0063
  C  C1689  1  0.353480  0.068050  0.078730  1.0  -0.0041
  C  C1690  1  0.646520  0.568050  0.421270  1.0  -0.007
  C  C1691  1  0.853480  0.431950  0.921270  1.0  -0.0032
  C  C1692  1  0.146520  0.931950  0.578730  1.0  -0.0081
  C  C1693  1  0.921270  0.646520  0.931950  1.0  -0.0034
  C  C1694  1  0.578730  0.353480  0.431950  1.0  -0.0031
  C  C1695  1  0.078730  0.146520  0.568050  1.0  -0.0054
  C  C1696  1  0.421270  0.853480  0.068050  1.0  -0.0031
  C  C1697  1  0.931950  0.921270  0.646520  1.0  -0.0071
  C  C1698  1  0.431950  0.578730  0.353480  1.0  -0.0071
  C  C1699  1  0.568050  0.078730  0.146520  1.0  -0.0062
  C  C1700  1  0.068050  0.421270  0.853480  1.0  -0.0082
  C  C1701  1  0.646520  0.931950  0.921270  1.0  -0.0071
  C  C1702  1  0.353480  0.431950  0.578730  1.0  -0.0046
  C  C1703  1  0.146520  0.568050  0.078730  1.0  -0.0076
  C  C1704  1  0.853480  0.068050  0.421270  1.0  -0.0029
  C  C1705  1  0.011360  0.363340  0.083610  1.0  0.4367
  C  C1706  1  0.488640  0.636660  0.583610  1.0  0.4341
  C  C1707  1  0.988640  0.863340  0.416390  1.0  0.4348
  C  C1708  1  0.511360  0.136660  0.916390  1.0  0.4359
  C  C1709  1  0.083610  0.011360  0.363340  1.0  0.4364
  C  C1710  1  0.583610  0.488640  0.636660  1.0  0.4366
  C  C1711  1  0.416390  0.988640  0.863340  1.0  0.4354
  C  C1712  1  0.916390  0.511360  0.136660  1.0  0.4352
  C  C1713  1  0.363340  0.083610  0.011360  1.0  0.4388
  C  C1714  1  0.636660  0.583610  0.488640  1.0  0.4384
  C  C1715  1  0.863340  0.416390  0.988640  1.0  0.4374
  C  C1716  1  0.136660  0.916390  0.511360  1.0  0.4392
  C  C1717  1  0.988640  0.636660  0.916390  1.0  0.4342
  C  C1718  1  0.511360  0.363340  0.416390  1.0  0.4373
  C  C1719  1  0.011360  0.136660  0.583610  1.0  0.4352
  C  C1720  1  0.488640  0.863340  0.083610  1.0  0.4345
  C  C1721  1  0.916390  0.988640  0.636660  1.0  0.4362
  C  C1722  1  0.416390  0.511360  0.363340  1.0  0.4354
  C  C1723  1  0.583610  0.011360  0.136660  1.0  0.4357
  C  C1724  1  0.083610  0.488640  0.863340  1.0  0.4362
  C  C1725  1  0.636660  0.916390  0.988640  1.0  0.438
  C  C1726  1  0.363340  0.416390  0.511360  1.0  0.4384
  C  C1727  1  0.136660  0.583610  0.011360  1.0  0.4398
  C  C1728  1  0.863340  0.083610  0.488640  1.0  0.4378
  C  C1729  1  0.131620  0.317320  0.109150  1.0  -0.0697
  C  C1730  1  0.368380  0.682680  0.609150  1.0  -0.0708
  C  C1731  1  0.868380  0.817320  0.390850  1.0  -0.0708
  C  C1732  1  0.631620  0.182680  0.890850  1.0  -0.0692
  C  C1733  1  0.109150  0.131620  0.317320  1.0  -0.0715
  C  C1734  1  0.609150  0.368380  0.682680  1.0  -0.0693
  C  C1735  1  0.390850  0.868380  0.817320  1.0  -0.0699
  C  C1736  1  0.890850  0.631620  0.182680  1.0  -0.0714
  C  C1737  1  0.317320  0.109150  0.131620  1.0  -0.0738
  C  C1738  1  0.682680  0.609150  0.368380  1.0  -0.0744
  C  C1739  1  0.817320  0.390850  0.868380  1.0  -0.0755
  C  C1740  1  0.182680  0.890850  0.631620  1.0  -0.0744
  C  C1741  1  0.868380  0.682680  0.890850  1.0  -0.0706
  C  C1742  1  0.631620  0.317320  0.390850  1.0  -0.0695
  C  C1743  1  0.131620  0.182680  0.609150  1.0  -0.0692
  C  C1744  1  0.368380  0.817320  0.109150  1.0  -0.0713
  C  C1745  1  0.890850  0.868380  0.682680  1.0  -0.0698
  C  C1746  1  0.390850  0.631620  0.317320  1.0  -0.0719
  C  C1747  1  0.609150  0.131620  0.182680  1.0  -0.0709
  C  C1748  1  0.109150  0.368380  0.817320  1.0  -0.0697
  C  C1749  1  0.682680  0.890850  0.868380  1.0  -0.0756
  C  C1750  1  0.317320  0.390850  0.631620  1.0  -0.0738
  C  C1751  1  0.182680  0.609150  0.131620  1.0  -0.0743
  C  C1752  1  0.817320  0.109150  0.368380  1.0  -0.0746
  C  C1753  1  0.058990  0.385750  0.133970  1.0  -0.0447
  C  C1754  1  0.441010  0.614250  0.633970  1.0  -0.0429
  C  C1755  1  0.941010  0.885750  0.366030  1.0  -0.045
  C  C1756  1  0.558990  0.114250  0.866030  1.0  -0.0425
  C  C1757  1  0.133970  0.058990  0.385750  1.0  -0.0498
  C  C1758  1  0.633970  0.441010  0.614250  1.0  -0.0519
  C  C1759  1  0.366030  0.941010  0.885750  1.0  -0.0488
  C  C1760  1  0.866030  0.558990  0.114250  1.0  -0.0509
  C  C1761  1  0.385750  0.133970  0.058990  1.0  -0.0461
  C  C1762  1  0.614250  0.633970  0.441010  1.0  -0.0461
  C  C1763  1  0.885750  0.366030  0.941010  1.0  -0.0468
  C  C1764  1  0.114250  0.866030  0.558990  1.0  -0.047
  C  C1765  1  0.941010  0.614250  0.866030  1.0  -0.0423
  C  C1766  1  0.558990  0.385750  0.366030  1.0  -0.0454
  C  C1767  1  0.058990  0.114250  0.633970  1.0  -0.0429
  C  C1768  1  0.441010  0.885750  0.133970  1.0  -0.0445
  C  C1769  1  0.866030  0.941010  0.614250  1.0  -0.0511
  C  C1770  1  0.366030  0.558990  0.385750  1.0  -0.0494
  C  C1771  1  0.633970  0.058990  0.114250  1.0  -0.0518
  C  C1772  1  0.133970  0.441010  0.885750  1.0  -0.0495
  C  C1773  1  0.614250  0.866030  0.941010  1.0  -0.047
  C  C1774  1  0.385750  0.366030  0.558990  1.0  -0.0465
  C  C1775  1  0.114250  0.633970  0.058990  1.0  -0.0465
  C  C1776  1  0.885750  0.133970  0.441010  1.0  -0.046
  C  C1777  1  0.116130  0.270720  0.165930  1.0  0.4242
  C  C1778  1  0.383870  0.729280  0.665930  1.0  0.4257
  C  C1779  1  0.883870  0.770720  0.334070  1.0  0.4256
  C  C1780  1  0.616130  0.229280  0.834070  1.0  0.4258
  C  C1781  1  0.165930  0.116130  0.270720  1.0  0.4261
  C  C1782  1  0.665930  0.383870  0.729280  1.0  0.4305
  C  C1783  1  0.334070  0.883870  0.770720  1.0  0.4262
  C  C1784  1  0.834070  0.616130  0.229280  1.0  0.433
  C  C1785  1  0.270720  0.165930  0.116130  1.0  0.4235
  C  C1786  1  0.729280  0.665930  0.383870  1.0  0.4233
  C  C1787  1  0.770720  0.334070  0.883870  1.0  0.4248
  C  C1788  1  0.229280  0.834070  0.616130  1.0  0.4217
  C  C1789  1  0.883870  0.729280  0.834070  1.0  0.426
  C  C1790  1  0.616130  0.270720  0.334070  1.0  0.4254
  C  C1791  1  0.116130  0.229280  0.665930  1.0  0.4248
  C  C1792  1  0.383870  0.770720  0.165930  1.0  0.4247
  C  C1793  1  0.834070  0.883870  0.729280  1.0  0.4322
  C  C1794  1  0.334070  0.616130  0.270720  1.0  0.4268
  C  C1795  1  0.665930  0.116130  0.229280  1.0  0.4311
  C  C1796  1  0.165930  0.383870  0.770720  1.0  0.4259
  C  C1797  1  0.729280  0.834070  0.883870  1.0  0.4214
  C  C1798  1  0.270720  0.334070  0.616130  1.0  0.4246
  C  C1799  1  0.229280  0.665930  0.116130  1.0  0.4237
  C  C1800  1  0.770720  0.165930  0.383870  1.0  0.4233
  C  C1801  1  0.103170  0.339340  0.178160  1.0  0.1577
  C  C1802  1  0.396830  0.660660  0.678160  1.0  0.1578
  C  C1803  1  0.896830  0.839340  0.321840  1.0  0.1578
  C  C1804  1  0.603170  0.160660  0.821840  1.0  0.1579
  C  C1805  1  0.178160  0.103170  0.339340  1.0  0.1558
  C  C1806  1  0.678160  0.396830  0.660660  1.0  0.1566
  C  C1807  1  0.321840  0.896830  0.839340  1.0  0.1577
  C  C1808  1  0.821840  0.603170  0.160660  1.0  0.1565
  C  C1809  1  0.339340  0.178160  0.103170  1.0  0.1565
  C  C1810  1  0.660660  0.678160  0.396830  1.0  0.1562
  C  C1811  1  0.839340  0.321840  0.896830  1.0  0.1569
  C  C1812  1  0.160660  0.821840  0.603170  1.0  0.1576
  C  C1813  1  0.896830  0.660660  0.821840  1.0  0.1579
  C  C1814  1  0.603170  0.339340  0.321840  1.0  0.1578
  C  C1815  1  0.103170  0.160660  0.678160  1.0  0.1581
  C  C1816  1  0.396830  0.839340  0.178160  1.0  0.1574
  C  C1817  1  0.821840  0.896830  0.660660  1.0  0.1575
  C  C1818  1  0.321840  0.603170  0.339340  1.0  0.1567
  C  C1819  1  0.678160  0.103170  0.160660  1.0  0.1557
  C  C1820  1  0.178160  0.396830  0.839340  1.0  0.1567
  C  C1821  1  0.660660  0.821840  0.896830  1.0  0.1572
  C  C1822  1  0.339340  0.321840  0.603170  1.0  0.1575
  C  C1823  1  0.160660  0.678160  0.103170  1.0  0.1568
  C  C1824  1  0.839340  0.178160  0.396830  1.0  0.1559
  C  C1825  1  0.091140  0.314120  0.216630  1.0  0.1502
  C  C1826  1  0.408860  0.685880  0.716630  1.0  0.1502
  C  C1827  1  0.908860  0.814120  0.283370  1.0  0.1504
  C  C1828  1  0.591140  0.185880  0.783370  1.0  0.1501
  C  C1829  1  0.216630  0.091140  0.314120  1.0  0.1495
  C  C1830  1  0.716630  0.408860  0.685880  1.0  0.1529
  C  C1831  1  0.283370  0.908860  0.814120  1.0  0.1511
  C  C1832  1  0.783370  0.591140  0.185880  1.0  0.151
  C  C1833  1  0.314120  0.216630  0.091140  1.0  0.1487
  C  C1834  1  0.685880  0.716630  0.408860  1.0  0.1496
  C  C1835  1  0.814120  0.283370  0.908860  1.0  0.1501
  C  C1836  1  0.185880  0.783370  0.591140  1.0  0.15
  C  C1837  1  0.908860  0.685880  0.783370  1.0  0.1502
  C  C1838  1  0.591140  0.314120  0.283370  1.0  0.1503
  C  C1839  1  0.091140  0.185880  0.716630  1.0  0.1501
  C  C1840  1  0.408860  0.814120  0.216630  1.0  0.1505
  C  C1841  1  0.783370  0.908860  0.685880  1.0  0.1525
  C  C1842  1  0.283370  0.591140  0.314120  1.0  0.1493
  C  C1843  1  0.716630  0.091140  0.185880  1.0  0.1511
  C  C1844  1  0.216630  0.408860  0.814120  1.0  0.1515
  C  C1845  1  0.685880  0.783370  0.908860  1.0  0.1512
  C  C1846  1  0.314120  0.283370  0.591140  1.0  0.1493
  C  C1847  1  0.185880  0.716630  0.091140  1.0  0.1492
  C  C1848  1  0.814120  0.216630  0.408860  1.0  0.1491
  C  C1849  1  0.035580  0.348780  0.193600  1.0  0.4775
  C  C1850  1  0.464420  0.651220  0.693600  1.0  0.4794
  C  C1851  1  0.964420  0.848780  0.306400  1.0  0.4797
  C  C1852  1  0.535580  0.151220  0.806400  1.0  0.4779
  C  C1853  1  0.193600  0.035580  0.348780  1.0  0.4756
  C  C1854  1  0.693600  0.464420  0.651220  1.0  0.4762
  C  C1855  1  0.306400  0.964420  0.848780  1.0  0.4778
  C  C1856  1  0.806400  0.535580  0.151220  1.0  0.4773
  C  C1857  1  0.348780  0.193600  0.035580  1.0  0.4803
  C  C1858  1  0.651220  0.693600  0.464420  1.0  0.4852
  C  C1859  1  0.848780  0.306400  0.964420  1.0  0.4854
  C  C1860  1  0.151220  0.806400  0.535580  1.0  0.4817
  C  C1861  1  0.964420  0.651220  0.806400  1.0  0.4798
  C  C1862  1  0.535580  0.348780  0.306400  1.0  0.4782
  C  C1863  1  0.035580  0.151220  0.693600  1.0  0.4775
  C  C1864  1  0.464420  0.848780  0.193600  1.0  0.4792
  C  C1865  1  0.806400  0.964420  0.651220  1.0  0.4775
  C  C1866  1  0.306400  0.535580  0.348780  1.0  0.4774
  C  C1867  1  0.693600  0.035580  0.151220  1.0  0.4754
  C  C1868  1  0.193600  0.464420  0.848780  1.0  0.4765
  C  C1869  1  0.651220  0.806400  0.964420  1.0  0.4863
  C  C1870  1  0.348780  0.306400  0.535580  1.0  0.4813
  C  C1871  1  0.151220  0.693600  0.035580  1.0  0.4808
  C  C1872  1  0.848780  0.193600  0.464420  1.0  0.4846
  C  C1873  1  0.096520  0.237370  0.228790  1.0  -0.0284
  C  C1874  1  0.403480  0.762630  0.728790  1.0  -0.0283
  C  C1875  1  0.903480  0.737370  0.271210  1.0  -0.0282
  C  C1876  1  0.596520  0.262630  0.771210  1.0  -0.0279
  C  C1877  1  0.228790  0.096520  0.237370  1.0  -0.0284
  C  C1878  1  0.728790  0.403480  0.762630  1.0  -0.0279
  C  C1879  1  0.271210  0.903480  0.737370  1.0  -0.0308
  C  C1880  1  0.771210  0.596520  0.262630  1.0  -0.03
  C  C1881  1  0.237370  0.228790  0.096520  1.0  -0.0264
  C  C1882  1  0.762630  0.728790  0.403480  1.0  -0.0298
  C  C1883  1  0.737370  0.271210  0.903480  1.0  -0.0272
  C  C1884  1  0.262630  0.771210  0.596520  1.0  -0.0276
  C  C1885  1  0.903480  0.762630  0.771210  1.0  -0.0282
  C  C1886  1  0.596520  0.237370  0.271210  1.0  -0.0285
  C  C1887  1  0.096520  0.262630  0.728790  1.0  -0.0276
  C  C1888  1  0.403480  0.737370  0.228790  1.0  -0.0286
  C  C1889  1  0.771210  0.903480  0.762630  1.0  -0.03
  C  C1890  1  0.271210  0.596520  0.237370  1.0  -0.0306
  C  C1891  1  0.728790  0.096520  0.262630  1.0  -0.0282
  C  C1892  1  0.228790  0.403480  0.737370  1.0  -0.0285
  C  C1893  1  0.762630  0.771210  0.903480  1.0  -0.0282
  C  C1894  1  0.237370  0.271210  0.596520  1.0  -0.0278
  C  C1895  1  0.262630  0.728790  0.096520  1.0  -0.0264
  C  C1896  1  0.737370  0.228790  0.403480  1.0  -0.0286
  C  C1897  1  0.024570  0.307770  0.253420  1.0  0.0037
  C  C1898  1  0.475430  0.692230  0.753420  1.0  0.0028
  C  C1899  1  0.975430  0.807770  0.246580  1.0  0.0005
  C  C1900  1  0.524570  0.192230  0.746580  1.0  0.002
  C  C1901  1  0.253420  0.024570  0.307770  1.0  0.0042
  C  C1902  1  0.753420  0.475430  0.692230  1.0  0.0053
  C  C1903  1  0.246580  0.975430  0.807770  1.0  0.0041
  C  C1904  1  0.746580  0.524570  0.192230  1.0  0.0044
  C  C1905  1  0.307770  0.253420  0.024570  1.0  0.0029
  C  C1906  1  0.692230  0.753420  0.475430  1.0  0.0037
  C  C1907  1  0.807770  0.246580  0.975430  1.0  0.004
  C  C1908  1  0.192230  0.746580  0.524570  1.0  0.0037
  C  C1909  1  0.975430  0.692230  0.746580  1.0  0.0011
  C  C1910  1  0.524570  0.307770  0.246580  1.0  0.0013
  C  C1911  1  0.024570  0.192230  0.753420  1.0  0.0029
  C  C1912  1  0.475430  0.807770  0.253420  1.0  0.0033
  C  C1913  1  0.746580  0.975430  0.692230  1.0  0.0053
  C  C1914  1  0.246580  0.524570  0.307770  1.0  0.0037
  C  C1915  1  0.753420  0.024570  0.192230  1.0  0.004
  C  C1916  1  0.253420  0.475430  0.807770  1.0  0.0049
  C  C1917  1  0.692230  0.746580  0.975430  1.0  0.0037
  C  C1918  1  0.307770  0.246580  0.524570  1.0  0.0034
  C  C1919  1  0.192230  0.753420  0.024570  1.0  0.003
  C  C1920  1  0.807770  0.253420  0.475430  1.0  0.0043
  C  C1921  1  0.038570  0.227610  0.299900  1.0  -0.1687
  C  C1922  1  0.461430  0.772390  0.799900  1.0  -0.174
  C  C1923  1  0.961430  0.727610  0.200100  1.0  -0.1732
  C  C1924  1  0.538570  0.272390  0.700100  1.0  -0.1673
  C  C1925  1  0.299900  0.038570  0.227610  1.0  -0.1711
  C  C1926  1  0.799900  0.461430  0.772390  1.0  -0.1697
  C  C1927  1  0.200100  0.961430  0.727610  1.0  -0.1702
  C  C1928  1  0.700100  0.538570  0.272390  1.0  -0.1713
  C  C1929  1  0.227610  0.299900  0.038570  1.0  -0.1761
  C  C1930  1  0.772390  0.799900  0.461430  1.0  -0.1744
  C  C1931  1  0.727610  0.200100  0.961430  1.0  -0.1737
  C  C1932  1  0.272390  0.700100  0.538570  1.0  -0.1758
  C  C1933  1  0.961430  0.772390  0.700100  1.0  -0.1727
  C  C1934  1  0.538570  0.227610  0.200100  1.0  -0.1666
  C  C1935  1  0.038570  0.272390  0.799900  1.0  -0.1683
  C  C1936  1  0.461430  0.727610  0.299900  1.0  -0.1751
  C  C1937  1  0.700100  0.961430  0.772390  1.0  -0.1704
  C  C1938  1  0.200100  0.538570  0.227610  1.0  -0.1715
  C  C1939  1  0.799900  0.038570  0.272390  1.0  -0.1711
  C  C1940  1  0.299900  0.461430  0.727610  1.0  -0.1699
  C  C1941  1  0.772390  0.700100  0.961430  1.0  -0.1743
  C  C1942  1  0.227610  0.200100  0.538570  1.0  -0.1746
  C  C1943  1  0.272390  0.799900  0.038570  1.0  -0.1778
  C  C1944  1  0.727610  0.299900  0.461430  1.0  -0.1743
  C  C1945  1  0.002540  0.229250  0.329650  1.0  -0.2053
  C  C1946  1  0.497460  0.770750  0.829650  1.0  -0.2066
  C  C1947  1  0.997460  0.729250  0.170350  1.0  -0.2051
  C  C1948  1  0.502540  0.270750  0.670350  1.0  -0.2058
  C  C1949  1  0.329650  0.002540  0.229250  1.0  -0.2036
  C  C1950  1  0.829650  0.497460  0.770750  1.0  -0.2039
  C  C1951  1  0.170350  0.997460  0.729250  1.0  -0.2049
  C  C1952  1  0.670350  0.502540  0.270750  1.0  -0.2037
  C  C1953  1  0.229250  0.329650  0.002540  1.0  -0.2033
  C  C1954  1  0.770750  0.829650  0.497460  1.0  -0.2016
  C  C1955  1  0.729250  0.170350  0.997460  1.0  -0.2042
  C  C1956  1  0.270750  0.670350  0.502540  1.0  -0.2024
  C  C1957  1  0.997460  0.770750  0.670350  1.0  -0.205
  C  C1958  1  0.502540  0.229250  0.170350  1.0  -0.2064
  C  C1959  1  0.002540  0.270750  0.829650  1.0  -0.2058
  C  C1960  1  0.497460  0.729250  0.329650  1.0  -0.2063
  C  C1961  1  0.670350  0.997460  0.770750  1.0  -0.2043
  C  C1962  1  0.170350  0.502540  0.229250  1.0  -0.2044
  C  C1963  1  0.829650  0.002540  0.270750  1.0  -0.2032
  C  C1964  1  0.329650  0.497460  0.729250  1.0  -0.2044
  C  C1965  1  0.770750  0.670350  0.997460  1.0  -0.2026
  C  C1966  1  0.229250  0.170350  0.502540  1.0  -0.2043
  C  C1967  1  0.270750  0.829650  0.002540  1.0  -0.2016
  C  C1968  1  0.729250  0.329650  0.497460  1.0  -0.2033
  C  C1969  1  0.968280  0.200010  0.317650  1.0  -0.1926
  C  C1970  1  0.531720  0.799990  0.817650  1.0  -0.1923
  C  C1971  1  0.031720  0.700010  0.182350  1.0  -0.1927
  C  C1972  1  0.468280  0.299990  0.682350  1.0  -0.1918
  C  C1973  1  0.317650  0.968280  0.200010  1.0  -0.195
  C  C1974  1  0.817650  0.531720  0.799990  1.0  -0.1953
  C  C1975  1  0.182350  0.031720  0.700010  1.0  -0.1958
  C  C1976  1  0.682350  0.468280  0.299990  1.0  -0.1953
  C  C1977  1  0.200010  0.317650  0.968280  1.0  -0.1981
  C  C1978  1  0.799990  0.817650  0.531720  1.0  -0.1977
  C  C1979  1  0.700010  0.182350  0.031720  1.0  -0.1988
  C  C1980  1  0.299990  0.682350  0.468280  1.0  -0.1988
  C  C1981  1  0.031720  0.799990  0.682350  1.0  -0.192
  C  C1982  1  0.468280  0.200010  0.182350  1.0  -0.1922
  C  C1983  1  0.968280  0.299990  0.817650  1.0  -0.1926
  C  C1984  1  0.531720  0.700010  0.317650  1.0  -0.1926
  C  C1985  1  0.682350  0.031720  0.799990  1.0  -0.1963
  C  C1986  1  0.182350  0.468280  0.200010  1.0  -0.1954
  C  C1987  1  0.817650  0.968280  0.299990  1.0  -0.1944
  C  C1988  1  0.317650  0.531720  0.700010  1.0  -0.1954
  C  C1989  1  0.799990  0.682350  0.031720  1.0  -0.1985
  C  C1990  1  0.200010  0.182350  0.468280  1.0  -0.1982
  C  C1991  1  0.299990  0.817650  0.968280  1.0  -0.1985
  C  C1992  1  0.700010  0.317650  0.531720  1.0  -0.1982
  C  C1993  1  0.978210  0.174200  0.281530  1.0  -0.1709
  C  C1994  1  0.521790  0.825800  0.781530  1.0  -0.1723
  C  C1995  1  0.021790  0.674200  0.218470  1.0  -0.1724
  C  C1996  1  0.478210  0.325800  0.718470  1.0  -0.1723
  C  C1997  1  0.281530  0.978210  0.174200  1.0  -0.1743
  C  C1998  1  0.781530  0.521790  0.825800  1.0  -0.1746
  C  C1999  1  0.218470  0.021790  0.674200  1.0  -0.1737
  C  C2000  1  0.718470  0.478210  0.325800  1.0  -0.1766
  C  C2001  1  0.174200  0.281530  0.978210  1.0  -0.178
  C  C2002  1  0.825800  0.781530  0.521790  1.0  -0.1727
  C  C2003  1  0.674200  0.218470  0.021790  1.0  -0.1781
  C  C2004  1  0.325800  0.718470  0.478210  1.0  -0.1743
  C  C2005  1  0.021790  0.825800  0.718470  1.0  -0.1721
  C  C2006  1  0.478210  0.174200  0.218470  1.0  -0.1721
  C  C2007  1  0.978210  0.325800  0.781530  1.0  -0.1728
  C  C2008  1  0.521790  0.674200  0.281530  1.0  -0.1712
  C  C2009  1  0.718470  0.021790  0.825800  1.0  -0.1754
  C  C2010  1  0.218470  0.478210  0.174200  1.0  -0.1744
  C  C2011  1  0.781530  0.978210  0.325800  1.0  -0.1758
  C  C2012  1  0.281530  0.521790  0.674200  1.0  -0.1739
  C  C2013  1  0.825800  0.718470  0.021790  1.0  -0.174
  C  C2014  1  0.174200  0.218470  0.478210  1.0  -0.1782
  C  C2015  1  0.325800  0.781530  0.978210  1.0  -0.1729
  C  C2016  1  0.674200  0.281530  0.521790  1.0  -0.1778
  C  C2017  1  0.916540  0.213010  0.984210  1.0  -0.1918
  C  C2018  1  0.583460  0.786990  0.484210  1.0  -0.1886
  C  C2019  1  0.083460  0.713010  0.515790  1.0  -0.1876
  C  C2020  1  0.416540  0.286990  0.015790  1.0  -0.1927
  C  C2021  1  0.984210  0.916540  0.213010  1.0  -0.1885
  C  C2022  1  0.484210  0.583460  0.786990  1.0  -0.1885
  C  C2023  1  0.515790  0.083460  0.713010  1.0  -0.1846
  C  C2024  1  0.015790  0.416540  0.286990  1.0  -0.1872
  C  C2025  1  0.213010  0.984210  0.916540  1.0  -0.1891
  C  C2026  1  0.786990  0.484210  0.583460  1.0  -0.192
  C  C2027  1  0.713010  0.515790  0.083460  1.0  -0.1924
  C  C2028  1  0.286990  0.015790  0.416540  1.0  -0.1911
  C  C2029  1  0.083460  0.786990  0.015790  1.0  -0.1885
  C  C2030  1  0.416540  0.213010  0.515790  1.0  -0.1914
  C  C2031  1  0.916540  0.286990  0.484210  1.0  -0.1927
  C  C2032  1  0.583460  0.713010  0.984210  1.0  -0.1883
  C  C2033  1  0.015790  0.083460  0.786990  1.0  -0.1879
  C  C2034  1  0.515790  0.416540  0.213010  1.0  -0.1875
  C  C2035  1  0.484210  0.916540  0.286990  1.0  -0.1881
  C  C2036  1  0.984210  0.583460  0.713010  1.0  -0.1851
  C  C2037  1  0.786990  0.015790  0.083460  1.0  -0.1923
  C  C2038  1  0.213010  0.515790  0.416540  1.0  -0.1906
  C  C2039  1  0.286990  0.484210  0.916540  1.0  -0.1901
  C  C2040  1  0.713010  0.984210  0.583460  1.0  -0.1916
  C  C2041  1  0.940850  0.200540  0.946550  1.0  -0.1824
  C  C2042  1  0.559150  0.799460  0.446550  1.0  -0.1842
  C  C2043  1  0.059150  0.700540  0.553450  1.0  -0.1814
  C  C2044  1  0.440850  0.299460  0.053450  1.0  -0.1864
  C  C2045  1  0.946550  0.940850  0.200540  1.0  -0.1866
  C  C2046  1  0.446550  0.559150  0.799460  1.0  -0.1857
  C  C2047  1  0.553450  0.059150  0.700540  1.0  -0.187
  C  C2048  1  0.053450  0.440850  0.299460  1.0  -0.188
  C  C2049  1  0.200540  0.946550  0.940850  1.0  -0.1828
  C  C2050  1  0.799460  0.446550  0.559150  1.0  -0.1861
  C  C2051  1  0.700540  0.553450  0.059150  1.0  -0.1852
  C  C2052  1  0.299460  0.053450  0.440850  1.0  -0.1834
  C  C2053  1  0.059150  0.799460  0.053450  1.0  -0.1861
  C  C2054  1  0.440850  0.200540  0.553450  1.0  -0.1817
  C  C2055  1  0.940850  0.299460  0.446550  1.0  -0.1845
  C  C2056  1  0.559150  0.700540  0.946550  1.0  -0.1818
  C  C2057  1  0.053450  0.059150  0.799460  1.0  -0.1869
  C  C2058  1  0.553450  0.440850  0.200540  1.0  -0.1873
  C  C2059  1  0.446550  0.940850  0.299460  1.0  -0.1864
  C  C2060  1  0.946550  0.559150  0.700540  1.0  -0.1868
  C  C2061  1  0.799460  0.053450  0.059150  1.0  -0.1838
  C  C2062  1  0.200540  0.553450  0.440850  1.0  -0.1847
  C  C2063  1  0.299460  0.446550  0.940850  1.0  -0.1849
  C  C2064  1  0.700540  0.946550  0.559150  1.0  -0.184
  C  C2065  1  0.967800  0.235800  0.930510  1.0  -0.2265
  C  C2066  1  0.532200  0.764200  0.430510  1.0  -0.2245
  C  C2067  1  0.032200  0.735800  0.569490  1.0  -0.227
  C  C2068  1  0.467800  0.264200  0.069490  1.0  -0.2275
  C  C2069  1  0.930510  0.967800  0.235800  1.0  -0.2251
  C  C2070  1  0.430510  0.532200  0.764200  1.0  -0.228
  C  C2071  1  0.569490  0.032200  0.735800  1.0  -0.2282
  C  C2072  1  0.069490  0.467800  0.264200  1.0  -0.2277
  C  C2073  1  0.235800  0.930510  0.967800  1.0  -0.2289
  C  C2074  1  0.764200  0.430510  0.532200  1.0  -0.2282
  C  C2075  1  0.735800  0.569490  0.032200  1.0  -0.2271
  C  C2076  1  0.264200  0.069490  0.467800  1.0  -0.2302
  C  C2077  1  0.032200  0.764200  0.069490  1.0  -0.2281
  C  C2078  1  0.467800  0.235800  0.569490  1.0  -0.2267
  C  C2079  1  0.967800  0.264200  0.430510  1.0  -0.226
  C  C2080  1  0.532200  0.735800  0.930510  1.0  -0.2253
  C  C2081  1  0.069490  0.032200  0.764200  1.0  -0.229
  C  C2082  1  0.569490  0.467800  0.235800  1.0  -0.2254
  C  C2083  1  0.430510  0.967800  0.264200  1.0  -0.2283
  C  C2084  1  0.930510  0.532200  0.735800  1.0  -0.2274
  C  C2085  1  0.764200  0.069490  0.032200  1.0  -0.2272
  C  C2086  1  0.235800  0.569490  0.467800  1.0  -0.2308
  C  C2087  1  0.264200  0.430510  0.967800  1.0  -0.2286
  C  C2088  1  0.735800  0.930510  0.532200  1.0  -0.228
  C  C2089  1  0.964130  0.273050  0.955900  1.0  -0.1494
  C  C2090  1  0.535870  0.726950  0.455900  1.0  -0.1508
  C  C2091  1  0.035870  0.773050  0.544100  1.0  -0.1495
  C  C2092  1  0.464130  0.226950  0.044100  1.0  -0.1474
  C  C2093  1  0.955900  0.964130  0.273050  1.0  -0.1518
  C  C2094  1  0.455900  0.535870  0.726950  1.0  -0.152
  C  C2095  1  0.544100  0.035870  0.773050  1.0  -0.1498
  C  C2096  1  0.044100  0.464130  0.226950  1.0  -0.151
  C  C2097  1  0.273050  0.955900  0.964130  1.0  -0.148
  C  C2098  1  0.726950  0.455900  0.535870  1.0  -0.1481
  C  C2099  1  0.773050  0.544100  0.035870  1.0  -0.1473
  C  C2100  1  0.226950  0.044100  0.464130  1.0  -0.1473
  C  C2101  1  0.035870  0.726950  0.044100  1.0  -0.1484
  C  C2102  1  0.464130  0.273050  0.544100  1.0  -0.1488
  C  C2103  1  0.964130  0.226950  0.455900  1.0  -0.1492
  C  C2104  1  0.535870  0.773050  0.955900  1.0  -0.1504
  C  C2105  1  0.044100  0.035870  0.726950  1.0  -0.1511
  C  C2106  1  0.544100  0.464130  0.273050  1.0  -0.1502
  C  C2107  1  0.455900  0.964130  0.226950  1.0  -0.1521
  C  C2108  1  0.955900  0.535870  0.773050  1.0  -0.151
  C  C2109  1  0.726950  0.044100  0.035870  1.0  -0.1475
  C  C2110  1  0.273050  0.544100  0.464130  1.0  -0.1473
  C  C2111  1  0.226950  0.455900  0.964130  1.0  -0.1478
  C  C2112  1  0.773050  0.955900  0.535870  1.0  -0.1482
  C  C2113  1  0.135540  0.369930  0.188800  1.0  -0.1758
  C  C2114  1  0.364460  0.630070  0.688800  1.0  -0.1747
  C  C2115  1  0.864460  0.869930  0.311200  1.0  -0.177
  C  C2116  1  0.635540  0.130070  0.811200  1.0  -0.1743
  C  C2117  1  0.188800  0.135540  0.369930  1.0  -0.1759
  C  C2118  1  0.688800  0.364460  0.630070  1.0  -0.173
  C  C2119  1  0.311200  0.864460  0.869930  1.0  -0.1739
  C  C2120  1  0.811200  0.635540  0.130070  1.0  -0.1736
  C  C2121  1  0.369930  0.188800  0.135540  1.0  -0.1713
  C  C2122  1  0.630070  0.688800  0.364460  1.0  -0.1759
  C  C2123  1  0.869930  0.311200  0.864460  1.0  -0.1723
  C  C2124  1  0.130070  0.811200  0.635540  1.0  -0.1762
  C  C2125  1  0.864460  0.630070  0.811200  1.0  -0.1752
  C  C2126  1  0.635540  0.369930  0.311200  1.0  -0.1769
  C  C2127  1  0.135540  0.130070  0.688800  1.0  -0.1733
  C  C2128  1  0.364460  0.869930  0.188800  1.0  -0.1759
  C  C2129  1  0.811200  0.864460  0.630070  1.0  -0.1729
  C  C2130  1  0.311200  0.635540  0.369930  1.0  -0.1742
  C  C2131  1  0.688800  0.135540  0.130070  1.0  -0.1736
  C  C2132  1  0.188800  0.364460  0.869930  1.0  -0.1758
  C  C2133  1  0.630070  0.811200  0.864460  1.0  -0.176
  C  C2134  1  0.369930  0.311200  0.635540  1.0  -0.1716
  C  C2135  1  0.130070  0.688800  0.135540  1.0  -0.175
  C  C2136  1  0.869930  0.188800  0.364460  1.0  -0.1725
  C  C2137  1  0.171670  0.352670  0.207800  1.0  -0.1512
  C  C2138  1  0.328330  0.647330  0.707800  1.0  -0.1514
  C  C2139  1  0.828330  0.852670  0.292200  1.0  -0.1518
  C  C2140  1  0.671670  0.147330  0.792200  1.0  -0.153
  C  C2141  1  0.207800  0.171670  0.352670  1.0  -0.1548
  C  C2142  1  0.707800  0.328330  0.647330  1.0  -0.1509
  C  C2143  1  0.292200  0.828330  0.852670  1.0  -0.1528
  C  C2144  1  0.792200  0.671670  0.147330  1.0  -0.1543
  C  C2145  1  0.352670  0.207800  0.171670  1.0  -0.1493
  C  C2146  1  0.647330  0.707800  0.328330  1.0  -0.1496
  C  C2147  1  0.852670  0.292200  0.828330  1.0  -0.1505
  C  C2148  1  0.147330  0.792200  0.671670  1.0  -0.1484
  C  C2149  1  0.828330  0.647330  0.792200  1.0  -0.1521
  C  C2150  1  0.671670  0.352670  0.292200  1.0  -0.1528
  C  C2151  1  0.171670  0.147330  0.707800  1.0  -0.1516
  C  C2152  1  0.328330  0.852670  0.207800  1.0  -0.1509
  C  C2153  1  0.792200  0.828330  0.647330  1.0  -0.1518
  C  C2154  1  0.292200  0.671670  0.352670  1.0  -0.1546
  C  C2155  1  0.707800  0.171670  0.147330  1.0  -0.1543
  C  C2156  1  0.207800  0.328330  0.852670  1.0  -0.1522
  C  C2157  1  0.647330  0.792200  0.828330  1.0  -0.149
  C  C2158  1  0.352670  0.292200  0.671670  1.0  -0.149
  C  C2159  1  0.147330  0.707800  0.171670  1.0  -0.1486
  C  C2160  1  0.852670  0.207800  0.328330  1.0  -0.1511
  C  C2161  1  0.160850  0.324480  0.240410  1.0  -0.1201
  C  C2162  1  0.339150  0.675520  0.740410  1.0  -0.1183
  C  C2163  1  0.839150  0.824480  0.259590  1.0  -0.1172
  C  C2164  1  0.660850  0.175520  0.759590  1.0  -0.1189
  C  C2165  1  0.240410  0.160850  0.324480  1.0  -0.1187
  C  C2166  1  0.740410  0.339150  0.675520  1.0  -0.1174
  C  C2167  1  0.259590  0.839150  0.824480  1.0  -0.1148
  C  C2168  1  0.759590  0.660850  0.175520  1.0  -0.1162
  C  C2169  1  0.324480  0.240410  0.160850  1.0  -0.1234
  C  C2170  1  0.675520  0.740410  0.339150  1.0  -0.1215
  C  C2171  1  0.824480  0.259590  0.839150  1.0  -0.1201
  C  C2172  1  0.175520  0.759590  0.660850  1.0  -0.1202
  C  C2173  1  0.839150  0.675520  0.759590  1.0  -0.1173
  C  C2174  1  0.660850  0.324480  0.259590  1.0  -0.1196
  C  C2175  1  0.160850  0.175520  0.740410  1.0  -0.1193
  C  C2176  1  0.339150  0.824480  0.240410  1.0  -0.1178
  C  C2177  1  0.759590  0.839150  0.675520  1.0  -0.1155
  C  C2178  1  0.259590  0.660850  0.324480  1.0  -0.1164
  C  C2179  1  0.740410  0.160850  0.175520  1.0  -0.118
  C  C2180  1  0.240410  0.339150  0.824480  1.0  -0.1175
  C  C2181  1  0.675520  0.759590  0.839150  1.0  -0.1217
  C  C2182  1  0.324480  0.259590  0.660850  1.0  -0.1186
  C  C2183  1  0.175520  0.740410  0.160850  1.0  -0.1239
  C  C2184  1  0.824480  0.240410  0.339150  1.0  -0.1206
  C  C2185  1  0.116790  0.325610  0.252810  1.0  -0.1428
  C  C2186  1  0.383210  0.674390  0.752810  1.0  -0.1464
  C  C2187  1  0.883210  0.825610  0.247190  1.0  -0.1451
  C  C2188  1  0.616790  0.174390  0.747190  1.0  -0.141
  C  C2189  1  0.252810  0.116790  0.325610  1.0  -0.1509
  C  C2190  1  0.752810  0.383210  0.674390  1.0  -0.1489
  C  C2191  1  0.247190  0.883210  0.825610  1.0  -0.1498
  C  C2192  1  0.747190  0.616790  0.174390  1.0  -0.1497
  C  C2193  1  0.325610  0.252810  0.116790  1.0  -0.1468
  C  C2194  1  0.674390  0.752810  0.383210  1.0  -0.1445
  C  C2195  1  0.825610  0.247190  0.883210  1.0  -0.1402
  C  C2196  1  0.174390  0.747190  0.616790  1.0  -0.141
  C  C2197  1  0.883210  0.674390  0.747190  1.0  -0.145
  C  C2198  1  0.616790  0.325610  0.247190  1.0  -0.141
  C  C2199  1  0.116790  0.174390  0.752810  1.0  -0.1432
  C  C2200  1  0.383210  0.825610  0.252810  1.0  -0.146
  C  C2201  1  0.747190  0.883210  0.674390  1.0  -0.149
  C  C2202  1  0.247190  0.616790  0.325610  1.0  -0.1505
  C  C2203  1  0.752810  0.116790  0.174390  1.0  -0.1499
  C  C2204  1  0.252810  0.383210  0.825610  1.0  -0.1499
  C  C2205  1  0.674390  0.747190  0.883210  1.0  -0.1403
  C  C2206  1  0.325610  0.247190  0.616790  1.0  -0.1413
  C  C2207  1  0.174390  0.752810  0.116790  1.0  -0.1464
  C  C2208  1  0.825610  0.252810  0.383210  1.0  -0.1446
  N  N2209  1  0.056990  0.219540  0.228880  1.0  -0.1276
  N  N2210  1  0.443010  0.780460  0.728880  1.0  -0.1277
  N  N2211  1  0.943010  0.719540  0.271120  1.0  -0.1277
  N  N2212  1  0.556990  0.280460  0.771120  1.0  -0.1269
  N  N2213  1  0.228880  0.056990  0.219540  1.0  -0.1297
  N  N2214  1  0.728880  0.443010  0.780460  1.0  -0.1299
  N  N2215  1  0.271120  0.943010  0.719540  1.0  -0.1288
  N  N2216  1  0.771120  0.556990  0.280460  1.0  -0.1286
  N  N2217  1  0.219540  0.228880  0.056990  1.0  -0.1293
  N  N2218  1  0.780460  0.728880  0.443010  1.0  -0.1309
  N  N2219  1  0.719540  0.271120  0.943010  1.0  -0.1287
  N  N2220  1  0.280460  0.771120  0.556990  1.0  -0.1282
  N  N2221  1  0.943010  0.780460  0.771120  1.0  -0.1275
  N  N2222  1  0.556990  0.219540  0.271120  1.0  -0.127
  N  N2223  1  0.056990  0.280460  0.728880  1.0  -0.1269
  N  N2224  1  0.443010  0.719540  0.228880  1.0  -0.1284
  N  N2225  1  0.771120  0.943010  0.780460  1.0  -0.1287
  N  N2226  1  0.271120  0.556990  0.219540  1.0  -0.1282
  N  N2227  1  0.728880  0.056990  0.280460  1.0  -0.1295
  N  N2228  1  0.228880  0.443010  0.719540  1.0  -0.1303
  N  N2229  1  0.780460  0.771120  0.943010  1.0  -0.1285
  N  N2230  1  0.219540  0.271120  0.556990  1.0  -0.1283
  N  N2231  1  0.280460  0.728880  0.056990  1.0  -0.1292
  N  N2232  1  0.719540  0.228880  0.443010  1.0  -0.1309
  N  N2233  1  0.009510  0.176250  0.213250  1.0  -0.1804
  N  N2234  1  0.490490  0.823750  0.713250  1.0  -0.1796
  N  N2235  1  0.990490  0.676250  0.286750  1.0  -0.1801
  N  N2236  1  0.509510  0.323750  0.786750  1.0  -0.1792
  N  N2237  1  0.213250  0.009510  0.176250  1.0  -0.1809
  N  N2238  1  0.713250  0.490490  0.823750  1.0  -0.1809
  N  N2239  1  0.286750  0.990490  0.676250  1.0  -0.1801
  N  N2240  1  0.786750  0.509510  0.323750  1.0  -0.18
  N  N2241  1  0.176250  0.213250  0.009510  1.0  -0.1804
  N  N2242  1  0.823750  0.713250  0.490490  1.0  -0.1799
  N  N2243  1  0.676250  0.286750  0.990490  1.0  -0.1793
  N  N2244  1  0.323750  0.786750  0.509510  1.0  -0.1795
  N  N2245  1  0.990490  0.823750  0.786750  1.0  -0.18
  N  N2246  1  0.509510  0.176250  0.286750  1.0  -0.1794
  N  N2247  1  0.009510  0.323750  0.713250  1.0  -0.1792
  N  N2248  1  0.490490  0.676250  0.213250  1.0  -0.1806
  N  N2249  1  0.786750  0.990490  0.823750  1.0  -0.1797
  N  N2250  1  0.286750  0.509510  0.176250  1.0  -0.1804
  N  N2251  1  0.713250  0.009510  0.323750  1.0  -0.1804
  N  N2252  1  0.213250  0.490490  0.676250  1.0  -0.1817
  N  N2253  1  0.823750  0.786750  0.990490  1.0  -0.1784
  N  N2254  1  0.176250  0.286750  0.509510  1.0  -0.1802
  N  N2255  1  0.323750  0.713250  0.009510  1.0  -0.1802
  N  N2256  1  0.676250  0.213250  0.490490  1.0  -0.1806
  N  N2257  1  0.006470  0.269140  0.246650  1.0  -0.1809
  N  N2258  1  0.493530  0.730860  0.746650  1.0  -0.1818
  N  N2259  1  0.993530  0.769140  0.253350  1.0  -0.1826
  N  N2260  1  0.506470  0.230860  0.753350  1.0  -0.1839
  N  N2261  1  0.246650  0.006470  0.269140  1.0  -0.1842
  N  N2262  1  0.746650  0.493530  0.730860  1.0  -0.1832
  N  N2263  1  0.253350  0.993530  0.769140  1.0  -0.1819
  N  N2264  1  0.753350  0.506470  0.230860  1.0  -0.1841
  N  N2265  1  0.269140  0.246650  0.006470  1.0  -0.1841
  N  N2266  1  0.730860  0.746650  0.493530  1.0  -0.1845
  N  N2267  1  0.769140  0.253350  0.993530  1.0  -0.1844
  N  N2268  1  0.230860  0.753350  0.506470  1.0  -0.1833
  N  N2269  1  0.993530  0.730860  0.753350  1.0  -0.183
  N  N2270  1  0.506470  0.269140  0.253350  1.0  -0.1829
  N  N2271  1  0.006470  0.230860  0.746650  1.0  -0.1827
  N  N2272  1  0.493530  0.769140  0.246650  1.0  -0.1804
  N  N2273  1  0.753350  0.993530  0.730860  1.0  -0.1824
  N  N2274  1  0.253350  0.506470  0.269140  1.0  -0.1829
  N  N2275  1  0.746650  0.006470  0.230860  1.0  -0.1853
  N  N2276  1  0.246650  0.493530  0.769140  1.0  -0.1827
  N  N2277  1  0.730860  0.753350  0.993530  1.0  -0.1844
  N  N2278  1  0.269140  0.253350  0.506470  1.0  -0.184
  N  N2279  1  0.230860  0.746650  0.006470  1.0  -0.1842
  N  N2280  1  0.769140  0.246650  0.493530  1.0  -0.1842
  N  N2281  1  0.958520  0.225490  0.231710  1.0  -0.1832
  N  N2282  1  0.541480  0.774510  0.731710  1.0  -0.1828
  N  N2283  1  0.041480  0.725490  0.268290  1.0  -0.1827
  N  N2284  1  0.458520  0.274510  0.768290  1.0  -0.1821
  N  N2285  1  0.231710  0.958520  0.225490  1.0  -0.1818
  N  N2286  1  0.731710  0.541480  0.774510  1.0  -0.1819
  N  N2287  1  0.268290  0.041480  0.725490  1.0  -0.1801
  N  N2288  1  0.768290  0.458520  0.274510  1.0  -0.1815
  N  N2289  1  0.225490  0.231710  0.958520  1.0  -0.183
  N  N2290  1  0.774510  0.731710  0.541480  1.0  -0.1811
  N  N2291  1  0.725490  0.268290  0.041480  1.0  -0.1804
  N  N2292  1  0.274510  0.768290  0.458520  1.0  -0.1843
  N  N2293  1  0.041480  0.774510  0.768290  1.0  -0.1821
  N  N2294  1  0.458520  0.225490  0.268290  1.0  -0.1828
  N  N2295  1  0.958520  0.274510  0.731710  1.0  -0.1839
  N  N2296  1  0.541480  0.725490  0.231710  1.0  -0.1825
  N  N2297  1  0.768290  0.041480  0.774510  1.0  -0.1809
  N  N2298  1  0.268290  0.458520  0.225490  1.0  -0.1804
  N  N2299  1  0.731710  0.958520  0.274510  1.0  -0.1825
  N  N2300  1  0.231710  0.541480  0.725490  1.0  -0.1816
  N  N2301  1  0.774510  0.768290  0.041480  1.0  -0.1824
  N  N2302  1  0.225490  0.268290  0.458520  1.0  -0.1817
  N  N2303  1  0.274510  0.731710  0.958520  1.0  -0.1844
  N  N2304  1  0.725490  0.231710  0.541480  1.0  -0.1802
  N  N2305  1  0.970010  0.152660  0.156600  1.0  -0.1026
  N  N2306  1  0.529990  0.847340  0.656600  1.0  -0.1016
  N  N2307  1  0.029990  0.652660  0.343400  1.0  -0.102
  N  N2308  1  0.470010  0.347340  0.843400  1.0  -0.1019
  N  N2309  1  0.156600  0.970010  0.152660  1.0  -0.1048
  N  N2310  1  0.656600  0.529990  0.847340  1.0  -0.1028
  N  N2311  1  0.343400  0.029990  0.652660  1.0  -0.1047
  N  N2312  1  0.843400  0.470010  0.347340  1.0  -0.1023
  N  N2313  1  0.152660  0.156600  0.970010  1.0  -0.1024
  N  N2314  1  0.847340  0.656600  0.529990  1.0  -0.1023
  N  N2315  1  0.652660  0.343400  0.029990  1.0  -0.1021
  N  N2316  1  0.347340  0.843400  0.470010  1.0  -0.1027
  N  N2317  1  0.029990  0.847340  0.843400  1.0  -0.1016
  N  N2318  1  0.470010  0.152660  0.343400  1.0  -0.102
  N  N2319  1  0.970010  0.347340  0.656600  1.0  -0.1019
  N  N2320  1  0.529990  0.652660  0.156600  1.0  -0.1024
  N  N2321  1  0.843400  0.029990  0.847340  1.0  -0.1021
  N  N2322  1  0.343400  0.470010  0.152660  1.0  -0.1044
  N  N2323  1  0.656600  0.970010  0.347340  1.0  -0.1031
  N  N2324  1  0.156600  0.529990  0.652660  1.0  -0.1055
  N  N2325  1  0.847340  0.843400  0.029990  1.0  -0.1017
  N  N2326  1  0.152660  0.343400  0.470010  1.0  -0.1027
  N  N2327  1  0.347340  0.656600  0.970010  1.0  -0.1025
  N  N2328  1  0.652660  0.156600  0.529990  1.0  -0.1024
  N  N2329  1  0.957790  0.164080  0.092750  1.0  -0.091
  N  N2330  1  0.542210  0.835920  0.592750  1.0  -0.09
  N  N2331  1  0.042210  0.664080  0.407250  1.0  -0.0921
  N  N2332  1  0.457790  0.335920  0.907250  1.0  -0.0885
  N  N2333  1  0.092750  0.957790  0.164080  1.0  -0.0905
  N  N2334  1  0.592750  0.542210  0.835920  1.0  -0.0909
  N  N2335  1  0.407250  0.042210  0.664080  1.0  -0.0907
  N  N2336  1  0.907250  0.457790  0.335920  1.0  -0.0911
  N  N2337  1  0.164080  0.092750  0.957790  1.0  -0.093
  N  N2338  1  0.835920  0.592750  0.542210  1.0  -0.0931
  N  N2339  1  0.664080  0.407250  0.042210  1.0  -0.0935
  N  N2340  1  0.335920  0.907250  0.457790  1.0  -0.0926
  N  N2341  1  0.042210  0.835920  0.907250  1.0  -0.0899
  N  N2342  1  0.457790  0.164080  0.407250  1.0  -0.0908
  N  N2343  1  0.957790  0.335920  0.592750  1.0  -0.0885
  N  N2344  1  0.542210  0.664080  0.092750  1.0  -0.0923
  N  N2345  1  0.907250  0.042210  0.835920  1.0  -0.0902
  N  N2346  1  0.407250  0.457790  0.164080  1.0  -0.0898
  N  N2347  1  0.592750  0.957790  0.335920  1.0  -0.0917
  N  N2348  1  0.092750  0.542210  0.664080  1.0  -0.0914
  N  N2349  1  0.835920  0.907250  0.042210  1.0  -0.0928
  N  N2350  1  0.164080  0.407250  0.457790  1.0  -0.0934
  N  N2351  1  0.335920  0.592750  0.957790  1.0  -0.0925
  N  N2352  1  0.664080  0.092750  0.542210  1.0  -0.0936
  N  N2353  1  0.920310  0.203540  0.174070  1.0  -0.0993
  N  N2354  1  0.579690  0.796460  0.674070  1.0  -0.0986
  N  N2355  1  0.079690  0.703540  0.325930  1.0  -0.0995
  N  N2356  1  0.420310  0.296460  0.825930  1.0  -0.0984
  N  N2357  1  0.174070  0.920310  0.203540  1.0  -0.0986
  N  N2358  1  0.674070  0.579690  0.796460  1.0  -0.0982
  N  N2359  1  0.325930  0.079690  0.703540  1.0  -0.0986
  N  N2360  1  0.825930  0.420310  0.296460  1.0  -0.0978
  N  N2361  1  0.203540  0.174070  0.920310  1.0  -0.0974
  N  N2362  1  0.796460  0.674070  0.579690  1.0  -0.0969
  N  N2363  1  0.703540  0.325930  0.079690  1.0  -0.0973
  N  N2364  1  0.296460  0.825930  0.420310  1.0  -0.0977
  N  N2365  1  0.079690  0.796460  0.825930  1.0  -0.0988
  N  N2366  1  0.420310  0.203540  0.325930  1.0  -0.0995
  N  N2367  1  0.920310  0.296460  0.674070  1.0  -0.0981
  N  N2368  1  0.579690  0.703540  0.174070  1.0  -0.0998
  N  N2369  1  0.825930  0.079690  0.796460  1.0  -0.0979
  N  N2370  1  0.325930  0.420310  0.203540  1.0  -0.0984
  N  N2371  1  0.674070  0.920310  0.296460  1.0  -0.0983
  N  N2372  1  0.174070  0.579690  0.703540  1.0  -0.0989
  N  N2373  1  0.796460  0.825930  0.079690  1.0  -0.0976
  N  N2374  1  0.203540  0.325930  0.420310  1.0  -0.0973
  N  N2375  1  0.296460  0.674070  0.920310  1.0  -0.0977
  N  N2376  1  0.703540  0.174070  0.579690  1.0  -0.0968
  N  N2377  1  0.905510  0.211660  0.109090  1.0  -0.1316
  N  N2378  1  0.594490  0.788340  0.609090  1.0  -0.132
  N  N2379  1  0.094490  0.711660  0.390910  1.0  -0.1304
  N  N2380  1  0.405510  0.288340  0.890910  1.0  -0.1304
  N  N2381  1  0.109090  0.905510  0.211660  1.0  -0.132
  N  N2382  1  0.609090  0.594490  0.788340  1.0  -0.1317
  N  N2383  1  0.390910  0.094490  0.711660  1.0  -0.1325
  N  N2384  1  0.890910  0.405510  0.288340  1.0  -0.1307
  N  N2385  1  0.211660  0.109090  0.905510  1.0  -0.1323
  N  N2386  1  0.788340  0.609090  0.594490  1.0  -0.1312
  N  N2387  1  0.711660  0.390910  0.094490  1.0  -0.1305
  N  N2388  1  0.288340  0.890910  0.405510  1.0  -0.1314
  N  N2389  1  0.094490  0.788340  0.890910  1.0  -0.1306
  N  N2390  1  0.405510  0.211660  0.390910  1.0  -0.1302
  N  N2391  1  0.905510  0.288340  0.609090  1.0  -0.1313
  N  N2392  1  0.594490  0.711660  0.109090  1.0  -0.1323
  N  N2393  1  0.890910  0.094490  0.788340  1.0  -0.1315
  N  N2394  1  0.390910  0.405510  0.211660  1.0  -0.1319
  N  N2395  1  0.609090  0.905510  0.288340  1.0  -0.1309
  N  N2396  1  0.109090  0.594490  0.711660  1.0  -0.1325
  N  N2397  1  0.788340  0.890910  0.094490  1.0  -0.1299
  N  N2398  1  0.211660  0.390910  0.405510  1.0  -0.1316
  N  N2399  1  0.288340  0.609090  0.905510  1.0  -0.1316
  N  N2400  1  0.711660  0.109090  0.594490  1.0  -0.1318
  N  N2401  1  0.973930  0.200040  0.030880  1.0  -0.1773
  N  N2402  1  0.526070  0.799960  0.530880  1.0  -0.1752
  N  N2403  1  0.026070  0.700040  0.469120  1.0  -0.1769
  N  N2404  1  0.473930  0.299960  0.969120  1.0  -0.1766
  N  N2405  1  0.030880  0.973930  0.200040  1.0  -0.1752
  N  N2406  1  0.530880  0.526070  0.799960  1.0  -0.1733
  N  N2407  1  0.469120  0.026070  0.700040  1.0  -0.1789
  N  N2408  1  0.969120  0.473930  0.299960  1.0  -0.172
  N  N2409  1  0.200040  0.030880  0.973930  1.0  -0.1759
  N  N2410  1  0.799960  0.530880  0.526070  1.0  -0.1786
  N  N2411  1  0.700040  0.469120  0.026070  1.0  -0.1777
  N  N2412  1  0.299960  0.969120  0.473930  1.0  -0.1774
  N  N2413  1  0.026070  0.799960  0.969120  1.0  -0.1754
  N  N2414  1  0.473930  0.200040  0.469120  1.0  -0.1773
  N  N2415  1  0.973930  0.299960  0.530880  1.0  -0.1771
  N  N2416  1  0.526070  0.700040  0.030880  1.0  -0.1763
  N  N2417  1  0.969120  0.026070  0.799960  1.0  -0.175
  N  N2418  1  0.469120  0.473930  0.200040  1.0  -0.1751
  N  N2419  1  0.530880  0.973930  0.299960  1.0  -0.1714
  N  N2420  1  0.030880  0.526070  0.700040  1.0  -0.178
  N  N2421  1  0.799960  0.969120  0.026070  1.0  -0.1792
  N  N2422  1  0.200040  0.469120  0.473930  1.0  -0.1765
  N  N2423  1  0.299960  0.530880  0.973930  1.0  -0.177
  N  N2424  1  0.700040  0.030880  0.526070  1.0  -0.1768
  N  N2425  1  0.011910  0.248540  0.007020  1.0  -0.1136
  N  N2426  1  0.488090  0.751460  0.507020  1.0  -0.1147
  N  N2427  1  0.988090  0.748540  0.492980  1.0  -0.115
  N  N2428  1  0.511910  0.251460  0.992980  1.0  -0.1134
  N  N2429  1  0.007020  0.011910  0.248540  1.0  -0.1122
  N  N2430  1  0.507020  0.488090  0.751460  1.0  -0.1142
  N  N2431  1  0.492980  0.988090  0.748540  1.0  -0.1145
  N  N2432  1  0.992980  0.511910  0.251460  1.0  -0.1123
  N  N2433  1  0.248540  0.007020  0.011910  1.0  -0.1131
  N  N2434  1  0.751460  0.507020  0.488090  1.0  -0.1151
  N  N2435  1  0.748540  0.492980  0.988090  1.0  -0.1143
  N  N2436  1  0.251460  0.992980  0.511910  1.0  -0.1124
  N  N2437  1  0.988090  0.751460  0.992980  1.0  -0.1146
  N  N2438  1  0.511910  0.248540  0.492980  1.0  -0.1136
  N  N2439  1  0.011910  0.251460  0.507020  1.0  -0.114
  N  N2440  1  0.488090  0.748540  0.007020  1.0  -0.1145
  N  N2441  1  0.992980  0.988090  0.751460  1.0  -0.114
  N  N2442  1  0.492980  0.511910  0.248540  1.0  -0.1121
  N  N2443  1  0.507020  0.011910  0.251460  1.0  -0.1123
  N  N2444  1  0.007020  0.488090  0.748540  1.0  -0.1148
  N  N2445  1  0.751460  0.992980  0.988090  1.0  -0.1149
  N  N2446  1  0.248540  0.492980  0.511910  1.0  -0.113
  N  N2447  1  0.251460  0.507020  0.011910  1.0  -0.1128
  N  N2448  1  0.748540  0.007020  0.488090  1.0  -0.1139
  N  N2449  1  0.922730  0.248950  0.049180  1.0  -0.1905
  N  N2450  1  0.577270  0.751050  0.549180  1.0  -0.1906
  N  N2451  1  0.077270  0.748950  0.450820  1.0  -0.1912
  N  N2452  1  0.422730  0.251050  0.950820  1.0  -0.1917
  N  N2453  1  0.049180  0.922730  0.248950  1.0  -0.1936
  N  N2454  1  0.549180  0.577270  0.751050  1.0  -0.1936
  N  N2455  1  0.450820  0.077270  0.748950  1.0  -0.1915
  N  N2456  1  0.950820  0.422730  0.251050  1.0  -0.1917
  N  N2457  1  0.248950  0.049180  0.922730  1.0  -0.1879
  N  N2458  1  0.751050  0.549180  0.577270  1.0  -0.189
  N  N2459  1  0.748950  0.450820  0.077270  1.0  -0.1885
  N  N2460  1  0.251050  0.950820  0.422730  1.0  -0.1908
  N  N2461  1  0.077270  0.751050  0.950820  1.0  -0.1921
  N  N2462  1  0.422730  0.248950  0.450820  1.0  -0.1906
  N  N2463  1  0.922730  0.251050  0.549180  1.0  -0.191
  N  N2464  1  0.577270  0.748950  0.049180  1.0  -0.1897
  N  N2465  1  0.950820  0.077270  0.751050  1.0  -0.1919
  N  N2466  1  0.450820  0.422730  0.248950  1.0  -0.1915
  N  N2467  1  0.549180  0.922730  0.251050  1.0  -0.1936
  N  N2468  1  0.049180  0.577270  0.748950  1.0  -0.1938
  N  N2469  1  0.751050  0.950820  0.077270  1.0  -0.1899
  N  N2470  1  0.248950  0.450820  0.422730  1.0  -0.1894
  N  N2471  1  0.251050  0.549180  0.922730  1.0  -0.1895
  N  N2472  1  0.748950  0.049180  0.577270  1.0  -0.1876
  N  N2473  1  0.962490  0.297870  0.026540  1.0  -0.1975
  N  N2474  1  0.537510  0.702130  0.526540  1.0  -0.1986
  N  N2475  1  0.037510  0.797870  0.473460  1.0  -0.1975
  N  N2476  1  0.462490  0.202130  0.973460  1.0  -0.1983
  N  N2477  1  0.026540  0.962490  0.297870  1.0  -0.201
  N  N2478  1  0.526540  0.537510  0.702130  1.0  -0.2027
  N  N2479  1  0.473460  0.037510  0.797870  1.0  -0.1999
  N  N2480  1  0.973460  0.462490  0.202130  1.0  -0.2011
  N  N2481  1  0.297870  0.026540  0.962490  1.0  -0.2
  N  N2482  1  0.702130  0.526540  0.537510  1.0  -0.201
  N  N2483  1  0.797870  0.473460  0.037510  1.0  -0.2013
  N  N2484  1  0.202130  0.973460  0.462490  1.0  -0.2021
  N  N2485  1  0.037510  0.702130  0.973460  1.0  -0.1986
  N  N2486  1  0.462490  0.297870  0.473460  1.0  -0.1972
  N  N2487  1  0.962490  0.202130  0.526540  1.0  -0.1986
  N  N2488  1  0.537510  0.797870  0.026540  1.0  -0.1975
  N  N2489  1  0.973460  0.037510  0.702130  1.0  -0.2018
  N  N2490  1  0.473460  0.462490  0.297870  1.0  -0.1994
  N  N2491  1  0.526540  0.962490  0.202130  1.0  -0.2021
  N  N2492  1  0.026540  0.537510  0.797870  1.0  -0.2016
  N  N2493  1  0.702130  0.973460  0.037510  1.0  -0.202
  N  N2494  1  0.297870  0.473460  0.462490  1.0  -0.2013
  N  N2495  1  0.202130  0.526540  0.962490  1.0  -0.2007
  N  N2496  1  0.797870  0.026540  0.537510  1.0  -0.2001
  N  N2497  1  0.062880  0.295270  0.029000  1.0  -0.1617
  N  N2498  1  0.437120  0.704730  0.529000  1.0  -0.1623
  N  N2499  1  0.937120  0.795270  0.471000  1.0  -0.1617
  N  N2500  1  0.562880  0.204730  0.971000  1.0  -0.1614
  N  N2501  1  0.029000  0.062880  0.295270  1.0  -0.1618
  N  N2502  1  0.529000  0.437120  0.704730  1.0  -0.1617
  N  N2503  1  0.471000  0.937120  0.795270  1.0  -0.163
  N  N2504  1  0.971000  0.562880  0.204730  1.0  -0.1625
  N  N2505  1  0.295270  0.029000  0.062880  1.0  -0.1629
  N  N2506  1  0.704730  0.529000  0.437120  1.0  -0.1626
  N  N2507  1  0.795270  0.471000  0.937120  1.0  -0.1629
  N  N2508  1  0.204730  0.971000  0.562880  1.0  -0.1629
  N  N2509  1  0.937120  0.704730  0.971000  1.0  -0.1619
  N  N2510  1  0.562880  0.295270  0.471000  1.0  -0.1614
  N  N2511  1  0.062880  0.204730  0.529000  1.0  -0.1618
  N  N2512  1  0.437120  0.795270  0.029000  1.0  -0.1622
  N  N2513  1  0.971000  0.937120  0.704730  1.0  -0.1623
  N  N2514  1  0.471000  0.562880  0.295270  1.0  -0.1623
  N  N2515  1  0.529000  0.062880  0.204730  1.0  -0.1619
  N  N2516  1  0.029000  0.437120  0.795270  1.0  -0.1623
  N  N2517  1  0.704730  0.971000  0.937120  1.0  -0.1628
  N  N2518  1  0.295270  0.471000  0.562880  1.0  -0.1628
  N  N2519  1  0.204730  0.529000  0.062880  1.0  -0.1628
  N  N2520  1  0.795270  0.029000  0.437120  1.0  -0.1629
  N  N2521  1  0.102150  0.317670  0.079200  1.0  -0.2336
  N  N2522  1  0.397850  0.682330  0.579200  1.0  -0.2329
  N  N2523  1  0.897850  0.817670  0.420800  1.0  -0.2335
  N  N2524  1  0.602150  0.182330  0.920800  1.0  -0.2332
  N  N2525  1  0.079200  0.102150  0.317670  1.0  -0.2333
  N  N2526  1  0.579200  0.397850  0.682330  1.0  -0.2317
  N  N2527  1  0.420800  0.897850  0.817670  1.0  -0.2314
  N  N2528  1  0.920800  0.602150  0.182330  1.0  -0.2308
  N  N2529  1  0.317670  0.079200  0.102150  1.0  -0.233
  N  N2530  1  0.682330  0.579200  0.397850  1.0  -0.2349
  N  N2531  1  0.817670  0.420800  0.897850  1.0  -0.2322
  N  N2532  1  0.182330  0.920800  0.602150  1.0  -0.2341
  N  N2533  1  0.897850  0.682330  0.920800  1.0  -0.2331
  N  N2534  1  0.602150  0.317670  0.420800  1.0  -0.2336
  N  N2535  1  0.102150  0.182330  0.579200  1.0  -0.233
  N  N2536  1  0.397850  0.817670  0.079200  1.0  -0.2335
  N  N2537  1  0.920800  0.897850  0.682330  1.0  -0.2305
  N  N2538  1  0.420800  0.602150  0.317670  1.0  -0.2321
  N  N2539  1  0.579200  0.102150  0.182330  1.0  -0.2321
  N  N2540  1  0.079200  0.397850  0.817670  1.0  -0.2324
  N  N2541  1  0.682330  0.920800  0.897850  1.0  -0.2342
  N  N2542  1  0.317670  0.420800  0.602150  1.0  -0.2322
  N  N2543  1  0.182330  0.579200  0.102150  1.0  -0.2349
  N  N2544  1  0.817670  0.079200  0.397850  1.0  -0.233
  N  N2545  1  0.012570  0.346410  0.045820  1.0  -0.1325
  N  N2546  1  0.487430  0.653590  0.545820  1.0  -0.1321
  N  N2547  1  0.987430  0.846410  0.454180  1.0  -0.1327
  N  N2548  1  0.512570  0.153590  0.954180  1.0  -0.1318
  N  N2549  1  0.045820  0.012570  0.346410  1.0  -0.1328
  N  N2550  1  0.545820  0.487430  0.653590  1.0  -0.1342
  N  N2551  1  0.454180  0.987430  0.846410  1.0  -0.1331
  N  N2552  1  0.954180  0.512570  0.153590  1.0  -0.1351
  N  N2553  1  0.346410  0.045820  0.012570  1.0  -0.1374
  N  N2554  1  0.653590  0.545820  0.487430  1.0  -0.1363
  N  N2555  1  0.846410  0.454180  0.987430  1.0  -0.1364
  N  N2556  1  0.153590  0.954180  0.512570  1.0  -0.1366
  N  N2557  1  0.987430  0.653590  0.954180  1.0  -0.1319
  N  N2558  1  0.512570  0.346410  0.454180  1.0  -0.1327
  N  N2559  1  0.012570  0.153590  0.545820  1.0  -0.132
  N  N2560  1  0.487430  0.846410  0.045820  1.0  -0.1322
  N  N2561  1  0.954180  0.987430  0.653590  1.0  -0.1345
  N  N2562  1  0.454180  0.512570  0.346410  1.0  -0.1331
  N  N2563  1  0.545820  0.012570  0.153590  1.0  -0.1347
  N  N2564  1  0.045820  0.487430  0.846410  1.0  -0.1328
  N  N2565  1  0.653590  0.954180  0.987430  1.0  -0.1365
  N  N2566  1  0.346410  0.454180  0.512570  1.0  -0.1366
  N  N2567  1  0.153590  0.545820  0.012570  1.0  -0.1366
  N  N2568  1  0.846410  0.045820  0.487430  1.0  -0.137
  N  N2569  1  0.049960  0.365400  0.097020  1.0  -0.0922
  N  N2570  1  0.450040  0.634600  0.597020  1.0  -0.0931
  N  N2571  1  0.950040  0.865400  0.402980  1.0  -0.0931
  N  N2572  1  0.549960  0.134600  0.902980  1.0  -0.0928
  N  N2573  1  0.097020  0.049960  0.365400  1.0  -0.093
  N  N2574  1  0.597020  0.450040  0.634600  1.0  -0.0926
  N  N2575  1  0.402980  0.950040  0.865400  1.0  -0.094
  N  N2576  1  0.902980  0.549960  0.134600  1.0  -0.0939
  N  N2577  1  0.365400  0.097020  0.049960  1.0  -0.0928
  N  N2578  1  0.634600  0.597020  0.450040  1.0  -0.0924
  N  N2579  1  0.865400  0.402980  0.950040  1.0  -0.094
  N  N2580  1  0.134600  0.902980  0.549960  1.0  -0.0916
  N  N2581  1  0.950040  0.634600  0.902980  1.0  -0.0938
  N  N2582  1  0.549960  0.365400  0.402980  1.0  -0.0925
  N  N2583  1  0.049960  0.134600  0.597020  1.0  -0.0926
  N  N2584  1  0.450040  0.865400  0.097020  1.0  -0.0924
  N  N2585  1  0.902980  0.950040  0.634600  1.0  -0.0931
  N  N2586  1  0.402980  0.549960  0.365400  1.0  -0.0942
  N  N2587  1  0.597020  0.049960  0.134600  1.0  -0.0932
  N  N2588  1  0.097020  0.450040  0.865400  1.0  -0.0931
  N  N2589  1  0.634600  0.902980  0.950040  1.0  -0.0923
  N  N2590  1  0.365400  0.402980  0.549960  1.0  -0.0926
  N  N2591  1  0.134600  0.597020  0.049960  1.0  -0.0917
  N  N2592  1  0.865400  0.097020  0.450040  1.0  -0.0936
  N  N2593  1  0.116370  0.308980  0.149770  1.0  -0.1798
  N  N2594  1  0.383630  0.691020  0.649770  1.0  -0.1769
  N  N2595  1  0.883630  0.808980  0.350230  1.0  -0.1791
  N  N2596  1  0.616370  0.191020  0.850230  1.0  -0.1778
  N  N2597  1  0.149770  0.116370  0.308980  1.0  -0.1758
  N  N2598  1  0.649770  0.383630  0.691020  1.0  -0.1766
  N  N2599  1  0.350230  0.883630  0.808980  1.0  -0.1744
  N  N2600  1  0.850230  0.616370  0.191020  1.0  -0.1752
  N  N2601  1  0.308980  0.149770  0.116370  1.0  -0.1769
  N  N2602  1  0.691020  0.649770  0.383630  1.0  -0.1761
  N  N2603  1  0.808980  0.350230  0.883630  1.0  -0.1757
  N  N2604  1  0.191020  0.850230  0.616370  1.0  -0.1752
  N  N2605  1  0.883630  0.691020  0.850230  1.0  -0.1773
  N  N2606  1  0.616370  0.308980  0.350230  1.0  -0.1796
  N  N2607  1  0.116370  0.191020  0.649770  1.0  -0.1772
  N  N2608  1  0.383630  0.808980  0.149770  1.0  -0.1794
  N  N2609  1  0.850230  0.883630  0.691020  1.0  -0.1751
  N  N2610  1  0.350230  0.616370  0.308980  1.0  -0.1745
  N  N2611  1  0.649770  0.116370  0.191020  1.0  -0.1763
  N  N2612  1  0.149770  0.383630  0.808980  1.0  -0.1756
  N  N2613  1  0.691020  0.850230  0.883630  1.0  -0.1751
  N  N2614  1  0.308980  0.350230  0.616370  1.0  -0.1756
  N  N2615  1  0.191020  0.649770  0.116370  1.0  -0.176
  N  N2616  1  0.808980  0.149770  0.383630  1.0  -0.1772
  N  N2617  1  0.099580  0.273160  0.203150  1.0  -0.153
  N  N2618  1  0.400420  0.726840  0.703150  1.0  -0.1489
  N  N2619  1  0.900420  0.773160  0.296850  1.0  -0.1515
  N  N2620  1  0.599580  0.226840  0.796850  1.0  -0.1477
  N  N2621  1  0.203150  0.099580  0.273160  1.0  -0.1518
  N  N2622  1  0.703150  0.400420  0.726840  1.0  -0.1514
  N  N2623  1  0.296850  0.900420  0.773160  1.0  -0.15
  N  N2624  1  0.796850  0.599580  0.226840  1.0  -0.1483
  N  N2625  1  0.273160  0.203150  0.099580  1.0  -0.1521
  N  N2626  1  0.726840  0.703150  0.400420  1.0  -0.152
  N  N2627  1  0.773160  0.296850  0.900420  1.0  -0.1507
  N  N2628  1  0.226840  0.796850  0.599580  1.0  -0.1503
  N  N2629  1  0.900420  0.726840  0.796850  1.0  -0.1482
  N  N2630  1  0.599580  0.273160  0.296850  1.0  -0.1519
  N  N2631  1  0.099580  0.226840  0.703150  1.0  -0.148
  N  N2632  1  0.400420  0.773160  0.203150  1.0  -0.1532
  N  N2633  1  0.796850  0.900420  0.726840  1.0  -0.149
  N  N2634  1  0.296850  0.599580  0.273160  1.0  -0.1497
  N  N2635  1  0.703150  0.099580  0.226840  1.0  -0.1505
  N  N2636  1  0.203150  0.400420  0.773160  1.0  -0.1522
  N  N2637  1  0.726840  0.796850  0.900420  1.0  -0.1513
  N  N2638  1  0.273160  0.296850  0.599580  1.0  -0.1502
  N  N2639  1  0.226840  0.703150  0.099580  1.0  -0.1508
  N  N2640  1  0.773160  0.203150  0.400420  1.0  -0.1528
  N  N2641  1  0.065490  0.358910  0.167800  1.0  -0.1673
  N  N2642  1  0.434510  0.641090  0.667800  1.0  -0.1663
  N  N2643  1  0.934510  0.858910  0.332200  1.0  -0.1674
  N  N2644  1  0.565490  0.141090  0.832200  1.0  -0.1669
  N  N2645  1  0.167800  0.065490  0.358910  1.0  -0.1683
  N  N2646  1  0.667800  0.434510  0.641090  1.0  -0.1664
  N  N2647  1  0.332200  0.934510  0.858910  1.0  -0.1669
  N  N2648  1  0.832200  0.565490  0.141090  1.0  -0.1689
  N  N2649  1  0.358910  0.167800  0.065490  1.0  -0.1656
  N  N2650  1  0.641090  0.667800  0.434510  1.0  -0.1652
  N  N2651  1  0.858910  0.332200  0.934510  1.0  -0.1657
  N  N2652  1  0.141090  0.832200  0.565490  1.0  -0.1644
  N  N2653  1  0.934510  0.641090  0.832200  1.0  -0.1665
  N  N2654  1  0.565490  0.358910  0.332200  1.0  -0.1674
  N  N2655  1  0.065490  0.141090  0.667800  1.0  -0.1665
  N  N2656  1  0.434510  0.858910  0.167800  1.0  -0.1669
  N  N2657  1  0.832200  0.934510  0.641090  1.0  -0.1672
  N  N2658  1  0.332200  0.565490  0.358910  1.0  -0.1686
  N  N2659  1  0.667800  0.065490  0.141090  1.0  -0.1685
  N  N2660  1  0.167800  0.434510  0.858910  1.0  -0.1661
  N  N2661  1  0.641090  0.832200  0.934510  1.0  -0.1654
  N  N2662  1  0.358910  0.332200  0.565490  1.0  -0.1651
  N  N2663  1  0.141090  0.667800  0.065490  1.0  -0.1651
  N  N2664  1  0.858910  0.167800  0.434510  1.0  -0.1654
  N  N2665  1  0.049360  0.322590  0.221420  1.0  -0.135
  N  N2666  1  0.450640  0.677410  0.721420  1.0  -0.1347
  N  N2667  1  0.950640  0.822590  0.278580  1.0  -0.1347
  N  N2668  1  0.549360  0.177410  0.778580  1.0  -0.136
  N  N2669  1  0.221420  0.049360  0.322590  1.0  -0.1375
  N  N2670  1  0.721420  0.450640  0.677410  1.0  -0.1345
  N  N2671  1  0.278580  0.950640  0.822590  1.0  -0.135
  N  N2672  1  0.778580  0.549360  0.177410  1.0  -0.137
  N  N2673  1  0.322590  0.221420  0.049360  1.0  -0.1351
  N  N2674  1  0.677410  0.721420  0.450640  1.0  -0.1342
  N  N2675  1  0.822590  0.278580  0.950640  1.0  -0.134
  N  N2676  1  0.177410  0.778580  0.549360  1.0  -0.135
  N  N2677  1  0.950640  0.677410  0.778580  1.0  -0.1353
  N  N2678  1  0.549360  0.322590  0.278580  1.0  -0.1354
  N  N2679  1  0.049360  0.177410  0.721420  1.0  -0.1353
  N  N2680  1  0.450640  0.822590  0.221420  1.0  -0.1343
  N  N2681  1  0.778580  0.950640  0.677410  1.0  -0.1346
  N  N2682  1  0.278580  0.549360  0.322590  1.0  -0.1372
  N  N2683  1  0.721420  0.049360  0.177410  1.0  -0.1373
  N  N2684  1  0.221420  0.450640  0.822590  1.0  -0.1349
  N  N2685  1  0.677410  0.778580  0.950640  1.0  -0.1342
  N  N2686  1  0.322590  0.278580  0.549360  1.0  -0.1347
  N  N2687  1  0.177410  0.721420  0.049360  1.0  -0.1353
  N  N2688  1  0.822590  0.221420  0.450640  1.0  -0.134
  Cl  Cl2689  1  0.900070  0.102900  0.252100  1.0  -0.5233
  Cl  Cl2690  1  0.599930  0.897100  0.752100  1.0  -0.5217
  Cl  Cl2691  1  0.099930  0.602900  0.247900  1.0  -0.5217
  Cl  Cl2692  1  0.400070  0.397100  0.747900  1.0  -0.523
  Cl  Cl2693  1  0.252100  0.900070  0.102900  1.0  -0.5239
  Cl  Cl2694  1  0.752100  0.599930  0.897100  1.0  -0.5242
  Cl  Cl2695  1  0.247900  0.099930  0.602900  1.0  -0.5246
  Cl  Cl2696  1  0.747900  0.400070  0.397100  1.0  -0.5231
  Cl  Cl2697  1  0.102900  0.252100  0.900070  1.0  -0.5241
  Cl  Cl2698  1  0.897100  0.752100  0.599930  1.0  -0.5234
  Cl  Cl2699  1  0.602900  0.247900  0.099930  1.0  -0.5234
  Cl  Cl2700  1  0.397100  0.747900  0.400070  1.0  -0.5243
  Cl  Cl2701  1  0.099930  0.897100  0.747900  1.0  -0.5216
  Cl  Cl2702  1  0.400070  0.102900  0.247900  1.0  -0.523
  Cl  Cl2703  1  0.900070  0.397100  0.752100  1.0  -0.5231
  Cl  Cl2704  1  0.599930  0.602900  0.252100  1.0  -0.522
  Cl  Cl2705  1  0.747900  0.099930  0.897100  1.0  -0.5244
  Cl  Cl2706  1  0.247900  0.400070  0.102900  1.0  -0.5238
  Cl  Cl2707  1  0.752100  0.900070  0.397100  1.0  -0.523
  Cl  Cl2708  1  0.252100  0.599930  0.602900  1.0  -0.5246
  Cl  Cl2709  1  0.897100  0.747900  0.099930  1.0  -0.5235
  Cl  Cl2710  1  0.102900  0.247900  0.400070  1.0  -0.5239
  Cl  Cl2711  1  0.397100  0.752100  0.900070  1.0  -0.5242
  Cl  Cl2712  1  0.602900  0.252100  0.599930  1.0  -0.5234
  Cl  Cl2713  1  0.844510  0.144700  0.027320  1.0  -0.5403
  Cl  Cl2714  1  0.655490  0.855300  0.527320  1.0  -0.542
  Cl  Cl2715  1  0.155490  0.644700  0.472680  1.0  -0.5407
  Cl  Cl2716  1  0.344510  0.355300  0.972680  1.0  -0.5421
  Cl  Cl2717  1  0.027320  0.844510  0.144700  1.0  -0.5453
  Cl  Cl2718  1  0.527320  0.655490  0.855300  1.0  -0.5417
  Cl  Cl2719  1  0.472680  0.155490  0.644700  1.0  -0.5457
  Cl  Cl2720  1  0.972680  0.344510  0.355300  1.0  -0.5414
  Cl  Cl2721  1  0.144700  0.027320  0.844510  1.0  -0.542
  Cl  Cl2722  1  0.855300  0.527320  0.655490  1.0  -0.5416
  Cl  Cl2723  1  0.644700  0.472680  0.155490  1.0  -0.542
  Cl  Cl2724  1  0.355300  0.972680  0.344510  1.0  -0.5426
  Cl  Cl2725  1  0.155490  0.855300  0.972680  1.0  -0.5423
  Cl  Cl2726  1  0.344510  0.144700  0.472680  1.0  -0.5406
  Cl  Cl2727  1  0.844510  0.355300  0.527320  1.0  -0.5418
  Cl  Cl2728  1  0.655490  0.644700  0.027320  1.0  -0.5404
  Cl  Cl2729  1  0.972680  0.155490  0.855300  1.0  -0.5416
  Cl  Cl2730  1  0.472680  0.344510  0.144700  1.0  -0.5463
  Cl  Cl2731  1  0.527320  0.844510  0.355300  1.0  -0.5412
  Cl  Cl2732  1  0.027320  0.655490  0.644700  1.0  -0.5448
  Cl  Cl2733  1  0.855300  0.972680  0.155490  1.0  -0.542
  Cl  Cl2734  1  0.144700  0.472680  0.344510  1.0  -0.5425
  Cl  Cl2735  1  0.355300  0.527320  0.844510  1.0  -0.5422
  Cl  Cl2736  1  0.644700  0.027320  0.655490  1.0  -0.5414
  O  O2737  1  0.070080  0.172200  0.180470  1.0  -0.6006
  O  O2738  1  0.429920  0.827800  0.680470  1.0  -0.5993
  O  O2739  1  0.929920  0.672200  0.319530  1.0  -0.5997
  O  O2740  1  0.570080  0.327800  0.819530  1.0  -0.5994
  O  O2741  1  0.180470  0.070080  0.172200  1.0  -0.596
  O  O2742  1  0.680470  0.429920  0.827800  1.0  -0.5957
  O  O2743  1  0.319530  0.929920  0.672200  1.0  -0.595
  O  O2744  1  0.819530  0.570080  0.327800  1.0  -0.5957
  O  O2745  1  0.172200  0.180470  0.070080  1.0  -0.5989
  O  O2746  1  0.827800  0.680470  0.429920  1.0  -0.5974
  O  O2747  1  0.672200  0.319530  0.929920  1.0  -0.5989
  O  O2748  1  0.327800  0.819530  0.570080  1.0  -0.5973
  O  O2749  1  0.929920  0.827800  0.819530  1.0  -0.6002
  O  O2750  1  0.570080  0.172200  0.319530  1.0  -0.5997
  O  O2751  1  0.070080  0.327800  0.680470  1.0  -0.5989
  O  O2752  1  0.429920  0.672200  0.180470  1.0  -0.6014
  O  O2753  1  0.819530  0.929920  0.827800  1.0  -0.5947
  O  O2754  1  0.319530  0.570080  0.172200  1.0  -0.595
  O  O2755  1  0.680470  0.070080  0.327800  1.0  -0.5959
  O  O2756  1  0.180470  0.429920  0.672200  1.0  -0.5965
  O  O2757  1  0.827800  0.819530  0.929920  1.0  -0.5972
  O  O2758  1  0.172200  0.319530  0.570080  1.0  -0.5992
  O  O2759  1  0.327800  0.680470  0.070080  1.0  -0.5971
  O  O2760  1  0.672200  0.180470  0.429920  1.0  -0.5997
  O  O2761  1  0.020370  0.140370  0.110540  1.0  -0.5779
  O  O2762  1  0.479630  0.859630  0.610540  1.0  -0.5754
  O  O2763  1  0.979630  0.640370  0.389460  1.0  -0.5769
  O  O2764  1  0.520370  0.359630  0.889460  1.0  -0.577
  O  O2765  1  0.110540  0.020370  0.140370  1.0  -0.5732
  O  O2766  1  0.610540  0.479630  0.859630  1.0  -0.574
  O  O2767  1  0.389460  0.979630  0.640370  1.0  -0.5737
  O  O2768  1  0.889460  0.520370  0.359630  1.0  -0.5709
  O  O2769  1  0.140370  0.110540  0.020370  1.0  -0.5774
  O  O2770  1  0.859630  0.610540  0.479630  1.0  -0.5776
  O  O2771  1  0.640370  0.389460  0.979630  1.0  -0.5752
  O  O2772  1  0.359630  0.889460  0.520370  1.0  -0.5776
  O  O2773  1  0.979630  0.859630  0.889460  1.0  -0.5757
  O  O2774  1  0.520370  0.140370  0.389460  1.0  -0.5773
  O  O2775  1  0.020370  0.359630  0.610540  1.0  -0.5766
  O  O2776  1  0.479630  0.640370  0.110540  1.0  -0.5778
  O  O2777  1  0.889460  0.979630  0.859630  1.0  -0.573
  O  O2778  1  0.389460  0.520370  0.140370  1.0  -0.5713
  O  O2779  1  0.610540  0.020370  0.359630  1.0  -0.5738
  O  O2780  1  0.110540  0.479630  0.640370  1.0  -0.5745
  O  O2781  1  0.859630  0.889460  0.979630  1.0  -0.576
  O  O2782  1  0.140370  0.389460  0.520370  1.0  -0.5781
  O  O2783  1  0.359630  0.610540  0.020370  1.0  -0.5785
  O  O2784  1  0.640370  0.110540  0.479630  1.0  -0.5763
  O  O2785  1  0.042660  0.192180  0.032640  1.0  -0.5793
  O  O2786  1  0.457340  0.807820  0.532640  1.0  -0.5798
  O  O2787  1  0.957340  0.692180  0.467360  1.0  -0.5811
  O  O2788  1  0.542660  0.307820  0.967360  1.0  -0.5794
  O  O2789  1  0.032640  0.042660  0.192180  1.0  -0.5823
  O  O2790  1  0.532640  0.457340  0.807820  1.0  -0.5828
  O  O2791  1  0.467360  0.957340  0.692180  1.0  -0.5837
  O  O2792  1  0.967360  0.542660  0.307820  1.0  -0.5836
  O  O2793  1  0.192180  0.032640  0.042660  1.0  -0.5788
  O  O2794  1  0.807820  0.532640  0.457340  1.0  -0.5792
  O  O2795  1  0.692180  0.467360  0.957340  1.0  -0.5788
  O  O2796  1  0.307820  0.967360  0.542660  1.0  -0.5806
  O  O2797  1  0.957340  0.807820  0.967360  1.0  -0.5806
  O  O2798  1  0.542660  0.192180  0.467360  1.0  -0.5798
  O  O2799  1  0.042660  0.307820  0.532640  1.0  -0.5787
  O  O2800  1  0.457340  0.692180  0.032640  1.0  -0.5804
  O  O2801  1  0.967360  0.957340  0.807820  1.0  -0.5837
  O  O2802  1  0.467360  0.542660  0.192180  1.0  -0.5835
  O  O2803  1  0.532640  0.042660  0.307820  1.0  -0.5824
  O  O2804  1  0.032640  0.457340  0.692180  1.0  -0.5829
  O  O2805  1  0.807820  0.967360  0.957340  1.0  -0.5795
  O  O2806  1  0.192180  0.467360  0.542660  1.0  -0.5785
  O  O2807  1  0.307820  0.532640  0.042660  1.0  -0.5804
  O  O2808  1  0.692180  0.032640  0.457340  1.0  -0.5786
  O  O2809  1  0.107630  0.251850  0.058360  1.0  -0.5595
  O  O2810  1  0.392370  0.748150  0.558360  1.0  -0.5589
  O  O2811  1  0.892370  0.751850  0.441640  1.0  -0.5586
  O  O2812  1  0.607630  0.248150  0.941640  1.0  -0.5588
  O  O2813  1  0.058360  0.107630  0.251850  1.0  -0.5573
  O  O2814  1  0.558360  0.392370  0.748150  1.0  -0.5582
  O  O2815  1  0.441640  0.892370  0.751850  1.0  -0.5575
  O  O2816  1  0.941640  0.607630  0.248150  1.0  -0.5595
  O  O2817  1  0.251850  0.058360  0.107630  1.0  -0.5603
  O  O2818  1  0.748150  0.558360  0.392370  1.0  -0.5584
  O  O2819  1  0.751850  0.441640  0.892370  1.0  -0.5606
  O  O2820  1  0.248150  0.941640  0.607630  1.0  -0.5598
  O  O2821  1  0.892370  0.748150  0.941640  1.0  -0.5578
  O  O2822  1  0.607630  0.251850  0.441640  1.0  -0.5596
  O  O2823  1  0.107630  0.248150  0.558360  1.0  -0.5599
  O  O2824  1  0.392370  0.751850  0.058360  1.0  -0.5589
  O  O2825  1  0.941640  0.892370  0.748150  1.0  -0.5591
  O  O2826  1  0.441640  0.607630  0.251850  1.0  -0.5579
  O  O2827  1  0.558360  0.107630  0.248150  1.0  -0.5581
  O  O2828  1  0.058360  0.392370  0.751850  1.0  -0.557
  O  O2829  1  0.748150  0.941640  0.892370  1.0  -0.5595
  O  O2830  1  0.251850  0.441640  0.607630  1.0  -0.5611
  O  O2831  1  0.248150  0.558360  0.107630  1.0  -0.5586
  O  O2832  1  0.751850  0.058360  0.392370  1.0  -0.5599
  O  O2833  1  0.128020  0.241310  0.148900  1.0  -0.5542
  O  O2834  1  0.371980  0.758690  0.648900  1.0  -0.5548
  O  O2835  1  0.871980  0.741310  0.351100  1.0  -0.5545
  O  O2836  1  0.628020  0.258690  0.851100  1.0  -0.5549
  O  O2837  1  0.148900  0.128020  0.241310  1.0  -0.5561
  O  O2838  1  0.648900  0.371980  0.758690  1.0  -0.5587
  O  O2839  1  0.351100  0.871980  0.741310  1.0  -0.5551
  O  O2840  1  0.851100  0.628020  0.258690  1.0  -0.5572
  O  O2841  1  0.241310  0.148900  0.128020  1.0  -0.5564
  O  O2842  1  0.758690  0.648900  0.371980  1.0  -0.5562
  O  O2843  1  0.741310  0.351100  0.871980  1.0  -0.5571
  O  O2844  1  0.258690  0.851100  0.628020  1.0  -0.5559
  O  O2845  1  0.871980  0.758690  0.851100  1.0  -0.5554
  O  O2846  1  0.628020  0.241310  0.351100  1.0  -0.554
  O  O2847  1  0.128020  0.258690  0.648900  1.0  -0.5542
  O  O2848  1  0.371980  0.741310  0.148900  1.0  -0.5549
  O  O2849  1  0.851100  0.871980  0.758690  1.0  -0.557
  O  O2850  1  0.351100  0.628020  0.241310  1.0  -0.5549
  O  O2851  1  0.648900  0.128020  0.258690  1.0  -0.559
  O  O2852  1  0.148900  0.371980  0.741310  1.0  -0.5567
  O  O2853  1  0.758690  0.851100  0.871980  1.0  -0.5563
  O  O2854  1  0.241310  0.351100  0.628020  1.0  -0.5566
  O  O2855  1  0.258690  0.648900  0.128020  1.0  -0.5555
  O  O2856  1  0.741310  0.148900  0.371980  1.0  -0.557
  O  O2857  1  0.945280  0.293520  0.225050  1.0  -0.5562
  O  O2858  1  0.554720  0.706480  0.725050  1.0  -0.5578
  O  O2859  1  0.054720  0.793520  0.274950  1.0  -0.5576
  O  O2860  1  0.445280  0.206480  0.774950  1.0  -0.5565
  O  O2861  1  0.225050  0.945280  0.293520  1.0  -0.5587
  O  O2862  1  0.725050  0.554720  0.706480  1.0  -0.5578
  O  O2863  1  0.274950  0.054720  0.793520  1.0  -0.5565
  O  O2864  1  0.774950  0.445280  0.206480  1.0  -0.5579
  O  O2865  1  0.293520  0.225050  0.945280  1.0  -0.5625
  O  O2866  1  0.706480  0.725050  0.554720  1.0  -0.5624
  O  O2867  1  0.793520  0.274950  0.054720  1.0  -0.5624
  O  O2868  1  0.206480  0.774950  0.445280  1.0  -0.562
  O  O2869  1  0.054720  0.706480  0.774950  1.0  -0.5577
  O  O2870  1  0.445280  0.293520  0.274950  1.0  -0.5566
  O  O2871  1  0.945280  0.206480  0.725050  1.0  -0.5573
  O  O2872  1  0.554720  0.793520  0.225050  1.0  -0.5567
  O  O2873  1  0.774950  0.054720  0.706480  1.0  -0.5569
  O  O2874  1  0.274950  0.445280  0.293520  1.0  -0.558
  O  O2875  1  0.725050  0.945280  0.206480  1.0  -0.5591
  O  O2876  1  0.225050  0.554720  0.793520  1.0  -0.5573
  O  O2877  1  0.706480  0.774950  0.054720  1.0  -0.5629
  O  O2878  1  0.293520  0.274950  0.445280  1.0  -0.5616
  O  O2879  1  0.206480  0.725050  0.945280  1.0  -0.5624
  O  O2880  1  0.793520  0.225050  0.554720  1.0  -0.5626
  O  O2881  1  0.892090  0.263980  0.153680  1.0  -0.6019
  O  O2882  1  0.607910  0.736020  0.653680  1.0  -0.6001
  O  O2883  1  0.107910  0.763980  0.346320  1.0  -0.6023
  O  O2884  1  0.392090  0.236020  0.846320  1.0  -0.6
  O  O2885  1  0.153680  0.892090  0.263980  1.0  -0.6041
  O  O2886  1  0.653680  0.607910  0.736020  1.0  -0.602
  O  O2887  1  0.346320  0.107910  0.763980  1.0  -0.6053
  O  O2888  1  0.846320  0.392090  0.236020  1.0  -0.6019
  O  O2889  1  0.263980  0.153680  0.892090  1.0  -0.6057
  O  O2890  1  0.736020  0.653680  0.607910  1.0  -0.6067
  O  O2891  1  0.763980  0.346320  0.107910  1.0  -0.6065
  O  O2892  1  0.236020  0.846320  0.392090  1.0  -0.6078
  O  O2893  1  0.107910  0.736020  0.846320  1.0  -0.6012
  O  O2894  1  0.392090  0.263980  0.346320  1.0  -0.6015
  O  O2895  1  0.892090  0.236020  0.653680  1.0  -0.5982
  O  O2896  1  0.607910  0.763980  0.153680  1.0  -0.603
  O  O2897  1  0.846320  0.107910  0.736020  1.0  -0.6017
  O  O2898  1  0.346320  0.392090  0.263980  1.0  -0.6048
  O  O2899  1  0.653680  0.892090  0.236020  1.0  -0.602
  O  O2900  1  0.153680  0.607910  0.763980  1.0  -0.6045
  O  O2901  1  0.736020  0.846320  0.107910  1.0  -0.6061
  O  O2902  1  0.263980  0.346320  0.392090  1.0  -0.6066
  O  O2903  1  0.236020  0.653680  0.892090  1.0  -0.607
  O  O2904  1  0.763980  0.153680  0.607910  1.0  -0.6063
  O  O2905  1  0.917050  0.311720  0.077530  1.0  -0.6126
  O  O2906  1  0.582950  0.688280  0.577530  1.0  -0.6097
  O  O2907  1  0.082950  0.811720  0.422470  1.0  -0.6105
  O  O2908  1  0.417050  0.188280  0.922470  1.0  -0.613
  O  O2909  1  0.077530  0.917050  0.311720  1.0  -0.6099
  O  O2910  1  0.577530  0.582950  0.688280  1.0  -0.6083
  O  O2911  1  0.422470  0.082950  0.811720  1.0  -0.6103
  O  O2912  1  0.922470  0.417050  0.188280  1.0  -0.6105
  O  O2913  1  0.311720  0.077530  0.917050  1.0  -0.6059
  O  O2914  1  0.688280  0.577530  0.582950  1.0  -0.6071
  O  O2915  1  0.811720  0.422470  0.082950  1.0  -0.6064
  O  O2916  1  0.188280  0.922470  0.417050  1.0  -0.6077
  O  O2917  1  0.082950  0.688280  0.922470  1.0  -0.6113
  O  O2918  1  0.417050  0.311720  0.422470  1.0  -0.6114
  O  O2919  1  0.917050  0.188280  0.577530  1.0  -0.6117
  O  O2920  1  0.582950  0.811720  0.077530  1.0  -0.6105
  O  O2921  1  0.922470  0.082950  0.688280  1.0  -0.6093
  O  O2922  1  0.422470  0.417050  0.311720  1.0  -0.6095
  O  O2923  1  0.577530  0.917050  0.188280  1.0  -0.6091
  O  O2924  1  0.077530  0.582950  0.811720  1.0  -0.6107
  O  O2925  1  0.688280  0.922470  0.082950  1.0  -0.6079
  O  O2926  1  0.311720  0.422470  0.417050  1.0  -0.606
  O  O2927  1  0.188280  0.577530  0.917050  1.0  -0.6064
  O  O2928  1  0.811720  0.077530  0.582950  1.0  -0.6073
  O  O2929  1  0.981470  0.375060  0.101050  1.0  -0.5613
  O  O2930  1  0.518530  0.624940  0.601050  1.0  -0.5602
  O  O2931  1  0.018530  0.875060  0.398950  1.0  -0.5601
  O  O2932  1  0.481470  0.124940  0.898950  1.0  -0.5612
  O  O2933  1  0.101050  0.981470  0.375060  1.0  -0.5605
  O  O2934  1  0.601050  0.518530  0.624940  1.0  -0.5609
  O  O2935  1  0.398950  0.018530  0.875060  1.0  -0.5603
  O  O2936  1  0.898950  0.481470  0.124940  1.0  -0.5609
  O  O2937  1  0.375060  0.101050  0.981470  1.0  -0.5585
  O  O2938  1  0.624940  0.601050  0.518530  1.0  -0.558
  O  O2939  1  0.875060  0.398950  0.018530  1.0  -0.5589
  O  O2940  1  0.124940  0.898950  0.481470  1.0  -0.5597
  O  O2941  1  0.018530  0.624940  0.898950  1.0  -0.5603
  O  O2942  1  0.481470  0.375060  0.398950  1.0  -0.5613
  O  O2943  1  0.981470  0.124940  0.601050  1.0  -0.5607
  O  O2944  1  0.518530  0.875060  0.101050  1.0  -0.5606
  O  O2945  1  0.898950  0.018530  0.624940  1.0  -0.5604
  O  O2946  1  0.398950  0.481470  0.375060  1.0  -0.5605
  O  O2947  1  0.601050  0.981470  0.124940  1.0  -0.5608
  O  O2948  1  0.101050  0.518530  0.875060  1.0  -0.5608
  O  O2949  1  0.624940  0.898950  0.018530  1.0  -0.5588
  O  O2950  1  0.375060  0.398950  0.481470  1.0  -0.5596
  O  O2951  1  0.124940  0.601050  0.981470  1.0  -0.5588
  O  O2952  1  0.875060  0.101050  0.518530  1.0  -0.5577
  O  O2953  1  0.000670  0.362050  0.192120  1.0  -0.5787
  O  O2954  1  0.499330  0.637950  0.692120  1.0  -0.5768
  O  O2955  1  0.999330  0.862050  0.307880  1.0  -0.5779
  O  O2956  1  0.500670  0.137950  0.807880  1.0  -0.5783
  O  O2957  1  0.192120  0.000670  0.362050  1.0  -0.574
  O  O2958  1  0.692120  0.499330  0.637950  1.0  -0.5768
  O  O2959  1  0.307880  0.999330  0.862050  1.0  -0.5757
  O  O2960  1  0.807880  0.500670  0.137950  1.0  -0.5727
  O  O2961  1  0.362050  0.192120  0.000670  1.0  -0.5781
  O  O2962  1  0.637950  0.692120  0.499330  1.0  -0.5794
  O  O2963  1  0.862050  0.307880  0.999330  1.0  -0.5803
  O  O2964  1  0.137950  0.807880  0.500670  1.0  -0.5757
  O  O2965  1  0.999330  0.637950  0.807880  1.0  -0.5779
  O  O2966  1  0.500670  0.362050  0.307880  1.0  -0.578
  O  O2967  1  0.000670  0.137950  0.692120  1.0  -0.5785
  O  O2968  1  0.499330  0.862050  0.192120  1.0  -0.5772
  O  O2969  1  0.807880  0.999330  0.637950  1.0  -0.575
  O  O2970  1  0.307880  0.500670  0.362050  1.0  -0.5735
  O  O2971  1  0.692120  0.000670  0.137950  1.0  -0.5738
  O  O2972  1  0.192120  0.499330  0.862050  1.0  -0.5775
  O  O2973  1  0.637950  0.807880  0.999330  1.0  -0.5791
  O  O2974  1  0.362050  0.307880  0.500670  1.0  -0.5775
  O  O2975  1  0.137950  0.692120  0.000670  1.0  -0.5767
  O  O2976  1  0.862050  0.192120  0.499330  1.0  -0.5801
  O  O2977  1  0.900410  0.400410  0.099590  1.0  -0.6674
  O  O2978  1  0.599590  0.599590  0.599590  1.0  -0.6676
  O  O2979  1  0.099590  0.900410  0.400410  1.0  -0.6677
  O  O2980  1  0.400410  0.099590  0.900410  1.0  -0.6673
  O  O2981  1  0.099590  0.599590  0.900410  1.0  -0.6676
  O  O2982  1  0.400410  0.400410  0.400410  1.0  -0.6674
  O  O2983  1  0.900410  0.099590  0.599590  1.0  -0.6674
  O  O2984  1  0.599590  0.900410  0.099590  1.0  -0.6677
  O  O2985  1  0.841160  0.341160  0.158840  1.0  -0.5876
  O  O2986  1  0.658840  0.658840  0.658840  1.0  -0.5865
  O  O2987  1  0.158840  0.841160  0.341160  1.0  -0.5874
  O  O2988  1  0.341160  0.158840  0.841160  1.0  -0.5889
  O  O2989  1  0.158840  0.658840  0.841160  1.0  -0.5877
  O  O2990  1  0.341160  0.341160  0.341160  1.0  -0.5888
  O  O2991  1  0.841160  0.158840  0.658840  1.0  -0.5878
  O  O2992  1  0.658840  0.841160  0.158840  1.0  -0.5861
  O  O2993  1  0.159040  0.159040  0.159040  1.0  -0.5544
  O  O2994  1  0.340960  0.840960  0.659040  1.0  -0.5538
  O  O2995  1  0.840960  0.659040  0.340960  1.0  -0.554
  O  O2996  1  0.659040  0.340960  0.840960  1.0  -0.5541
  O  O2997  1  0.840960  0.840960  0.840960  1.0  -0.5537
  O  O2998  1  0.659040  0.159040  0.340960  1.0  -0.5543
  O  O2999  1  0.159040  0.340960  0.659040  1.0  -0.5542
  O  O3000  1  0.340960  0.659040  0.159040  1.0  -0.554
  O  O3001  1  0.097610  0.097610  0.097610  1.0  -0.6084
  O  O3002  1  0.402390  0.902390  0.597610  1.0  -0.6076
  O  O3003  1  0.902390  0.597610  0.402390  1.0  -0.6063
  O  O3004  1  0.597610  0.402390  0.902390  1.0  -0.6065
  O  O3005  1  0.902390  0.902390  0.902390  1.0  -0.6061
  O  O3006  1  0.597610  0.097610  0.402390  1.0  -0.6071
  O  O3007  1  0.097610  0.402390  0.597610  1.0  -0.6081
  O  O3008  1  0.402390  0.597610  0.097610  1.0  -0.6075
