# generated using pymatgen
data_K2H24PdC44S4(NO3)4
_symmetry_space_group_name_H-M   'P 1'
_cell_length_a   45.70800000
_cell_length_b   45.70800000
_cell_length_c   7.98190000
_cell_angle_alpha   90.00000000
_cell_angle_beta   90.00000000
_cell_angle_gamma   90.00000000
_symmetry_Int_Tables_number   1
_chemical_formula_structural   K2H24PdC44S4(NO3)4
_chemical_formula_sum   'K16 H192 Pd8 C352 S32 N32 O96'
_cell_volume   16675.95520712
_cell_formula_units_Z   8
loop_
 _symmetry_equiv_pos_site_id
 _symmetry_equiv_pos_as_xyz
  1  'x, y, z'
loop_
 _atom_site_type_symbol
 _atom_site_label
 _atom_site_symmetry_multiplicity
 _atom_site_fract_x
 _atom_site_fract_y
 _atom_site_fract_z
 _atom_site_occupancy
 _atom_site_charge
  K  K1  1  0.750000  0.250000  0.750000  1.0  0.951
  K  K2  1  0.750000  0.750000  0.250000  1.0  0.951
  K  K3  1  0.000000  0.500000  0.000000  1.0  0.951
  K  K4  1  0.500000  0.000000  0.500000  1.0  0.951
  K  K5  1  0.500000  0.500000  0.500000  1.0  0.951
  K  K6  1  0.000000  0.000000  0.000000  1.0  0.951
  K  K7  1  0.750000  0.250000  0.250000  1.0  0.951
  K  K8  1  0.750000  0.750000  0.750000  1.0  0.951
  K  K9  1  0.500000  0.500000  0.000000  1.0  0.951
  K  K10  1  0.000000  0.000000  0.500000  1.0  0.951
  K  K11  1  0.000000  0.500000  0.500000  1.0  0.951
  K  K12  1  0.500000  0.000000  0.000000  1.0  0.951
  K  K13  1  0.250000  0.750000  0.250000  1.0  0.951
  K  K14  1  0.250000  0.250000  0.750000  1.0  0.951
  K  K15  1  0.250000  0.750000  0.750000  1.0  0.951
  K  K16  1  0.250000  0.250000  0.250000  1.0  0.951
  H  H17  1  0.579300  0.328100  0.058600  1.0  0.1376
  H  H18  1  0.606100  0.281700  0.037200  1.0  0.1378
  H  H19  1  0.618100  0.251300  0.272000  1.0  0.1293
  H  H20  1  0.668300  0.240300  0.244800  1.0  0.1267
  H  H21  1  0.650200  0.183200  0.877400  1.0  0.1435
  H  H22  1  0.599500  0.192100  0.907900  1.0  0.1365
  H  H23  1  0.079300  0.828100  0.558600  1.0  0.1376
  H  H24  1  0.106100  0.781700  0.537200  1.0  0.1378
  H  H25  1  0.118100  0.751300  0.772000  1.0  0.1293
  H  H26  1  0.168300  0.740300  0.744800  1.0  0.1267
  H  H27  1  0.150200  0.683200  0.377400  1.0  0.1435
  H  H28  1  0.099500  0.692100  0.407900  1.0  0.1365
  H  H29  1  0.920700  0.671900  0.558600  1.0  0.1372
  H  H30  1  0.893900  0.718300  0.537200  1.0  0.137
  H  H31  1  0.881900  0.748700  0.772000  1.0  0.13
  H  H32  1  0.831700  0.759700  0.744800  1.0  0.1273
  H  H33  1  0.849800  0.816800  0.377400  1.0  0.1453
  H  H34  1  0.900500  0.807900  0.407900  1.0  0.1355
  H  H35  1  0.420700  0.171900  0.058600  1.0  0.1372
  H  H36  1  0.393900  0.218300  0.037200  1.0  0.137
  H  H37  1  0.381900  0.248700  0.272000  1.0  0.13
  H  H38  1  0.331700  0.259700  0.244800  1.0  0.1273
  H  H39  1  0.349800  0.316800  0.877400  1.0  0.1453
  H  H40  1  0.400500  0.307900  0.907900  1.0  0.1355
  H  H41  1  0.921900  0.329300  0.308600  1.0  0.1368
  H  H42  1  0.968300  0.356100  0.287200  1.0  0.1362
  H  H43  1  0.998700  0.368100  0.522000  1.0  0.1295
  H  H44  1  0.009700  0.418300  0.494800  1.0  0.1268
  H  H45  1  0.066800  0.400200  0.127400  1.0  0.143
  H  H46  1  0.057900  0.349500  0.157900  1.0  0.138
  H  H47  1  0.421900  0.829300  0.808600  1.0  0.1368
  H  H48  1  0.468300  0.856100  0.787200  1.0  0.1362
  H  H49  1  0.498700  0.868100  0.022000  1.0  0.1295
  H  H50  1  0.509700  0.918300  0.994800  1.0  0.1268
  H  H51  1  0.566800  0.900200  0.627400  1.0  0.143
  H  H52  1  0.557900  0.849500  0.657900  1.0  0.138
  H  H53  1  0.578100  0.670700  0.808600  1.0  0.1372
  H  H54  1  0.531700  0.643900  0.787200  1.0  0.1364
  H  H55  1  0.501300  0.631900  0.022000  1.0  0.13
  H  H56  1  0.490300  0.581700  0.994800  1.0  0.1269
  H  H57  1  0.433200  0.599800  0.627400  1.0  0.1427
  H  H58  1  0.442100  0.650500  0.657900  1.0  0.1373
  H  H59  1  0.078100  0.170700  0.308600  1.0  0.1372
  H  H60  1  0.031700  0.143900  0.287200  1.0  0.1364
  H  H61  1  0.001300  0.131900  0.522000  1.0  0.13
  H  H62  1  0.990300  0.081700  0.494800  1.0  0.1269
  H  H63  1  0.933200  0.099800  0.127400  1.0  0.1427
  H  H64  1  0.942100  0.150500  0.157900  1.0  0.1373
  H  H65  1  0.920700  0.328100  0.941400  1.0  0.1378
  H  H66  1  0.893900  0.281700  0.962800  1.0  0.1368
  H  H67  1  0.881900  0.251300  0.728000  1.0  0.13
  H  H68  1  0.831700  0.240300  0.755200  1.0  0.1271
  H  H69  1  0.849800  0.183200  0.122600  1.0  0.1442
  H  H70  1  0.900500  0.192100  0.092100  1.0  0.1362
  H  H71  1  0.420700  0.828100  0.441400  1.0  0.1378
  H  H72  1  0.393900  0.781700  0.462800  1.0  0.1368
  H  H73  1  0.381900  0.751300  0.228000  1.0  0.13
  H  H74  1  0.331700  0.740300  0.255200  1.0  0.1271
  H  H75  1  0.349800  0.683200  0.622600  1.0  0.1442
  H  H76  1  0.400500  0.692100  0.592100  1.0  0.1362
  H  H77  1  0.579300  0.671900  0.441400  1.0  0.1376
  H  H78  1  0.606100  0.718300  0.462800  1.0  0.1374
  H  H79  1  0.618100  0.748700  0.228000  1.0  0.1294
  H  H80  1  0.668300  0.759700  0.255200  1.0  0.1277
  H  H81  1  0.650200  0.816800  0.622600  1.0  0.1443
  H  H82  1  0.599500  0.807900  0.592100  1.0  0.1356
  H  H83  1  0.079300  0.171900  0.941400  1.0  0.1376
  H  H84  1  0.106100  0.218300  0.962800  1.0  0.1374
  H  H85  1  0.118100  0.248700  0.728000  1.0  0.1294
  H  H86  1  0.168300  0.259700  0.755200  1.0  0.1277
  H  H87  1  0.150200  0.316800  0.122600  1.0  0.1443
  H  H88  1  0.099500  0.307900  0.092100  1.0  0.1356
  H  H89  1  0.578100  0.329300  0.691400  1.0  0.1372
  H  H90  1  0.531700  0.356100  0.712800  1.0  0.1355
  H  H91  1  0.501300  0.368100  0.478000  1.0  0.1299
  H  H92  1  0.490300  0.418300  0.505200  1.0  0.127
  H  H93  1  0.433200  0.400200  0.872600  1.0  0.1427
  H  H94  1  0.442100  0.349500  0.842100  1.0  0.1377
  H  H95  1  0.078100  0.829300  0.191400  1.0  0.1372
  H  H96  1  0.031700  0.856100  0.212800  1.0  0.1355
  H  H97  1  0.001300  0.868100  0.978000  1.0  0.1299
  H  H98  1  0.990300  0.918300  0.005200  1.0  0.127
  H  H99  1  0.933200  0.900200  0.372600  1.0  0.1427
  H  H100  1  0.942100  0.849500  0.342100  1.0  0.1377
  H  H101  1  0.921900  0.670700  0.191400  1.0  0.1374
  H  H102  1  0.968300  0.643900  0.212800  1.0  0.1364
  H  H103  1  0.998700  0.631900  0.978000  1.0  0.1291
  H  H104  1  0.009700  0.581700  0.005200  1.0  0.1272
  H  H105  1  0.066800  0.599800  0.372600  1.0  0.1428
  H  H106  1  0.057900  0.650500  0.342100  1.0  0.1373
  H  H107  1  0.421900  0.170700  0.691400  1.0  0.1374
  H  H108  1  0.468300  0.143900  0.712800  1.0  0.1364
  H  H109  1  0.498700  0.131900  0.478000  1.0  0.1291
  H  H110  1  0.509700  0.081700  0.505200  1.0  0.1272
  H  H111  1  0.566800  0.099800  0.872600  1.0  0.1428
  H  H112  1  0.557900  0.150500  0.842100  1.0  0.1373
  H  H113  1  0.420700  0.671900  0.941400  1.0  0.1352
  H  H114  1  0.393900  0.718300  0.962800  1.0  0.137
  H  H115  1  0.381900  0.748700  0.728000  1.0  0.1299
  H  H116  1  0.331700  0.759700  0.755200  1.0  0.1275
  H  H117  1  0.349800  0.816800  0.122600  1.0  0.1447
  H  H118  1  0.400500  0.807900  0.092100  1.0  0.1353
  H  H119  1  0.920700  0.171900  0.441400  1.0  0.1352
  H  H120  1  0.893900  0.218300  0.462800  1.0  0.137
  H  H121  1  0.881900  0.248700  0.228000  1.0  0.1299
  H  H122  1  0.831700  0.259700  0.255200  1.0  0.1275
  H  H123  1  0.849800  0.316800  0.622600  1.0  0.1447
  H  H124  1  0.900500  0.307900  0.592100  1.0  0.1353
  H  H125  1  0.079300  0.328100  0.441400  1.0  0.135
  H  H126  1  0.106100  0.281700  0.462800  1.0  0.1376
  H  H127  1  0.118100  0.251300  0.228000  1.0  0.1294
  H  H128  1  0.168300  0.240300  0.255200  1.0  0.1273
  H  H129  1  0.150200  0.183200  0.622600  1.0  0.1443
  H  H130  1  0.099500  0.192100  0.592100  1.0  0.1364
  H  H131  1  0.579300  0.828100  0.941400  1.0  0.135
  H  H132  1  0.606100  0.781700  0.962800  1.0  0.1376
  H  H133  1  0.618100  0.751300  0.728000  1.0  0.1294
  H  H134  1  0.668300  0.740300  0.755200  1.0  0.1273
  H  H135  1  0.650200  0.683200  0.122600  1.0  0.1443
  H  H136  1  0.599500  0.692100  0.092100  1.0  0.1364
  H  H137  1  0.078100  0.670700  0.691400  1.0  0.1346
  H  H138  1  0.031700  0.643900  0.712800  1.0  0.1361
  H  H139  1  0.001300  0.631900  0.478000  1.0  0.1294
  H  H140  1  0.990300  0.581700  0.505200  1.0  0.127
  H  H141  1  0.933200  0.599800  0.872600  1.0  0.1429
  H  H142  1  0.942100  0.650500  0.842100  1.0  0.1374
  H  H143  1  0.578100  0.170700  0.191400  1.0  0.1346
  H  H144  1  0.531700  0.143900  0.212800  1.0  0.1361
  H  H145  1  0.501300  0.131900  0.978000  1.0  0.1294
  H  H146  1  0.490300  0.081700  0.005200  1.0  0.127
  H  H147  1  0.433200  0.099800  0.372600  1.0  0.1429
  H  H148  1  0.442100  0.150500  0.342100  1.0  0.1374
  H  H149  1  0.421900  0.329300  0.191400  1.0  0.1346
  H  H150  1  0.468300  0.356100  0.212800  1.0  0.1361
  H  H151  1  0.498700  0.368100  0.978000  1.0  0.1298
  H  H152  1  0.509700  0.418300  0.005200  1.0  0.1274
  H  H153  1  0.566800  0.400200  0.372600  1.0  0.1427
  H  H154  1  0.557900  0.349500  0.342100  1.0  0.1375
  H  H155  1  0.921900  0.829300  0.691400  1.0  0.1346
  H  H156  1  0.968300  0.856100  0.712800  1.0  0.1361
  H  H157  1  0.998700  0.868100  0.478000  1.0  0.1298
  H  H158  1  0.009700  0.918300  0.505200  1.0  0.1274
  H  H159  1  0.066800  0.900200  0.872600  1.0  0.1427
  H  H160  1  0.057900  0.849500  0.842100  1.0  0.1375
  H  H161  1  0.079300  0.671900  0.058600  1.0  0.135
  H  H162  1  0.106100  0.718300  0.037200  1.0  0.1375
  H  H163  1  0.118100  0.748700  0.272000  1.0  0.1295
  H  H164  1  0.168300  0.759700  0.244800  1.0  0.1271
  H  H165  1  0.150200  0.816800  0.877400  1.0  0.1454
  H  H166  1  0.099500  0.807900  0.907900  1.0  0.1358
  H  H167  1  0.579300  0.171900  0.558600  1.0  0.135
  H  H168  1  0.606100  0.218300  0.537200  1.0  0.1375
  H  H169  1  0.618100  0.248700  0.772000  1.0  0.1295
  H  H170  1  0.668300  0.259700  0.744800  1.0  0.1271
  H  H171  1  0.650200  0.316800  0.377400  1.0  0.1454
  H  H172  1  0.599500  0.307900  0.407900  1.0  0.1358
  H  H173  1  0.420700  0.328100  0.558600  1.0  0.1353
  H  H174  1  0.393900  0.281700  0.537200  1.0  0.1369
  H  H175  1  0.381900  0.251300  0.772000  1.0  0.1298
  H  H176  1  0.331700  0.240300  0.744800  1.0  0.127
  H  H177  1  0.349800  0.183200  0.377400  1.0  0.1428
  H  H178  1  0.400500  0.192100  0.407900  1.0  0.1363
  H  H179  1  0.920700  0.828100  0.058600  1.0  0.1353
  H  H180  1  0.893900  0.781700  0.037200  1.0  0.1369
  H  H181  1  0.881900  0.751300  0.272000  1.0  0.1298
  H  H182  1  0.831700  0.740300  0.244800  1.0  0.127
  H  H183  1  0.849800  0.683200  0.877400  1.0  0.1428
  H  H184  1  0.900500  0.692100  0.907900  1.0  0.1363
  H  H185  1  0.421900  0.670700  0.308600  1.0  0.1348
  H  H186  1  0.468300  0.643900  0.287200  1.0  0.136
  H  H187  1  0.498700  0.631900  0.522000  1.0  0.1297
  H  H188  1  0.509700  0.581700  0.494800  1.0  0.1271
  H  H189  1  0.566800  0.599800  0.127400  1.0  0.1431
  H  H190  1  0.557900  0.650500  0.157900  1.0  0.1375
  H  H191  1  0.921900  0.170700  0.808600  1.0  0.1348
  H  H192  1  0.968300  0.143900  0.787200  1.0  0.136
  H  H193  1  0.998700  0.131900  0.022000  1.0  0.1297
  H  H194  1  0.009700  0.081700  0.994800  1.0  0.1271
  H  H195  1  0.066800  0.099800  0.627400  1.0  0.1431
  H  H196  1  0.057900  0.150500  0.657900  1.0  0.1375
  H  H197  1  0.078100  0.329300  0.808600  1.0  0.1349
  H  H198  1  0.031700  0.356100  0.787200  1.0  0.1359
  H  H199  1  0.001300  0.368100  0.022000  1.0  0.1298
  H  H200  1  0.990300  0.418300  0.994800  1.0  0.1266
  H  H201  1  0.933200  0.400200  0.627400  1.0  0.1426
  H  H202  1  0.942100  0.349500  0.657900  1.0  0.138
  H  H203  1  0.578100  0.829300  0.308600  1.0  0.1349
  H  H204  1  0.531700  0.856100  0.287200  1.0  0.1359
  H  H205  1  0.501300  0.868100  0.522000  1.0  0.1298
  H  H206  1  0.490300  0.918300  0.494800  1.0  0.1266
  H  H207  1  0.433200  0.900200  0.127400  1.0  0.1426
  H  H208  1  0.442100  0.849500  0.157900  1.0  0.138
  Pd  Pd209  1  0.500000  0.250000  0.125000  1.0  0.435
  Pd  Pd210  1  0.000000  0.750000  0.625000  1.0  0.435
  Pd  Pd211  1  0.000000  0.250000  0.375000  1.0  0.435
  Pd  Pd212  1  0.500000  0.750000  0.875000  1.0  0.435
  Pd  Pd213  1  0.000000  0.250000  0.875000  1.0  0.435
  Pd  Pd214  1  0.500000  0.750000  0.375000  1.0  0.435
  Pd  Pd215  1  0.500000  0.250000  0.625000  1.0  0.435
  Pd  Pd216  1  0.000000  0.750000  0.125000  1.0  0.435
  C  C217  1  0.540400  0.304200  0.117100  1.0  0.0542
  C  C218  1  0.571000  0.309300  0.074900  1.0  -0.1117
  C  C219  1  0.585900  0.283800  0.061900  1.0  -0.1464
  C  C220  1  0.565400  0.260600  0.092600  1.0  0.1315
  C  C221  1  0.574200  0.231000  0.106300  1.0  0.0034
  C  C222  1  0.604600  0.223200  0.092000  1.0  0.102
  C  C223  1  0.624600  0.237400  0.191100  1.0  -0.1042
  C  C224  1  0.654300  0.231500  0.173000  1.0  -0.0587
  C  C225  1  0.662400  0.213000  0.053000  1.0  -0.1184
  C  C226  1  0.643200  0.197300  0.955300  1.0  -0.0159
  C  C227  1  0.613500  0.202400  0.974000  1.0  -0.1112
  C  C228  1  0.040400  0.804200  0.617100  1.0  0.0542
  C  C229  1  0.071000  0.809300  0.574900  1.0  -0.1117
  C  C230  1  0.085900  0.783800  0.561900  1.0  -0.1464
  C  C231  1  0.065400  0.760600  0.592600  1.0  0.1315
  C  C232  1  0.074200  0.731000  0.606300  1.0  0.0034
  C  C233  1  0.104600  0.723200  0.592000  1.0  0.102
  C  C234  1  0.124600  0.737400  0.691100  1.0  -0.1042
  C  C235  1  0.154300  0.731500  0.673000  1.0  -0.0587
  C  C236  1  0.162400  0.713000  0.553000  1.0  -0.1184
  C  C237  1  0.143200  0.697300  0.455300  1.0  -0.0159
  C  C238  1  0.113500  0.702400  0.474000  1.0  -0.1112
  C  C239  1  0.959600  0.695800  0.617100  1.0  0.0553
  C  C240  1  0.929000  0.690700  0.574900  1.0  -0.1108
  C  C241  1  0.914100  0.716200  0.561900  1.0  -0.1463
  C  C242  1  0.934600  0.739400  0.592600  1.0  0.1309
  C  C243  1  0.925800  0.769000  0.606300  1.0  0.0034
  C  C244  1  0.895400  0.776800  0.592000  1.0  0.1005
  C  C245  1  0.875400  0.762600  0.691100  1.0  -0.107
  C  C246  1  0.845700  0.768500  0.673000  1.0  -0.0598
  C  C247  1  0.837600  0.787000  0.553000  1.0  -0.116
  C  C248  1  0.856800  0.802700  0.455300  1.0  -0.0117
  C  C249  1  0.886500  0.797600  0.474000  1.0  -0.1123
  C  C250  1  0.459600  0.195800  0.117100  1.0  0.0553
  C  C251  1  0.429000  0.190700  0.074900  1.0  -0.1108
  C  C252  1  0.414100  0.216200  0.061900  1.0  -0.1463
  C  C253  1  0.434600  0.239400  0.092600  1.0  0.1309
  C  C254  1  0.425800  0.269000  0.106300  1.0  0.0034
  C  C255  1  0.395400  0.276800  0.092000  1.0  0.1005
  C  C256  1  0.375400  0.262600  0.191100  1.0  -0.107
  C  C257  1  0.345700  0.268500  0.173000  1.0  -0.0598
  C  C258  1  0.337600  0.287000  0.053000  1.0  -0.116
  C  C259  1  0.356800  0.302700  0.955300  1.0  -0.0117
  C  C260  1  0.386500  0.297600  0.974000  1.0  -0.1123
  C  C261  1  0.945800  0.290400  0.367100  1.0  0.0551
  C  C262  1  0.940700  0.321000  0.324900  1.0  -0.1105
  C  C263  1  0.966200  0.335900  0.311900  1.0  -0.1445
  C  C264  1  0.989400  0.315400  0.342600  1.0  0.1324
  C  C265  1  0.019000  0.324200  0.356300  1.0  0.0049
  C  C266  1  0.026800  0.354600  0.342000  1.0  0.1017
  C  C267  1  0.012600  0.374600  0.441100  1.0  -0.1078
  C  C268  1  0.018500  0.404300  0.423000  1.0  -0.0625
  C  C269  1  0.037000  0.412400  0.303000  1.0  -0.1116
  C  C270  1  0.052700  0.393200  0.205300  1.0  -0.0176
  C  C271  1  0.047600  0.363500  0.224000  1.0  -0.1123
  C  C272  1  0.445800  0.790400  0.867100  1.0  0.0551
  C  C273  1  0.440700  0.821000  0.824900  1.0  -0.1105
  C  C274  1  0.466200  0.835900  0.811900  1.0  -0.1445
  C  C275  1  0.489400  0.815400  0.842600  1.0  0.1324
  C  C276  1  0.519000  0.824200  0.856300  1.0  0.0049
  C  C277  1  0.526800  0.854600  0.842000  1.0  0.1017
  C  C278  1  0.512600  0.874600  0.941100  1.0  -0.1078
  C  C279  1  0.518500  0.904300  0.923000  1.0  -0.0625
  C  C280  1  0.537000  0.912400  0.803000  1.0  -0.1116
  C  C281  1  0.552700  0.893200  0.705300  1.0  -0.0176
  C  C282  1  0.547600  0.863500  0.724000  1.0  -0.1123
  C  C283  1  0.554200  0.709600  0.867100  1.0  0.0552
  C  C284  1  0.559300  0.679000  0.824900  1.0  -0.1116
  C  C285  1  0.533800  0.664100  0.811900  1.0  -0.146
  C  C286  1  0.510600  0.684600  0.842600  1.0  0.132
  C  C287  1  0.481000  0.675800  0.856300  1.0  0.0041
  C  C288  1  0.473200  0.645400  0.842000  1.0  0.1007
  C  C289  1  0.487400  0.625400  0.941100  1.0  -0.1089
  C  C290  1  0.481500  0.595700  0.923000  1.0  -0.0629
  C  C291  1  0.463000  0.587600  0.803000  1.0  -0.1134
  C  C292  1  0.447300  0.606800  0.705300  1.0  -0.0142
  C  C293  1  0.452400  0.636500  0.724000  1.0  -0.1117
  C  C294  1  0.054200  0.209600  0.367100  1.0  0.0552
  C  C295  1  0.059300  0.179000  0.324900  1.0  -0.1116
  C  C296  1  0.033800  0.164100  0.311900  1.0  -0.146
  C  C297  1  0.010600  0.184600  0.342600  1.0  0.132
  C  C298  1  0.981000  0.175800  0.356300  1.0  0.0041
  C  C299  1  0.973200  0.145400  0.342000  1.0  0.1007
  C  C300  1  0.987400  0.125400  0.441100  1.0  -0.1089
  C  C301  1  0.981500  0.095700  0.423000  1.0  -0.0629
  C  C302  1  0.963000  0.087600  0.303000  1.0  -0.1134
  C  C303  1  0.947300  0.106800  0.205300  1.0  -0.0142
  C  C304  1  0.952400  0.136500  0.224000  1.0  -0.1117
  C  C305  1  0.959600  0.304200  0.882900  1.0  0.0551
  C  C306  1  0.929000  0.309300  0.925100  1.0  -0.1102
  C  C307  1  0.914100  0.283800  0.938100  1.0  -0.1464
  C  C308  1  0.934600  0.260600  0.907400  1.0  0.1308
  C  C309  1  0.925800  0.231000  0.893700  1.0  0.0035
  C  C310  1  0.895400  0.223200  0.908000  1.0  0.1006
  C  C311  1  0.875400  0.237400  0.808900  1.0  -0.1071
  C  C312  1  0.845700  0.231500  0.827000  1.0  -0.0608
  C  C313  1  0.837600  0.213000  0.947000  1.0  -0.1172
  C  C314  1  0.856800  0.197300  0.044700  1.0  -0.0122
  C  C315  1  0.886500  0.202400  0.026000  1.0  -0.114
  C  C316  1  0.459600  0.804200  0.382900  1.0  0.0551
  C  C317  1  0.429000  0.809300  0.425100  1.0  -0.1102
  C  C318  1  0.414100  0.783800  0.438100  1.0  -0.1464
  C  C319  1  0.434600  0.760600  0.407400  1.0  0.1308
  C  C320  1  0.425800  0.731000  0.393700  1.0  0.0035
  C  C321  1  0.395400  0.723200  0.408000  1.0  0.1006
  C  C322  1  0.375400  0.737400  0.308900  1.0  -0.1071
  C  C323  1  0.345700  0.731500  0.327000  1.0  -0.0608
  C  C324  1  0.337600  0.713000  0.447000  1.0  -0.1172
  C  C325  1  0.356800  0.697300  0.544700  1.0  -0.0122
  C  C326  1  0.386500  0.702400  0.526000  1.0  -0.114
  C  C327  1  0.540400  0.695800  0.382900  1.0  0.0544
  C  C328  1  0.571000  0.690700  0.425100  1.0  -0.1116
  C  C329  1  0.585900  0.716200  0.438100  1.0  -0.1465
  C  C330  1  0.565400  0.739400  0.407400  1.0  0.1315
  C  C331  1  0.574200  0.769000  0.393700  1.0  0.0036
  C  C332  1  0.604600  0.776800  0.408000  1.0  0.1017
  C  C333  1  0.624600  0.762600  0.308900  1.0  -0.1036
  C  C334  1  0.654300  0.768500  0.327000  1.0  -0.0604
  C  C335  1  0.662400  0.787000  0.447000  1.0  -0.1176
  C  C336  1  0.643200  0.802700  0.544700  1.0  -0.013
  C  C337  1  0.613500  0.797600  0.526000  1.0  -0.1112
  C  C338  1  0.040400  0.195800  0.882900  1.0  0.0544
  C  C339  1  0.071000  0.190700  0.925100  1.0  -0.1116
  C  C340  1  0.085900  0.216200  0.938100  1.0  -0.1465
  C  C341  1  0.065400  0.239400  0.907400  1.0  0.1315
  C  C342  1  0.074200  0.269000  0.893700  1.0  0.0036
  C  C343  1  0.104600  0.276800  0.908000  1.0  0.1017
  C  C344  1  0.124600  0.262600  0.808900  1.0  -0.1036
  C  C345  1  0.154300  0.268500  0.827000  1.0  -0.0604
  C  C346  1  0.162400  0.287000  0.947000  1.0  -0.1176
  C  C347  1  0.143200  0.302700  0.044700  1.0  -0.013
  C  C348  1  0.113500  0.297600  0.026000  1.0  -0.1112
  C  C349  1  0.554200  0.290400  0.632900  1.0  0.055
  C  C350  1  0.559300  0.321000  0.675100  1.0  -0.1113
  C  C351  1  0.533800  0.335900  0.688100  1.0  -0.1448
  C  C352  1  0.510600  0.315400  0.657400  1.0  0.1317
  C  C353  1  0.481000  0.324200  0.643700  1.0  0.004
  C  C354  1  0.473200  0.354600  0.658000  1.0  0.1002
  C  C355  1  0.487400  0.374600  0.558900  1.0  -0.1078
  C  C356  1  0.481500  0.404300  0.577000  1.0  -0.0645
  C  C357  1  0.463000  0.412400  0.697000  1.0  -0.1109
  C  C358  1  0.447300  0.393200  0.794700  1.0  -0.0148
  C  C359  1  0.452400  0.363500  0.776000  1.0  -0.1118
  C  C360  1  0.054200  0.790400  0.132900  1.0  0.055
  C  C361  1  0.059300  0.821000  0.175100  1.0  -0.1113
  C  C362  1  0.033800  0.835900  0.188100  1.0  -0.1448
  C  C363  1  0.010600  0.815400  0.157400  1.0  0.1317
  C  C364  1  0.981000  0.824200  0.143700  1.0  0.004
  C  C365  1  0.973200  0.854600  0.158000  1.0  0.1002
  C  C366  1  0.987400  0.874600  0.058900  1.0  -0.1078
  C  C367  1  0.981500  0.904300  0.077000  1.0  -0.0645
  C  C368  1  0.963000  0.912400  0.197000  1.0  -0.1109
  C  C369  1  0.947300  0.893200  0.294700  1.0  -0.0148
  C  C370  1  0.952400  0.863500  0.276000  1.0  -0.1118
  C  C371  1  0.945800  0.709600  0.132900  1.0  0.0552
  C  C372  1  0.940700  0.679000  0.175100  1.0  -0.1102
  C  C373  1  0.966200  0.664100  0.188100  1.0  -0.1464
  C  C374  1  0.989400  0.684600  0.157400  1.0  0.1325
  C  C375  1  0.019000  0.675800  0.143700  1.0  0.0049
  C  C376  1  0.026800  0.645400  0.158000  1.0  0.1021
  C  C377  1  0.012600  0.625400  0.058900  1.0  -0.1083
  C  C378  1  0.018500  0.595700  0.077000  1.0  -0.065
  C  C379  1  0.037000  0.587600  0.197000  1.0  -0.113
  C  C380  1  0.052700  0.606800  0.294700  1.0  -0.0169
  C  C381  1  0.047600  0.636500  0.276000  1.0  -0.1119
  C  C382  1  0.445800  0.209600  0.632900  1.0  0.0552
  C  C383  1  0.440700  0.179000  0.675100  1.0  -0.1102
  C  C384  1  0.466200  0.164100  0.688100  1.0  -0.1464
  C  C385  1  0.489400  0.184600  0.657400  1.0  0.1325
  C  C386  1  0.519000  0.175800  0.643700  1.0  0.0049
  C  C387  1  0.526800  0.145400  0.658000  1.0  0.1021
  C  C388  1  0.512600  0.125400  0.558900  1.0  -0.1083
  C  C389  1  0.518500  0.095700  0.577000  1.0  -0.065
  C  C390  1  0.537000  0.087600  0.697000  1.0  -0.113
  C  C391  1  0.552700  0.106800  0.794700  1.0  -0.0169
  C  C392  1  0.547600  0.136500  0.776000  1.0  -0.1119
  C  C393  1  0.459600  0.695800  0.882900  1.0  0.0554
  C  C394  1  0.429000  0.690700  0.925100  1.0  -0.1113
  C  C395  1  0.414100  0.716200  0.938100  1.0  -0.1465
  C  C396  1  0.434600  0.739400  0.907400  1.0  0.1319
  C  C397  1  0.425800  0.769000  0.893700  1.0  0.0034
  C  C398  1  0.395400  0.776800  0.908000  1.0  0.1005
  C  C399  1  0.375400  0.762600  0.808900  1.0  -0.1071
  C  C400  1  0.345700  0.768500  0.827000  1.0  -0.061
  C  C401  1  0.337600  0.787000  0.947000  1.0  -0.1156
  C  C402  1  0.356800  0.802700  0.044700  1.0  -0.0115
  C  C403  1  0.386500  0.797600  0.026000  1.0  -0.1122
  C  C404  1  0.959600  0.195800  0.382900  1.0  0.0554
  C  C405  1  0.929000  0.190700  0.425100  1.0  -0.1113
  C  C406  1  0.914100  0.216200  0.438100  1.0  -0.1465
  C  C407  1  0.934600  0.239400  0.407400  1.0  0.1319
  C  C408  1  0.925800  0.269000  0.393700  1.0  0.0034
  C  C409  1  0.895400  0.276800  0.408000  1.0  0.1005
  C  C410  1  0.875400  0.262600  0.308900  1.0  -0.1071
  C  C411  1  0.845700  0.268500  0.327000  1.0  -0.061
  C  C412  1  0.837600  0.287000  0.447000  1.0  -0.1156
  C  C413  1  0.856800  0.302700  0.544700  1.0  -0.0115
  C  C414  1  0.886500  0.297600  0.526000  1.0  -0.1122
  C  C415  1  0.040400  0.304200  0.382900  1.0  0.0542
  C  C416  1  0.071000  0.309300  0.425100  1.0  -0.1117
  C  C417  1  0.085900  0.283800  0.438100  1.0  -0.1461
  C  C418  1  0.065400  0.260600  0.407400  1.0  0.1325
  C  C419  1  0.074200  0.231000  0.393700  1.0  0.0034
  C  C420  1  0.104600  0.223200  0.408000  1.0  0.102
  C  C421  1  0.124600  0.237400  0.308900  1.0  -0.1036
  C  C422  1  0.154300  0.231500  0.327000  1.0  -0.0608
  C  C423  1  0.162400  0.213000  0.447000  1.0  -0.1187
  C  C424  1  0.143200  0.197300  0.544700  1.0  -0.0158
  C  C425  1  0.113500  0.202400  0.526000  1.0  -0.1107
  C  C426  1  0.540400  0.804200  0.882900  1.0  0.0542
  C  C427  1  0.571000  0.809300  0.925100  1.0  -0.1117
  C  C428  1  0.585900  0.783800  0.938100  1.0  -0.1461
  C  C429  1  0.565400  0.760600  0.907400  1.0  0.1325
  C  C430  1  0.574200  0.731000  0.893700  1.0  0.0034
  C  C431  1  0.604600  0.723200  0.908000  1.0  0.102
  C  C432  1  0.624600  0.737400  0.808900  1.0  -0.1036
  C  C433  1  0.654300  0.731500  0.827000  1.0  -0.0608
  C  C434  1  0.662400  0.713000  0.947000  1.0  -0.1187
  C  C435  1  0.643200  0.697300  0.044700  1.0  -0.0158
  C  C436  1  0.613500  0.702400  0.026000  1.0  -0.1107
  C  C437  1  0.054200  0.709600  0.632900  1.0  0.0553
  C  C438  1  0.059300  0.679000  0.675100  1.0  -0.1116
  C  C439  1  0.033800  0.664100  0.688100  1.0  -0.1461
  C  C440  1  0.010600  0.684600  0.657400  1.0  0.133
  C  C441  1  0.981000  0.675800  0.643700  1.0  0.0041
  C  C442  1  0.973200  0.645400  0.658000  1.0  0.1006
  C  C443  1  0.987400  0.625400  0.558900  1.0  -0.1088
  C  C444  1  0.981500  0.595700  0.577000  1.0  -0.0647
  C  C445  1  0.963000  0.587600  0.697000  1.0  -0.1135
  C  C446  1  0.947300  0.606800  0.794700  1.0  -0.0141
  C  C447  1  0.952400  0.636500  0.776000  1.0  -0.1117
  C  C448  1  0.554200  0.209600  0.132900  1.0  0.0553
  C  C449  1  0.559300  0.179000  0.175100  1.0  -0.1116
  C  C450  1  0.533800  0.164100  0.188100  1.0  -0.1461
  C  C451  1  0.510600  0.184600  0.157400  1.0  0.133
  C  C452  1  0.481000  0.175800  0.143700  1.0  0.0041
  C  C453  1  0.473200  0.145400  0.158000  1.0  0.1006
  C  C454  1  0.487400  0.125400  0.058900  1.0  -0.1088
  C  C455  1  0.481500  0.095700  0.077000  1.0  -0.0647
  C  C456  1  0.463000  0.087600  0.197000  1.0  -0.1135
  C  C457  1  0.447300  0.106800  0.294700  1.0  -0.0141
  C  C458  1  0.452400  0.136500  0.276000  1.0  -0.1117
  C  C459  1  0.445800  0.290400  0.132900  1.0  0.0551
  C  C460  1  0.440700  0.321000  0.175100  1.0  -0.1109
  C  C461  1  0.466200  0.335900  0.188100  1.0  -0.1445
  C  C462  1  0.489400  0.315400  0.157400  1.0  0.1335
  C  C463  1  0.519000  0.324200  0.143700  1.0  0.005
  C  C464  1  0.526800  0.354600  0.158000  1.0  0.1018
  C  C465  1  0.512600  0.374600  0.058900  1.0  -0.1076
  C  C466  1  0.518500  0.404300  0.077000  1.0  -0.0646
  C  C467  1  0.537000  0.412400  0.197000  1.0  -0.1119
  C  C468  1  0.552700  0.393200  0.294700  1.0  -0.0165
  C  C469  1  0.547600  0.363500  0.276000  1.0  -0.1119
  C  C470  1  0.945800  0.790400  0.632900  1.0  0.0551
  C  C471  1  0.940700  0.821000  0.675100  1.0  -0.1109
  C  C472  1  0.966200  0.835900  0.688100  1.0  -0.1445
  C  C473  1  0.989400  0.815400  0.657400  1.0  0.1335
  C  C474  1  0.019000  0.824200  0.643700  1.0  0.005
  C  C475  1  0.026800  0.854600  0.658000  1.0  0.1018
  C  C476  1  0.012600  0.874600  0.558900  1.0  -0.1076
  C  C477  1  0.018500  0.904300  0.577000  1.0  -0.0646
  C  C478  1  0.037000  0.912400  0.697000  1.0  -0.1119
  C  C479  1  0.052700  0.893200  0.794700  1.0  -0.0165
  C  C480  1  0.047600  0.863500  0.776000  1.0  -0.1119
  C  C481  1  0.040400  0.695800  0.117100  1.0  0.0543
  C  C482  1  0.071000  0.690700  0.074900  1.0  -0.1123
  C  C483  1  0.085900  0.716200  0.061900  1.0  -0.1467
  C  C484  1  0.065400  0.739400  0.092600  1.0  0.1324
  C  C485  1  0.074200  0.769000  0.106300  1.0  0.0036
  C  C486  1  0.104600  0.776800  0.092000  1.0  0.1015
  C  C487  1  0.124600  0.762600  0.191100  1.0  -0.1041
  C  C488  1  0.154300  0.768500  0.173000  1.0  -0.0589
  C  C489  1  0.162400  0.787000  0.053000  1.0  -0.1174
  C  C490  1  0.143200  0.802700  0.955300  1.0  -0.0138
  C  C491  1  0.113500  0.797600  0.974000  1.0  -0.1113
  C  C492  1  0.540400  0.195800  0.617100  1.0  0.0543
  C  C493  1  0.571000  0.190700  0.574900  1.0  -0.1123
  C  C494  1  0.585900  0.216200  0.561900  1.0  -0.1467
  C  C495  1  0.565400  0.239400  0.592600  1.0  0.1324
  C  C496  1  0.574200  0.269000  0.606300  1.0  0.0036
  C  C497  1  0.604600  0.276800  0.592000  1.0  0.1015
  C  C498  1  0.624600  0.262600  0.691100  1.0  -0.1041
  C  C499  1  0.654300  0.268500  0.673000  1.0  -0.0589
  C  C500  1  0.662400  0.287000  0.553000  1.0  -0.1174
  C  C501  1  0.643200  0.302700  0.455300  1.0  -0.0138
  C  C502  1  0.613500  0.297600  0.474000  1.0  -0.1113
  C  C503  1  0.459600  0.304200  0.617100  1.0  0.0551
  C  C504  1  0.429000  0.309300  0.574900  1.0  -0.1112
  C  C505  1  0.414100  0.283800  0.561900  1.0  -0.1464
  C  C506  1  0.434600  0.260600  0.592600  1.0  0.1319
  C  C507  1  0.425800  0.231000  0.606300  1.0  0.0035
  C  C508  1  0.395400  0.223200  0.592000  1.0  0.1009
  C  C509  1  0.375400  0.237400  0.691100  1.0  -0.1069
  C  C510  1  0.345700  0.231500  0.673000  1.0  -0.0591
  C  C511  1  0.337600  0.213000  0.553000  1.0  -0.1174
  C  C512  1  0.356800  0.197300  0.455300  1.0  -0.0118
  C  C513  1  0.386500  0.202400  0.474000  1.0  -0.1143
  C  C514  1  0.959600  0.804200  0.117100  1.0  0.0551
  C  C515  1  0.929000  0.809300  0.074900  1.0  -0.1112
  C  C516  1  0.914100  0.783800  0.061900  1.0  -0.1464
  C  C517  1  0.934600  0.760600  0.092600  1.0  0.1319
  C  C518  1  0.925800  0.731000  0.106300  1.0  0.0035
  C  C519  1  0.895400  0.723200  0.092000  1.0  0.1009
  C  C520  1  0.875400  0.737400  0.191100  1.0  -0.1069
  C  C521  1  0.845700  0.731500  0.173000  1.0  -0.0591
  C  C522  1  0.837600  0.713000  0.053000  1.0  -0.1174
  C  C523  1  0.856800  0.697300  0.955300  1.0  -0.0118
  C  C524  1  0.886500  0.702400  0.974000  1.0  -0.1143
  C  C525  1  0.445800  0.709600  0.367100  1.0  0.055
  C  C526  1  0.440700  0.679000  0.324900  1.0  -0.1112
  C  C527  1  0.466200  0.664100  0.311900  1.0  -0.1463
  C  C528  1  0.489400  0.684600  0.342600  1.0  0.1336
  C  C529  1  0.519000  0.675800  0.356300  1.0  0.0049
  C  C530  1  0.526800  0.645400  0.342000  1.0  0.1022
  C  C531  1  0.512600  0.625400  0.441100  1.0  -0.1085
  C  C532  1  0.518500  0.595700  0.423000  1.0  -0.0631
  C  C533  1  0.537000  0.587600  0.303000  1.0  -0.1126
  C  C534  1  0.552700  0.606800  0.205300  1.0  -0.0181
  C  C535  1  0.547600  0.636500  0.224000  1.0  -0.1116
  C  C536  1  0.945800  0.209600  0.867100  1.0  0.055
  C  C537  1  0.940700  0.179000  0.824900  1.0  -0.1112
  C  C538  1  0.966200  0.164100  0.811900  1.0  -0.1463
  C  C539  1  0.989400  0.184600  0.842600  1.0  0.1336
  C  C540  1  0.019000  0.175800  0.856300  1.0  0.0049
  C  C541  1  0.026800  0.145400  0.842000  1.0  0.1022
  C  C542  1  0.012600  0.125400  0.941100  1.0  -0.1085
  C  C543  1  0.018500  0.095700  0.923000  1.0  -0.0631
  C  C544  1  0.037000  0.087600  0.803000  1.0  -0.1126
  C  C545  1  0.052700  0.106800  0.705300  1.0  -0.0181
  C  C546  1  0.047600  0.136500  0.724000  1.0  -0.1116
  C  C547  1  0.054200  0.290400  0.867100  1.0  0.055
  C  C548  1  0.059300  0.321000  0.824900  1.0  -0.1119
  C  C549  1  0.033800  0.335900  0.811900  1.0  -0.145
  C  C550  1  0.010600  0.315400  0.842600  1.0  0.1327
  C  C551  1  0.981000  0.324200  0.856300  1.0  0.004
  C  C552  1  0.973200  0.354600  0.842000  1.0  0.1002
  C  C553  1  0.987400  0.374600  0.941100  1.0  -0.1079
  C  C554  1  0.981500  0.404300  0.923000  1.0  -0.062
  C  C555  1  0.963000  0.412400  0.803000  1.0  -0.1109
  C  C556  1  0.947300  0.393200  0.705300  1.0  -0.0148
  C  C557  1  0.952400  0.363500  0.724000  1.0  -0.1121
  C  C558  1  0.554200  0.790400  0.367100  1.0  0.055
  C  C559  1  0.559300  0.821000  0.324900  1.0  -0.1119
  C  C560  1  0.533800  0.835900  0.311900  1.0  -0.145
  C  C561  1  0.510600  0.815400  0.342600  1.0  0.1327
  C  C562  1  0.481000  0.824200  0.356300  1.0  0.004
  C  C563  1  0.473200  0.854600  0.342000  1.0  0.1002
  C  C564  1  0.487400  0.874600  0.441100  1.0  -0.1079
  C  C565  1  0.481500  0.904300  0.423000  1.0  -0.062
  C  C566  1  0.463000  0.912400  0.303000  1.0  -0.1109
  C  C567  1  0.447300  0.893200  0.205300  1.0  -0.0148
  C  C568  1  0.452400  0.863500  0.224000  1.0  -0.1121
  S  S569  1  0.701420  0.205800  0.002800  1.0  1.2582
  S  S570  1  0.201420  0.705800  0.502800  1.0  1.2582
  S  S571  1  0.798580  0.794200  0.502800  1.0  1.258
  S  S572  1  0.298580  0.294200  0.002800  1.0  1.258
  S  S573  1  0.044200  0.451420  0.252800  1.0  1.258
  S  S574  1  0.544200  0.951420  0.752800  1.0  1.258
  S  S575  1  0.455800  0.548580  0.752800  1.0  1.259
  S  S576  1  0.955800  0.048580  0.252800  1.0  1.259
  S  S577  1  0.798580  0.205800  0.997200  1.0  1.2576
  S  S578  1  0.298580  0.705800  0.497200  1.0  1.2576
  S  S579  1  0.701420  0.794200  0.497200  1.0  1.2572
  S  S580  1  0.201420  0.294200  0.997200  1.0  1.2572
  S  S581  1  0.455800  0.451420  0.747200  1.0  1.2583
  S  S582  1  0.955800  0.951420  0.247200  1.0  1.2583
  S  S583  1  0.044200  0.548580  0.247200  1.0  1.2592
  S  S584  1  0.544200  0.048580  0.747200  1.0  1.2592
  S  S585  1  0.298580  0.794200  0.997200  1.0  1.2578
  S  S586  1  0.798580  0.294200  0.497200  1.0  1.2578
  S  S587  1  0.201420  0.205800  0.497200  1.0  1.2576
  S  S588  1  0.701420  0.705800  0.997200  1.0  1.2576
  S  S589  1  0.955800  0.548580  0.747200  1.0  1.2589
  S  S590  1  0.455800  0.048580  0.247200  1.0  1.2589
  S  S591  1  0.544200  0.451420  0.247200  1.0  1.2576
  S  S592  1  0.044200  0.951420  0.747200  1.0  1.2576
  S  S593  1  0.201420  0.794200  0.002800  1.0  1.2576
  S  S594  1  0.701420  0.294200  0.502800  1.0  1.2576
  S  S595  1  0.298580  0.205800  0.502800  1.0  1.2577
  S  S596  1  0.798580  0.705800  0.002800  1.0  1.2577
  S  S597  1  0.544200  0.548580  0.252800  1.0  1.2594
  S  S598  1  0.044200  0.048580  0.752800  1.0  1.2594
  S  S599  1  0.955800  0.451420  0.752800  1.0  1.2587
  S  S600  1  0.455800  0.951420  0.252800  1.0  1.2587
  N  N601  1  0.537400  0.272500  0.121000  1.0  -0.3983
  N  N602  1  0.037400  0.772500  0.621000  1.0  -0.3983
  N  N603  1  0.962600  0.727500  0.621000  1.0  -0.399
  N  N604  1  0.462600  0.227500  0.121000  1.0  -0.399
  N  N605  1  0.977500  0.287400  0.371000  1.0  -0.3957
  N  N606  1  0.477500  0.787400  0.871000  1.0  -0.3957
  N  N607  1  0.522500  0.712600  0.871000  1.0  -0.3971
  N  N608  1  0.022500  0.212600  0.371000  1.0  -0.3971
  N  N609  1  0.962600  0.272500  0.879000  1.0  -0.3986
  N  N610  1  0.462600  0.772500  0.379000  1.0  -0.3986
  N  N611  1  0.537400  0.727500  0.379000  1.0  -0.398
  N  N612  1  0.037400  0.227500  0.879000  1.0  -0.398
  N  N613  1  0.522500  0.287400  0.629000  1.0  -0.3963
  N  N614  1  0.022500  0.787400  0.129000  1.0  -0.3963
  N  N615  1  0.977500  0.712600  0.129000  1.0  -0.3966
  N  N616  1  0.477500  0.212600  0.629000  1.0  -0.3966
  N  N617  1  0.462600  0.727500  0.879000  1.0  -0.3992
  N  N618  1  0.962600  0.227500  0.379000  1.0  -0.3992
  N  N619  1  0.037400  0.272500  0.379000  1.0  -0.3982
  N  N620  1  0.537400  0.772500  0.879000  1.0  -0.3982
  N  N621  1  0.022500  0.712600  0.629000  1.0  -0.3971
  N  N622  1  0.522500  0.212600  0.129000  1.0  -0.3971
  N  N623  1  0.477500  0.287400  0.129000  1.0  -0.3956
  N  N624  1  0.977500  0.787400  0.629000  1.0  -0.3956
  N  N625  1  0.037400  0.727500  0.121000  1.0  -0.3982
  N  N626  1  0.537400  0.227500  0.621000  1.0  -0.3982
  N  N627  1  0.462600  0.272500  0.621000  1.0  -0.3984
  N  N628  1  0.962600  0.772500  0.121000  1.0  -0.3984
  N  N629  1  0.477500  0.712600  0.371000  1.0  -0.3966
  N  N630  1  0.977500  0.212600  0.871000  1.0  -0.3966
  N  N631  1  0.022500  0.287400  0.871000  1.0  -0.3963
  N  N632  1  0.522500  0.787400  0.371000  1.0  -0.3963
  O  O633  1  0.712400  0.197700  0.157000  1.0  -0.6431
  O  O634  1  0.713400  0.232500  0.981000  1.0  -0.7429
  O  O635  1  0.704000  0.185700  0.891000  1.0  -0.4896
  O  O636  1  0.212400  0.697700  0.657000  1.0  -0.6431
  O  O637  1  0.213400  0.732500  0.481000  1.0  -0.7429
  O  O638  1  0.204000  0.685700  0.391000  1.0  -0.4926
  O  O639  1  0.787600  0.802300  0.657000  1.0  -0.6438
  O  O640  1  0.786600  0.767500  0.481000  1.0  -0.7413
  O  O641  1  0.796000  0.814300  0.391000  1.0  -0.4925
  O  O642  1  0.287600  0.302300  0.157000  1.0  -0.6438
  O  O643  1  0.286600  0.267500  0.981000  1.0  -0.7413
  O  O644  1  0.296000  0.314300  0.891000  1.0  -0.4954
  O  O645  1  0.052300  0.462400  0.407000  1.0  -0.6432
  O  O646  1  0.017500  0.463400  0.231000  1.0  -0.7475
  O  O647  1  0.064300  0.454000  0.141000  1.0  -0.4905
  O  O648  1  0.552300  0.962400  0.907000  1.0  -0.6432
  O  O649  1  0.517500  0.963400  0.731000  1.0  -0.7475
  O  O650  1  0.564300  0.954000  0.641000  1.0  -0.4922
  O  O651  1  0.447700  0.537600  0.907000  1.0  -0.6427
  O  O652  1  0.482500  0.536600  0.731000  1.0  -0.7424
  O  O653  1  0.435700  0.546000  0.641000  1.0  -0.4928
  O  O654  1  0.947700  0.037600  0.407000  1.0  -0.6427
  O  O655  1  0.982500  0.036600  0.231000  1.0  -0.7424
  O  O656  1  0.935700  0.046000  0.141000  1.0  -0.4948
  O  O657  1  0.787600  0.197700  0.843000  1.0  -0.646
  O  O658  1  0.786600  0.232500  0.019000  1.0  -0.7458
  O  O659  1  0.796000  0.185700  0.109000  1.0  -0.4891
  O  O660  1  0.287600  0.697700  0.343000  1.0  -0.646
  O  O661  1  0.286600  0.732500  0.519000  1.0  -0.7458
  O  O662  1  0.296000  0.685700  0.609000  1.0  -0.492
  O  O663  1  0.712400  0.802300  0.343000  1.0  -0.6452
  O  O664  1  0.713400  0.767500  0.519000  1.0  -0.7427
  O  O665  1  0.704000  0.814300  0.609000  1.0  -0.4865
  O  O666  1  0.212400  0.302300  0.843000  1.0  -0.6452
  O  O667  1  0.213400  0.267500  0.019000  1.0  -0.7427
  O  O668  1  0.204000  0.314300  0.109000  1.0  -0.4895
  O  O669  1  0.447700  0.462400  0.593000  1.0  -0.646
  O  O670  1  0.482500  0.463400  0.769000  1.0  -0.7444
  O  O671  1  0.435700  0.454000  0.859000  1.0  -0.4882
  O  O672  1  0.947700  0.962400  0.093000  1.0  -0.646
  O  O673  1  0.982500  0.963400  0.269000  1.0  -0.7444
  O  O674  1  0.935700  0.954000  0.359000  1.0  -0.4896
  O  O675  1  0.052300  0.537600  0.093000  1.0  -0.6456
  O  O676  1  0.017500  0.536600  0.269000  1.0  -0.747
  O  O677  1  0.064300  0.546000  0.359000  1.0  -0.4925
  O  O678  1  0.552300  0.037600  0.593000  1.0  -0.6456
  O  O679  1  0.517500  0.036600  0.769000  1.0  -0.747
  O  O680  1  0.564300  0.046000  0.859000  1.0  -0.4932
  O  O681  1  0.287600  0.802300  0.843000  1.0  -0.6465
  O  O682  1  0.286600  0.767500  0.019000  1.0  -0.7416
  O  O683  1  0.296000  0.814300  0.109000  1.0  -0.4878
  O  O684  1  0.787600  0.302300  0.343000  1.0  -0.6465
  O  O685  1  0.786600  0.267500  0.519000  1.0  -0.7416
  O  O686  1  0.796000  0.314300  0.609000  1.0  -0.4909
  O  O687  1  0.212400  0.197700  0.343000  1.0  -0.6451
  O  O688  1  0.213400  0.232500  0.519000  1.0  -0.7441
  O  O689  1  0.204000  0.185700  0.609000  1.0  -0.489
  O  O690  1  0.712400  0.697700  0.843000  1.0  -0.6451
  O  O691  1  0.713400  0.732500  0.019000  1.0  -0.7441
  O  O692  1  0.704000  0.685700  0.109000  1.0  -0.492
  O  O693  1  0.947700  0.537600  0.593000  1.0  -0.6458
  O  O694  1  0.982500  0.536600  0.769000  1.0  -0.7432
  O  O695  1  0.935700  0.546000  0.859000  1.0  -0.4882
  O  O696  1  0.447700  0.037600  0.093000  1.0  -0.6458
  O  O697  1  0.482500  0.036600  0.269000  1.0  -0.7432
  O  O698  1  0.435700  0.046000  0.359000  1.0  -0.4898
  O  O699  1  0.552300  0.462400  0.093000  1.0  -0.6449
  O  O700  1  0.517500  0.463400  0.269000  1.0  -0.7475
  O  O701  1  0.564300  0.454000  0.359000  1.0  -0.4934
  O  O702  1  0.052300  0.962400  0.593000  1.0  -0.6449
  O  O703  1  0.017500  0.963400  0.769000  1.0  -0.7475
  O  O704  1  0.064300  0.954000  0.859000  1.0  -0.4941
  O  O705  1  0.212400  0.802300  0.157000  1.0  -0.6421
  O  O706  1  0.213400  0.767500  0.981000  1.0  -0.7419
  O  O707  1  0.204000  0.814300  0.891000  1.0  -0.4907
  O  O708  1  0.712400  0.302300  0.657000  1.0  -0.6421
  O  O709  1  0.713400  0.267500  0.481000  1.0  -0.7419
  O  O710  1  0.704000  0.314300  0.391000  1.0  -0.4935
  O  O711  1  0.287600  0.197700  0.657000  1.0  -0.645
  O  O712  1  0.286600  0.232500  0.481000  1.0  -0.745
  O  O713  1  0.296000  0.185700  0.391000  1.0  -0.4901
  O  O714  1  0.787600  0.697700  0.157000  1.0  -0.645
  O  O715  1  0.786600  0.732500  0.981000  1.0  -0.745
  O  O716  1  0.796000  0.685700  0.891000  1.0  -0.4934
  O  O717  1  0.552300  0.537600  0.407000  1.0  -0.6429
  O  O718  1  0.517500  0.536600  0.231000  1.0  -0.7467
  O  O719  1  0.564300  0.546000  0.141000  1.0  -0.4911
  O  O720  1  0.052300  0.037600  0.907000  1.0  -0.6429
  O  O721  1  0.017500  0.036600  0.731000  1.0  -0.7467
  O  O722  1  0.064300  0.046000  0.641000  1.0  -0.4928
  O  O723  1  0.947700  0.462400  0.907000  1.0  -0.643
  O  O724  1  0.982500  0.463400  0.731000  1.0  -0.7437
  O  O725  1  0.935700  0.454000  0.641000  1.0  -0.4919
  O  O726  1  0.447700  0.962400  0.407000  1.0  -0.643
  O  O727  1  0.482500  0.963400  0.231000  1.0  -0.7437
  O  O728  1  0.435700  0.954000  0.141000  1.0  -0.4939
