# generated using pymatgen
data_CuH28C28(N2O)4
_symmetry_space_group_name_H-M   'P 1'
_cell_length_a   28.90580000
_cell_length_b   28.90580000
_cell_length_c   28.90580000
_cell_angle_alpha   90.00000000
_cell_angle_beta   90.00000000
_cell_angle_gamma   90.00000000
_symmetry_Int_Tables_number   1
_chemical_formula_structural   CuH28C28(N2O)4
_chemical_formula_sum   'Cu12 H336 C336 N96 O48'
_cell_volume   24152.10457078
_cell_formula_units_Z   12
loop_
 _symmetry_equiv_pos_site_id
 _symmetry_equiv_pos_as_xyz
  1  'x, y, z'
loop_
 _atom_site_type_symbol
 _atom_site_label
 _atom_site_symmetry_multiplicity
 _atom_site_fract_x
 _atom_site_fract_y
 _atom_site_fract_z
 _atom_site_occupancy
 _atom_site_charge
  Cu  Cu1  1  0.500000  0.805440  0.500000  1.0  0.2879
  Cu  Cu2  1  0.000000  0.305440  0.000000  1.0  0.2879
  Cu  Cu3  1  0.500000  0.194560  0.500000  1.0  0.2867
  Cu  Cu4  1  0.000000  0.694560  0.000000  1.0  0.2867
  Cu  Cu5  1  0.500000  0.500000  0.805440  1.0  0.2876
  Cu  Cu6  1  0.000000  0.000000  0.305440  1.0  0.2876
  Cu  Cu7  1  0.500000  0.500000  0.194560  1.0  0.2872
  Cu  Cu8  1  0.000000  0.000000  0.694560  1.0  0.2872
  Cu  Cu9  1  0.805440  0.500000  0.500000  1.0  0.2861
  Cu  Cu10  1  0.305440  0.000000  0.000000  1.0  0.2861
  Cu  Cu11  1  0.194560  0.500000  0.500000  1.0  0.2876
  Cu  Cu12  1  0.694560  0.000000  0.000000  1.0  0.2876
  H  H13  1  0.278100  0.852700  0.550400  1.0  0.2353
  H  H14  1  0.421500  0.752500  0.456200  1.0  0.0805
  H  H15  1  0.341800  0.752900  0.455000  1.0  0.0945
  H  H16  1  0.301900  0.809800  0.491700  1.0  0.1036
  H  H17  1  0.421700  0.863000  0.534200  1.0  0.0713
  H  H18  1  0.285300  0.904000  0.621300  1.0  0.0634
  H  H19  1  0.285400  0.941200  0.581800  1.0  0.0555
  H  H20  1  0.778100  0.352700  0.050400  1.0  0.2353
  H  H21  1  0.921500  0.252500  0.956200  1.0  0.0805
  H  H22  1  0.841800  0.252900  0.955000  1.0  0.0945
  H  H23  1  0.801900  0.309800  0.991700  1.0  0.1036
  H  H24  1  0.921700  0.363000  0.034200  1.0  0.0713
  H  H25  1  0.785300  0.404000  0.121300  1.0  0.0634
  H  H26  1  0.785400  0.441200  0.081800  1.0  0.0555
  H  H27  1  0.721900  0.147300  0.550400  1.0  0.2354
  H  H28  1  0.578500  0.247500  0.456200  1.0  0.0811
  H  H29  1  0.658200  0.247100  0.455000  1.0  0.0959
  H  H30  1  0.698100  0.190200  0.491700  1.0  0.1029
  H  H31  1  0.578300  0.137000  0.534200  1.0  0.0711
  H  H32  1  0.714700  0.096000  0.621300  1.0  0.0649
  H  H33  1  0.714600  0.058800  0.581800  1.0  0.0551
  H  H34  1  0.221900  0.647300  0.050400  1.0  0.2354
  H  H35  1  0.078500  0.747500  0.956200  1.0  0.0811
  H  H36  1  0.158200  0.747100  0.955000  1.0  0.0959
  H  H37  1  0.198100  0.690200  0.991700  1.0  0.1029
  H  H38  1  0.078300  0.637000  0.034200  1.0  0.0711
  H  H39  1  0.214700  0.596000  0.121300  1.0  0.0649
  H  H40  1  0.214600  0.558800  0.081800  1.0  0.0551
  H  H41  1  0.721900  0.852700  0.449600  1.0  0.2353
  H  H42  1  0.578500  0.752500  0.543800  1.0  0.0806
  H  H43  1  0.658200  0.752900  0.545000  1.0  0.0948
  H  H44  1  0.698100  0.809800  0.508300  1.0  0.1029
  H  H45  1  0.578300  0.863000  0.465800  1.0  0.0718
  H  H46  1  0.714700  0.904000  0.378700  1.0  0.0622
  H  H47  1  0.714600  0.941200  0.418200  1.0  0.0555
  H  H48  1  0.221900  0.352700  0.949600  1.0  0.2353
  H  H49  1  0.078500  0.252500  0.043800  1.0  0.0806
  H  H50  1  0.158200  0.252900  0.045000  1.0  0.0948
  H  H51  1  0.198100  0.309800  0.008300  1.0  0.1029
  H  H52  1  0.078300  0.363000  0.965800  1.0  0.0718
  H  H53  1  0.214700  0.404000  0.878700  1.0  0.0622
  H  H54  1  0.214600  0.441200  0.918200  1.0  0.0555
  H  H55  1  0.278100  0.147300  0.449600  1.0  0.2362
  H  H56  1  0.421500  0.247500  0.543800  1.0  0.0801
  H  H57  1  0.341800  0.247100  0.545000  1.0  0.0952
  H  H58  1  0.301900  0.190200  0.508300  1.0  0.1032
  H  H59  1  0.421700  0.137000  0.465800  1.0  0.0718
  H  H60  1  0.285300  0.096000  0.378700  1.0  0.0626
  H  H61  1  0.285400  0.058800  0.418200  1.0  0.0559
  H  H62  1  0.778100  0.647300  0.949600  1.0  0.2362
  H  H63  1  0.921500  0.747500  0.043800  1.0  0.0801
  H  H64  1  0.841800  0.747100  0.045000  1.0  0.0952
  H  H65  1  0.801900  0.690200  0.008300  1.0  0.1032
  H  H66  1  0.921700  0.637000  0.965800  1.0  0.0718
  H  H67  1  0.785300  0.596000  0.878700  1.0  0.0626
  H  H68  1  0.785400  0.558800  0.918200  1.0  0.0559
  H  H69  1  0.550400  0.278100  0.852700  1.0  0.2357
  H  H70  1  0.456200  0.421500  0.752500  1.0  0.0815
  H  H71  1  0.455000  0.341800  0.752900  1.0  0.094
  H  H72  1  0.491700  0.301900  0.809800  1.0  0.1033
  H  H73  1  0.534200  0.421700  0.863000  1.0  0.0735
  H  H74  1  0.621300  0.285300  0.904000  1.0  0.0612
  H  H75  1  0.581800  0.285400  0.941200  1.0  0.0592
  H  H76  1  0.050400  0.778100  0.352700  1.0  0.2357
  H  H77  1  0.956200  0.921500  0.252500  1.0  0.0815
  H  H78  1  0.955000  0.841800  0.252900  1.0  0.094
  H  H79  1  0.991700  0.801900  0.309800  1.0  0.1033
  H  H80  1  0.034200  0.921700  0.363000  1.0  0.0735
  H  H81  1  0.121300  0.785300  0.404000  1.0  0.0612
  H  H82  1  0.081800  0.785400  0.441200  1.0  0.0592
  H  H83  1  0.550400  0.721900  0.147300  1.0  0.2352
  H  H84  1  0.456200  0.578500  0.247500  1.0  0.0814
  H  H85  1  0.455000  0.658200  0.247100  1.0  0.0945
  H  H86  1  0.491700  0.698100  0.190200  1.0  0.1029
  H  H87  1  0.534200  0.578300  0.137000  1.0  0.0741
  H  H88  1  0.621300  0.714700  0.096000  1.0  0.0592
  H  H89  1  0.581800  0.714600  0.058800  1.0  0.057
  H  H90  1  0.050400  0.221900  0.647300  1.0  0.2352
  H  H91  1  0.956200  0.078500  0.747500  1.0  0.0814
  H  H92  1  0.955000  0.158200  0.747100  1.0  0.0945
  H  H93  1  0.991700  0.198100  0.690200  1.0  0.1029
  H  H94  1  0.034200  0.078300  0.637000  1.0  0.0741
  H  H95  1  0.121300  0.214700  0.596000  1.0  0.0592
  H  H96  1  0.081800  0.214600  0.558800  1.0  0.057
  H  H97  1  0.449600  0.721900  0.852700  1.0  0.2349
  H  H98  1  0.543800  0.578500  0.752500  1.0  0.0809
  H  H99  1  0.545000  0.658200  0.752900  1.0  0.0949
  H  H100  1  0.508300  0.698100  0.809800  1.0  0.1028
  H  H101  1  0.465800  0.578300  0.863000  1.0  0.0735
  H  H102  1  0.378700  0.714700  0.904000  1.0  0.0596
  H  H103  1  0.418200  0.714600  0.941200  1.0  0.0578
  H  H104  1  0.949600  0.221900  0.352700  1.0  0.2349
  H  H105  1  0.043800  0.078500  0.252500  1.0  0.0809
  H  H106  1  0.045000  0.158200  0.252900  1.0  0.0949
  H  H107  1  0.008300  0.198100  0.309800  1.0  0.1028
  H  H108  1  0.965800  0.078300  0.363000  1.0  0.0735
  H  H109  1  0.878700  0.214700  0.404000  1.0  0.0596
  H  H110  1  0.918200  0.214600  0.441200  1.0  0.0578
  H  H111  1  0.449600  0.278100  0.147300  1.0  0.2354
  H  H112  1  0.543800  0.421500  0.247500  1.0  0.0809
  H  H113  1  0.545000  0.341800  0.247100  1.0  0.0944
  H  H114  1  0.508300  0.301900  0.190200  1.0  0.1038
  H  H115  1  0.465800  0.421700  0.137000  1.0  0.0741
  H  H116  1  0.378700  0.285300  0.096000  1.0  0.0597
  H  H117  1  0.418200  0.285400  0.058800  1.0  0.0573
  H  H118  1  0.949600  0.778100  0.647300  1.0  0.2354
  H  H119  1  0.043800  0.921500  0.747500  1.0  0.0809
  H  H120  1  0.045000  0.841800  0.747100  1.0  0.0944
  H  H121  1  0.008300  0.801900  0.690200  1.0  0.1038
  H  H122  1  0.965800  0.921700  0.637000  1.0  0.0741
  H  H123  1  0.878700  0.785300  0.596000  1.0  0.0597
  H  H124  1  0.918200  0.785400  0.558800  1.0  0.0573
  H  H125  1  0.852700  0.550400  0.278100  1.0  0.237
  H  H126  1  0.752500  0.456200  0.421500  1.0  0.0806
  H  H127  1  0.752900  0.455000  0.341800  1.0  0.0949
  H  H128  1  0.809800  0.491700  0.301900  1.0  0.1032
  H  H129  1  0.863000  0.534200  0.421700  1.0  0.0719
  H  H130  1  0.904000  0.621300  0.285300  1.0  0.0594
  H  H131  1  0.941200  0.581800  0.285400  1.0  0.0544
  H  H132  1  0.352700  0.050400  0.778100  1.0  0.237
  H  H133  1  0.252500  0.956200  0.921500  1.0  0.0806
  H  H134  1  0.252900  0.955000  0.841800  1.0  0.0949
  H  H135  1  0.309800  0.991700  0.801900  1.0  0.1032
  H  H136  1  0.363000  0.034200  0.921700  1.0  0.0719
  H  H137  1  0.404000  0.121300  0.785300  1.0  0.0594
  H  H138  1  0.441200  0.081800  0.785400  1.0  0.0544
  H  H139  1  0.147300  0.550400  0.721900  1.0  0.2349
  H  H140  1  0.247500  0.456200  0.578500  1.0  0.0797
  H  H141  1  0.247100  0.455000  0.658200  1.0  0.0948
  H  H142  1  0.190200  0.491700  0.698100  1.0  0.103
  H  H143  1  0.137000  0.534200  0.578300  1.0  0.0724
  H  H144  1  0.096000  0.621300  0.714700  1.0  0.058
  H  H145  1  0.058800  0.581800  0.714600  1.0  0.054
  H  H146  1  0.647300  0.050400  0.221900  1.0  0.2349
  H  H147  1  0.747500  0.956200  0.078500  1.0  0.0797
  H  H148  1  0.747100  0.955000  0.158200  1.0  0.0948
  H  H149  1  0.690200  0.991700  0.198100  1.0  0.103
  H  H150  1  0.637000  0.034200  0.078300  1.0  0.0724
  H  H151  1  0.596000  0.121300  0.214700  1.0  0.058
  H  H152  1  0.558800  0.081800  0.214600  1.0  0.054
  H  H153  1  0.852700  0.449600  0.721900  1.0  0.2374
  H  H154  1  0.752500  0.543800  0.578500  1.0  0.081
  H  H155  1  0.752900  0.545000  0.658200  1.0  0.0949
  H  H156  1  0.809800  0.508300  0.698100  1.0  0.1035
  H  H157  1  0.863000  0.465800  0.578300  1.0  0.072
  H  H158  1  0.904000  0.378700  0.714700  1.0  0.0574
  H  H159  1  0.941200  0.418200  0.714600  1.0  0.0561
  H  H160  1  0.352700  0.949600  0.221900  1.0  0.2374
  H  H161  1  0.252500  0.043800  0.078500  1.0  0.081
  H  H162  1  0.252900  0.045000  0.158200  1.0  0.0949
  H  H163  1  0.309800  0.008300  0.198100  1.0  0.1035
  H  H164  1  0.363000  0.965800  0.078300  1.0  0.072
  H  H165  1  0.404000  0.878700  0.214700  1.0  0.0574
  H  H166  1  0.441200  0.918200  0.214600  1.0  0.0561
  H  H167  1  0.147300  0.449600  0.278100  1.0  0.2348
  H  H168  1  0.247500  0.543800  0.421500  1.0  0.0799
  H  H169  1  0.247100  0.545000  0.341800  1.0  0.0955
  H  H170  1  0.190200  0.508300  0.301900  1.0  0.1033
  H  H171  1  0.137000  0.465800  0.421700  1.0  0.0718
  H  H172  1  0.096000  0.378700  0.285300  1.0  0.0592
  H  H173  1  0.058800  0.418200  0.285400  1.0  0.0543
  H  H174  1  0.647300  0.949600  0.778100  1.0  0.2348
  H  H175  1  0.747500  0.043800  0.921500  1.0  0.0799
  H  H176  1  0.747100  0.045000  0.841800  1.0  0.0955
  H  H177  1  0.690200  0.008300  0.801900  1.0  0.1033
  H  H178  1  0.637000  0.965800  0.921700  1.0  0.0718
  H  H179  1  0.596000  0.878700  0.785300  1.0  0.0592
  H  H180  1  0.558800  0.918200  0.785400  1.0  0.0543
  H  H181  1  0.852700  0.278100  0.449600  1.0  0.2376
  H  H182  1  0.752500  0.421500  0.543800  1.0  0.0809
  H  H183  1  0.752900  0.341800  0.545000  1.0  0.095
  H  H184  1  0.809800  0.301900  0.508300  1.0  0.1035
  H  H185  1  0.863000  0.421700  0.465800  1.0  0.0723
  H  H186  1  0.904000  0.285300  0.378700  1.0  0.061
  H  H187  1  0.941200  0.285400  0.418200  1.0  0.057
  H  H188  1  0.352700  0.778100  0.949600  1.0  0.2376
  H  H189  1  0.252500  0.921500  0.043800  1.0  0.0809
  H  H190  1  0.252900  0.841800  0.045000  1.0  0.095
  H  H191  1  0.309800  0.801900  0.008300  1.0  0.1035
  H  H192  1  0.363000  0.921700  0.965800  1.0  0.0723
  H  H193  1  0.404000  0.785300  0.878700  1.0  0.061
  H  H194  1  0.441200  0.785400  0.918200  1.0  0.057
  H  H195  1  0.147300  0.721900  0.449600  1.0  0.2342
  H  H196  1  0.247500  0.578500  0.543800  1.0  0.0794
  H  H197  1  0.247100  0.658200  0.545000  1.0  0.0947
  H  H198  1  0.190200  0.698100  0.508300  1.0  0.1026
  H  H199  1  0.137000  0.578300  0.465800  1.0  0.072
  H  H200  1  0.096000  0.714700  0.378700  1.0  0.0603
  H  H201  1  0.058800  0.714600  0.418200  1.0  0.0541
  H  H202  1  0.647300  0.221900  0.949600  1.0  0.2342
  H  H203  1  0.747500  0.078500  0.043800  1.0  0.0794
  H  H204  1  0.747100  0.158200  0.045000  1.0  0.0947
  H  H205  1  0.690200  0.198100  0.008300  1.0  0.1026
  H  H206  1  0.637000  0.078300  0.965800  1.0  0.072
  H  H207  1  0.596000  0.214700  0.878700  1.0  0.0603
  H  H208  1  0.558800  0.214600  0.918200  1.0  0.0541
  H  H209  1  0.852700  0.721900  0.550400  1.0  0.2373
  H  H210  1  0.752500  0.578500  0.456200  1.0  0.0808
  H  H211  1  0.752900  0.658200  0.455000  1.0  0.0952
  H  H212  1  0.809800  0.698100  0.491700  1.0  0.1032
  H  H213  1  0.863000  0.578300  0.534200  1.0  0.0716
  H  H214  1  0.904000  0.714700  0.621300  1.0  0.0617
  H  H215  1  0.941200  0.714600  0.581800  1.0  0.0547
  H  H216  1  0.352700  0.221900  0.050400  1.0  0.2373
  H  H217  1  0.252500  0.078500  0.956200  1.0  0.0808
  H  H218  1  0.252900  0.158200  0.955000  1.0  0.0952
  H  H219  1  0.309800  0.198100  0.991700  1.0  0.1032
  H  H220  1  0.363000  0.078300  0.034200  1.0  0.0716
  H  H221  1  0.404000  0.214700  0.121300  1.0  0.0617
  H  H222  1  0.441200  0.214600  0.081800  1.0  0.0547
  H  H223  1  0.147300  0.278100  0.550400  1.0  0.2345
  H  H224  1  0.247500  0.421500  0.456200  1.0  0.0798
  H  H225  1  0.247100  0.341800  0.455000  1.0  0.0954
  H  H226  1  0.190200  0.301900  0.491700  1.0  0.1036
  H  H227  1  0.137000  0.421700  0.534200  1.0  0.0719
  H  H228  1  0.096000  0.285300  0.621300  1.0  0.0626
  H  H229  1  0.058800  0.285400  0.581800  1.0  0.055
  H  H230  1  0.647300  0.778100  0.050400  1.0  0.2345
  H  H231  1  0.747500  0.921500  0.956200  1.0  0.0798
  H  H232  1  0.747100  0.841800  0.955000  1.0  0.0954
  H  H233  1  0.690200  0.801900  0.991700  1.0  0.1036
  H  H234  1  0.637000  0.921700  0.034200  1.0  0.0719
  H  H235  1  0.596000  0.785300  0.121300  1.0  0.0626
  H  H236  1  0.558800  0.785400  0.081800  1.0  0.055
  H  H237  1  0.278100  0.550400  0.147300  1.0  0.2363
  H  H238  1  0.421500  0.456200  0.247500  1.0  0.0811
  H  H239  1  0.341800  0.455000  0.247100  1.0  0.0949
  H  H240  1  0.301900  0.491700  0.190200  1.0  0.1037
  H  H241  1  0.421700  0.534200  0.137000  1.0  0.0737
  H  H242  1  0.285300  0.621300  0.096000  1.0  0.0585
  H  H243  1  0.285400  0.581800  0.058800  1.0  0.0575
  H  H244  1  0.778100  0.050400  0.647300  1.0  0.2363
  H  H245  1  0.921500  0.956200  0.747500  1.0  0.0811
  H  H246  1  0.841800  0.955000  0.747100  1.0  0.0949
  H  H247  1  0.801900  0.991700  0.690200  1.0  0.1037
  H  H248  1  0.921700  0.034200  0.637000  1.0  0.0737
  H  H249  1  0.785300  0.121300  0.596000  1.0  0.0585
  H  H250  1  0.785400  0.081800  0.558800  1.0  0.0575
  H  H251  1  0.721900  0.550400  0.852700  1.0  0.2354
  H  H252  1  0.578500  0.456200  0.752500  1.0  0.0806
  H  H253  1  0.658200  0.455000  0.752900  1.0  0.0946
  H  H254  1  0.698100  0.491700  0.809800  1.0  0.1024
  H  H255  1  0.578300  0.534200  0.863000  1.0  0.0729
  H  H256  1  0.714700  0.621300  0.904000  1.0  0.0592
  H  H257  1  0.714600  0.581800  0.941200  1.0  0.0593
  H  H258  1  0.221900  0.050400  0.352700  1.0  0.2354
  H  H259  1  0.078500  0.956200  0.252500  1.0  0.0806
  H  H260  1  0.158200  0.955000  0.252900  1.0  0.0946
  H  H261  1  0.198100  0.991700  0.309800  1.0  0.1024
  H  H262  1  0.078300  0.034200  0.363000  1.0  0.0729
  H  H263  1  0.214700  0.121300  0.404000  1.0  0.0592
  H  H264  1  0.214600  0.081800  0.441200  1.0  0.0593
  H  H265  1  0.721900  0.449600  0.147300  1.0  0.2355
  H  H266  1  0.578500  0.543800  0.247500  1.0  0.0807
  H  H267  1  0.658200  0.545000  0.247100  1.0  0.0945
  H  H268  1  0.698100  0.508300  0.190200  1.0  0.1032
  H  H269  1  0.578300  0.465800  0.137000  1.0  0.0729
  H  H270  1  0.714700  0.378700  0.096000  1.0  0.0593
  H  H271  1  0.714600  0.418200  0.058800  1.0  0.0577
  H  H272  1  0.221900  0.949600  0.647300  1.0  0.2355
  H  H273  1  0.078500  0.043800  0.747500  1.0  0.0807
  H  H274  1  0.158200  0.045000  0.747100  1.0  0.0945
  H  H275  1  0.198100  0.008300  0.690200  1.0  0.1032
  H  H276  1  0.078300  0.965800  0.637000  1.0  0.0729
  H  H277  1  0.214700  0.878700  0.596000  1.0  0.0593
  H  H278  1  0.214600  0.918200  0.558800  1.0  0.0577
  H  H279  1  0.278100  0.449600  0.852700  1.0  0.2364
  H  H280  1  0.421500  0.543800  0.752500  1.0  0.081
  H  H281  1  0.341800  0.545000  0.752900  1.0  0.0947
  H  H282  1  0.301900  0.508300  0.809800  1.0  0.1035
  H  H283  1  0.421700  0.465800  0.863000  1.0  0.0731
  H  H284  1  0.285300  0.378700  0.904000  1.0  0.0595
  H  H285  1  0.285400  0.418200  0.941200  1.0  0.0585
  H  H286  1  0.778100  0.949600  0.352700  1.0  0.2364
  H  H287  1  0.921500  0.043800  0.252500  1.0  0.081
  H  H288  1  0.841800  0.045000  0.252900  1.0  0.0947
  H  H289  1  0.801900  0.008300  0.309800  1.0  0.1035
  H  H290  1  0.921700  0.965800  0.363000  1.0  0.0731
  H  H291  1  0.785300  0.878700  0.404000  1.0  0.0595
  H  H292  1  0.785400  0.918200  0.441200  1.0  0.0585
  H  H293  1  0.550400  0.852700  0.721900  1.0  0.2357
  H  H294  1  0.456200  0.752500  0.578500  1.0  0.0797
  H  H295  1  0.455000  0.752900  0.658200  1.0  0.0948
  H  H296  1  0.491700  0.809800  0.698100  1.0  0.1036
  H  H297  1  0.534200  0.863000  0.578300  1.0  0.0724
  H  H298  1  0.621300  0.904000  0.714700  1.0  0.0599
  H  H299  1  0.581800  0.941200  0.714600  1.0  0.0565
  H  H300  1  0.050400  0.352700  0.221900  1.0  0.2357
  H  H301  1  0.956200  0.252500  0.078500  1.0  0.0797
  H  H302  1  0.955000  0.252900  0.158200  1.0  0.0948
  H  H303  1  0.991700  0.309800  0.198100  1.0  0.1036
  H  H304  1  0.034200  0.363000  0.078300  1.0  0.0724
  H  H305  1  0.121300  0.404000  0.214700  1.0  0.0599
  H  H306  1  0.081800  0.441200  0.214600  1.0  0.0565
  H  H307  1  0.550400  0.147300  0.278100  1.0  0.2356
  H  H308  1  0.456200  0.247500  0.421500  1.0  0.0795
  H  H309  1  0.455000  0.247100  0.341800  1.0  0.0956
  H  H310  1  0.491700  0.190200  0.301900  1.0  0.1033
  H  H311  1  0.534200  0.137000  0.421700  1.0  0.0719
  H  H312  1  0.621300  0.096000  0.285300  1.0  0.0609
  H  H313  1  0.581800  0.058800  0.285400  1.0  0.0563
  H  H314  1  0.050400  0.647300  0.778100  1.0  0.2356
  H  H315  1  0.956200  0.747500  0.921500  1.0  0.0795
  H  H316  1  0.955000  0.747100  0.841800  1.0  0.0956
  H  H317  1  0.991700  0.690200  0.801900  1.0  0.1033
  H  H318  1  0.034200  0.637000  0.921700  1.0  0.0719
  H  H319  1  0.121300  0.596000  0.785300  1.0  0.0609
  H  H320  1  0.081800  0.558800  0.785400  1.0  0.0563
  H  H321  1  0.449600  0.852700  0.278100  1.0  0.2348
  H  H322  1  0.543800  0.752500  0.421500  1.0  0.0793
  H  H323  1  0.545000  0.752900  0.341800  1.0  0.0947
  H  H324  1  0.508300  0.809800  0.301900  1.0  0.1032
  H  H325  1  0.465800  0.863000  0.421700  1.0  0.0717
  H  H326  1  0.378700  0.904000  0.285300  1.0  0.0609
  H  H327  1  0.418200  0.941200  0.285400  1.0  0.0561
  H  H328  1  0.949600  0.352700  0.778100  1.0  0.2348
  H  H329  1  0.043800  0.252500  0.921500  1.0  0.0793
  H  H330  1  0.045000  0.252900  0.841800  1.0  0.0947
  H  H331  1  0.008300  0.309800  0.801900  1.0  0.1032
  H  H332  1  0.965800  0.363000  0.921700  1.0  0.0717
  H  H333  1  0.878700  0.404000  0.785300  1.0  0.0609
  H  H334  1  0.918200  0.441200  0.785400  1.0  0.0561
  H  H335  1  0.449600  0.147300  0.721900  1.0  0.2354
  H  H336  1  0.543800  0.247500  0.578500  1.0  0.0795
  H  H337  1  0.545000  0.247100  0.658200  1.0  0.0949
  H  H338  1  0.508300  0.190200  0.698100  1.0  0.1027
  H  H339  1  0.465800  0.137000  0.578300  1.0  0.0718
  H  H340  1  0.378700  0.096000  0.714700  1.0  0.0601
  H  H341  1  0.418200  0.058800  0.714600  1.0  0.0552
  H  H342  1  0.949600  0.647300  0.221900  1.0  0.2354
  H  H343  1  0.043800  0.747500  0.078500  1.0  0.0795
  H  H344  1  0.045000  0.747100  0.158200  1.0  0.0949
  H  H345  1  0.008300  0.690200  0.198100  1.0  0.1027
  H  H346  1  0.965800  0.637000  0.078300  1.0  0.0718
  H  H347  1  0.878700  0.596000  0.214700  1.0  0.0601
  H  H348  1  0.918200  0.558800  0.214600  1.0  0.0552
  C  C349  1  0.405600  0.775400  0.472300  1.0  0.1213
  C  C350  1  0.357600  0.775900  0.471000  1.0  -0.1153
  C  C351  1  0.334000  0.809200  0.492700  1.0  -0.1256
  C  C352  1  0.358500  0.842900  0.516800  1.0  -0.068
  C  C353  1  0.405500  0.840500  0.517800  1.0  0.1368
  C  C354  1  0.336900  0.883100  0.541100  1.0  0.4769
  C  C355  1  0.274600  0.910600  0.590200  1.0  0.0365
  C  C356  1  0.905600  0.275400  0.972300  1.0  0.1213
  C  C357  1  0.857600  0.275900  0.971000  1.0  -0.1153
  C  C358  1  0.834000  0.309200  0.992700  1.0  -0.1256
  C  C359  1  0.858500  0.342900  0.016800  1.0  -0.068
  C  C360  1  0.905500  0.340500  0.017800  1.0  0.1368
  C  C361  1  0.836900  0.383100  0.041100  1.0  0.4769
  C  C362  1  0.774600  0.410600  0.090200  1.0  0.0365
  C  C363  1  0.594400  0.224600  0.472300  1.0  0.1208
  C  C364  1  0.642400  0.224100  0.471000  1.0  -0.1155
  C  C365  1  0.666000  0.190800  0.492700  1.0  -0.122
  C  C366  1  0.641500  0.157100  0.516800  1.0  -0.0676
  C  C367  1  0.594500  0.159500  0.517800  1.0  0.1381
  C  C368  1  0.663100  0.116900  0.541100  1.0  0.4753
  C  C369  1  0.725400  0.089400  0.590200  1.0  0.0371
  C  C370  1  0.094400  0.724600  0.972300  1.0  0.1208
  C  C371  1  0.142400  0.724100  0.971000  1.0  -0.1155
  C  C372  1  0.166000  0.690800  0.992700  1.0  -0.122
  C  C373  1  0.141500  0.657100  0.016800  1.0  -0.0676
  C  C374  1  0.094500  0.659500  0.017800  1.0  0.1381
  C  C375  1  0.163100  0.616900  0.041100  1.0  0.4753
  C  C376  1  0.225400  0.589400  0.090200  1.0  0.0371
  C  C377  1  0.594400  0.775400  0.527700  1.0  0.1217
  C  C378  1  0.642400  0.775900  0.529000  1.0  -0.1168
  C  C379  1  0.666000  0.809200  0.507300  1.0  -0.1218
  C  C380  1  0.641500  0.842900  0.483200  1.0  -0.0686
  C  C381  1  0.594500  0.840500  0.482200  1.0  0.1375
  C  C382  1  0.663100  0.883100  0.458900  1.0  0.4755
  C  C383  1  0.725400  0.910600  0.409800  1.0  0.0375
  C  C384  1  0.094400  0.275400  0.027700  1.0  0.1217
  C  C385  1  0.142400  0.275900  0.029000  1.0  -0.1168
  C  C386  1  0.166000  0.309200  0.007300  1.0  -0.1218
  C  C387  1  0.141500  0.342900  0.983200  1.0  -0.0686
  C  C388  1  0.094500  0.340500  0.982200  1.0  0.1375
  C  C389  1  0.163100  0.383100  0.958900  1.0  0.4755
  C  C390  1  0.225400  0.410600  0.909800  1.0  0.0375
  C  C391  1  0.405600  0.224600  0.527700  1.0  0.1207
  C  C392  1  0.357600  0.224100  0.529000  1.0  -0.1167
  C  C393  1  0.334000  0.190800  0.507300  1.0  -0.1255
  C  C394  1  0.358500  0.157100  0.483200  1.0  -0.0674
  C  C395  1  0.405500  0.159500  0.482200  1.0  0.1374
  C  C396  1  0.336900  0.116900  0.458900  1.0  0.4767
  C  C397  1  0.274600  0.089400  0.409800  1.0  0.0354
  C  C398  1  0.905600  0.724600  0.027700  1.0  0.1207
  C  C399  1  0.857600  0.724100  0.029000  1.0  -0.1167
  C  C400  1  0.834000  0.690800  0.007300  1.0  -0.1255
  C  C401  1  0.858500  0.657100  0.983200  1.0  -0.0674
  C  C402  1  0.905500  0.659500  0.982200  1.0  0.1374
  C  C403  1  0.836900  0.616900  0.958900  1.0  0.4767
  C  C404  1  0.774600  0.589400  0.909800  1.0  0.0354
  C  C405  1  0.472300  0.405600  0.775400  1.0  0.1201
  C  C406  1  0.471000  0.357600  0.775900  1.0  -0.1126
  C  C407  1  0.492700  0.334000  0.809200  1.0  -0.1237
  C  C408  1  0.516800  0.358500  0.842900  1.0  -0.0669
  C  C409  1  0.517800  0.405500  0.840500  1.0  0.1398
  C  C410  1  0.541100  0.336900  0.883100  1.0  0.4753
  C  C411  1  0.590200  0.274600  0.910600  1.0  0.0359
  C  C412  1  0.972300  0.905600  0.275400  1.0  0.1201
  C  C413  1  0.971000  0.857600  0.275900  1.0  -0.1126
  C  C414  1  0.992700  0.834000  0.309200  1.0  -0.1237
  C  C415  1  0.016800  0.858500  0.342900  1.0  -0.0669
  C  C416  1  0.017800  0.905500  0.340500  1.0  0.1398
  C  C417  1  0.041100  0.836900  0.383100  1.0  0.4753
  C  C418  1  0.090200  0.774600  0.410600  1.0  0.0359
  C  C419  1  0.472300  0.594400  0.224600  1.0  0.1174
  C  C420  1  0.471000  0.642400  0.224100  1.0  -0.1144
  C  C421  1  0.492700  0.666000  0.190800  1.0  -0.1213
  C  C422  1  0.516800  0.641500  0.157100  1.0  -0.0654
  C  C423  1  0.517800  0.594500  0.159500  1.0  0.1388
  C  C424  1  0.541100  0.663100  0.116900  1.0  0.4765
  C  C425  1  0.590200  0.725400  0.089400  1.0  0.0379
  C  C426  1  0.972300  0.094400  0.724600  1.0  0.1174
  C  C427  1  0.971000  0.142400  0.724100  1.0  -0.1144
  C  C428  1  0.992700  0.166000  0.690800  1.0  -0.1213
  C  C429  1  0.016800  0.141500  0.657100  1.0  -0.0654
  C  C430  1  0.017800  0.094500  0.659500  1.0  0.1388
  C  C431  1  0.041100  0.163100  0.616900  1.0  0.4765
  C  C432  1  0.090200  0.225400  0.589400  1.0  0.0379
  C  C433  1  0.527700  0.594400  0.775400  1.0  0.118
  C  C434  1  0.529000  0.642400  0.775900  1.0  -0.1131
  C  C435  1  0.507300  0.666000  0.809200  1.0  -0.1219
  C  C436  1  0.483200  0.641500  0.842900  1.0  -0.0669
  C  C437  1  0.482200  0.594500  0.840500  1.0  0.1395
  C  C438  1  0.458900  0.663100  0.883100  1.0  0.4769
  C  C439  1  0.409800  0.725400  0.910600  1.0  0.0378
  C  C440  1  0.027700  0.094400  0.275400  1.0  0.118
  C  C441  1  0.029000  0.142400  0.275900  1.0  -0.1131
  C  C442  1  0.007300  0.166000  0.309200  1.0  -0.1219
  C  C443  1  0.983200  0.141500  0.342900  1.0  -0.0669
  C  C444  1  0.982200  0.094500  0.340500  1.0  0.1395
  C  C445  1  0.958900  0.163100  0.383100  1.0  0.4769
  C  C446  1  0.909800  0.225400  0.410600  1.0  0.0378
  C  C447  1  0.527700  0.405600  0.224600  1.0  0.1174
  C  C448  1  0.529000  0.357600  0.224100  1.0  -0.1132
  C  C449  1  0.507300  0.334000  0.190800  1.0  -0.1233
  C  C450  1  0.483200  0.358500  0.157100  1.0  -0.0664
  C  C451  1  0.482200  0.405500  0.159500  1.0  0.1387
  C  C452  1  0.458900  0.336900  0.116900  1.0  0.4774
  C  C453  1  0.409800  0.274600  0.089400  1.0  0.0348
  C  C454  1  0.027700  0.905600  0.724600  1.0  0.1174
  C  C455  1  0.029000  0.857600  0.724100  1.0  -0.1132
  C  C456  1  0.007300  0.834000  0.690800  1.0  -0.1233
  C  C457  1  0.983200  0.858500  0.657100  1.0  -0.0664
  C  C458  1  0.982200  0.905500  0.659500  1.0  0.1387
  C  C459  1  0.958900  0.836900  0.616900  1.0  0.4774
  C  C460  1  0.909800  0.774600  0.589400  1.0  0.0348
  C  C461  1  0.775400  0.472300  0.405600  1.0  0.1243
  C  C462  1  0.775900  0.471000  0.357600  1.0  -0.1161
  C  C463  1  0.809200  0.492700  0.334000  1.0  -0.1248
  C  C464  1  0.842900  0.516800  0.358500  1.0  -0.0683
  C  C465  1  0.840500  0.517800  0.405500  1.0  0.14
  C  C466  1  0.883100  0.541100  0.336900  1.0  0.476
  C  C467  1  0.910600  0.590200  0.274600  1.0  0.0372
  C  C468  1  0.275400  0.972300  0.905600  1.0  0.1243
  C  C469  1  0.275900  0.971000  0.857600  1.0  -0.1161
  C  C470  1  0.309200  0.992700  0.834000  1.0  -0.1248
  C  C471  1  0.342900  0.016800  0.858500  1.0  -0.0683
  C  C472  1  0.340500  0.017800  0.905500  1.0  0.14
  C  C473  1  0.383100  0.041100  0.836900  1.0  0.476
  C  C474  1  0.410600  0.090200  0.774600  1.0  0.0372
  C  C475  1  0.224600  0.472300  0.594400  1.0  0.1223
  C  C476  1  0.224100  0.471000  0.642400  1.0  -0.1149
  C  C477  1  0.190800  0.492700  0.666000  1.0  -0.1254
  C  C478  1  0.157100  0.516800  0.641500  1.0  -0.0655
  C  C479  1  0.159500  0.517800  0.594500  1.0  0.1396
  C  C480  1  0.116900  0.541100  0.663100  1.0  0.4748
  C  C481  1  0.089400  0.590200  0.725400  1.0  0.0372
  C  C482  1  0.724600  0.972300  0.094400  1.0  0.1223
  C  C483  1  0.724100  0.971000  0.142400  1.0  -0.1149
  C  C484  1  0.690800  0.992700  0.166000  1.0  -0.1254
  C  C485  1  0.657100  0.016800  0.141500  1.0  -0.0655
  C  C486  1  0.659500  0.017800  0.094500  1.0  0.1396
  C  C487  1  0.616900  0.041100  0.163100  1.0  0.4748
  C  C488  1  0.589400  0.090200  0.225400  1.0  0.0372
  C  C489  1  0.775400  0.527700  0.594400  1.0  0.1219
  C  C490  1  0.775900  0.529000  0.642400  1.0  -0.1179
  C  C491  1  0.809200  0.507300  0.666000  1.0  -0.1254
  C  C492  1  0.842900  0.483200  0.641500  1.0  -0.0676
  C  C493  1  0.840500  0.482200  0.594500  1.0  0.139
  C  C494  1  0.883100  0.458900  0.663100  1.0  0.4765
  C  C495  1  0.910600  0.409800  0.725400  1.0  0.0372
  C  C496  1  0.275400  0.027700  0.094400  1.0  0.1219
  C  C497  1  0.275900  0.029000  0.142400  1.0  -0.1179
  C  C498  1  0.309200  0.007300  0.166000  1.0  -0.1254
  C  C499  1  0.342900  0.983200  0.141500  1.0  -0.0676
  C  C500  1  0.340500  0.982200  0.094500  1.0  0.139
  C  C501  1  0.383100  0.958900  0.163100  1.0  0.4765
  C  C502  1  0.410600  0.909800  0.225400  1.0  0.0372
  C  C503  1  0.224600  0.527700  0.405600  1.0  0.1242
  C  C504  1  0.224100  0.529000  0.357600  1.0  -0.1142
  C  C505  1  0.190800  0.507300  0.334000  1.0  -0.1262
  C  C506  1  0.157100  0.483200  0.358500  1.0  -0.0663
  C  C507  1  0.159500  0.482200  0.405500  1.0  0.139
  C  C508  1  0.116900  0.458900  0.336900  1.0  0.4739
  C  C509  1  0.089400  0.409800  0.274600  1.0  0.0358
  C  C510  1  0.724600  0.027700  0.905600  1.0  0.1242
  C  C511  1  0.724100  0.029000  0.857600  1.0  -0.1142
  C  C512  1  0.690800  0.007300  0.834000  1.0  -0.1262
  C  C513  1  0.657100  0.983200  0.858500  1.0  -0.0663
  C  C514  1  0.659500  0.982200  0.905500  1.0  0.139
  C  C515  1  0.616900  0.958900  0.836900  1.0  0.4739
  C  C516  1  0.589400  0.909800  0.774600  1.0  0.0358
  C  C517  1  0.775400  0.405600  0.527700  1.0  0.1211
  C  C518  1  0.775900  0.357600  0.529000  1.0  -0.1166
  C  C519  1  0.809200  0.334000  0.507300  1.0  -0.1242
  C  C520  1  0.842900  0.358500  0.483200  1.0  -0.0695
  C  C521  1  0.840500  0.405500  0.482200  1.0  0.1389
  C  C522  1  0.883100  0.336900  0.458900  1.0  0.4743
  C  C523  1  0.910600  0.274600  0.409800  1.0  0.0351
  C  C524  1  0.275400  0.905600  0.027700  1.0  0.1211
  C  C525  1  0.275900  0.857600  0.029000  1.0  -0.1166
  C  C526  1  0.309200  0.834000  0.007300  1.0  -0.1242
  C  C527  1  0.342900  0.858500  0.983200  1.0  -0.0695
  C  C528  1  0.340500  0.905500  0.982200  1.0  0.1389
  C  C529  1  0.383100  0.836900  0.958900  1.0  0.4743
  C  C530  1  0.410600  0.774600  0.909800  1.0  0.0351
  C  C531  1  0.224600  0.594400  0.527700  1.0  0.1209
  C  C532  1  0.224100  0.642400  0.529000  1.0  -0.1134
  C  C533  1  0.190800  0.666000  0.507300  1.0  -0.123
  C  C534  1  0.157100  0.641500  0.483200  1.0  -0.0672
  C  C535  1  0.159500  0.594500  0.482200  1.0  0.1382
  C  C536  1  0.116900  0.663100  0.458900  1.0  0.4734
  C  C537  1  0.089400  0.725400  0.409800  1.0  0.0369
  C  C538  1  0.724600  0.094400  0.027700  1.0  0.1209
  C  C539  1  0.724100  0.142400  0.029000  1.0  -0.1134
  C  C540  1  0.690800  0.166000  0.007300  1.0  -0.123
  C  C541  1  0.657100  0.141500  0.983200  1.0  -0.0672
  C  C542  1  0.659500  0.094500  0.982200  1.0  0.1382
  C  C543  1  0.616900  0.163100  0.958900  1.0  0.4734
  C  C544  1  0.589400  0.225400  0.909800  1.0  0.0369
  C  C545  1  0.775400  0.594400  0.472300  1.0  0.1205
  C  C546  1  0.775900  0.642400  0.471000  1.0  -0.1156
  C  C547  1  0.809200  0.666000  0.492700  1.0  -0.1231
  C  C548  1  0.842900  0.641500  0.516800  1.0  -0.0696
  C  C549  1  0.840500  0.594500  0.517800  1.0  0.1385
  C  C550  1  0.883100  0.663100  0.541100  1.0  0.4757
  C  C551  1  0.910600  0.725400  0.590200  1.0  0.0374
  C  C552  1  0.275400  0.094400  0.972300  1.0  0.1205
  C  C553  1  0.275900  0.142400  0.971000  1.0  -0.1156
  C  C554  1  0.309200  0.166000  0.992700  1.0  -0.1231
  C  C555  1  0.342900  0.141500  0.016800  1.0  -0.0696
  C  C556  1  0.340500  0.094500  0.017800  1.0  0.1385
  C  C557  1  0.383100  0.163100  0.041100  1.0  0.4757
  C  C558  1  0.410600  0.225400  0.090200  1.0  0.0374
  C  C559  1  0.224600  0.405600  0.472300  1.0  0.1209
  C  C560  1  0.224100  0.357600  0.471000  1.0  -0.1129
  C  C561  1  0.190800  0.334000  0.492700  1.0  -0.1257
  C  C562  1  0.157100  0.358500  0.516800  1.0  -0.068
  C  C563  1  0.159500  0.405500  0.517800  1.0  0.138
  C  C564  1  0.116900  0.336900  0.541100  1.0  0.4734
  C  C565  1  0.089400  0.274600  0.590200  1.0  0.0341
  C  C566  1  0.724600  0.905600  0.972300  1.0  0.1209
  C  C567  1  0.724100  0.857600  0.971000  1.0  -0.1129
  C  C568  1  0.690800  0.834000  0.992700  1.0  -0.1257
  C  C569  1  0.657100  0.858500  0.016800  1.0  -0.068
  C  C570  1  0.659500  0.905500  0.017800  1.0  0.138
  C  C571  1  0.616900  0.836900  0.041100  1.0  0.4734
  C  C572  1  0.589400  0.774600  0.090200  1.0  0.0341
  C  C573  1  0.405600  0.472300  0.224600  1.0  0.1176
  C  C574  1  0.357600  0.471000  0.224100  1.0  -0.1134
  C  C575  1  0.334000  0.492700  0.190800  1.0  -0.124
  C  C576  1  0.358500  0.516800  0.157100  1.0  -0.0667
  C  C577  1  0.405500  0.517800  0.159500  1.0  0.1369
  C  C578  1  0.336900  0.541100  0.116900  1.0  0.479
  C  C579  1  0.274600  0.590200  0.089400  1.0  0.0359
  C  C580  1  0.905600  0.972300  0.724600  1.0  0.1176
  C  C581  1  0.857600  0.971000  0.724100  1.0  -0.1134
  C  C582  1  0.834000  0.992700  0.690800  1.0  -0.124
  C  C583  1  0.858500  0.016800  0.657100  1.0  -0.0667
  C  C584  1  0.905500  0.017800  0.659500  1.0  0.1369
  C  C585  1  0.836900  0.041100  0.616900  1.0  0.479
  C  C586  1  0.774600  0.090200  0.589400  1.0  0.0359
  C  C587  1  0.594400  0.472300  0.775400  1.0  0.1196
  C  C588  1  0.642400  0.471000  0.775900  1.0  -0.1118
  C  C589  1  0.666000  0.492700  0.809200  1.0  -0.1215
  C  C590  1  0.641500  0.516800  0.842900  1.0  -0.0681
  C  C591  1  0.594500  0.517800  0.840500  1.0  0.1379
  C  C592  1  0.663100  0.541100  0.883100  1.0  0.4767
  C  C593  1  0.725400  0.590200  0.910600  1.0  0.0382
  C  C594  1  0.094400  0.972300  0.275400  1.0  0.1196
  C  C595  1  0.142400  0.971000  0.275900  1.0  -0.1118
  C  C596  1  0.166000  0.992700  0.309200  1.0  -0.1215
  C  C597  1  0.141500  0.016800  0.342900  1.0  -0.0681
  C  C598  1  0.094500  0.017800  0.340500  1.0  0.1379
  C  C599  1  0.163100  0.041100  0.383100  1.0  0.4767
  C  C600  1  0.225400  0.090200  0.410600  1.0  0.0382
  C  C601  1  0.594400  0.527700  0.224600  1.0  0.1176
  C  C602  1  0.642400  0.529000  0.224100  1.0  -0.1127
  C  C603  1  0.666000  0.507300  0.190800  1.0  -0.1206
  C  C604  1  0.641500  0.483200  0.157100  1.0  -0.0671
  C  C605  1  0.594500  0.482200  0.159500  1.0  0.137
  C  C606  1  0.663100  0.458900  0.116900  1.0  0.4785
  C  C607  1  0.725400  0.409800  0.089400  1.0  0.0379
  C  C608  1  0.094400  0.027700  0.724600  1.0  0.1176
  C  C609  1  0.142400  0.029000  0.724100  1.0  -0.1127
  C  C610  1  0.166000  0.007300  0.690800  1.0  -0.1206
  C  C611  1  0.141500  0.983200  0.657100  1.0  -0.0671
  C  C612  1  0.094500  0.982200  0.659500  1.0  0.137
  C  C613  1  0.163100  0.958900  0.616900  1.0  0.4785
  C  C614  1  0.225400  0.909800  0.589400  1.0  0.0379
  C  C615  1  0.405600  0.527700  0.775400  1.0  0.1193
  C  C616  1  0.357600  0.529000  0.775900  1.0  -0.1129
  C  C617  1  0.334000  0.507300  0.809200  1.0  -0.1247
  C  C618  1  0.358500  0.483200  0.842900  1.0  -0.067
  C  C619  1  0.405500  0.482200  0.840500  1.0  0.1376
  C  C620  1  0.336900  0.458900  0.883100  1.0  0.4784
  C  C621  1  0.274600  0.409800  0.910600  1.0  0.0369
  C  C622  1  0.905600  0.027700  0.275400  1.0  0.1193
  C  C623  1  0.857600  0.029000  0.275900  1.0  -0.1129
  C  C624  1  0.834000  0.007300  0.309200  1.0  -0.1247
  C  C625  1  0.858500  0.983200  0.342900  1.0  -0.067
  C  C626  1  0.905500  0.982200  0.340500  1.0  0.1376
  C  C627  1  0.836900  0.958900  0.383100  1.0  0.4784
  C  C628  1  0.774600  0.909800  0.410600  1.0  0.0369
  C  C629  1  0.472300  0.775400  0.594400  1.0  0.1246
  C  C630  1  0.471000  0.775900  0.642400  1.0  -0.118
  C  C631  1  0.492700  0.809200  0.666000  1.0  -0.1252
  C  C632  1  0.516800  0.842900  0.641500  1.0  -0.0656
  C  C633  1  0.517800  0.840500  0.594500  1.0  0.1406
  C  C634  1  0.541100  0.883100  0.663100  1.0  0.4758
  C  C635  1  0.590200  0.910600  0.725400  1.0  0.0364
  C  C636  1  0.972300  0.275400  0.094400  1.0  0.1246
  C  C637  1  0.971000  0.275900  0.142400  1.0  -0.118
  C  C638  1  0.992700  0.309200  0.166000  1.0  -0.1252
  C  C639  1  0.016800  0.342900  0.141500  1.0  -0.0656
  C  C640  1  0.017800  0.340500  0.094500  1.0  0.1406
  C  C641  1  0.041100  0.383100  0.163100  1.0  0.4758
  C  C642  1  0.090200  0.410600  0.225400  1.0  0.0364
  C  C643  1  0.472300  0.224600  0.405600  1.0  0.1247
  C  C644  1  0.471000  0.224100  0.357600  1.0  -0.1166
  C  C645  1  0.492700  0.190800  0.334000  1.0  -0.1252
  C  C646  1  0.516800  0.157100  0.358500  1.0  -0.0655
  C  C647  1  0.517800  0.159500  0.405500  1.0  0.1413
  C  C648  1  0.541100  0.116900  0.336900  1.0  0.4746
  C  C649  1  0.590200  0.089400  0.274600  1.0  0.036
  C  C650  1  0.972300  0.724600  0.905600  1.0  0.1247
  C  C651  1  0.971000  0.724100  0.857600  1.0  -0.1166
  C  C652  1  0.992700  0.690800  0.834000  1.0  -0.1252
  C  C653  1  0.016800  0.657100  0.858500  1.0  -0.0655
  C  C654  1  0.017800  0.659500  0.905500  1.0  0.1413
  C  C655  1  0.041100  0.616900  0.836900  1.0  0.4746
  C  C656  1  0.090200  0.589400  0.774600  1.0  0.036
  C  C657  1  0.527700  0.775400  0.405600  1.0  0.1243
  C  C658  1  0.529000  0.775900  0.357600  1.0  -0.1164
  C  C659  1  0.507300  0.809200  0.334000  1.0  -0.1261
  C  C660  1  0.483200  0.842900  0.358500  1.0  -0.0665
  C  C661  1  0.482200  0.840500  0.405500  1.0  0.1394
  C  C662  1  0.458900  0.883100  0.336900  1.0  0.475
  C  C663  1  0.409800  0.910600  0.274600  1.0  0.0357
  C  C664  1  0.027700  0.275400  0.905600  1.0  0.1243
  C  C665  1  0.029000  0.275900  0.857600  1.0  -0.1164
  C  C666  1  0.007300  0.309200  0.834000  1.0  -0.1261
  C  C667  1  0.983200  0.342900  0.858500  1.0  -0.0665
  C  C668  1  0.982200  0.340500  0.905500  1.0  0.1394
  C  C669  1  0.958900  0.383100  0.836900  1.0  0.475
  C  C670  1  0.909800  0.410600  0.774600  1.0  0.0357
  C  C671  1  0.527700  0.224600  0.594400  1.0  0.1223
  C  C672  1  0.529000  0.224100  0.642400  1.0  -0.1162
  C  C673  1  0.507300  0.190800  0.666000  1.0  -0.1251
  C  C674  1  0.483200  0.157100  0.641500  1.0  -0.0651
  C  C675  1  0.482200  0.159500  0.594500  1.0  0.1401
  C  C676  1  0.458900  0.116900  0.663100  1.0  0.4758
  C  C677  1  0.409800  0.089400  0.725400  1.0  0.0363
  C  C678  1  0.027700  0.724600  0.094400  1.0  0.1223
  C  C679  1  0.029000  0.724100  0.142400  1.0  -0.1162
  C  C680  1  0.007300  0.690800  0.166000  1.0  -0.1251
  C  C681  1  0.983200  0.657100  0.141500  1.0  -0.0651
  C  C682  1  0.982200  0.659500  0.094500  1.0  0.1401
  C  C683  1  0.958900  0.616900  0.163100  1.0  0.4758
  C  C684  1  0.909800  0.589400  0.225400  1.0  0.0363
  N  N685  1  0.429400  0.807000  0.496000  1.0  -0.327
  N  N686  1  0.293900  0.876600  0.558400  1.0  -0.4303
  N  N687  1  0.929400  0.307000  0.996000  1.0  -0.327
  N  N688  1  0.793900  0.376600  0.058400  1.0  -0.4303
  N  N689  1  0.570600  0.193000  0.496000  1.0  -0.3268
  N  N690  1  0.706100  0.123400  0.558400  1.0  -0.4314
  N  N691  1  0.070600  0.693000  0.996000  1.0  -0.3268
  N  N692  1  0.206100  0.623400  0.058400  1.0  -0.4314
  N  N693  1  0.570600  0.807000  0.504000  1.0  -0.3272
  N  N694  1  0.706100  0.876600  0.441600  1.0  -0.4308
  N  N695  1  0.070600  0.307000  0.004000  1.0  -0.3272
  N  N696  1  0.206100  0.376600  0.941600  1.0  -0.4308
  N  N697  1  0.429400  0.193000  0.504000  1.0  -0.3273
  N  N698  1  0.293900  0.123400  0.441600  1.0  -0.4314
  N  N699  1  0.929400  0.693000  0.004000  1.0  -0.3273
  N  N700  1  0.793900  0.623400  0.941600  1.0  -0.4314
  N  N701  1  0.496000  0.429400  0.807000  1.0  -0.3296
  N  N702  1  0.558400  0.293900  0.876600  1.0  -0.4326
  N  N703  1  0.996000  0.929400  0.307000  1.0  -0.3296
  N  N704  1  0.058400  0.793900  0.376600  1.0  -0.4326
  N  N705  1  0.496000  0.570600  0.193000  1.0  -0.3295
  N  N706  1  0.558400  0.706100  0.123400  1.0  -0.4344
  N  N707  1  0.996000  0.070600  0.693000  1.0  -0.3295
  N  N708  1  0.058400  0.206100  0.623400  1.0  -0.4344
  N  N709  1  0.504000  0.570600  0.807000  1.0  -0.3294
  N  N710  1  0.441600  0.706100  0.876600  1.0  -0.432
  N  N711  1  0.004000  0.070600  0.307000  1.0  -0.3294
  N  N712  1  0.941600  0.206100  0.376600  1.0  -0.432
  N  N713  1  0.504000  0.429400  0.193000  1.0  -0.3298
  N  N714  1  0.441600  0.293900  0.123400  1.0  -0.4335
  N  N715  1  0.004000  0.929400  0.693000  1.0  -0.3298
  N  N716  1  0.941600  0.793900  0.623400  1.0  -0.4335
  N  N717  1  0.807000  0.496000  0.429400  1.0  -0.3311
  N  N718  1  0.876600  0.558400  0.293900  1.0  -0.4334
  N  N719  1  0.307000  0.996000  0.929400  1.0  -0.3311
  N  N720  1  0.376600  0.058400  0.793900  1.0  -0.4334
  N  N721  1  0.193000  0.496000  0.570600  1.0  -0.3318
  N  N722  1  0.123400  0.558400  0.706100  1.0  -0.4363
  N  N723  1  0.693000  0.996000  0.070600  1.0  -0.3318
  N  N724  1  0.623400  0.058400  0.206100  1.0  -0.4363
  N  N725  1  0.807000  0.504000  0.570600  1.0  -0.3325
  N  N726  1  0.876600  0.441600  0.706100  1.0  -0.4354
  N  N727  1  0.307000  0.004000  0.070600  1.0  -0.3325
  N  N728  1  0.376600  0.941600  0.206100  1.0  -0.4354
  N  N729  1  0.193000  0.504000  0.429400  1.0  -0.3306
  N  N730  1  0.123400  0.441600  0.293900  1.0  -0.4351
  N  N731  1  0.693000  0.004000  0.929400  1.0  -0.3306
  N  N732  1  0.623400  0.941600  0.793900  1.0  -0.4351
  N  N733  1  0.807000  0.429400  0.504000  1.0  -0.3304
  N  N734  1  0.876600  0.293900  0.441600  1.0  -0.4334
  N  N735  1  0.307000  0.929400  0.004000  1.0  -0.3304
  N  N736  1  0.376600  0.793900  0.941600  1.0  -0.4334
  N  N737  1  0.193000  0.570600  0.504000  1.0  -0.3298
  N  N738  1  0.123400  0.706100  0.441600  1.0  -0.4349
  N  N739  1  0.693000  0.070600  0.004000  1.0  -0.3298
  N  N740  1  0.623400  0.206100  0.941600  1.0  -0.4349
  N  N741  1  0.807000  0.570600  0.496000  1.0  -0.3303
  N  N742  1  0.876600  0.706100  0.558400  1.0  -0.433
  N  N743  1  0.307000  0.070600  0.996000  1.0  -0.3303
  N  N744  1  0.376600  0.206100  0.058400  1.0  -0.433
  N  N745  1  0.193000  0.429400  0.496000  1.0  -0.3302
  N  N746  1  0.123400  0.293900  0.558400  1.0  -0.4342
  N  N747  1  0.693000  0.929400  0.996000  1.0  -0.3302
  N  N748  1  0.623400  0.793900  0.058400  1.0  -0.4342
  N  N749  1  0.429400  0.496000  0.193000  1.0  -0.3273
  N  N750  1  0.293900  0.558400  0.123400  1.0  -0.433
  N  N751  1  0.929400  0.996000  0.693000  1.0  -0.3273
  N  N752  1  0.793900  0.058400  0.623400  1.0  -0.433
  N  N753  1  0.570600  0.496000  0.807000  1.0  -0.3275
  N  N754  1  0.706100  0.558400  0.876600  1.0  -0.4317
  N  N755  1  0.070600  0.996000  0.307000  1.0  -0.3275
  N  N756  1  0.206100  0.058400  0.376600  1.0  -0.4317
  N  N757  1  0.570600  0.504000  0.193000  1.0  -0.3278
  N  N758  1  0.706100  0.441600  0.123400  1.0  -0.4336
  N  N759  1  0.070600  0.004000  0.693000  1.0  -0.3278
  N  N760  1  0.206100  0.941600  0.623400  1.0  -0.4336
  N  N761  1  0.429400  0.504000  0.807000  1.0  -0.3276
  N  N762  1  0.293900  0.441600  0.876600  1.0  -0.4313
  N  N763  1  0.929400  0.004000  0.307000  1.0  -0.3276
  N  N764  1  0.793900  0.941600  0.376600  1.0  -0.4313
  N  N765  1  0.496000  0.807000  0.570600  1.0  -0.3312
  N  N766  1  0.558400  0.876600  0.706100  1.0  -0.4326
  N  N767  1  0.996000  0.307000  0.070600  1.0  -0.3312
  N  N768  1  0.058400  0.376600  0.206100  1.0  -0.4326
  N  N769  1  0.496000  0.193000  0.429400  1.0  -0.3297
  N  N770  1  0.558400  0.123400  0.293900  1.0  -0.4328
  N  N771  1  0.996000  0.693000  0.929400  1.0  -0.3297
  N  N772  1  0.058400  0.623400  0.793900  1.0  -0.4328
  N  N773  1  0.504000  0.807000  0.429400  1.0  -0.3294
  N  N774  1  0.441600  0.876600  0.293900  1.0  -0.4317
  N  N775  1  0.004000  0.307000  0.929400  1.0  -0.3294
  N  N776  1  0.941600  0.376600  0.793900  1.0  -0.4317
  N  N777  1  0.504000  0.193000  0.570600  1.0  -0.331
  N  N778  1  0.441600  0.123400  0.706100  1.0  -0.4337
  N  N779  1  0.004000  0.693000  0.070600  1.0  -0.331
  N  N780  1  0.941600  0.623400  0.206100  1.0  -0.4337
  O  O781  1  0.358500  0.920100  0.547200  1.0  -0.4789
  O  O782  1  0.858500  0.420100  0.047200  1.0  -0.4789
  O  O783  1  0.641500  0.079900  0.547200  1.0  -0.4807
  O  O784  1  0.141500  0.579900  0.047200  1.0  -0.4807
  O  O785  1  0.641500  0.920100  0.452800  1.0  -0.4782
  O  O786  1  0.141500  0.420100  0.952800  1.0  -0.4782
  O  O787  1  0.358500  0.079900  0.452800  1.0  -0.4794
  O  O788  1  0.858500  0.579900  0.952800  1.0  -0.4794
  O  O789  1  0.547200  0.358500  0.920100  1.0  -0.4786
  O  O790  1  0.047200  0.858500  0.420100  1.0  -0.4786
  O  O791  1  0.547200  0.641500  0.079900  1.0  -0.4788
  O  O792  1  0.047200  0.141500  0.579900  1.0  -0.4788
  O  O793  1  0.452800  0.641500  0.920100  1.0  -0.4788
  O  O794  1  0.952800  0.141500  0.420100  1.0  -0.4788
  O  O795  1  0.452800  0.358500  0.079900  1.0  -0.479
  O  O796  1  0.952800  0.858500  0.579900  1.0  -0.479
  O  O797  1  0.920100  0.547200  0.358500  1.0  -0.48
  O  O798  1  0.420100  0.047200  0.858500  1.0  -0.48
  O  O799  1  0.079900  0.547200  0.641500  1.0  -0.4773
  O  O800  1  0.579900  0.047200  0.141500  1.0  -0.4773
  O  O801  1  0.920100  0.452800  0.641500  1.0  -0.4794
  O  O802  1  0.420100  0.952800  0.141500  1.0  -0.4794
  O  O803  1  0.079900  0.452800  0.358500  1.0  -0.4782
  O  O804  1  0.579900  0.952800  0.858500  1.0  -0.4782
  O  O805  1  0.920100  0.358500  0.452800  1.0  -0.4777
  O  O806  1  0.420100  0.858500  0.952800  1.0  -0.4777
  O  O807  1  0.079900  0.641500  0.452800  1.0  -0.476
  O  O808  1  0.579900  0.141500  0.952800  1.0  -0.476
  O  O809  1  0.920100  0.641500  0.547200  1.0  -0.4794
  O  O810  1  0.420100  0.141500  0.047200  1.0  -0.4794
  O  O811  1  0.079900  0.358500  0.547200  1.0  -0.4769
  O  O812  1  0.579900  0.858500  0.047200  1.0  -0.4769
  O  O813  1  0.358500  0.547200  0.079900  1.0  -0.478
  O  O814  1  0.858500  0.047200  0.579900  1.0  -0.478
  O  O815  1  0.641500  0.547200  0.920100  1.0  -0.4803
  O  O816  1  0.141500  0.047200  0.420100  1.0  -0.4803
  O  O817  1  0.641500  0.452800  0.079900  1.0  -0.479
  O  O818  1  0.141500  0.952800  0.579900  1.0  -0.479
  O  O819  1  0.358500  0.452800  0.920100  1.0  -0.4793
  O  O820  1  0.858500  0.952800  0.420100  1.0  -0.4793
  O  O821  1  0.547200  0.920100  0.641500  1.0  -0.4805
  O  O822  1  0.047200  0.420100  0.141500  1.0  -0.4805
  O  O823  1  0.547200  0.079900  0.358500  1.0  -0.4821
  O  O824  1  0.047200  0.579900  0.858500  1.0  -0.4821
  O  O825  1  0.452800  0.920100  0.358500  1.0  -0.4783
  O  O826  1  0.952800  0.420100  0.858500  1.0  -0.4783
  O  O827  1  0.452800  0.079900  0.641500  1.0  -0.4795
  O  O828  1  0.952800  0.579900  0.141500  1.0  -0.4795
