# generated using pymatgen
data_Cd2H12(C6N5)3
_symmetry_space_group_name_H-M   'P 1'
_cell_length_a   41.59470000
_cell_length_b   41.59470000
_cell_length_c   41.59470000
_cell_angle_alpha   90.00000000
_cell_angle_beta   90.00000000
_cell_angle_gamma   90.00000000
_symmetry_Int_Tables_number   1
_chemical_formula_structural   Cd2H12(C6N5)3
_chemical_formula_sum   'Cd96 H576 C864 N720'
_cell_volume   71963.78360148
_cell_formula_units_Z   48
loop_
 _symmetry_equiv_pos_site_id
 _symmetry_equiv_pos_as_xyz
  1  'x, y, z'
loop_
 _atom_site_type_symbol
 _atom_site_label
 _atom_site_symmetry_multiplicity
 _atom_site_fract_x
 _atom_site_fract_y
 _atom_site_fract_z
 _atom_site_occupancy
 _atom_site_charge
  Cd  Cd1  1  0.448640  0.325700  0.179090  1.0  0.8245
  Cd  Cd2  1  0.406120  0.243100  0.212710  1.0  0.9116
  Cd  Cd3  1  0.519840  0.170300  0.993530  1.0  0.9424
  Cd  Cd4  1  0.556740  0.283990  0.412980  1.0  0.7634
  Cd  Cd5  1  0.051360  0.674300  0.679090  1.0  0.8246
  Cd  Cd6  1  0.093880  0.756900  0.712710  1.0  0.912
  Cd  Cd7  1  0.980160  0.829700  0.493530  1.0  0.9419
  Cd  Cd8  1  0.943260  0.716010  0.912980  1.0  0.7608
  Cd  Cd9  1  0.551360  0.825700  0.320910  1.0  0.825
  Cd  Cd10  1  0.593880  0.743100  0.287290  1.0  0.9105
  Cd  Cd11  1  0.480160  0.670300  0.506470  1.0  0.9425
  Cd  Cd12  1  0.443260  0.783990  0.087020  1.0  0.7627
  Cd  Cd13  1  0.948640  0.174300  0.820910  1.0  0.8269
  Cd  Cd14  1  0.906120  0.256900  0.787290  1.0  0.9104
  Cd  Cd15  1  0.019840  0.329700  0.006470  1.0  0.9427
  Cd  Cd16  1  0.056740  0.216010  0.587020  1.0  0.762
  Cd  Cd17  1  0.179090  0.448640  0.325700  1.0  0.8326
  Cd  Cd18  1  0.212710  0.406120  0.243100  1.0  0.9112
  Cd  Cd19  1  0.993530  0.519840  0.170300  1.0  0.9429
  Cd  Cd20  1  0.412980  0.556740  0.283990  1.0  0.7584
  Cd  Cd21  1  0.679090  0.051360  0.674300  1.0  0.8335
  Cd  Cd22  1  0.712710  0.093880  0.756900  1.0  0.9106
  Cd  Cd23  1  0.493530  0.980160  0.829700  1.0  0.9418
  Cd  Cd24  1  0.912980  0.943260  0.716010  1.0  0.7619
  Cd  Cd25  1  0.320910  0.551360  0.825700  1.0  0.8366
  Cd  Cd26  1  0.287290  0.593880  0.743100  1.0  0.9115
  Cd  Cd27  1  0.506470  0.480160  0.670300  1.0  0.9442
  Cd  Cd28  1  0.087020  0.443260  0.783990  1.0  0.7618
  Cd  Cd29  1  0.820910  0.948640  0.174300  1.0  0.837
  Cd  Cd30  1  0.787290  0.906120  0.256900  1.0  0.9113
  Cd  Cd31  1  0.006470  0.019840  0.329700  1.0  0.942
  Cd  Cd32  1  0.587020  0.056740  0.216010  1.0  0.7581
  Cd  Cd33  1  0.325700  0.179090  0.448640  1.0  0.8377
  Cd  Cd34  1  0.243100  0.212710  0.406120  1.0  0.9115
  Cd  Cd35  1  0.170300  0.993530  0.519840  1.0  0.9411
  Cd  Cd36  1  0.283990  0.412980  0.556740  1.0  0.7538
  Cd  Cd37  1  0.674300  0.679090  0.051360  1.0  0.8343
  Cd  Cd38  1  0.756900  0.712710  0.093880  1.0  0.9101
  Cd  Cd39  1  0.829700  0.493530  0.980160  1.0  0.9409
  Cd  Cd40  1  0.716010  0.912980  0.943260  1.0  0.7545
  Cd  Cd41  1  0.825700  0.320910  0.551360  1.0  0.8345
  Cd  Cd42  1  0.743100  0.287290  0.593880  1.0  0.9101
  Cd  Cd43  1  0.670300  0.506470  0.480160  1.0  0.9416
  Cd  Cd44  1  0.783990  0.087020  0.443260  1.0  0.7565
  Cd  Cd45  1  0.174300  0.820910  0.948640  1.0  0.8347
  Cd  Cd46  1  0.256900  0.787290  0.906120  1.0  0.9103
  Cd  Cd47  1  0.329700  0.006470  0.019840  1.0  0.9412
  Cd  Cd48  1  0.216010  0.587020  0.056740  1.0  0.7539
  Cd  Cd49  1  0.551360  0.674300  0.820910  1.0  0.8253
  Cd  Cd50  1  0.593880  0.756900  0.787290  1.0  0.9107
  Cd  Cd51  1  0.480160  0.829700  0.006470  1.0  0.942
  Cd  Cd52  1  0.443260  0.716010  0.587020  1.0  0.761
  Cd  Cd53  1  0.948640  0.325700  0.320910  1.0  0.8263
  Cd  Cd54  1  0.906120  0.243100  0.287290  1.0  0.9101
  Cd  Cd55  1  0.019840  0.170300  0.506470  1.0  0.9423
  Cd  Cd56  1  0.056740  0.283990  0.087020  1.0  0.7632
  Cd  Cd57  1  0.448640  0.174300  0.679090  1.0  0.8253
  Cd  Cd58  1  0.406120  0.256900  0.712710  1.0  0.9118
  Cd  Cd59  1  0.519840  0.329700  0.493530  1.0  0.9426
  Cd  Cd60  1  0.556740  0.216010  0.912980  1.0  0.7626
  Cd  Cd61  1  0.051360  0.825700  0.179090  1.0  0.8244
  Cd  Cd62  1  0.093880  0.743100  0.212710  1.0  0.9119
  Cd  Cd63  1  0.980160  0.670300  0.993530  1.0  0.9425
  Cd  Cd64  1  0.943260  0.783990  0.412980  1.0  0.7621
  Cd  Cd65  1  0.820910  0.551360  0.674300  1.0  0.8376
  Cd  Cd66  1  0.787290  0.593880  0.756900  1.0  0.9115
  Cd  Cd67  1  0.006470  0.480160  0.829700  1.0  0.943
  Cd  Cd68  1  0.587020  0.443260  0.716010  1.0  0.7615
  Cd  Cd69  1  0.320910  0.948640  0.325700  1.0  0.8357
  Cd  Cd70  1  0.287290  0.906120  0.243100  1.0  0.9112
  Cd  Cd71  1  0.506470  0.019840  0.170300  1.0  0.9437
  Cd  Cd72  1  0.087020  0.056740  0.283990  1.0  0.7582
  Cd  Cd73  1  0.679090  0.448640  0.174300  1.0  0.833
  Cd  Cd74  1  0.712710  0.406120  0.256900  1.0  0.9114
  Cd  Cd75  1  0.493530  0.519840  0.329700  1.0  0.941
  Cd  Cd76  1  0.912980  0.556740  0.216010  1.0  0.7583
  Cd  Cd77  1  0.179090  0.051360  0.825700  1.0  0.8332
  Cd  Cd78  1  0.212710  0.093880  0.743100  1.0  0.9106
  Cd  Cd79  1  0.993530  0.980160  0.670300  1.0  0.9432
  Cd  Cd80  1  0.412980  0.943260  0.783990  1.0  0.7625
  Cd  Cd81  1  0.674300  0.820910  0.551360  1.0  0.8332
  Cd  Cd82  1  0.756900  0.787290  0.593880  1.0  0.9096
  Cd  Cd83  1  0.829700  0.006470  0.480160  1.0  0.941
  Cd  Cd84  1  0.716010  0.587020  0.443260  1.0  0.7539
  Cd  Cd85  1  0.325700  0.320910  0.948640  1.0  0.8356
  Cd  Cd86  1  0.243100  0.287290  0.906120  1.0  0.911
  Cd  Cd87  1  0.170300  0.506470  0.019840  1.0  0.9417
  Cd  Cd88  1  0.283990  0.087020  0.056740  1.0  0.754
  Cd  Cd89  1  0.174300  0.679090  0.448640  1.0  0.8366
  Cd  Cd90  1  0.256900  0.712710  0.406120  1.0  0.9109
  Cd  Cd91  1  0.329700  0.493530  0.519840  1.0  0.9408
  Cd  Cd92  1  0.216010  0.912980  0.556740  1.0  0.7538
  Cd  Cd93  1  0.825700  0.179090  0.051360  1.0  0.8358
  Cd  Cd94  1  0.743100  0.212710  0.093880  1.0  0.9106
  Cd  Cd95  1  0.670300  0.993530  0.980160  1.0  0.9415
  Cd  Cd96  1  0.783990  0.412980  0.943260  1.0  0.7569
  H  H97  1  0.476400  0.245400  0.323200  1.0  0.0994
  H  H98  1  0.526400  0.324700  0.296500  1.0  0.111
  H  H99  1  0.506000  0.243900  0.370000  1.0  0.0745
  H  H100  1  0.552100  0.321700  0.346400  1.0  0.0682
  H  H101  1  0.332000  0.390800  0.201800  1.0  0.1058
  H  H102  1  0.293100  0.308900  0.234500  1.0  0.095
  H  H103  1  0.284600  0.416400  0.215700  1.0  0.0472
  H  H104  1  0.248600  0.337800  0.251300  1.0  0.068
  H  H105  1  0.477700  0.178600  0.112000  1.0  0.1168
  H  H106  1  0.492400  0.265100  0.070700  1.0  0.1075
  H  H107  1  0.520100  0.238000  0.030500  1.0  0.0602
  H  H108  1  0.496600  0.155300  0.064600  1.0  0.0707
  H  H109  1  0.413900  0.443500  0.204200  1.0  0.0968
  H  H110  1  0.491800  0.414400  0.255100  1.0  0.1036
  H  H111  1  0.488500  0.365200  0.227000  1.0  0.0787
  H  H112  1  0.410700  0.393000  0.181500  1.0  0.0822
  H  H113  1  0.437100  0.123800  0.195600  1.0  0.1063
  H  H114  1  0.509500  0.172700  0.230100  1.0  0.0991
  H  H115  1  0.405000  0.167900  0.203300  1.0  0.0483
  H  H116  1  0.472700  0.215900  0.237700  1.0  0.0522
  H  H117  1  0.499300  0.059900  0.925600  1.0  0.0883
  H  H118  1  0.525300  0.101900  0.843400  1.0  0.0955
  H  H119  1  0.486000  0.014800  0.897800  1.0  0.0691
  H  H120  1  0.512100  0.056100  0.817100  1.0  0.0725
  H  H121  1  0.023600  0.754600  0.823200  1.0  0.0991
  H  H122  1  0.973600  0.675300  0.796500  1.0  0.1111
  H  H123  1  0.994000  0.756100  0.870000  1.0  0.0744
  H  H124  1  0.947900  0.678300  0.846400  1.0  0.0677
  H  H125  1  0.168000  0.609200  0.701800  1.0  0.1059
  H  H126  1  0.206900  0.691100  0.734500  1.0  0.0945
  H  H127  1  0.215400  0.583600  0.715700  1.0  0.0477
  H  H128  1  0.251400  0.662200  0.751300  1.0  0.0683
  H  H129  1  0.022300  0.821400  0.612000  1.0  0.1168
  H  H130  1  0.007600  0.734900  0.570700  1.0  0.1035
  H  H131  1  0.979900  0.762000  0.530500  1.0  0.0603
  H  H132  1  0.003400  0.844700  0.564600  1.0  0.0713
  H  H133  1  0.086100  0.556500  0.704200  1.0  0.0965
  H  H134  1  0.008200  0.585600  0.755100  1.0  0.1036
  H  H135  1  0.011500  0.634800  0.727000  1.0  0.0789
  H  H136  1  0.089300  0.607000  0.681500  1.0  0.0835
  H  H137  1  0.062900  0.876200  0.695600  1.0  0.1071
  H  H138  1  0.990500  0.827300  0.730100  1.0  0.1006
  H  H139  1  0.095000  0.832100  0.703300  1.0  0.0488
  H  H140  1  0.027300  0.784100  0.737700  1.0  0.053
  H  H141  1  0.000700  0.940100  0.425600  1.0  0.0882
  H  H142  1  0.974700  0.898100  0.343400  1.0  0.0955
  H  H143  1  0.014000  0.985200  0.397800  1.0  0.0691
  H  H144  1  0.987900  0.943900  0.317100  1.0  0.0724
  H  H145  1  0.523600  0.745400  0.176800  1.0  0.0991
  H  H146  1  0.473600  0.824700  0.203500  1.0  0.1115
  H  H147  1  0.494000  0.743900  0.130000  1.0  0.0744
  H  H148  1  0.447900  0.821700  0.153600  1.0  0.0679
  H  H149  1  0.668000  0.890800  0.298200  1.0  0.1063
  H  H150  1  0.706900  0.808900  0.265500  1.0  0.095
  H  H151  1  0.715400  0.916400  0.284300  1.0  0.0471
  H  H152  1  0.751400  0.837800  0.248700  1.0  0.0679
  H  H153  1  0.522300  0.678600  0.388000  1.0  0.1162
  H  H154  1  0.507600  0.765100  0.429300  1.0  0.1075
  H  H155  1  0.479900  0.738000  0.469500  1.0  0.0596
  H  H156  1  0.503400  0.655300  0.435400  1.0  0.071
  H  H157  1  0.586100  0.943500  0.295800  1.0  0.0968
  H  H158  1  0.508200  0.914400  0.244900  1.0  0.1038
  H  H159  1  0.511500  0.865200  0.273000  1.0  0.0788
  H  H160  1  0.589300  0.893000  0.318500  1.0  0.0827
  H  H161  1  0.562900  0.623800  0.304400  1.0  0.1061
  H  H162  1  0.490500  0.672700  0.269900  1.0  0.1006
  H  H163  1  0.595000  0.667900  0.296700  1.0  0.0494
  H  H164  1  0.527300  0.715900  0.262300  1.0  0.0523
  H  H165  1  0.500700  0.559900  0.574400  1.0  0.0888
  H  H166  1  0.474700  0.601900  0.656600  1.0  0.0956
  H  H167  1  0.514000  0.514800  0.602200  1.0  0.0691
  H  H168  1  0.487900  0.556100  0.682900  1.0  0.0719
  H  H169  1  0.976400  0.254600  0.676800  1.0  0.0998
  H  H170  1  0.026400  0.175300  0.703500  1.0  0.111
  H  H171  1  0.006000  0.256100  0.630000  1.0  0.0748
  H  H172  1  0.052100  0.178300  0.653600  1.0  0.0688
  H  H173  1  0.832000  0.109200  0.798200  1.0  0.106
  H  H174  1  0.793100  0.191100  0.765500  1.0  0.0946
  H  H175  1  0.784600  0.083600  0.784300  1.0  0.0476
  H  H176  1  0.748600  0.162200  0.748700  1.0  0.0679
  H  H177  1  0.977700  0.321400  0.888000  1.0  0.1162
  H  H178  1  0.992400  0.234900  0.929300  1.0  0.1034
  H  H179  1  0.020100  0.262000  0.969500  1.0  0.0597
  H  H180  1  0.996600  0.344700  0.935400  1.0  0.0703
  H  H181  1  0.913900  0.056500  0.795800  1.0  0.0963
  H  H182  1  0.991800  0.085600  0.744900  1.0  0.1036
  H  H183  1  0.988500  0.134800  0.773000  1.0  0.079
  H  H184  1  0.910700  0.107000  0.818500  1.0  0.0834
  H  H185  1  0.937100  0.376200  0.804400  1.0  0.107
  H  H186  1  0.009500  0.327300  0.769900  1.0  0.0996
  H  H187  1  0.905000  0.332100  0.796700  1.0  0.048
  H  H188  1  0.972700  0.284100  0.762300  1.0  0.0529
  H  H189  1  0.999300  0.440100  0.074400  1.0  0.0885
  H  H190  1  0.025300  0.398100  0.156600  1.0  0.0954
  H  H191  1  0.986000  0.485200  0.102200  1.0  0.069
  H  H192  1  0.012100  0.443900  0.182900  1.0  0.0718
  H  H193  1  0.323200  0.476400  0.245400  1.0  0.0988
  H  H194  1  0.296500  0.526400  0.324700  1.0  0.1121
  H  H195  1  0.370000  0.506000  0.243900  1.0  0.0755
  H  H196  1  0.346400  0.552100  0.321700  1.0  0.0674
  H  H197  1  0.201800  0.332000  0.390800  1.0  0.1059
  H  H198  1  0.234500  0.293100  0.308900  1.0  0.0941
  H  H199  1  0.215700  0.284600  0.416400  1.0  0.047
  H  H200  1  0.251300  0.248600  0.337800  1.0  0.0686
  H  H201  1  0.112000  0.477700  0.178600  1.0  0.1153
  H  H202  1  0.070700  0.492400  0.265100  1.0  0.1065
  H  H203  1  0.030500  0.520100  0.238000  1.0  0.0606
  H  H204  1  0.064600  0.496600  0.155300  1.0  0.07
  H  H205  1  0.204200  0.413900  0.443500  1.0  0.0965
  H  H206  1  0.255100  0.491800  0.414400  1.0  0.1049
  H  H207  1  0.227000  0.488500  0.365200  1.0  0.0776
  H  H208  1  0.181500  0.410700  0.393000  1.0  0.0807
  H  H209  1  0.195600  0.437100  0.123800  1.0  0.1069
  H  H210  1  0.230100  0.509500  0.172700  1.0  0.1001
  H  H211  1  0.203300  0.405000  0.167900  1.0  0.0502
  H  H212  1  0.237700  0.472700  0.215900  1.0  0.0541
  H  H213  1  0.925600  0.499300  0.059900  1.0  0.0874
  H  H214  1  0.843400  0.525300  0.101900  1.0  0.0962
  H  H215  1  0.897800  0.486000  0.014800  1.0  0.0692
  H  H216  1  0.817100  0.512100  0.056100  1.0  0.0725
  H  H217  1  0.823200  0.023600  0.754600  1.0  0.099
  H  H218  1  0.796500  0.973600  0.675300  1.0  0.1117
  H  H219  1  0.870000  0.994000  0.756100  1.0  0.0763
  H  H220  1  0.846400  0.947900  0.678300  1.0  0.0665
  H  H221  1  0.701800  0.168000  0.609200  1.0  0.1057
  H  H222  1  0.734500  0.206900  0.691100  1.0  0.0934
  H  H223  1  0.715700  0.215400  0.583600  1.0  0.0475
  H  H224  1  0.751300  0.251400  0.662200  1.0  0.069
  H  H225  1  0.612000  0.022300  0.821400  1.0  0.115
  H  H226  1  0.570700  0.007600  0.734900  1.0  0.1028
  H  H227  1  0.530500  0.979900  0.762000  1.0  0.0615
  H  H228  1  0.564600  0.003400  0.844700  1.0  0.0699
  H  H229  1  0.704200  0.086100  0.556500  1.0  0.0963
  H  H230  1  0.755100  0.008200  0.585600  1.0  0.1053
  H  H231  1  0.727000  0.011500  0.634800  1.0  0.0777
  H  H232  1  0.681500  0.089300  0.607000  1.0  0.0824
  H  H233  1  0.695600  0.062900  0.876200  1.0  0.1073
  H  H234  1  0.730100  0.990500  0.827300  1.0  0.1008
  H  H235  1  0.703300  0.095000  0.832100  1.0  0.0492
  H  H236  1  0.737700  0.027300  0.784100  1.0  0.0535
  H  H237  1  0.425600  0.000700  0.940100  1.0  0.0872
  H  H238  1  0.343400  0.974700  0.898100  1.0  0.0961
  H  H239  1  0.397800  0.014000  0.985200  1.0  0.0691
  H  H240  1  0.317100  0.987900  0.943900  1.0  0.0727
  H  H241  1  0.176800  0.523600  0.745400  1.0  0.0988
  H  H242  1  0.203500  0.473600  0.824700  1.0  0.112
  H  H243  1  0.130000  0.494000  0.743900  1.0  0.0761
  H  H244  1  0.153600  0.447900  0.821700  1.0  0.0671
  H  H245  1  0.298200  0.668000  0.890800  1.0  0.1059
  H  H246  1  0.265500  0.706900  0.808900  1.0  0.0934
  H  H247  1  0.284300  0.715400  0.916400  1.0  0.0469
  H  H248  1  0.248700  0.751400  0.837800  1.0  0.0686
  H  H249  1  0.388000  0.522300  0.678600  1.0  0.1151
  H  H250  1  0.429300  0.507600  0.765100  1.0  0.1074
  H  H251  1  0.469500  0.479900  0.738000  1.0  0.0611
  H  H252  1  0.435400  0.503400  0.655300  1.0  0.0705
  H  H253  1  0.295800  0.586100  0.943500  1.0  0.0964
  H  H254  1  0.244900  0.508200  0.914400  1.0  0.1046
  H  H255  1  0.273000  0.511500  0.865200  1.0  0.0771
  H  H256  1  0.318500  0.589300  0.893000  1.0  0.0813
  H  H257  1  0.304400  0.562900  0.623800  1.0  0.1073
  H  H258  1  0.269900  0.490500  0.672700  1.0  0.1009
  H  H259  1  0.296700  0.595000  0.667900  1.0  0.05
  H  H260  1  0.262300  0.527300  0.715900  1.0  0.0534
  H  H261  1  0.574400  0.500700  0.559900  1.0  0.089
  H  H262  1  0.656600  0.474700  0.601900  1.0  0.0958
  H  H263  1  0.602200  0.514000  0.514800  1.0  0.0689
  H  H264  1  0.682900  0.487900  0.556100  1.0  0.0722
  H  H265  1  0.676800  0.976400  0.254600  1.0  0.0994
  H  H266  1  0.703500  0.026400  0.175300  1.0  0.1116
  H  H267  1  0.630000  0.006000  0.256100  1.0  0.0758
  H  H268  1  0.653600  0.052100  0.178300  1.0  0.0682
  H  H269  1  0.798200  0.832000  0.109200  1.0  0.1057
  H  H270  1  0.765500  0.793100  0.191100  1.0  0.0935
  H  H271  1  0.784300  0.784600  0.083600  1.0  0.0471
  H  H272  1  0.748700  0.748600  0.162200  1.0  0.0688
  H  H273  1  0.888000  0.977700  0.321400  1.0  0.115
  H  H274  1  0.929300  0.992400  0.234900  1.0  0.1025
  H  H275  1  0.969500  0.020100  0.262000  1.0  0.0613
  H  H276  1  0.935400  0.996600  0.344700  1.0  0.071
  H  H277  1  0.795800  0.913900  0.056500  1.0  0.0958
  H  H278  1  0.744900  0.991800  0.085600  1.0  0.1054
  H  H279  1  0.773000  0.988500  0.134800  1.0  0.0773
  H  H280  1  0.818500  0.910700  0.107000  1.0  0.0822
  H  H281  1  0.804400  0.937100  0.376200  1.0  0.107
  H  H282  1  0.769900  0.009500  0.327300  1.0  0.1004
  H  H283  1  0.796700  0.905000  0.332100  1.0  0.0507
  H  H284  1  0.762300  0.972700  0.284100  1.0  0.054
  H  H285  1  0.074400  0.999300  0.440100  1.0  0.089
  H  H286  1  0.156600  0.025300  0.398100  1.0  0.0955
  H  H287  1  0.102200  0.986000  0.485200  1.0  0.0694
  H  H288  1  0.182900  0.012100  0.443900  1.0  0.0722
  H  H289  1  0.245400  0.323200  0.476400  1.0  0.0981
  H  H290  1  0.324700  0.296500  0.526400  1.0  0.1115
  H  H291  1  0.243900  0.370000  0.506000  1.0  0.0753
  H  H292  1  0.321700  0.346400  0.552100  1.0  0.0692
  H  H293  1  0.390800  0.201800  0.332000  1.0  0.1064
  H  H294  1  0.308900  0.234500  0.293100  1.0  0.0943
  H  H295  1  0.416400  0.215700  0.284600  1.0  0.0466
  H  H296  1  0.337800  0.251300  0.248600  1.0  0.0672
  H  H297  1  0.178600  0.112000  0.477700  1.0  0.1156
  H  H298  1  0.265100  0.070700  0.492400  1.0  0.108
  H  H299  1  0.238000  0.030500  0.520100  1.0  0.061
  H  H300  1  0.155300  0.064600  0.496600  1.0  0.07
  H  H301  1  0.443500  0.204200  0.413900  1.0  0.0961
  H  H302  1  0.414400  0.255100  0.491800  1.0  0.1051
  H  H303  1  0.365200  0.227000  0.488500  1.0  0.0787
  H  H304  1  0.393000  0.181500  0.410700  1.0  0.081
  H  H305  1  0.123800  0.195600  0.437100  1.0  0.1062
  H  H306  1  0.172700  0.230100  0.509500  1.0  0.0984
  H  H307  1  0.167900  0.203300  0.405000  1.0  0.0497
  H  H308  1  0.215900  0.237700  0.472700  1.0  0.0542
  H  H309  1  0.059900  0.925600  0.499300  1.0  0.0887
  H  H310  1  0.101900  0.843400  0.525300  1.0  0.0947
  H  H311  1  0.014800  0.897800  0.486000  1.0  0.0674
  H  H312  1  0.056100  0.817100  0.512100  1.0  0.0726
  H  H313  1  0.754600  0.823200  0.023600  1.0  0.0982
  H  H314  1  0.675300  0.796500  0.973600  1.0  0.1116
  H  H315  1  0.756100  0.870000  0.994000  1.0  0.0757
  H  H316  1  0.678300  0.846400  0.947900  1.0  0.0677
  H  H317  1  0.609200  0.701800  0.168000  1.0  0.1059
  H  H318  1  0.691100  0.734500  0.206900  1.0  0.0938
  H  H319  1  0.583600  0.715700  0.215400  1.0  0.0476
  H  H320  1  0.662200  0.751300  0.251400  1.0  0.0675
  H  H321  1  0.821400  0.612000  0.022300  1.0  0.1148
  H  H322  1  0.734900  0.570700  0.007600  1.0  0.107
  H  H323  1  0.762000  0.530500  0.979900  1.0  0.0606
  H  H324  1  0.844700  0.564600  0.003400  1.0  0.0694
  H  H325  1  0.556500  0.704200  0.086100  1.0  0.0962
  H  H326  1  0.585600  0.755100  0.008200  1.0  0.1045
  H  H327  1  0.634800  0.727000  0.011500  1.0  0.0782
  H  H328  1  0.607000  0.681500  0.089300  1.0  0.0823
  H  H329  1  0.876200  0.695600  0.062900  1.0  0.1062
  H  H330  1  0.827300  0.730100  0.990500  1.0  0.0979
  H  H331  1  0.832100  0.703300  0.095000  1.0  0.049
  H  H332  1  0.784100  0.737700  0.027300  1.0  0.0537
  H  H333  1  0.940100  0.425600  0.000700  1.0  0.0886
  H  H334  1  0.898100  0.343400  0.974700  1.0  0.0953
  H  H335  1  0.985200  0.397800  0.014000  1.0  0.0678
  H  H336  1  0.943900  0.317100  0.987900  1.0  0.0731
  H  H337  1  0.745400  0.176800  0.523600  1.0  0.0985
  H  H338  1  0.824700  0.203500  0.473600  1.0  0.1115
  H  H339  1  0.743900  0.130000  0.494000  1.0  0.0752
  H  H340  1  0.821700  0.153600  0.447900  1.0  0.068
  H  H341  1  0.890800  0.298200  0.668000  1.0  0.1057
  H  H342  1  0.808900  0.265500  0.706900  1.0  0.0942
  H  H343  1  0.916400  0.284300  0.715400  1.0  0.0471
  H  H344  1  0.837800  0.248700  0.751400  1.0  0.0679
  H  H345  1  0.678600  0.388000  0.522300  1.0  0.1152
  H  H346  1  0.765100  0.429300  0.507600  1.0  0.1078
  H  H347  1  0.738000  0.469500  0.479900  1.0  0.061
  H  H348  1  0.655300  0.435400  0.503400  1.0  0.0698
  H  H349  1  0.943500  0.295800  0.586100  1.0  0.0963
  H  H350  1  0.914400  0.244900  0.508200  1.0  0.1046
  H  H351  1  0.865200  0.273000  0.511500  1.0  0.0778
  H  H352  1  0.893000  0.318500  0.589300  1.0  0.0819
  H  H353  1  0.623800  0.304400  0.562900  1.0  0.1065
  H  H354  1  0.672700  0.269900  0.490500  1.0  0.0979
  H  H355  1  0.667900  0.296700  0.595000  1.0  0.0493
  H  H356  1  0.715900  0.262300  0.527300  1.0  0.0537
  H  H357  1  0.559900  0.574400  0.500700  1.0  0.0889
  H  H358  1  0.601900  0.656600  0.474700  1.0  0.0948
  H  H359  1  0.514800  0.602200  0.514000  1.0  0.0676
  H  H360  1  0.556100  0.682900  0.487900  1.0  0.0733
  H  H361  1  0.254600  0.676800  0.976400  1.0  0.0982
  H  H362  1  0.175300  0.703500  0.026400  1.0  0.1124
  H  H363  1  0.256100  0.630000  0.006000  1.0  0.0759
  H  H364  1  0.178300  0.653600  0.052100  1.0  0.0681
  H  H365  1  0.109200  0.798200  0.832000  1.0  0.1062
  H  H366  1  0.191100  0.765500  0.793100  1.0  0.0937
  H  H367  1  0.083600  0.784300  0.784600  1.0  0.0479
  H  H368  1  0.162200  0.748700  0.748600  1.0  0.0674
  H  H369  1  0.321400  0.888000  0.977700  1.0  0.1156
  H  H370  1  0.234900  0.929300  0.992400  1.0  0.1075
  H  H371  1  0.262000  0.969500  0.020100  1.0  0.0606
  H  H372  1  0.344700  0.935400  0.996600  1.0  0.069
  H  H373  1  0.056500  0.795800  0.913900  1.0  0.0958
  H  H374  1  0.085600  0.744900  0.991800  1.0  0.1052
  H  H375  1  0.134800  0.773000  0.988500  1.0  0.0789
  H  H376  1  0.107000  0.818500  0.910700  1.0  0.0829
  H  H377  1  0.376200  0.804400  0.937100  1.0  0.1067
  H  H378  1  0.327300  0.769900  0.009500  1.0  0.0985
  H  H379  1  0.332100  0.796700  0.905000  1.0  0.0504
  H  H380  1  0.284100  0.762300  0.972700  1.0  0.0537
  H  H381  1  0.440100  0.074400  0.999300  1.0  0.0888
  H  H382  1  0.398100  0.156600  0.025300  1.0  0.0954
  H  H383  1  0.485200  0.102200  0.986000  1.0  0.0676
  H  H384  1  0.443900  0.182900  0.012100  1.0  0.0734
  H  H385  1  0.523600  0.754600  0.676800  1.0  0.0992
  H  H386  1  0.473600  0.675300  0.703500  1.0  0.1118
  H  H387  1  0.494000  0.756100  0.630000  1.0  0.0748
  H  H388  1  0.447900  0.678300  0.653600  1.0  0.0679
  H  H389  1  0.668000  0.609200  0.798200  1.0  0.1063
  H  H390  1  0.706900  0.691100  0.765500  1.0  0.0945
  H  H391  1  0.715400  0.583600  0.784300  1.0  0.0476
  H  H392  1  0.751400  0.662200  0.748700  1.0  0.0682
  H  H393  1  0.522300  0.821400  0.888000  1.0  0.1162
  H  H394  1  0.507600  0.734900  0.929300  1.0  0.1085
  H  H395  1  0.479900  0.762000  0.969500  1.0  0.0601
  H  H396  1  0.503400  0.844700  0.935400  1.0  0.0706
  H  H397  1  0.586100  0.556500  0.795800  1.0  0.0966
  H  H398  1  0.508200  0.585600  0.744900  1.0  0.1038
  H  H399  1  0.511500  0.634800  0.773000  1.0  0.0788
  H  H400  1  0.589300  0.607000  0.818500  1.0  0.0829
  H  H401  1  0.562900  0.876200  0.804400  1.0  0.1067
  H  H402  1  0.490500  0.827300  0.769900  1.0  0.1004
  H  H403  1  0.595000  0.832100  0.796700  1.0  0.049
  H  H404  1  0.527300  0.784100  0.762300  1.0  0.0527
  H  H405  1  0.500700  0.940100  0.074400  1.0  0.0887
  H  H406  1  0.474700  0.898100  0.156600  1.0  0.0955
  H  H407  1  0.514000  0.985200  0.102200  1.0  0.069
  H  H408  1  0.487900  0.943900  0.182900  1.0  0.0717
  H  H409  1  0.976400  0.245400  0.176800  1.0  0.0993
  H  H410  1  0.026400  0.324700  0.203500  1.0  0.111
  H  H411  1  0.006000  0.243900  0.130000  1.0  0.0745
  H  H412  1  0.052100  0.321700  0.153600  1.0  0.0684
  H  H413  1  0.832000  0.390800  0.298200  1.0  0.1061
  H  H414  1  0.793100  0.308900  0.265500  1.0  0.0949
  H  H415  1  0.784600  0.416400  0.284300  1.0  0.0468
  H  H416  1  0.748600  0.337800  0.248700  1.0  0.0678
  H  H417  1  0.977700  0.178600  0.388000  1.0  0.1161
  H  H418  1  0.992400  0.265100  0.429300  1.0  0.1025
  H  H419  1  0.020100  0.238000  0.469500  1.0  0.0594
  H  H420  1  0.996600  0.155300  0.435400  1.0  0.0706
  H  H421  1  0.913900  0.443500  0.295800  1.0  0.097
  H  H422  1  0.991800  0.414400  0.244900  1.0  0.1036
  H  H423  1  0.988500  0.365200  0.273000  1.0  0.0792
  H  H424  1  0.910700  0.393000  0.318500  1.0  0.0832
  H  H425  1  0.937100  0.123800  0.304400  1.0  0.1064
  H  H426  1  0.009500  0.172700  0.269900  1.0  0.0997
  H  H427  1  0.905000  0.167900  0.296700  1.0  0.0487
  H  H428  1  0.972700  0.215900  0.262300  1.0  0.0521
  H  H429  1  0.999300  0.059900  0.574400  1.0  0.0885
  H  H430  1  0.025300  0.101900  0.656600  1.0  0.0955
  H  H431  1  0.986000  0.014800  0.602200  1.0  0.0687
  H  H432  1  0.012100  0.056100  0.682900  1.0  0.0719
  H  H433  1  0.476400  0.254600  0.823200  1.0  0.0997
  H  H434  1  0.526400  0.175300  0.796500  1.0  0.1106
  H  H435  1  0.506000  0.256100  0.870000  1.0  0.0743
  H  H436  1  0.552100  0.178300  0.846400  1.0  0.0681
  H  H437  1  0.332000  0.109200  0.701800  1.0  0.1056
  H  H438  1  0.293100  0.191100  0.734500  1.0  0.0947
  H  H439  1  0.284600  0.083600  0.715700  1.0  0.0478
  H  H440  1  0.248600  0.162200  0.751300  1.0  0.0679
  H  H441  1  0.477700  0.321400  0.612000  1.0  0.1168
  H  H442  1  0.492400  0.234900  0.570700  1.0  0.1083
  H  H443  1  0.520100  0.262000  0.530500  1.0  0.0602
  H  H444  1  0.496600  0.344700  0.564600  1.0  0.0707
  H  H445  1  0.413900  0.056500  0.704200  1.0  0.0969
  H  H446  1  0.491800  0.085600  0.755100  1.0  0.1034
  H  H447  1  0.488500  0.134800  0.727000  1.0  0.0788
  H  H448  1  0.410700  0.107000  0.681500  1.0  0.0824
  H  H449  1  0.437100  0.376200  0.695600  1.0  0.1069
  H  H450  1  0.509500  0.327300  0.730100  1.0  0.0995
  H  H451  1  0.405000  0.332100  0.703300  1.0  0.0479
  H  H452  1  0.472700  0.284100  0.737700  1.0  0.0529
  H  H453  1  0.499300  0.440100  0.425600  1.0  0.0881
  H  H454  1  0.525300  0.398100  0.343400  1.0  0.0952
  H  H455  1  0.486000  0.485200  0.397800  1.0  0.0691
  H  H456  1  0.512100  0.443900  0.317100  1.0  0.0723
  H  H457  1  0.023600  0.745400  0.323200  1.0  0.0992
  H  H458  1  0.973600  0.824700  0.296500  1.0  0.1113
  H  H459  1  0.994000  0.743900  0.370000  1.0  0.0746
  H  H460  1  0.947900  0.821700  0.346400  1.0  0.0678
  H  H461  1  0.168000  0.890800  0.201800  1.0  0.1061
  H  H462  1  0.206900  0.808900  0.234500  1.0  0.095
  H  H463  1  0.215400  0.916400  0.215700  1.0  0.0474
  H  H464  1  0.251400  0.837800  0.251300  1.0  0.0682
  H  H465  1  0.022300  0.678600  0.112000  1.0  0.1167
  H  H466  1  0.007600  0.765100  0.070700  1.0  0.1027
  H  H467  1  0.979900  0.738000  0.030500  1.0  0.0602
  H  H468  1  0.003400  0.655300  0.064600  1.0  0.0714
  H  H469  1  0.086100  0.943500  0.204200  1.0  0.0963
  H  H470  1  0.008200  0.914400  0.255100  1.0  0.1037
  H  H471  1  0.011500  0.865200  0.227000  1.0  0.0785
  H  H472  1  0.089300  0.893000  0.181500  1.0  0.0833
  H  H473  1  0.062900  0.623800  0.195600  1.0  0.1063
  H  H474  1  0.990500  0.672700  0.230100  1.0  0.1006
  H  H475  1  0.095000  0.667900  0.203300  1.0  0.0489
  H  H476  1  0.027300  0.715900  0.237700  1.0  0.0525
  H  H477  1  0.000700  0.559900  0.925600  1.0  0.0885
  H  H478  1  0.974700  0.601900  0.843400  1.0  0.0959
  H  H479  1  0.014000  0.514800  0.897800  1.0  0.0693
  H  H480  1  0.987900  0.556100  0.817100  1.0  0.0727
  H  H481  1  0.676800  0.523600  0.754600  1.0  0.099
  H  H482  1  0.703500  0.473600  0.675300  1.0  0.1117
  H  H483  1  0.630000  0.494000  0.756100  1.0  0.0762
  H  H484  1  0.653600  0.447900  0.678300  1.0  0.0669
  H  H485  1  0.798200  0.668000  0.609200  1.0  0.1057
  H  H486  1  0.765500  0.706900  0.691100  1.0  0.0931
  H  H487  1  0.784300  0.715400  0.583600  1.0  0.0471
  H  H488  1  0.748700  0.751400  0.662200  1.0  0.0689
  H  H489  1  0.888000  0.522300  0.821400  1.0  0.1149
  H  H490  1  0.929300  0.507600  0.734900  1.0  0.1068
  H  H491  1  0.969500  0.479900  0.762000  1.0  0.0615
  H  H492  1  0.935400  0.503400  0.844700  1.0  0.0711
  H  H493  1  0.795800  0.586100  0.556500  1.0  0.0964
  H  H494  1  0.744900  0.508200  0.585600  1.0  0.1049
  H  H495  1  0.773000  0.511500  0.634800  1.0  0.0779
  H  H496  1  0.818500  0.589300  0.607000  1.0  0.0811
  H  H497  1  0.804400  0.562900  0.876200  1.0  0.1073
  H  H498  1  0.769900  0.490500  0.827300  1.0  0.1008
  H  H499  1  0.796700  0.595000  0.832100  1.0  0.0496
  H  H500  1  0.762300  0.527300  0.784100  1.0  0.0536
  H  H501  1  0.074400  0.500700  0.940100  1.0  0.0888
  H  H502  1  0.156600  0.474700  0.898100  1.0  0.0957
  H  H503  1  0.102200  0.514000  0.985200  1.0  0.0695
  H  H504  1  0.182900  0.487900  0.943900  1.0  0.0724
  H  H505  1  0.176800  0.976400  0.245400  1.0  0.0987
  H  H506  1  0.203500  0.026400  0.324700  1.0  0.1119
  H  H507  1  0.130000  0.006000  0.243900  1.0  0.0758
  H  H508  1  0.153600  0.052100  0.321700  1.0  0.0675
  H  H509  1  0.298200  0.832000  0.390800  1.0  0.1056
  H  H510  1  0.265500  0.793100  0.308900  1.0  0.0938
  H  H511  1  0.284300  0.784600  0.416400  1.0  0.047
  H  H512  1  0.248700  0.748600  0.337800  1.0  0.0682
  H  H513  1  0.388000  0.977700  0.178600  1.0  0.115
  H  H514  1  0.429300  0.992400  0.265100  1.0  0.1027
  H  H515  1  0.469500  0.020100  0.238000  1.0  0.0609
  H  H516  1  0.435400  0.996600  0.155300  1.0  0.0702
  H  H517  1  0.295800  0.913900  0.443500  1.0  0.0963
  H  H518  1  0.244900  0.991800  0.414400  1.0  0.1052
  H  H519  1  0.273000  0.988500  0.365200  1.0  0.0776
  H  H520  1  0.318500  0.910700  0.393000  1.0  0.0824
  H  H521  1  0.304400  0.937100  0.123800  1.0  0.1071
  H  H522  1  0.269900  0.009500  0.172700  1.0  0.1003
  H  H523  1  0.296700  0.905000  0.167900  1.0  0.0508
  H  H524  1  0.262300  0.972700  0.215900  1.0  0.0537
  H  H525  1  0.574400  0.999300  0.059900  1.0  0.089
  H  H526  1  0.656600  0.025300  0.101900  1.0  0.0957
  H  H527  1  0.602200  0.986000  0.014800  1.0  0.0688
  H  H528  1  0.682900  0.012100  0.056100  1.0  0.072
  H  H529  1  0.823200  0.476400  0.254600  1.0  0.0993
  H  H530  1  0.796500  0.526400  0.175300  1.0  0.1116
  H  H531  1  0.870000  0.506000  0.256100  1.0  0.076
  H  H532  1  0.846400  0.552100  0.178300  1.0  0.0678
  H  H533  1  0.701800  0.332000  0.109200  1.0  0.1056
  H  H534  1  0.734500  0.293100  0.191100  1.0  0.0936
  H  H535  1  0.715700  0.284600  0.083600  1.0  0.0477
  H  H536  1  0.751300  0.248600  0.162200  1.0  0.0692
  H  H537  1  0.612000  0.477700  0.321400  1.0  0.1152
  H  H538  1  0.570700  0.492400  0.234900  1.0  0.1069
  H  H539  1  0.530500  0.520100  0.262000  1.0  0.0613
  H  H540  1  0.564600  0.496600  0.344700  1.0  0.0698
  H  H541  1  0.704200  0.413900  0.056500  1.0  0.0961
  H  H542  1  0.755100  0.491800  0.085600  1.0  0.1052
  H  H543  1  0.727000  0.488500  0.134800  1.0  0.0774
  H  H544  1  0.681500  0.410700  0.107000  1.0  0.0806
  H  H545  1  0.695600  0.437100  0.376200  1.0  0.1072
  H  H546  1  0.730100  0.509500  0.327300  1.0  0.1003
  H  H547  1  0.703300  0.405000  0.332100  1.0  0.0503
  H  H548  1  0.737700  0.472700  0.284100  1.0  0.0539
  H  H549  1  0.425600  0.499300  0.440100  1.0  0.0873
  H  H550  1  0.343400  0.525300  0.398100  1.0  0.0959
  H  H551  1  0.397800  0.486000  0.485200  1.0  0.0693
  H  H552  1  0.317100  0.512100  0.443900  1.0  0.0726
  H  H553  1  0.323200  0.023600  0.745400  1.0  0.0987
  H  H554  1  0.296500  0.973600  0.824700  1.0  0.1123
  H  H555  1  0.370000  0.994000  0.743900  1.0  0.0758
  H  H556  1  0.346400  0.947900  0.821700  1.0  0.0669
  H  H557  1  0.201800  0.168000  0.890800  1.0  0.1062
  H  H558  1  0.234500  0.206900  0.808900  1.0  0.0938
  H  H559  1  0.215700  0.215400  0.916400  1.0  0.0469
  H  H560  1  0.251300  0.251400  0.837800  1.0  0.0686
  H  H561  1  0.112000  0.022300  0.678600  1.0  0.1153
  H  H562  1  0.070700  0.007600  0.765100  1.0  0.1027
  H  H563  1  0.030500  0.979900  0.738000  1.0  0.0607
  H  H564  1  0.064600  0.003400  0.655300  1.0  0.0703
  H  H565  1  0.204200  0.086100  0.943500  1.0  0.0963
  H  H566  1  0.255100  0.008200  0.914400  1.0  0.1049
  H  H567  1  0.227000  0.011500  0.865200  1.0  0.0769
  H  H568  1  0.181500  0.089300  0.893000  1.0  0.0822
  H  H569  1  0.195600  0.062900  0.623800  1.0  0.1072
  H  H570  1  0.230100  0.990500  0.672700  1.0  0.1008
  H  H571  1  0.203300  0.095000  0.667900  1.0  0.0495
  H  H572  1  0.237700  0.027300  0.715900  1.0  0.0538
  H  H573  1  0.925600  0.000700  0.559900  1.0  0.0875
  H  H574  1  0.843400  0.974700  0.601900  1.0  0.0964
  H  H575  1  0.897800  0.014000  0.514800  1.0  0.069
  H  H576  1  0.817100  0.987900  0.556100  1.0  0.0727
  H  H577  1  0.754600  0.676800  0.523600  1.0  0.0984
  H  H578  1  0.675300  0.703500  0.473600  1.0  0.1123
  H  H579  1  0.756100  0.630000  0.494000  1.0  0.0753
  H  H580  1  0.678300  0.653600  0.447900  1.0  0.0677
  H  H581  1  0.609200  0.798200  0.668000  1.0  0.1058
  H  H582  1  0.691100  0.765500  0.706900  1.0  0.0937
  H  H583  1  0.583600  0.784300  0.715400  1.0  0.0477
  H  H584  1  0.662200  0.748700  0.751400  1.0  0.0678
  H  H585  1  0.821400  0.888000  0.522300  1.0  0.1154
  H  H586  1  0.734900  0.929300  0.507600  1.0  0.1076
  H  H587  1  0.762000  0.969500  0.479900  1.0  0.0609
  H  H588  1  0.844700  0.935400  0.503400  1.0  0.0691
  H  H589  1  0.556500  0.795800  0.586100  1.0  0.096
  H  H590  1  0.585600  0.744900  0.508200  1.0  0.1045
  H  H591  1  0.634800  0.773000  0.511500  1.0  0.078
  H  H592  1  0.607000  0.818500  0.589300  1.0  0.0819
  H  H593  1  0.876200  0.804400  0.562900  1.0  0.1065
  H  H594  1  0.827300  0.769900  0.490500  1.0  0.0978
  H  H595  1  0.832100  0.796700  0.595000  1.0  0.0494
  H  H596  1  0.784100  0.762300  0.527300  1.0  0.0532
  H  H597  1  0.940100  0.074400  0.500700  1.0  0.0888
  H  H598  1  0.898100  0.156600  0.474700  1.0  0.0955
  H  H599  1  0.985200  0.102200  0.514000  1.0  0.0676
  H  H600  1  0.943900  0.182900  0.487900  1.0  0.0735
  H  H601  1  0.245400  0.176800  0.976400  1.0  0.0983
  H  H602  1  0.324700  0.203500  0.026400  1.0  0.1114
  H  H603  1  0.243900  0.130000  0.006000  1.0  0.0756
  H  H604  1  0.321700  0.153600  0.052100  1.0  0.0689
  H  H605  1  0.390800  0.298200  0.832000  1.0  0.1062
  H  H606  1  0.308900  0.265500  0.793100  1.0  0.0941
  H  H607  1  0.416400  0.284300  0.784600  1.0  0.047
  H  H608  1  0.337800  0.248700  0.748600  1.0  0.0672
  H  H609  1  0.178600  0.388000  0.977700  1.0  0.1154
  H  H610  1  0.265100  0.429300  0.992400  1.0  0.1038
  H  H611  1  0.238000  0.469500  0.020100  1.0  0.0603
  H  H612  1  0.155300  0.435400  0.996600  1.0  0.0699
  H  H613  1  0.443500  0.295800  0.913900  1.0  0.0963
  H  H614  1  0.414400  0.244900  0.991800  1.0  0.1052
  H  H615  1  0.365200  0.273000  0.988500  1.0  0.0787
  H  H616  1  0.393000  0.318500  0.910700  1.0  0.0833
  H  H617  1  0.123800  0.304400  0.937100  1.0  0.1063
  H  H618  1  0.172700  0.269900  0.009500  1.0  0.0987
  H  H619  1  0.167900  0.296700  0.905000  1.0  0.0495
  H  H620  1  0.215900  0.262300  0.972700  1.0  0.0545
  H  H621  1  0.059900  0.574400  0.999300  1.0  0.0886
  H  H622  1  0.101900  0.656600  0.025300  1.0  0.0948
  H  H623  1  0.014800  0.602200  0.986000  1.0  0.0674
  H  H624  1  0.056100  0.682900  0.012100  1.0  0.0731
  H  H625  1  0.254600  0.823200  0.476400  1.0  0.0981
  H  H626  1  0.175300  0.796500  0.526400  1.0  0.1119
  H  H627  1  0.256100  0.870000  0.506000  1.0  0.0757
  H  H628  1  0.178300  0.846400  0.552100  1.0  0.0683
  H  H629  1  0.109200  0.701800  0.332000  1.0  0.1066
  H  H630  1  0.191100  0.734500  0.293100  1.0  0.094
  H  H631  1  0.083600  0.715700  0.284600  1.0  0.0478
  H  H632  1  0.162200  0.751300  0.248600  1.0  0.0673
  H  H633  1  0.321400  0.612000  0.477700  1.0  0.1154
  H  H634  1  0.234900  0.570700  0.492400  1.0  0.1073
  H  H635  1  0.262000  0.530500  0.520100  1.0  0.0607
  H  H636  1  0.344700  0.564600  0.496600  1.0  0.0693
  H  H637  1  0.056500  0.704200  0.413900  1.0  0.0961
  H  H638  1  0.085600  0.755100  0.491800  1.0  0.1049
  H  H639  1  0.134800  0.727000  0.488500  1.0  0.079
  H  H640  1  0.107000  0.681500  0.410700  1.0  0.0808
  H  H641  1  0.376200  0.695600  0.437100  1.0  0.1063
  H  H642  1  0.327300  0.730100  0.509500  1.0  0.098
  H  H643  1  0.332100  0.703300  0.405000  1.0  0.0499
  H  H644  1  0.284100  0.737700  0.472700  1.0  0.0539
  H  H645  1  0.440100  0.425600  0.499300  1.0  0.0887
  H  H646  1  0.398100  0.343400  0.525300  1.0  0.0955
  H  H647  1  0.485200  0.397800  0.486000  1.0  0.0678
  H  H648  1  0.443900  0.317100  0.512100  1.0  0.0732
  H  H649  1  0.745400  0.323200  0.023600  1.0  0.0983
  H  H650  1  0.824700  0.296500  0.973600  1.0  0.1114
  H  H651  1  0.743900  0.370000  0.994000  1.0  0.0754
  H  H652  1  0.821700  0.346400  0.947900  1.0  0.0681
  H  H653  1  0.890800  0.201800  0.168000  1.0  0.1057
  H  H654  1  0.808900  0.234500  0.206900  1.0  0.0942
  H  H655  1  0.916400  0.215700  0.215400  1.0  0.0469
  H  H656  1  0.837800  0.251300  0.251400  1.0  0.0678
  H  H657  1  0.678600  0.112000  0.022300  1.0  0.1153
  H  H658  1  0.765100  0.070700  0.007600  1.0  0.1032
  H  H659  1  0.738000  0.030500  0.979900  1.0  0.0611
  H  H660  1  0.655300  0.064600  0.003400  1.0  0.0699
  H  H661  1  0.943500  0.204200  0.086100  1.0  0.0961
  H  H662  1  0.914400  0.255100  0.008200  1.0  0.1048
  H  H663  1  0.865200  0.227000  0.011500  1.0  0.0779
  H  H664  1  0.893000  0.181500  0.089300  1.0  0.0825
  H  H665  1  0.623800  0.195600  0.062900  1.0  0.1065
  H  H666  1  0.672700  0.230100  0.990500  1.0  0.098
  H  H667  1  0.667900  0.203300  0.095000  1.0  0.0495
  H  H668  1  0.715900  0.237700  0.027300  1.0  0.0539
  H  H669  1  0.559900  0.925600  0.000700  1.0  0.0888
  H  H670  1  0.601900  0.843400  0.974700  1.0  0.0947
  H  H671  1  0.514800  0.897800  0.014000  1.0  0.0675
  H  H672  1  0.556100  0.817100  0.987900  1.0  0.0727
  C  C673  1  0.479600  0.286400  0.274400  1.0  0.3177
  C  C674  1  0.498200  0.285200  0.304100  1.0  0.0062
  C  C675  1  0.492400  0.261200  0.327000  1.0  -0.1587
  C  C676  1  0.521200  0.308000  0.311200  1.0  -0.1632
  C  C677  1  0.510000  0.260800  0.355100  1.0  0.1377
  C  C678  1  0.536900  0.305500  0.341200  1.0  0.1435
  C  C679  1  0.347400  0.328800  0.208500  1.0  0.3154
  C  C680  1  0.318300  0.347000  0.217800  1.0  -0.0514
  C  C681  1  0.315100  0.379000  0.211700  1.0  -0.1582
  C  C682  1  0.292400  0.331500  0.231300  1.0  -0.1564
  C  C683  1  0.286500  0.394100  0.220300  1.0  0.1487
  C  C684  1  0.265300  0.348900  0.240300  1.0  0.1383
  C  C685  1  0.464700  0.240400  0.122700  1.0  0.3297
  C  C686  1  0.480800  0.224400  0.095200  1.0  -0.0649
  C  C687  1  0.483900  0.191600  0.094300  1.0  -0.1772
  C  C688  1  0.493700  0.242300  0.070700  1.0  -0.1802
  C  C689  1  0.508800  0.225700  0.046100  1.0  0.1503
  C  C690  1  0.496700  0.178100  0.066400  1.0  0.1497
  C  C691  1  0.452400  0.463800  0.252800  1.0  0.4271
  C  C692  1  0.451000  0.433600  0.234100  1.0  -0.0685
  C  C693  1  0.428700  0.427300  0.210500  1.0  -0.1247
  C  C694  1  0.475000  0.410500  0.240200  1.0  -0.1414
  C  C695  1  0.472800  0.381300  0.223100  1.0  0.1226
  C  C696  1  0.427700  0.397700  0.196000  1.0  0.0979
  C  C697  1  0.496800  0.114200  0.212700  1.0  0.3271
  C  C698  1  0.476600  0.142600  0.216500  1.0  0.1185
  C  C699  1  0.445700  0.142400  0.205600  1.0  -0.1678
  C  C700  1  0.487400  0.169800  0.225400  1.0  -0.1387
  C  C701  1  0.427000  0.169700  0.209100  1.0  0.1576
  C  C702  1  0.464700  0.196700  0.228100  1.0  0.092
  C  C703  1  0.524400  0.114700  0.906200  1.0  0.3138
  C  C704  1  0.514900  0.086400  0.888300  1.0  -0.0198
  C  C705  1  0.502500  0.059600  0.903000  1.0  -0.1239
  C  C706  1  0.517700  0.084000  0.855400  1.0  -0.156
  C  C707  1  0.494700  0.032500  0.886200  1.0  0.1377
  C  C708  1  0.509700  0.056600  0.839800  1.0  0.1545
  C  C709  1  0.020400  0.713600  0.774400  1.0  0.318
  C  C710  1  0.001800  0.714800  0.804100  1.0  0.0059
  C  C711  1  0.007600  0.738800  0.827000  1.0  -0.1588
  C  C712  1  0.978800  0.692000  0.811200  1.0  -0.1643
  C  C713  1  0.990000  0.739200  0.855100  1.0  0.1373
  C  C714  1  0.963100  0.694500  0.841200  1.0  0.143
  C  C715  1  0.152600  0.671200  0.708500  1.0  0.3169
  C  C716  1  0.181700  0.653000  0.717800  1.0  -0.0527
  C  C717  1  0.184900  0.621000  0.711700  1.0  -0.1585
  C  C718  1  0.207600  0.668500  0.731300  1.0  -0.1575
  C  C719  1  0.213500  0.605900  0.720300  1.0  0.1495
  C  C720  1  0.234700  0.651100  0.740300  1.0  0.1378
  C  C721  1  0.035300  0.759600  0.622700  1.0  0.3298
  C  C722  1  0.019200  0.775600  0.595200  1.0  -0.0649
  C  C723  1  0.016100  0.808400  0.594300  1.0  -0.177
  C  C724  1  0.006300  0.757700  0.570700  1.0  -0.1817
  C  C725  1  0.991200  0.774300  0.546100  1.0  0.15
  C  C726  1  0.003300  0.821900  0.566400  1.0  0.15
  C  C727  1  0.047600  0.536200  0.752800  1.0  0.4266
  C  C728  1  0.049000  0.566400  0.734100  1.0  -0.0675
  C  C729  1  0.071300  0.572700  0.710500  1.0  -0.1247
  C  C730  1  0.025000  0.589500  0.740200  1.0  -0.1434
  C  C731  1  0.027200  0.618700  0.723100  1.0  0.1218
  C  C732  1  0.072300  0.602300  0.696000  1.0  0.0985
  C  C733  1  0.003200  0.885800  0.712700  1.0  0.3274
  C  C734  1  0.023400  0.857400  0.716500  1.0  0.1193
  C  C735  1  0.054300  0.857600  0.705600  1.0  -0.1684
  C  C736  1  0.012600  0.830200  0.725400  1.0  -0.1391
  C  C737  1  0.073000  0.830300  0.709100  1.0  0.1576
  C  C738  1  0.035300  0.803300  0.728100  1.0  0.0915
  C  C739  1  0.975600  0.885300  0.406200  1.0  0.3141
  C  C740  1  0.985100  0.913600  0.388300  1.0  -0.0197
  C  C741  1  0.997500  0.940400  0.403000  1.0  -0.1245
  C  C742  1  0.982300  0.916000  0.355400  1.0  -0.1561
  C  C743  1  0.005300  0.967500  0.386200  1.0  0.1379
  C  C744  1  0.990300  0.943400  0.339800  1.0  0.1551
  C  C745  1  0.520400  0.786400  0.225600  1.0  0.3169
  C  C746  1  0.501800  0.785200  0.195900  1.0  0.0043
  C  C747  1  0.507600  0.761200  0.173000  1.0  -0.1594
  C  C748  1  0.478800  0.808000  0.188800  1.0  -0.1643
  C  C749  1  0.490000  0.760800  0.144900  1.0  0.1376
  C  C750  1  0.463100  0.805500  0.158800  1.0  0.1429
  C  C751  1  0.652600  0.828800  0.291500  1.0  0.3174
  C  C752  1  0.681700  0.847000  0.282200  1.0  -0.0526
  C  C753  1  0.684900  0.879000  0.288300  1.0  -0.1591
  C  C754  1  0.707600  0.831500  0.268700  1.0  -0.1572
  C  C755  1  0.713500  0.894100  0.279700  1.0  0.1489
  C  C756  1  0.734700  0.848900  0.259700  1.0  0.1371
  C  C757  1  0.535300  0.740400  0.377300  1.0  0.3303
  C  C758  1  0.519200  0.724400  0.404800  1.0  -0.0626
  C  C759  1  0.516100  0.691600  0.405700  1.0  -0.1772
  C  C760  1  0.506300  0.742300  0.429300  1.0  -0.1812
  C  C761  1  0.491200  0.725700  0.453900  1.0  0.1498
  C  C762  1  0.503300  0.678100  0.433600  1.0  0.1503
  C  C763  1  0.547600  0.963800  0.247200  1.0  0.4266
  C  C764  1  0.549000  0.933600  0.265900  1.0  -0.0678
  C  C765  1  0.571300  0.927300  0.289500  1.0  -0.1239
  C  C766  1  0.525000  0.910500  0.259800  1.0  -0.1429
  C  C767  1  0.527200  0.881300  0.276900  1.0  0.1215
  C  C768  1  0.572300  0.897700  0.304000  1.0  0.0996
  C  C769  1  0.503200  0.614200  0.287300  1.0  0.3273
  C  C770  1  0.523400  0.642600  0.283500  1.0  0.1196
  C  C771  1  0.554300  0.642400  0.294400  1.0  -0.168
  C  C772  1  0.512600  0.669800  0.274600  1.0  -0.1384
  C  C773  1  0.573000  0.669700  0.290900  1.0  0.1575
  C  C774  1  0.535300  0.696700  0.271900  1.0  0.0927
  C  C775  1  0.475600  0.614700  0.593800  1.0  0.314
  C  C776  1  0.485100  0.586400  0.611700  1.0  -0.0203
  C  C777  1  0.497500  0.559600  0.597000  1.0  -0.124
  C  C778  1  0.482300  0.584000  0.644600  1.0  -0.1573
  C  C779  1  0.505300  0.532500  0.613800  1.0  0.1364
  C  C780  1  0.490300  0.556600  0.660200  1.0  0.1544
  C  C781  1  0.979600  0.213600  0.725600  1.0  0.3175
  C  C782  1  0.998200  0.214800  0.695900  1.0  0.0049
  C  C783  1  0.992400  0.238800  0.673000  1.0  -0.1591
  C  C784  1  0.021200  0.192000  0.688800  1.0  -0.162
  C  C785  1  0.010000  0.239200  0.644900  1.0  0.1381
  C  C786  1  0.036900  0.194500  0.658800  1.0  0.1431
  C  C787  1  0.847400  0.171200  0.791500  1.0  0.3162
  C  C788  1  0.818300  0.153000  0.782200  1.0  -0.0517
  C  C789  1  0.815100  0.121000  0.788300  1.0  -0.1579
  C  C790  1  0.792400  0.168500  0.768700  1.0  -0.1565
  C  C791  1  0.786500  0.105900  0.779700  1.0  0.1504
  C  C792  1  0.765300  0.151100  0.759700  1.0  0.137
  C  C793  1  0.964700  0.259600  0.877300  1.0  0.3304
  C  C794  1  0.980800  0.275600  0.904800  1.0  -0.0643
  C  C795  1  0.983900  0.308400  0.905700  1.0  -0.1782
  C  C796  1  0.993700  0.257700  0.929300  1.0  -0.1828
  C  C797  1  0.008800  0.274300  0.953900  1.0  0.1509
  C  C798  1  0.996700  0.321900  0.933600  1.0  0.15
  C  C799  1  0.952400  0.036200  0.747200  1.0  0.4264
  C  C800  1  0.951000  0.066400  0.765900  1.0  -0.067
  C  C801  1  0.928700  0.072700  0.789500  1.0  -0.1238
  C  C802  1  0.975000  0.089500  0.759800  1.0  -0.1418
  C  C803  1  0.972800  0.118700  0.776900  1.0  0.1223
  C  C804  1  0.927700  0.102300  0.804000  1.0  0.0981
  C  C805  1  0.996800  0.385800  0.787300  1.0  0.3279
  C  C806  1  0.976600  0.357400  0.783500  1.0  0.1185
  C  C807  1  0.945700  0.357600  0.794400  1.0  -0.1688
  C  C808  1  0.987400  0.330200  0.774600  1.0  -0.1391
  C  C809  1  0.927000  0.330300  0.790900  1.0  0.1589
  C  C810  1  0.964700  0.303300  0.771900  1.0  0.0917
  C  C811  1  0.024400  0.385300  0.093800  1.0  0.3133
  C  C812  1  0.014900  0.413600  0.111700  1.0  -0.0202
  C  C813  1  0.002500  0.440400  0.097000  1.0  -0.1239
  C  C814  1  0.017700  0.416000  0.144600  1.0  -0.1562
  C  C815  1  0.994700  0.467500  0.113800  1.0  0.1373
  C  C816  1  0.009700  0.443400  0.160200  1.0  0.1559
  C  C817  1  0.274400  0.479600  0.286400  1.0  0.3168
  C  C818  1  0.304100  0.498200  0.285200  1.0  0.0063
  C  C819  1  0.327000  0.492400  0.261200  1.0  -0.16
  C  C820  1  0.311200  0.521200  0.308000  1.0  -0.1666
  C  C821  1  0.355100  0.510000  0.260800  1.0  0.1364
  C  C822  1  0.341200  0.536900  0.305500  1.0  0.1393
  C  C823  1  0.208500  0.347400  0.328800  1.0  0.316
  C  C824  1  0.217800  0.318300  0.347000  1.0  -0.0541
  C  C825  1  0.211700  0.315100  0.379000  1.0  -0.1609
  C  C826  1  0.231300  0.292400  0.331500  1.0  -0.1535
  C  C827  1  0.220300  0.286500  0.394100  1.0  0.1511
  C  C828  1  0.240300  0.265300  0.348900  1.0  0.1345
  C  C829  1  0.122700  0.464700  0.240400  1.0  0.3299
  C  C830  1  0.095200  0.480800  0.224400  1.0  -0.0634
  C  C831  1  0.094300  0.483900  0.191600  1.0  -0.177
  C  C832  1  0.070700  0.493700  0.242300  1.0  -0.1819
  C  C833  1  0.046100  0.508800  0.225700  1.0  0.1459
  C  C834  1  0.066400  0.496700  0.178100  1.0  0.1508
  C  C835  1  0.252800  0.452400  0.463800  1.0  0.4254
  C  C836  1  0.234100  0.451000  0.433600  1.0  -0.0673
  C  C837  1  0.210500  0.428700  0.427300  1.0  -0.1243
  C  C838  1  0.240200  0.475000  0.410500  1.0  -0.1434
  C  C839  1  0.223100  0.472800  0.381300  1.0  0.121
  C  C840  1  0.196000  0.427700  0.397700  1.0  0.1018
  C  C841  1  0.212700  0.496800  0.114200  1.0  0.3276
  C  C842  1  0.216500  0.476600  0.142600  1.0  0.1177
  C  C843  1  0.205600  0.445700  0.142400  1.0  -0.1652
  C  C844  1  0.225400  0.487400  0.169800  1.0  -0.1443
  C  C845  1  0.209100  0.427000  0.169700  1.0  0.1597
  C  C846  1  0.228100  0.464700  0.196700  1.0  0.0903
  C  C847  1  0.906200  0.524400  0.114700  1.0  0.3132
  C  C848  1  0.888300  0.514900  0.086400  1.0  -0.0221
  C  C849  1  0.903000  0.502500  0.059600  1.0  -0.1236
  C  C850  1  0.855400  0.517700  0.084000  1.0  -0.1531
  C  C851  1  0.886200  0.494700  0.032500  1.0  0.1397
  C  C852  1  0.839800  0.509700  0.056600  1.0  0.1571
  C  C853  1  0.774400  0.020400  0.713600  1.0  0.317
  C  C854  1  0.804100  0.001800  0.714800  1.0  0.0064
  C  C855  1  0.827000  0.007600  0.738800  1.0  -0.1603
  C  C856  1  0.811200  0.978800  0.692000  1.0  -0.1661
  C  C857  1  0.855100  0.990000  0.739200  1.0  0.1391
  C  C858  1  0.841200  0.963100  0.694500  1.0  0.1411
  C  C859  1  0.708500  0.152600  0.671200  1.0  0.3157
  C  C860  1  0.717800  0.181700  0.653000  1.0  -0.0544
  C  C861  1  0.711700  0.184900  0.621000  1.0  -0.1597
  C  C862  1  0.731300  0.207600  0.668500  1.0  -0.1546
  C  C863  1  0.720300  0.213500  0.605900  1.0  0.1495
  C  C864  1  0.740300  0.234700  0.651100  1.0  0.1329
  C  C865  1  0.622700  0.035300  0.759600  1.0  0.3297
  C  C866  1  0.595200  0.019200  0.775600  1.0  -0.0626
  C  C867  1  0.594300  0.016100  0.808400  1.0  -0.1752
  C  C868  1  0.570700  0.006300  0.757700  1.0  -0.1789
  C  C869  1  0.546100  0.991200  0.774300  1.0  0.1466
  C  C870  1  0.566400  0.003300  0.821900  1.0  0.1499
  C  C871  1  0.752800  0.047600  0.536200  1.0  0.4262
  C  C872  1  0.734100  0.049000  0.566400  1.0  -0.0656
  C  C873  1  0.710500  0.071300  0.572700  1.0  -0.1247
  C  C874  1  0.740200  0.025000  0.589500  1.0  -0.1428
  C  C875  1  0.723100  0.027200  0.618700  1.0  0.1209
  C  C876  1  0.696000  0.072300  0.602300  1.0  0.1017
  C  C877  1  0.712700  0.003200  0.885800  1.0  0.3273
  C  C878  1  0.716500  0.023400  0.857400  1.0  0.1186
  C  C879  1  0.705600  0.054300  0.857600  1.0  -0.1679
  C  C880  1  0.725400  0.012600  0.830200  1.0  -0.1441
  C  C881  1  0.709100  0.073000  0.830300  1.0  0.159
  C  C882  1  0.728100  0.035300  0.803300  1.0  0.0914
  C  C883  1  0.406200  0.975600  0.885300  1.0  0.3142
  C  C884  1  0.388300  0.985100  0.913600  1.0  -0.0218
  C  C885  1  0.403000  0.997500  0.940400  1.0  -0.1234
  C  C886  1  0.355400  0.982300  0.916000  1.0  -0.153
  C  C887  1  0.386200  0.005300  0.967500  1.0  0.1399
  C  C888  1  0.339800  0.990300  0.943400  1.0  0.1571
  C  C889  1  0.225600  0.520400  0.786400  1.0  0.3157
  C  C890  1  0.195900  0.501800  0.785200  1.0  0.0063
  C  C891  1  0.173000  0.507600  0.761200  1.0  -0.1606
  C  C892  1  0.188800  0.478800  0.808000  1.0  -0.1649
  C  C893  1  0.144900  0.490000  0.760800  1.0  0.1379
  C  C894  1  0.158800  0.463100  0.805500  1.0  0.1395
  C  C895  1  0.291500  0.652600  0.828800  1.0  0.3159
  C  C896  1  0.282200  0.681700  0.847000  1.0  -0.0535
  C  C897  1  0.288300  0.684900  0.879000  1.0  -0.1592
  C  C898  1  0.268700  0.707600  0.831500  1.0  -0.1538
  C  C899  1  0.279700  0.713500  0.894100  1.0  0.1513
  C  C900  1  0.259700  0.734700  0.848900  1.0  0.1342
  C  C901  1  0.377300  0.535300  0.740400  1.0  0.3297
  C  C902  1  0.404800  0.519200  0.724400  1.0  -0.0633
  C  C903  1  0.405700  0.516100  0.691600  1.0  -0.1775
  C  C904  1  0.429300  0.506300  0.742300  1.0  -0.1826
  C  C905  1  0.453900  0.491200  0.725700  1.0  0.1476
  C  C906  1  0.433600  0.503300  0.678100  1.0  0.1506
  C  C907  1  0.247200  0.547600  0.963800  1.0  0.4272
  C  C908  1  0.265900  0.549000  0.933600  1.0  -0.0676
  C  C909  1  0.289500  0.571300  0.927300  1.0  -0.1244
  C  C910  1  0.259800  0.525000  0.910500  1.0  -0.1423
  C  C911  1  0.276900  0.527200  0.881300  1.0  0.1209
  C  C912  1  0.304000  0.572300  0.897700  1.0  0.1034
  C  C913  1  0.287300  0.503200  0.614200  1.0  0.328
  C  C914  1  0.283500  0.523400  0.642600  1.0  0.119
  C  C915  1  0.294400  0.554300  0.642400  1.0  -0.1677
  C  C916  1  0.274600  0.512600  0.669800  1.0  -0.1434
  C  C917  1  0.290900  0.573000  0.669700  1.0  0.1604
  C  C918  1  0.271900  0.535300  0.696700  1.0  0.0914
  C  C919  1  0.593800  0.475600  0.614700  1.0  0.3133
  C  C920  1  0.611700  0.485100  0.586400  1.0  -0.0227
  C  C921  1  0.597000  0.497500  0.559600  1.0  -0.1213
  C  C922  1  0.644600  0.482300  0.584000  1.0  -0.1526
  C  C923  1  0.613800  0.505300  0.532500  1.0  0.1404
  C  C924  1  0.660200  0.490300  0.556600  1.0  0.1567
  C  C925  1  0.725600  0.979600  0.213600  1.0  0.315
  C  C926  1  0.695900  0.998200  0.214800  1.0  0.0065
  C  C927  1  0.673000  0.992400  0.238800  1.0  -0.1596
  C  C928  1  0.688800  0.021200  0.192000  1.0  -0.1651
  C  C929  1  0.644900  0.010000  0.239200  1.0  0.1381
  C  C930  1  0.658800  0.036900  0.194500  1.0  0.1387
  C  C931  1  0.791500  0.847400  0.171200  1.0  0.3159
  C  C932  1  0.782200  0.818300  0.153000  1.0  -0.0543
  C  C933  1  0.788300  0.815100  0.121000  1.0  -0.1593
  C  C934  1  0.768700  0.792400  0.168500  1.0  -0.1549
  C  C935  1  0.779700  0.786500  0.105900  1.0  0.15
  C  C936  1  0.759700  0.765300  0.151100  1.0  0.134
  C  C937  1  0.877300  0.964700  0.259600  1.0  0.3301
  C  C938  1  0.904800  0.980800  0.275600  1.0  -0.0624
  C  C939  1  0.905700  0.983900  0.308400  1.0  -0.177
  C  C940  1  0.929300  0.993700  0.257700  1.0  -0.1793
  C  C941  1  0.953900  0.008800  0.274300  1.0  0.1464
  C  C942  1  0.933600  0.996700  0.321900  1.0  0.15
  C  C943  1  0.747200  0.952400  0.036200  1.0  0.4277
  C  C944  1  0.765900  0.951000  0.066400  1.0  -0.0663
  C  C945  1  0.789500  0.928700  0.072700  1.0  -0.1236
  C  C946  1  0.759800  0.975000  0.089500  1.0  -0.1429
  C  C947  1  0.776900  0.972800  0.118700  1.0  0.1183
  C  C948  1  0.804000  0.927700  0.102300  1.0  0.1031
  C  C949  1  0.787300  0.996800  0.385800  1.0  0.3283
  C  C950  1  0.783500  0.976600  0.357400  1.0  0.1191
  C  C951  1  0.794400  0.945700  0.357600  1.0  -0.1662
  C  C952  1  0.774600  0.987400  0.330200  1.0  -0.1435
  C  C953  1  0.790900  0.927000  0.330300  1.0  0.1589
  C  C954  1  0.771900  0.964700  0.303300  1.0  0.0923
  C  C955  1  0.093800  0.024400  0.385300  1.0  0.3139
  C  C956  1  0.111700  0.014900  0.413600  1.0  -0.0215
  C  C957  1  0.097000  0.002500  0.440400  1.0  -0.1209
  C  C958  1  0.144600  0.017700  0.416000  1.0  -0.1526
  C  C959  1  0.113800  0.994700  0.467500  1.0  0.1412
  C  C960  1  0.160200  0.009700  0.443400  1.0  0.1574
  C  C961  1  0.286400  0.274400  0.479600  1.0  0.316
  C  C962  1  0.285200  0.304100  0.498200  1.0  0.008
  C  C963  1  0.261200  0.327000  0.492400  1.0  -0.1609
  C  C964  1  0.308000  0.311200  0.521200  1.0  -0.1617
  C  C965  1  0.260800  0.355100  0.510000  1.0  0.1389
  C  C966  1  0.305500  0.341200  0.536900  1.0  0.1409
  C  C967  1  0.328800  0.208500  0.347400  1.0  0.3159
  C  C968  1  0.347000  0.217800  0.318300  1.0  -0.0533
  C  C969  1  0.379000  0.211700  0.315100  1.0  -0.1574
  C  C970  1  0.331500  0.231300  0.292400  1.0  -0.1562
  C  C971  1  0.394100  0.220300  0.286500  1.0  0.1488
  C  C972  1  0.348900  0.240300  0.265300  1.0  0.1365
  C  C973  1  0.240400  0.122700  0.464700  1.0  0.3291
  C  C974  1  0.224400  0.095200  0.480800  1.0  -0.0641
  C  C975  1  0.191600  0.094300  0.483900  1.0  -0.1781
  C  C976  1  0.242300  0.070700  0.493700  1.0  -0.1781
  C  C977  1  0.225700  0.046100  0.508800  1.0  0.1486
  C  C978  1  0.178100  0.066400  0.496700  1.0  0.1516
  C  C979  1  0.463800  0.252800  0.452400  1.0  0.4236
  C  C980  1  0.433600  0.234100  0.451000  1.0  -0.0665
  C  C981  1  0.427300  0.210500  0.428700  1.0  -0.1276
  C  C982  1  0.410500  0.240200  0.475000  1.0  -0.14
  C  C983  1  0.381300  0.223100  0.472800  1.0  0.1204
  C  C984  1  0.397700  0.196000  0.427700  1.0  0.0961
  C  C985  1  0.114200  0.212700  0.496800  1.0  0.3276
  C  C986  1  0.142600  0.216500  0.476600  1.0  0.112
  C  C987  1  0.142400  0.205600  0.445700  1.0  -0.1657
  C  C988  1  0.169800  0.225400  0.487400  1.0  -0.1409
  C  C989  1  0.169700  0.209100  0.427000  1.0  0.1594
  C  C990  1  0.196700  0.228100  0.464700  1.0  0.0903
  C  C991  1  0.114700  0.906200  0.524400  1.0  0.3129
  C  C992  1  0.086400  0.888300  0.514900  1.0  -0.02
  C  C993  1  0.059600  0.903000  0.502500  1.0  -0.1266
  C  C994  1  0.084000  0.855400  0.517700  1.0  -0.1546
  C  C995  1  0.032500  0.886200  0.494700  1.0  0.1378
  C  C996  1  0.056600  0.839800  0.509700  1.0  0.1543
  C  C997  1  0.713600  0.774400  0.020400  1.0  0.3168
  C  C998  1  0.714800  0.804100  0.001800  1.0  0.0078
  C  C999  1  0.738800  0.827000  0.007600  1.0  -0.1585
  C  C1000  1  0.692000  0.811200  0.978800  1.0  -0.1632
  C  C1001  1  0.739200  0.855100  0.990000  1.0  0.1384
  C  C1002  1  0.694500  0.841200  0.963100  1.0  0.1392
  C  C1003  1  0.671200  0.708500  0.152600  1.0  0.3158
  C  C1004  1  0.653000  0.717800  0.181700  1.0  -0.0532
  C  C1005  1  0.621000  0.711700  0.184900  1.0  -0.1566
  C  C1006  1  0.668500  0.731300  0.207600  1.0  -0.1559
  C  C1007  1  0.605900  0.720300  0.213500  1.0  0.1495
  C  C1008  1  0.651100  0.740300  0.234700  1.0  0.1357
  C  C1009  1  0.759600  0.622700  0.035300  1.0  0.3299
  C  C1010  1  0.775600  0.595200  0.019200  1.0  -0.0644
  C  C1011  1  0.808400  0.594300  0.016100  1.0  -0.1776
  C  C1012  1  0.757700  0.570700  0.006300  1.0  -0.1815
  C  C1013  1  0.774300  0.546100  0.991200  1.0  0.1495
  C  C1014  1  0.821900  0.566400  0.003300  1.0  0.1495
  C  C1015  1  0.536200  0.752800  0.047600  1.0  0.4262
  C  C1016  1  0.566400  0.734100  0.049000  1.0  -0.0664
  C  C1017  1  0.572700  0.710500  0.071300  1.0  -0.1269
  C  C1018  1  0.589500  0.740200  0.025000  1.0  -0.1419
  C  C1019  1  0.618700  0.723100  0.027200  1.0  0.1191
  C  C1020  1  0.602300  0.696000  0.072300  1.0  0.0981
  C  C1021  1  0.885800  0.712700  0.003200  1.0  0.3279
  C  C1022  1  0.857400  0.716500  0.023400  1.0  0.1128
  C  C1023  1  0.857600  0.705600  0.054300  1.0  -0.1663
  C  C1024  1  0.830200  0.725400  0.012600  1.0  -0.1396
  C  C1025  1  0.830300  0.709100  0.073000  1.0  0.1604
  C  C1026  1  0.803300  0.728100  0.035300  1.0  0.0915
  C  C1027  1  0.885300  0.406200  0.975600  1.0  0.3123
  C  C1028  1  0.913600  0.388300  0.985100  1.0  -0.02
  C  C1029  1  0.940400  0.403000  0.997500  1.0  -0.127
  C  C1030  1  0.916000  0.355400  0.982300  1.0  -0.1549
  C  C1031  1  0.967500  0.386200  0.005300  1.0  0.1385
  C  C1032  1  0.943400  0.339800  0.990300  1.0  0.1541
  C  C1033  1  0.786400  0.225600  0.520400  1.0  0.3165
  C  C1034  1  0.785200  0.195900  0.501800  1.0  0.0073
  C  C1035  1  0.761200  0.173000  0.507600  1.0  -0.1595
  C  C1036  1  0.808000  0.188800  0.478800  1.0  -0.1621
  C  C1037  1  0.760800  0.144900  0.490000  1.0  0.1384
  C  C1038  1  0.805500  0.158800  0.463100  1.0  0.1389
  C  C1039  1  0.828800  0.291500  0.652600  1.0  0.3161
  C  C1040  1  0.847000  0.282200  0.681700  1.0  -0.0531
  C  C1041  1  0.879000  0.288300  0.684900  1.0  -0.1571
  C  C1042  1  0.831500  0.268700  0.707600  1.0  -0.1558
  C  C1043  1  0.894100  0.279700  0.713500  1.0  0.1487
  C  C1044  1  0.848900  0.259700  0.734700  1.0  0.1347
  C  C1045  1  0.740400  0.377300  0.535300  1.0  0.3288
  C  C1046  1  0.724400  0.404800  0.519200  1.0  -0.0655
  C  C1047  1  0.691600  0.405700  0.516100  1.0  -0.1773
  C  C1048  1  0.742300  0.429300  0.506300  1.0  -0.1786
  C  C1049  1  0.725700  0.453900  0.491200  1.0  0.149
  C  C1050  1  0.678100  0.433600  0.503300  1.0  0.1514
  C  C1051  1  0.963800  0.247200  0.547600  1.0  0.4232
  C  C1052  1  0.933600  0.265900  0.549000  1.0  -0.0668
  C  C1053  1  0.927300  0.289500  0.571300  1.0  -0.1249
  C  C1054  1  0.910500  0.259800  0.525000  1.0  -0.1409
  C  C1055  1  0.881300  0.276900  0.527200  1.0  0.1196
  C  C1056  1  0.897700  0.304000  0.572300  1.0  0.0967
  C  C1057  1  0.614200  0.287300  0.503200  1.0  0.3273
  C  C1058  1  0.642600  0.283500  0.523400  1.0  0.1124
  C  C1059  1  0.642400  0.294400  0.554300  1.0  -0.1663
  C  C1060  1  0.669800  0.274600  0.512600  1.0  -0.1405
  C  C1061  1  0.669700  0.290900  0.573000  1.0  0.1594
  C  C1062  1  0.696700  0.271900  0.535300  1.0  0.0922
  C  C1063  1  0.614700  0.593800  0.475600  1.0  0.3126
  C  C1064  1  0.586400  0.611700  0.485100  1.0  -0.0199
  C  C1065  1  0.559600  0.597000  0.497500  1.0  -0.1248
  C  C1066  1  0.584000  0.644600  0.482300  1.0  -0.155
  C  C1067  1  0.532500  0.613800  0.505300  1.0  0.1387
  C  C1068  1  0.556600  0.660200  0.490300  1.0  0.1534
  C  C1069  1  0.213600  0.725600  0.979600  1.0  0.3175
  C  C1070  1  0.214800  0.695900  0.998200  1.0  0.0076
  C  C1071  1  0.238800  0.673000  0.992400  1.0  -0.1602
  C  C1072  1  0.192000  0.688800  0.021200  1.0  -0.1645
  C  C1073  1  0.239200  0.644900  0.010000  1.0  0.1391
  C  C1074  1  0.194500  0.658800  0.036900  1.0  0.1407
  C  C1075  1  0.171200  0.791500  0.847400  1.0  0.3162
  C  C1076  1  0.153000  0.782200  0.818300  1.0  -0.0532
  C  C1077  1  0.121000  0.788300  0.815100  1.0  -0.1579
  C  C1078  1  0.168500  0.768700  0.792400  1.0  -0.1557
  C  C1079  1  0.105900  0.779700  0.786500  1.0  0.1487
  C  C1080  1  0.151100  0.759700  0.765300  1.0  0.1361
  C  C1081  1  0.259600  0.877300  0.964700  1.0  0.3303
  C  C1082  1  0.275600  0.904800  0.980800  1.0  -0.0656
  C  C1083  1  0.308400  0.905700  0.983900  1.0  -0.1772
  C  C1084  1  0.257700  0.929300  0.993700  1.0  -0.1804
  C  C1085  1  0.274300  0.953900  0.008800  1.0  0.1504
  C  C1086  1  0.321900  0.933600  0.996700  1.0  0.1504
  C  C1087  1  0.036200  0.747200  0.952400  1.0  0.4257
  C  C1088  1  0.066400  0.765900  0.951000  1.0  -0.0665
  C  C1089  1  0.072700  0.789500  0.928700  1.0  -0.1267
  C  C1090  1  0.089500  0.759800  0.975000  1.0  -0.1414
  C  C1091  1  0.118700  0.776900  0.972800  1.0  0.1201
  C  C1092  1  0.102300  0.804000  0.927700  1.0  0.0974
  C  C1093  1  0.385800  0.787300  0.996800  1.0  0.3278
  C  C1094  1  0.357400  0.783500  0.976600  1.0  0.1129
  C  C1095  1  0.357600  0.794400  0.945700  1.0  -0.1676
  C  C1096  1  0.330200  0.774600  0.987400  1.0  -0.1416
  C  C1097  1  0.330300  0.790900  0.927000  1.0  0.1601
  C  C1098  1  0.303300  0.771900  0.964700  1.0  0.0906
  C  C1099  1  0.385300  0.093800  0.024400  1.0  0.3123
  C  C1100  1  0.413600  0.111700  0.014900  1.0  -0.0202
  C  C1101  1  0.440400  0.097000  0.002500  1.0  -0.1257
  C  C1102  1  0.416000  0.144600  0.017700  1.0  -0.1549
  C  C1103  1  0.467500  0.113800  0.994700  1.0  0.1372
  C  C1104  1  0.443400  0.160200  0.009700  1.0  0.1533
  C  C1105  1  0.520400  0.713600  0.725600  1.0  0.3174
  C  C1106  1  0.501800  0.714800  0.695900  1.0  0.0043
  C  C1107  1  0.507600  0.738800  0.673000  1.0  -0.159
  C  C1108  1  0.478800  0.692000  0.688800  1.0  -0.1639
  C  C1109  1  0.490000  0.739200  0.644900  1.0  0.1378
  C  C1110  1  0.463100  0.694500  0.658800  1.0  0.1428
  C  C1111  1  0.652600  0.671200  0.791500  1.0  0.3173
  C  C1112  1  0.681700  0.653000  0.782200  1.0  -0.0526
  C  C1113  1  0.684900  0.621000  0.788300  1.0  -0.1584
  C  C1114  1  0.707600  0.668500  0.768700  1.0  -0.1574
  C  C1115  1  0.713500  0.605900  0.779700  1.0  0.15
  C  C1116  1  0.734700  0.651100  0.759700  1.0  0.1372
  C  C1117  1  0.535300  0.759600  0.877300  1.0  0.3301
  C  C1118  1  0.519200  0.775600  0.904800  1.0  -0.0639
  C  C1119  1  0.516100  0.808400  0.905700  1.0  -0.1779
  C  C1120  1  0.506300  0.757700  0.929300  1.0  -0.1825
  C  C1121  1  0.491200  0.774300  0.953900  1.0  0.151
  C  C1122  1  0.503300  0.821900  0.933600  1.0  0.1496
  C  C1123  1  0.547600  0.536200  0.747200  1.0  0.4263
  C  C1124  1  0.549000  0.566400  0.765900  1.0  -0.067
  C  C1125  1  0.571300  0.572700  0.789500  1.0  -0.1232
  C  C1126  1  0.525000  0.589500  0.759800  1.0  -0.1433
  C  C1127  1  0.527200  0.618700  0.776900  1.0  0.1218
  C  C1128  1  0.572300  0.602300  0.804000  1.0  0.0995
  C  C1129  1  0.503200  0.885800  0.787300  1.0  0.3273
  C  C1130  1  0.523400  0.857400  0.783500  1.0  0.1197
  C  C1131  1  0.554300  0.857600  0.794400  1.0  -0.1688
  C  C1132  1  0.512600  0.830200  0.774600  1.0  -0.1388
  C  C1133  1  0.573000  0.830300  0.790900  1.0  0.1585
  C  C1134  1  0.535300  0.803300  0.771900  1.0  0.0924
  C  C1135  1  0.475600  0.885300  0.093800  1.0  0.314
  C  C1136  1  0.485100  0.913600  0.111700  1.0  -0.0202
  C  C1137  1  0.497500  0.940400  0.097000  1.0  -0.1244
  C  C1138  1  0.482300  0.916000  0.144600  1.0  -0.1562
  C  C1139  1  0.505300  0.967500  0.113800  1.0  0.137
  C  C1140  1  0.490300  0.943400  0.160200  1.0  0.1555
  C  C1141  1  0.979600  0.286400  0.225600  1.0  0.3172
  C  C1142  1  0.998200  0.285200  0.195900  1.0  0.005
  C  C1143  1  0.992400  0.261200  0.173000  1.0  -0.1588
  C  C1144  1  0.021200  0.308000  0.188800  1.0  -0.1619
  C  C1145  1  0.010000  0.260800  0.144900  1.0  0.1377
  C  C1146  1  0.036900  0.305500  0.158800  1.0  0.1429
  C  C1147  1  0.847400  0.328800  0.291500  1.0  0.3161
  C  C1148  1  0.818300  0.347000  0.282200  1.0  -0.0514
  C  C1149  1  0.815100  0.379000  0.288300  1.0  -0.1582
  C  C1150  1  0.792400  0.331500  0.268700  1.0  -0.1562
  C  C1151  1  0.786500  0.394100  0.279700  1.0  0.1491
  C  C1152  1  0.765300  0.348900  0.259700  1.0  0.1372
  C  C1153  1  0.964700  0.240400  0.377300  1.0  0.3304
  C  C1154  1  0.980800  0.224400  0.404800  1.0  -0.063
  C  C1155  1  0.983900  0.191600  0.405700  1.0  -0.178
  C  C1156  1  0.993700  0.242300  0.429300  1.0  -0.181
  C  C1157  1  0.008800  0.225700  0.453900  1.0  0.149
  C  C1158  1  0.996700  0.178100  0.433600  1.0  0.1501
  C  C1159  1  0.952400  0.463800  0.247200  1.0  0.4267
  C  C1160  1  0.951000  0.433600  0.265900  1.0  -0.0677
  C  C1161  1  0.928700  0.427300  0.289500  1.0  -0.1251
  C  C1162  1  0.975000  0.410500  0.259800  1.0  -0.1417
  C  C1163  1  0.972800  0.381300  0.276900  1.0  0.1223
  C  C1164  1  0.927700  0.397700  0.304000  1.0  0.0985
  C  C1165  1  0.996800  0.114200  0.287300  1.0  0.3272
  C  C1166  1  0.976600  0.142600  0.283500  1.0  0.1191
  C  C1167  1  0.945700  0.142400  0.294400  1.0  -0.1679
  C  C1168  1  0.987400  0.169800  0.274600  1.0  -0.1377
  C  C1169  1  0.927000  0.169700  0.290900  1.0  0.1582
  C  C1170  1  0.964700  0.196700  0.271900  1.0  0.0923
  C  C1171  1  0.024400  0.114700  0.593800  1.0  0.3136
  C  C1172  1  0.014900  0.086400  0.611700  1.0  -0.0196
  C  C1173  1  0.002500  0.059600  0.597000  1.0  -0.1235
  C  C1174  1  0.017700  0.084000  0.644600  1.0  -0.157
  C  C1175  1  0.994700  0.032500  0.613800  1.0  0.1368
  C  C1176  1  0.009700  0.056600  0.660200  1.0  0.1548
  C  C1177  1  0.479600  0.213600  0.774400  1.0  0.3182
  C  C1178  1  0.498200  0.214800  0.804100  1.0  0.0062
  C  C1179  1  0.492400  0.238800  0.827000  1.0  -0.1591
  C  C1180  1  0.521200  0.192000  0.811200  1.0  -0.1634
  C  C1181  1  0.510000  0.239200  0.855100  1.0  0.1376
  C  C1182  1  0.536900  0.194500  0.841200  1.0  0.1437
  C  C1183  1  0.347400  0.171200  0.708500  1.0  0.3154
  C  C1184  1  0.318300  0.153000  0.717800  1.0  -0.0518
  C  C1185  1  0.315100  0.121000  0.711700  1.0  -0.1582
  C  C1186  1  0.292400  0.168500  0.731300  1.0  -0.1567
  C  C1187  1  0.286500  0.105900  0.720300  1.0  0.1495
  C  C1188  1  0.265300  0.151100  0.740300  1.0  0.1376
  C  C1189  1  0.464700  0.259600  0.622700  1.0  0.33
  C  C1190  1  0.480800  0.275600  0.595200  1.0  -0.0648
  C  C1191  1  0.483900  0.308400  0.594300  1.0  -0.1777
  C  C1192  1  0.493700  0.257700  0.570700  1.0  -0.1821
  C  C1193  1  0.508800  0.274300  0.546100  1.0  0.1505
  C  C1194  1  0.496700  0.321900  0.566400  1.0  0.1498
  C  C1195  1  0.452400  0.036200  0.752800  1.0  0.4267
  C  C1196  1  0.451000  0.066400  0.734100  1.0  -0.0675
  C  C1197  1  0.428700  0.072700  0.710500  1.0  -0.1244
  C  C1198  1  0.475000  0.089500  0.740200  1.0  -0.1413
  C  C1199  1  0.472800  0.118700  0.723100  1.0  0.1225
  C  C1200  1  0.427700  0.102300  0.696000  1.0  0.0981
  C  C1201  1  0.496800  0.385800  0.712700  1.0  0.3279
  C  C1202  1  0.476600  0.357400  0.716500  1.0  0.1178
  C  C1203  1  0.445700  0.357600  0.705600  1.0  -0.1682
  C  C1204  1  0.487400  0.330200  0.725400  1.0  -0.1397
  C  C1205  1  0.427000  0.330300  0.709100  1.0  0.1577
  C  C1206  1  0.464700  0.303300  0.728100  1.0  0.0911
  C  C1207  1  0.524400  0.385300  0.406200  1.0  0.3133
  C  C1208  1  0.514900  0.413600  0.388300  1.0  -0.0199
  C  C1209  1  0.502500  0.440400  0.403000  1.0  -0.1241
  C  C1210  1  0.517700  0.416000  0.355400  1.0  -0.1562
  C  C1211  1  0.494700  0.467500  0.386200  1.0  0.1376
  C  C1212  1  0.509700  0.443400  0.339800  1.0  0.1553
  C  C1213  1  0.020400  0.786400  0.274400  1.0  0.3177
  C  C1214  1  0.001800  0.785200  0.304100  1.0  0.0058
  C  C1215  1  0.007600  0.761200  0.327000  1.0  -0.1589
  C  C1216  1  0.978800  0.808000  0.311200  1.0  -0.1646
  C  C1217  1  0.990000  0.760800  0.355100  1.0  0.1376
  C  C1218  1  0.963100  0.805500  0.341200  1.0  0.143
  C  C1219  1  0.152600  0.828800  0.208500  1.0  0.3169
  C  C1220  1  0.181700  0.847000  0.217800  1.0  -0.0528
  C  C1221  1  0.184900  0.879000  0.211700  1.0  -0.1585
  C  C1222  1  0.207600  0.831500  0.231300  1.0  -0.1576
  C  C1223  1  0.213500  0.894100  0.220300  1.0  0.1489
  C  C1224  1  0.234700  0.848900  0.240300  1.0  0.138
  C  C1225  1  0.035300  0.740400  0.122700  1.0  0.3297
  C  C1226  1  0.019200  0.724400  0.095200  1.0  -0.0649
  C  C1227  1  0.016100  0.691600  0.094300  1.0  -0.1762
  C  C1228  1  0.006300  0.742300  0.070700  1.0  -0.1803
  C  C1229  1  0.991200  0.725700  0.046100  1.0  0.1504
  C  C1230  1  0.003300  0.678100  0.066400  1.0  0.1503
  C  C1231  1  0.047600  0.963800  0.252800  1.0  0.4271
  C  C1232  1  0.049000  0.933600  0.234100  1.0  -0.0685
  C  C1233  1  0.071300  0.927300  0.210500  1.0  -0.1244
  C  C1234  1  0.025000  0.910500  0.240200  1.0  -0.1431
  C  C1235  1  0.027200  0.881300  0.223100  1.0  0.1216
  C  C1236  1  0.072300  0.897700  0.196000  1.0  0.0982
  C  C1237  1  0.003200  0.614200  0.212700  1.0  0.3273
  C  C1238  1  0.023400  0.642600  0.216500  1.0  0.1194
  C  C1239  1  0.054300  0.642400  0.205600  1.0  -0.1682
  C  C1240  1  0.012600  0.669800  0.225400  1.0  -0.1388
  C  C1241  1  0.073000  0.669700  0.209100  1.0  0.157
  C  C1242  1  0.035300  0.696700  0.228100  1.0  0.0921
  C  C1243  1  0.975600  0.614700  0.906200  1.0  0.3143
  C  C1244  1  0.985100  0.586400  0.888300  1.0  -0.0204
  C  C1245  1  0.997500  0.559600  0.903000  1.0  -0.1243
  C  C1246  1  0.982300  0.584000  0.855400  1.0  -0.1562
  C  C1247  1  0.005300  0.532500  0.886200  1.0  0.1377
  C  C1248  1  0.990300  0.556600  0.839800  1.0  0.1544
  C  C1249  1  0.725600  0.520400  0.713600  1.0  0.3153
  C  C1250  1  0.695900  0.501800  0.714800  1.0  0.0064
  C  C1251  1  0.673000  0.507600  0.738800  1.0  -0.16
  C  C1252  1  0.688800  0.478800  0.692000  1.0  -0.1656
  C  C1253  1  0.644900  0.490000  0.739200  1.0  0.1386
  C  C1254  1  0.658800  0.463100  0.694500  1.0  0.1391
  C  C1255  1  0.791500  0.652600  0.671200  1.0  0.3157
  C  C1256  1  0.782200  0.681700  0.653000  1.0  -0.0537
  C  C1257  1  0.788300  0.684900  0.621000  1.0  -0.1592
  C  C1258  1  0.768700  0.707600  0.668500  1.0  -0.1549
  C  C1259  1  0.779700  0.713500  0.605900  1.0  0.1496
  C  C1260  1  0.759700  0.734700  0.651100  1.0  0.1329
  C  C1261  1  0.877300  0.535300  0.759600  1.0  0.3299
  C  C1262  1  0.904800  0.519200  0.775600  1.0  -0.0626
  C  C1263  1  0.905700  0.516100  0.808400  1.0  -0.1773
  C  C1264  1  0.929300  0.506300  0.757700  1.0  -0.1792
  C  C1265  1  0.953900  0.491200  0.774300  1.0  0.1466
  C  C1266  1  0.933600  0.503300  0.821900  1.0  0.1505
  C  C1267  1  0.747200  0.547600  0.536200  1.0  0.4277
  C  C1268  1  0.765900  0.549000  0.566400  1.0  -0.0661
  C  C1269  1  0.789500  0.571300  0.572700  1.0  -0.1242
  C  C1270  1  0.759800  0.525000  0.589500  1.0  -0.1419
  C  C1271  1  0.776900  0.527200  0.618700  1.0  0.12
  C  C1272  1  0.804000  0.572300  0.602300  1.0  0.1031
  C  C1273  1  0.787300  0.503200  0.885800  1.0  0.3281
  C  C1274  1  0.783500  0.523400  0.857400  1.0  0.1197
  C  C1275  1  0.794400  0.554300  0.857600  1.0  -0.1677
  C  C1276  1  0.774600  0.512600  0.830200  1.0  -0.143
  C  C1277  1  0.790900  0.573000  0.830300  1.0  0.16
  C  C1278  1  0.771900  0.535300  0.803300  1.0  0.0916
  C  C1279  1  0.093800  0.475600  0.885300  1.0  0.314
  C  C1280  1  0.111700  0.485100  0.913600  1.0  -0.0221
  C  C1281  1  0.097000  0.497500  0.940400  1.0  -0.1211
  C  C1282  1  0.144600  0.482300  0.916000  1.0  -0.1529
  C  C1283  1  0.113800  0.505300  0.967500  1.0  0.1412
  C  C1284  1  0.160200  0.490300  0.943400  1.0  0.1574
  C  C1285  1  0.225600  0.979600  0.286400  1.0  0.3153
  C  C1286  1  0.195900  0.998200  0.285200  1.0  0.0064
  C  C1287  1  0.173000  0.992400  0.261200  1.0  -0.1596
  C  C1288  1  0.188800  0.021200  0.308000  1.0  -0.1649
  C  C1289  1  0.144900  0.010000  0.260800  1.0  0.1375
  C  C1290  1  0.158800  0.036900  0.305500  1.0  0.1388
  C  C1291  1  0.291500  0.847400  0.328800  1.0  0.3161
  C  C1292  1  0.282200  0.818300  0.347000  1.0  -0.0536
  C  C1293  1  0.288300  0.815100  0.379000  1.0  -0.1597
  C  C1294  1  0.268700  0.792400  0.331500  1.0  -0.1536
  C  C1295  1  0.279700  0.786500  0.394100  1.0  0.1512
  C  C1296  1  0.259700  0.765300  0.348900  1.0  0.1342
  C  C1297  1  0.377300  0.964700  0.240400  1.0  0.3299
  C  C1298  1  0.404800  0.980800  0.224400  1.0  -0.0629
  C  C1299  1  0.405700  0.983900  0.191600  1.0  -0.1773
  C  C1300  1  0.429300  0.993700  0.242300  1.0  -0.1828
  C  C1301  1  0.453900  0.008800  0.225700  1.0  0.1459
  C  C1302  1  0.433600  0.996700  0.178100  1.0  0.1504
  C  C1303  1  0.247200  0.952400  0.463800  1.0  0.4271
  C  C1304  1  0.265900  0.951000  0.433600  1.0  -0.0677
  C  C1305  1  0.289500  0.928700  0.427300  1.0  -0.1232
  C  C1306  1  0.259800  0.975000  0.410500  1.0  -0.1433
  C  C1307  1  0.276900  0.972800  0.381300  1.0  0.1203
  C  C1308  1  0.304000  0.927700  0.397700  1.0  0.1033
  C  C1309  1  0.287300  0.996800  0.114200  1.0  0.3284
  C  C1310  1  0.283500  0.976600  0.142600  1.0  0.1193
  C  C1311  1  0.294400  0.945700  0.142400  1.0  -0.1667
  C  C1312  1  0.274600  0.987400  0.169800  1.0  -0.1437
  C  C1313  1  0.290900  0.927000  0.169700  1.0  0.1597
  C  C1314  1  0.271900  0.964700  0.196700  1.0  0.09
  C  C1315  1  0.593800  0.024400  0.114700  1.0  0.3131
  C  C1316  1  0.611700  0.014900  0.086400  1.0  -0.0227
  C  C1317  1  0.597000  0.002500  0.059600  1.0  -0.1211
  C  C1318  1  0.644600  0.017700  0.084000  1.0  -0.1527
  C  C1319  1  0.613800  0.994700  0.032500  1.0  0.1402
  C  C1320  1  0.660200  0.009700  0.056600  1.0  0.1569
  C  C1321  1  0.774400  0.479600  0.213600  1.0  0.3167
  C  C1322  1  0.804100  0.498200  0.214800  1.0  0.0064
  C  C1323  1  0.827000  0.492400  0.238800  1.0  -0.1602
  C  C1324  1  0.811200  0.521200  0.192000  1.0  -0.1659
  C  C1325  1  0.855100  0.510000  0.239200  1.0  0.1386
  C  C1326  1  0.841200  0.536900  0.194500  1.0  0.1397
  C  C1327  1  0.708500  0.347400  0.171200  1.0  0.3159
  C  C1328  1  0.717800  0.318300  0.153000  1.0  -0.0548
  C  C1329  1  0.711700  0.315100  0.121000  1.0  -0.1599
  C  C1330  1  0.731300  0.292400  0.168500  1.0  -0.1546
  C  C1331  1  0.720300  0.286500  0.105900  1.0  0.1496
  C  C1332  1  0.740300  0.265300  0.151100  1.0  0.1343
  C  C1333  1  0.622700  0.464700  0.259600  1.0  0.3299
  C  C1334  1  0.595200  0.480800  0.275600  1.0  -0.0625
  C  C1335  1  0.594300  0.483900  0.308400  1.0  -0.1754
  C  C1336  1  0.570700  0.493700  0.257700  1.0  -0.1791
  C  C1337  1  0.546100  0.508800  0.274300  1.0  0.1467
  C  C1338  1  0.566400  0.496700  0.321900  1.0  0.1493
  C  C1339  1  0.752800  0.452400  0.036200  1.0  0.4259
  C  C1340  1  0.734100  0.451000  0.066400  1.0  -0.0657
  C  C1341  1  0.710500  0.428700  0.072700  1.0  -0.1242
  C  C1342  1  0.740200  0.475000  0.089500  1.0  -0.1431
  C  C1343  1  0.723100  0.472800  0.118700  1.0  0.119
  C  C1344  1  0.696000  0.427700  0.102300  1.0  0.1016
  C  C1345  1  0.712700  0.496800  0.385800  1.0  0.3276
  C  C1346  1  0.716500  0.476600  0.357400  1.0  0.1177
  C  C1347  1  0.705600  0.445700  0.357600  1.0  -0.1656
  C  C1348  1  0.725400  0.487400  0.330200  1.0  -0.1439
  C  C1349  1  0.709100  0.427000  0.330300  1.0  0.1586
  C  C1350  1  0.728100  0.464700  0.303300  1.0  0.0921
  C  C1351  1  0.406200  0.524400  0.385300  1.0  0.3139
  C  C1352  1  0.388300  0.514900  0.413600  1.0  -0.0213
  C  C1353  1  0.403000  0.502500  0.440400  1.0  -0.1234
  C  C1354  1  0.355400  0.517700  0.416000  1.0  -0.1525
  C  C1355  1  0.386200  0.494700  0.467500  1.0  0.1404
  C  C1356  1  0.339800  0.509700  0.443400  1.0  0.1572
  C  C1357  1  0.274400  0.020400  0.786400  1.0  0.3173
  C  C1358  1  0.304100  0.001800  0.785200  1.0  0.0062
  C  C1359  1  0.327000  0.007600  0.761200  1.0  -0.1608
  C  C1360  1  0.311200  0.978800  0.808000  1.0  -0.1664
  C  C1361  1  0.355100  0.990000  0.760800  1.0  0.1367
  C  C1362  1  0.341200  0.963100  0.805500  1.0  0.1414
  C  C1363  1  0.208500  0.152600  0.828800  1.0  0.3159
  C  C1364  1  0.217800  0.181700  0.847000  1.0  -0.054
  C  C1365  1  0.211700  0.184900  0.879000  1.0  -0.1601
  C  C1366  1  0.231300  0.207600  0.831500  1.0  -0.1537
  C  C1367  1  0.220300  0.213500  0.894100  1.0  0.1512
  C  C1368  1  0.240300  0.234700  0.848900  1.0  0.1339
  C  C1369  1  0.122700  0.035300  0.740400  1.0  0.3297
  C  C1370  1  0.095200  0.019200  0.724400  1.0  -0.0637
  C  C1371  1  0.094300  0.016100  0.691600  1.0  -0.1767
  C  C1372  1  0.070700  0.006300  0.742300  1.0  -0.1818
  C  C1373  1  0.046100  0.991200  0.725700  1.0  0.1477
  C  C1374  1  0.066400  0.003300  0.678100  1.0  0.1509
  C  C1375  1  0.252800  0.047600  0.963800  1.0  0.4258
  C  C1376  1  0.234100  0.049000  0.933600  1.0  -0.0673
  C  C1377  1  0.210500  0.071300  0.927300  1.0  -0.1257
  C  C1378  1  0.240200  0.025000  0.910500  1.0  -0.143
  C  C1379  1  0.223100  0.027200  0.881300  1.0  0.1218
  C  C1380  1  0.196000  0.072300  0.897700  1.0  0.1023
  C  C1381  1  0.212700  0.003200  0.614200  1.0  0.3272
  C  C1382  1  0.216500  0.023400  0.642600  1.0  0.1179
  C  C1383  1  0.205600  0.054300  0.642400  1.0  -0.1664
  C  C1384  1  0.225400  0.012600  0.669800  1.0  -0.1447
  C  C1385  1  0.209100  0.073000  0.669700  1.0  0.1594
  C  C1386  1  0.228100  0.035300  0.696700  1.0  0.0915
  C  C1387  1  0.906200  0.975600  0.614700  1.0  0.3134
  C  C1388  1  0.888300  0.985100  0.586400  1.0  -0.0221
  C  C1389  1  0.903000  0.997500  0.559600  1.0  -0.1236
  C  C1390  1  0.855400  0.982300  0.584000  1.0  -0.153
  C  C1391  1  0.886200  0.005300  0.532500  1.0  0.1396
  C  C1392  1  0.839800  0.990300  0.556600  1.0  0.1568
  C  C1393  1  0.713600  0.725600  0.520400  1.0  0.317
  C  C1394  1  0.714800  0.695900  0.501800  1.0  0.0072
  C  C1395  1  0.738800  0.673000  0.507600  1.0  -0.1586
  C  C1396  1  0.692000  0.688800  0.478800  1.0  -0.1641
  C  C1397  1  0.739200  0.644900  0.490000  1.0  0.139
  C  C1398  1  0.694500  0.658800  0.463100  1.0  0.1391
  C  C1399  1  0.671200  0.791500  0.652600  1.0  0.3161
  C  C1400  1  0.653000  0.782200  0.681700  1.0  -0.0529
  C  C1401  1  0.621000  0.788300  0.684900  1.0  -0.1567
  C  C1402  1  0.668500  0.768700  0.707600  1.0  -0.156
  C  C1403  1  0.605900  0.779700  0.713500  1.0  0.149
  C  C1404  1  0.651100  0.759700  0.734700  1.0  0.1354
  C  C1405  1  0.759600  0.877300  0.535300  1.0  0.33
  C  C1406  1  0.775600  0.904800  0.519200  1.0  -0.0653
  C  C1407  1  0.808400  0.905700  0.516100  1.0  -0.1772
  C  C1408  1  0.757700  0.929300  0.506300  1.0  -0.1814
  C  C1409  1  0.774300  0.953900  0.491200  1.0  0.15
  C  C1410  1  0.821900  0.933600  0.503300  1.0  0.1497
  C  C1411  1  0.536200  0.747200  0.547600  1.0  0.4258
  C  C1412  1  0.566400  0.765900  0.549000  1.0  -0.0667
  C  C1413  1  0.572700  0.789500  0.571300  1.0  -0.1267
  C  C1414  1  0.589500  0.759800  0.525000  1.0  -0.1419
  C  C1415  1  0.618700  0.776900  0.527200  1.0  0.1191
  C  C1416  1  0.602300  0.804000  0.572300  1.0  0.0973
  C  C1417  1  0.885800  0.787300  0.503200  1.0  0.3277
  C  C1418  1  0.857400  0.783500  0.523400  1.0  0.1137
  C  C1419  1  0.857600  0.794400  0.554300  1.0  -0.1667
  C  C1420  1  0.830200  0.774600  0.512600  1.0  -0.1412
  C  C1421  1  0.830300  0.790900  0.573000  1.0  0.1595
  C  C1422  1  0.803300  0.771900  0.535300  1.0  0.0917
  C  C1423  1  0.885300  0.093800  0.475600  1.0  0.3125
  C  C1424  1  0.913600  0.111700  0.485100  1.0  -0.0202
  C  C1425  1  0.940400  0.097000  0.497500  1.0  -0.1255
  C  C1426  1  0.916000  0.144600  0.482300  1.0  -0.1543
  C  C1427  1  0.967500  0.113800  0.505300  1.0  0.1378
  C  C1428  1  0.943400  0.160200  0.490300  1.0  0.1533
  C  C1429  1  0.286400  0.225600  0.979600  1.0  0.3167
  C  C1430  1  0.285200  0.195900  0.998200  1.0  0.0077
  C  C1431  1  0.261200  0.173000  0.992400  1.0  -0.1608
  C  C1432  1  0.308000  0.188800  0.021200  1.0  -0.1618
  C  C1433  1  0.260800  0.144900  0.010000  1.0  0.1388
  C  C1434  1  0.305500  0.158800  0.036900  1.0  0.1406
  C  C1435  1  0.328800  0.291500  0.847400  1.0  0.3159
  C  C1436  1  0.347000  0.282200  0.818300  1.0  -0.0533
  C  C1437  1  0.379000  0.288300  0.815100  1.0  -0.1581
  C  C1438  1  0.331500  0.268700  0.792400  1.0  -0.1556
  C  C1439  1  0.394100  0.279700  0.786500  1.0  0.1486
  C  C1440  1  0.348900  0.259700  0.765300  1.0  0.1356
  C  C1441  1  0.240400  0.377300  0.964700  1.0  0.3291
  C  C1442  1  0.224400  0.404800  0.980800  1.0  -0.065
  C  C1443  1  0.191600  0.405700  0.983900  1.0  -0.1773
  C  C1444  1  0.242300  0.429300  0.993700  1.0  -0.1783
  C  C1445  1  0.225700  0.453900  0.008800  1.0  0.1498
  C  C1446  1  0.178100  0.433600  0.996700  1.0  0.1522
  C  C1447  1  0.463800  0.247200  0.952400  1.0  0.4232
  C  C1448  1  0.433600  0.265900  0.951000  1.0  -0.0667
  C  C1449  1  0.427300  0.289500  0.928700  1.0  -0.1261
  C  C1450  1  0.410500  0.259800  0.975000  1.0  -0.1403
  C  C1451  1  0.381300  0.276900  0.972800  1.0  0.1199
  C  C1452  1  0.397700  0.304000  0.927700  1.0  0.0965
  C  C1453  1  0.114200  0.287300  0.996800  1.0  0.3275
  C  C1454  1  0.142600  0.283500  0.976600  1.0  0.1126
  C  C1455  1  0.142400  0.294400  0.945700  1.0  -0.166
  C  C1456  1  0.169800  0.274600  0.987400  1.0  -0.1413
  C  C1457  1  0.169700  0.290900  0.927000  1.0  0.1589
  C  C1458  1  0.196700  0.271900  0.964700  1.0  0.0911
  C  C1459  1  0.114700  0.593800  0.024400  1.0  0.3129
  C  C1460  1  0.086400  0.611700  0.014900  1.0  -0.02
  C  C1461  1  0.059600  0.597000  0.002500  1.0  -0.1249
  C  C1462  1  0.084000  0.644600  0.017700  1.0  -0.1555
  C  C1463  1  0.032500  0.613800  0.994700  1.0  0.1381
  C  C1464  1  0.056600  0.660200  0.009700  1.0  0.1535
  C  C1465  1  0.213600  0.774400  0.479600  1.0  0.3172
  C  C1466  1  0.214800  0.804100  0.498200  1.0  0.0079
  C  C1467  1  0.238800  0.827000  0.492400  1.0  -0.1604
  C  C1468  1  0.192000  0.811200  0.521200  1.0  -0.1635
  C  C1469  1  0.239200  0.855100  0.510000  1.0  0.1386
  C  C1470  1  0.194500  0.841200  0.536900  1.0  0.1406
  C  C1471  1  0.171200  0.708500  0.347400  1.0  0.316
  C  C1472  1  0.153000  0.717800  0.318300  1.0  -0.0533
  C  C1473  1  0.121000  0.711700  0.315100  1.0  -0.1568
  C  C1474  1  0.168500  0.731300  0.292400  1.0  -0.1558
  C  C1475  1  0.105900  0.720300  0.286500  1.0  0.1492
  C  C1476  1  0.151100  0.740300  0.265300  1.0  0.1365
  C  C1477  1  0.259600  0.622700  0.464700  1.0  0.3301
  C  C1478  1  0.275600  0.595200  0.480800  1.0  -0.0646
  C  C1479  1  0.308400  0.594300  0.483900  1.0  -0.1777
  C  C1480  1  0.257700  0.570700  0.493700  1.0  -0.1808
  C  C1481  1  0.274300  0.546100  0.508800  1.0  0.1492
  C  C1482  1  0.321900  0.566400  0.496700  1.0  0.1499
  C  C1483  1  0.036200  0.752800  0.452400  1.0  0.4262
  C  C1484  1  0.066400  0.734100  0.451000  1.0  -0.0663
  C  C1485  1  0.072700  0.710500  0.428700  1.0  -0.1279
  C  C1486  1  0.089500  0.740200  0.475000  1.0  -0.1409
  C  C1487  1  0.118700  0.723100  0.472800  1.0  0.1206
  C  C1488  1  0.102300  0.696000  0.427700  1.0  0.0975
  C  C1489  1  0.385800  0.712700  0.496800  1.0  0.3277
  C  C1490  1  0.357400  0.716500  0.476600  1.0  0.1118
  C  C1491  1  0.357600  0.705600  0.445700  1.0  -0.1675
  C  C1492  1  0.330200  0.725400  0.487400  1.0  -0.1409
  C  C1493  1  0.330300  0.709100  0.427000  1.0  0.1605
  C  C1494  1  0.303300  0.728100  0.464700  1.0  0.0899
  C  C1495  1  0.385300  0.406200  0.524400  1.0  0.3123
  C  C1496  1  0.413600  0.388300  0.514900  1.0  -0.02
  C  C1497  1  0.440400  0.403000  0.502500  1.0  -0.127
  C  C1498  1  0.416000  0.355400  0.517700  1.0  -0.1547
  C  C1499  1  0.467500  0.386200  0.494700  1.0  0.1381
  C  C1500  1  0.443400  0.339800  0.509700  1.0  0.1541
  C  C1501  1  0.786400  0.274400  0.020400  1.0  0.3159
  C  C1502  1  0.785200  0.304100  0.001800  1.0  0.0079
  C  C1503  1  0.761200  0.327000  0.007600  1.0  -0.1592
  C  C1504  1  0.808000  0.311200  0.978800  1.0  -0.1621
  C  C1505  1  0.760800  0.355100  0.990000  1.0  0.1385
  C  C1506  1  0.805500  0.341200  0.963100  1.0  0.1389
  C  C1507  1  0.828800  0.208500  0.152600  1.0  0.3159
  C  C1508  1  0.847000  0.217800  0.181700  1.0  -0.0535
  C  C1509  1  0.879000  0.211700  0.184900  1.0  -0.1573
  C  C1510  1  0.831500  0.231300  0.207600  1.0  -0.1562
  C  C1511  1  0.894100  0.220300  0.213500  1.0  0.1489
  C  C1512  1  0.848900  0.240300  0.234700  1.0  0.1353
  C  C1513  1  0.740400  0.122700  0.035300  1.0  0.3289
  C  C1514  1  0.724400  0.095200  0.019200  1.0  -0.0648
  C  C1515  1  0.691600  0.094300  0.016100  1.0  -0.1782
  C  C1516  1  0.742300  0.070700  0.006300  1.0  -0.1781
  C  C1517  1  0.725700  0.046100  0.991200  1.0  0.1485
  C  C1518  1  0.678100  0.066400  0.003300  1.0  0.1509
  C  C1519  1  0.963800  0.252800  0.047600  1.0  0.4235
  C  C1520  1  0.933600  0.234100  0.049000  1.0  -0.0666
  C  C1521  1  0.927300  0.210500  0.071300  1.0  -0.1256
  C  C1522  1  0.910500  0.240200  0.025000  1.0  -0.1411
  C  C1523  1  0.881300  0.223100  0.027200  1.0  0.1197
  C  C1524  1  0.897700  0.196000  0.072300  1.0  0.0968
  C  C1525  1  0.614200  0.212700  0.003200  1.0  0.3278
  C  C1526  1  0.642600  0.216500  0.023400  1.0  0.1121
  C  C1527  1  0.642400  0.205600  0.054300  1.0  -0.1656
  C  C1528  1  0.669800  0.225400  0.012600  1.0  -0.1393
  C  C1529  1  0.669700  0.209100  0.073000  1.0  0.1603
  C  C1530  1  0.696700  0.228100  0.035300  1.0  0.0919
  C  C1531  1  0.614700  0.906200  0.975600  1.0  0.3126
  C  C1532  1  0.586400  0.888300  0.985100  1.0  -0.0198
  C  C1533  1  0.559600  0.903000  0.997500  1.0  -0.1266
  C  C1534  1  0.584000  0.855400  0.982300  1.0  -0.1548
  C  C1535  1  0.532500  0.886200  0.005300  1.0  0.1385
  C  C1536  1  0.556600  0.839800  0.990300  1.0  0.1543
  N  N1537  1  0.461400  0.299600  0.229100  1.0  -0.0925
  N  N1538  1  0.482600  0.308800  0.251600  1.0  -0.3384
  N  N1539  1  0.446000  0.273100  0.238500  1.0  -0.0448
  N  N1540  1  0.457500  0.264200  0.267090  1.0  -0.3646
  N  N1541  1  0.532200  0.282600  0.362600  1.0  -0.4016
  N  N1542  1  0.394200  0.318700  0.193200  1.0  -0.1002
  N  N1543  1  0.373700  0.343500  0.195900  1.0  -0.3744
  N  N1544  1  0.381000  0.291400  0.202500  1.0  -0.1315
  N  N1545  1  0.350600  0.297200  0.212800  1.0  -0.337
  N  N1546  1  0.261300  0.379900  0.234500  1.0  -0.3605
  N  N1547  1  0.437700  0.249000  0.164800  1.0  -0.1348
  N  N1548  1  0.446700  0.226000  0.144400  1.0  -0.2994
  N  N1549  1  0.450100  0.277600  0.154400  1.0  -0.1622
  N  N1550  1  0.467000  0.272300  0.127800  1.0  -0.3628
  N  N1551  1  0.508700  0.194600  0.042900  1.0  -0.3375
  N  N1552  1  0.465300  0.498900  0.286200  1.0  -0.0232
  N  N1553  1  0.439700  0.509400  0.271300  1.0  -0.0602
  N  N1554  1  0.430800  0.487800  0.249200  1.0  -0.361
  N  N1555  1  0.473400  0.469700  0.274000  1.0  -0.2863
  N  N1556  1  0.449600  0.375400  0.201700  1.0  -0.3141
  N  N1557  1  0.530400  0.147100  0.944400  1.0  -0.0376
  N  N1558  1  0.541940  0.160900  0.917800  1.0  -0.0863
  N  N1559  1  0.520000  0.117600  0.937800  1.0  -0.3246
  N  N1560  1  0.538400  0.140500  0.893370  1.0  -0.3369
  N  N1561  1  0.498400  0.029500  0.854700  1.0  -0.3649
  N  N1562  1  0.511100  0.067500  0.198400  1.0  -0.028
  N  N1563  1  0.535700  0.081700  0.212100  1.0  -0.1276
  N  N1564  1  0.485500  0.087300  0.198400  1.0  -0.3825
  N  N1565  1  0.527700  0.111600  0.221000  1.0  -0.3525
  N  N1566  1  0.436500  0.197000  0.219300  1.0  -0.2555
  N  N1567  1  0.038600  0.700400  0.729100  1.0  -0.0936
  N  N1568  1  0.017400  0.691200  0.751600  1.0  -0.3406
  N  N1569  1  0.054000  0.726900  0.738500  1.0  -0.045
  N  N1570  1  0.042500  0.735800  0.767090  1.0  -0.3634
  N  N1571  1  0.967800  0.717400  0.862600  1.0  -0.4012
  N  N1572  1  0.105800  0.681300  0.693200  1.0  -0.0979
  N  N1573  1  0.126300  0.656500  0.695900  1.0  -0.3745
  N  N1574  1  0.119000  0.708600  0.702500  1.0  -0.1315
  N  N1575  1  0.149400  0.702800  0.712800  1.0  -0.3356
  N  N1576  1  0.238700  0.620100  0.734500  1.0  -0.3614
  N  N1577  1  0.062300  0.751000  0.664800  1.0  -0.134
  N  N1578  1  0.053300  0.774000  0.644400  1.0  -0.2985
  N  N1579  1  0.049900  0.722400  0.654400  1.0  -0.1624
  N  N1580  1  0.033000  0.727700  0.627800  1.0  -0.362
  N  N1581  1  0.991300  0.805400  0.542900  1.0  -0.3375
  N  N1582  1  0.034700  0.501100  0.786200  1.0  -0.0233
  N  N1583  1  0.060300  0.490600  0.771300  1.0  -0.0602
  N  N1584  1  0.069200  0.512200  0.749200  1.0  -0.3617
  N  N1585  1  0.026600  0.530300  0.774000  1.0  -0.2877
  N  N1586  1  0.050400  0.624600  0.701700  1.0  -0.3171
  N  N1587  1  0.969600  0.852900  0.444400  1.0  -0.0381
  N  N1588  1  0.958060  0.839100  0.417800  1.0  -0.0839
  N  N1589  1  0.980000  0.882400  0.437800  1.0  -0.3239
  N  N1590  1  0.961600  0.859500  0.393370  1.0  -0.3366
  N  N1591  1  0.001600  0.970500  0.354700  1.0  -0.3659
  N  N1592  1  0.988900  0.932500  0.698400  1.0  -0.028
  N  N1593  1  0.964300  0.918300  0.712100  1.0  -0.1274
  N  N1594  1  0.014500  0.912700  0.698400  1.0  -0.3829
  N  N1595  1  0.972300  0.888400  0.721000  1.0  -0.3534
  N  N1596  1  0.063500  0.803000  0.719300  1.0  -0.2577
  N  N1597  1  0.538600  0.799600  0.270900  1.0  -0.0938
  N  N1598  1  0.517400  0.808800  0.248400  1.0  -0.3387
  N  N1599  1  0.554000  0.773100  0.261500  1.0  -0.0449
  N  N1600  1  0.542500  0.764200  0.232910  1.0  -0.3649
  N  N1601  1  0.467800  0.782600  0.137400  1.0  -0.401
  N  N1602  1  0.605800  0.818700  0.306800  1.0  -0.098
  N  N1603  1  0.626300  0.843500  0.304100  1.0  -0.3757
  N  N1604  1  0.619000  0.791400  0.297500  1.0  -0.1306
  N  N1605  1  0.649400  0.797200  0.287200  1.0  -0.3354
  N  N1606  1  0.738700  0.879900  0.265500  1.0  -0.3604
  N  N1607  1  0.562300  0.749000  0.335200  1.0  -0.1349
  N  N1608  1  0.553300  0.726000  0.355600  1.0  -0.2983
  N  N1609  1  0.549900  0.777600  0.345600  1.0  -0.1614
  N  N1610  1  0.533000  0.772300  0.372200  1.0  -0.3618
  N  N1611  1  0.491300  0.694600  0.457100  1.0  -0.3373
  N  N1612  1  0.534700  0.998900  0.213800  1.0  -0.0225
  N  N1613  1  0.560300  0.009400  0.228700  1.0  -0.0606
  N  N1614  1  0.569200  0.987800  0.250800  1.0  -0.3601
  N  N1615  1  0.526600  0.969700  0.226000  1.0  -0.2888
  N  N1616  1  0.550400  0.875400  0.298300  1.0  -0.3132
  N  N1617  1  0.469600  0.647100  0.555600  1.0  -0.0383
  N  N1618  1  0.458060  0.660900  0.582200  1.0  -0.087
  N  N1619  1  0.480000  0.617600  0.562200  1.0  -0.3239
  N  N1620  1  0.461600  0.640500  0.606630  1.0  -0.3347
  N  N1621  1  0.501600  0.529500  0.645300  1.0  -0.3657
  N  N1622  1  0.488900  0.567500  0.301600  1.0  -0.0286
  N  N1623  1  0.464300  0.581700  0.287900  1.0  -0.1276
  N  N1624  1  0.514500  0.587300  0.301600  1.0  -0.3821
  N  N1625  1  0.472300  0.611600  0.279000  1.0  -0.3527
  N  N1626  1  0.563500  0.697000  0.280700  1.0  -0.2586
  N  N1627  1  0.961400  0.200400  0.770900  1.0  -0.0928
  N  N1628  1  0.982600  0.191200  0.748400  1.0  -0.3392
  N  N1629  1  0.946000  0.226900  0.761500  1.0  -0.0452
  N  N1630  1  0.957500  0.235800  0.732910  1.0  -0.3645
  N  N1631  1  0.032200  0.217400  0.637400  1.0  -0.4019
  N  N1632  1  0.894200  0.181300  0.806800  1.0  -0.1
  N  N1633  1  0.873700  0.156500  0.804100  1.0  -0.3732
  N  N1634  1  0.881000  0.208600  0.797500  1.0  -0.1326
  N  N1635  1  0.850600  0.202800  0.787200  1.0  -0.3358
  N  N1636  1  0.761300  0.120100  0.765500  1.0  -0.3622
  N  N1637  1  0.937700  0.251000  0.835200  1.0  -0.1346
  N  N1638  1  0.946700  0.274000  0.855600  1.0  -0.2995
  N  N1639  1  0.950100  0.222400  0.845600  1.0  -0.1646
  N  N1640  1  0.967000  0.227700  0.872200  1.0  -0.3631
  N  N1641  1  0.008700  0.305400  0.957100  1.0  -0.338
  N  N1642  1  0.965300  0.001100  0.713800  1.0  -0.0224
  N  N1643  1  0.939700  0.990600  0.728700  1.0  -0.0606
  N  N1644  1  0.930800  0.012200  0.750800  1.0  -0.3612
  N  N1645  1  0.973400  0.030300  0.726000  1.0  -0.2866
  N  N1646  1  0.949600  0.124600  0.798300  1.0  -0.3151
  N  N1647  1  0.030400  0.352900  0.055600  1.0  -0.0384
  N  N1648  1  0.041940  0.339100  0.082200  1.0  -0.0859
  N  N1649  1  0.020000  0.382400  0.062200  1.0  -0.323
  N  N1650  1  0.038400  0.359500  0.106630  1.0  -0.3349
  N  N1651  1  0.998400  0.470500  0.145300  1.0  -0.3664
  N  N1652  1  0.011100  0.432500  0.801600  1.0  -0.0285
  N  N1653  1  0.035700  0.418300  0.787900  1.0  -0.1283
  N  N1654  1  0.985500  0.412700  0.801600  1.0  -0.3818
  N  N1655  1  0.027700  0.388400  0.779000  1.0  -0.3537
  N  N1656  1  0.936500  0.303000  0.780700  1.0  -0.2558
  N  N1657  1  0.229100  0.461400  0.299600  1.0  -0.091
  N  N1658  1  0.251600  0.482600  0.308800  1.0  -0.3385
  N  N1659  1  0.238500  0.446000  0.273100  1.0  -0.0443
  N  N1660  1  0.267090  0.457500  0.264200  1.0  -0.3647
  N  N1661  1  0.362600  0.532200  0.282600  1.0  -0.4068
  N  N1662  1  0.193200  0.394200  0.318700  1.0  -0.1014
  N  N1663  1  0.195900  0.373700  0.343500  1.0  -0.3772
  N  N1664  1  0.202500  0.381000  0.291400  1.0  -0.1326
  N  N1665  1  0.212800  0.350600  0.297200  1.0  -0.3385
  N  N1666  1  0.234500  0.261300  0.379900  1.0  -0.3603
  N  N1667  1  0.164800  0.437700  0.249000  1.0  -0.1304
  N  N1668  1  0.144400  0.446700  0.226000  1.0  -0.2998
  N  N1669  1  0.154400  0.450100  0.277600  1.0  -0.1634
  N  N1670  1  0.127800  0.467000  0.272300  1.0  -0.3614
  N  N1671  1  0.042900  0.508700  0.194600  1.0  -0.339
  N  N1672  1  0.286200  0.465300  0.498900  1.0  -0.0203
  N  N1673  1  0.271300  0.439700  0.509400  1.0  -0.0613
  N  N1674  1  0.249200  0.430800  0.487800  1.0  -0.3603
  N  N1675  1  0.274000  0.473400  0.469700  1.0  -0.2886
  N  N1676  1  0.201700  0.449600  0.375400  1.0  -0.3128
  N  N1677  1  0.944400  0.530400  0.147100  1.0  -0.0368
  N  N1678  1  0.917800  0.541940  0.160900  1.0  -0.0861
  N  N1679  1  0.937800  0.520000  0.117600  1.0  -0.3227
  N  N1680  1  0.893370  0.538400  0.140500  1.0  -0.3337
  N  N1681  1  0.854700  0.498400  0.029500  1.0  -0.3666
  N  N1682  1  0.198400  0.511100  0.067500  1.0  -0.0297
  N  N1683  1  0.212100  0.535700  0.081700  1.0  -0.1296
  N  N1684  1  0.198400  0.485500  0.087300  1.0  -0.3828
  N  N1685  1  0.221000  0.527700  0.111600  1.0  -0.3543
  N  N1686  1  0.219300  0.436500  0.197000  1.0  -0.2566
  N  N1687  1  0.729100  0.038600  0.700400  1.0  -0.0918
  N  N1688  1  0.751600  0.017400  0.691200  1.0  -0.3402
  N  N1689  1  0.738500  0.054000  0.726900  1.0  -0.0448
  N  N1690  1  0.767090  0.042500  0.735800  1.0  -0.364
  N  N1691  1  0.862600  0.967800  0.717400  1.0  -0.4055
  N  N1692  1  0.693200  0.105800  0.681300  1.0  -0.0997
  N  N1693  1  0.695900  0.126300  0.656500  1.0  -0.3765
  N  N1694  1  0.702500  0.119000  0.708600  1.0  -0.1322
  N  N1695  1  0.712800  0.149400  0.702800  1.0  -0.338
  N  N1696  1  0.734500  0.238700  0.620100  1.0  -0.361
  N  N1697  1  0.664800  0.062300  0.751000  1.0  -0.1303
  N  N1698  1  0.644400  0.053300  0.774000  1.0  -0.2997
  N  N1699  1  0.654400  0.049900  0.722400  1.0  -0.1642
  N  N1700  1  0.627800  0.033000  0.727700  1.0  -0.364
  N  N1701  1  0.542900  0.991300  0.805400  1.0  -0.3369
  N  N1702  1  0.786200  0.034700  0.501100  1.0  -0.0202
  N  N1703  1  0.771300  0.060300  0.490600  1.0  -0.0615
  N  N1704  1  0.749200  0.069200  0.512200  1.0  -0.3605
  N  N1705  1  0.774000  0.026600  0.530300  1.0  -0.2879
  N  N1706  1  0.701700  0.050400  0.624600  1.0  -0.3133
  N  N1707  1  0.444400  0.969600  0.852900  1.0  -0.0378
  N  N1708  1  0.417800  0.958060  0.839100  1.0  -0.0885
  N  N1709  1  0.437800  0.980000  0.882400  1.0  -0.322
  N  N1710  1  0.393370  0.961600  0.859500  1.0  -0.3349
  N  N1711  1  0.354700  0.001600  0.970500  1.0  -0.3688
  N  N1712  1  0.698400  0.988900  0.932500  1.0  -0.0308
  N  N1713  1  0.712100  0.964300  0.918300  1.0  -0.1293
  N  N1714  1  0.698400  0.014500  0.912700  1.0  -0.3837
  N  N1715  1  0.721000  0.972300  0.888400  1.0  -0.3573
  N  N1716  1  0.719300  0.063500  0.803000  1.0  -0.261
  N  N1717  1  0.270900  0.538600  0.799600  1.0  -0.0907
  N  N1718  1  0.248400  0.517400  0.808800  1.0  -0.3389
  N  N1719  1  0.261500  0.554000  0.773100  1.0  -0.0442
  N  N1720  1  0.232910  0.542500  0.764200  1.0  -0.3638
  N  N1721  1  0.137400  0.467800  0.782600  1.0  -0.4044
  N  N1722  1  0.306800  0.605800  0.818700  1.0  -0.1015
  N  N1723  1  0.304100  0.626300  0.843500  1.0  -0.377
  N  N1724  1  0.297500  0.619000  0.791400  1.0  -0.1305
  N  N1725  1  0.287200  0.649400  0.797200  1.0  -0.3379
  N  N1726  1  0.265500  0.738700  0.879900  1.0  -0.3612
  N  N1727  1  0.335200  0.562300  0.749000  1.0  -0.1315
  N  N1728  1  0.355600  0.553300  0.726000  1.0  -0.2988
  N  N1729  1  0.345600  0.549900  0.777600  1.0  -0.1629
  N  N1730  1  0.372200  0.533000  0.772300  1.0  -0.359
  N  N1731  1  0.457100  0.491300  0.694600  1.0  -0.3371
  N  N1732  1  0.213800  0.534700  0.998900  1.0  -0.0218
  N  N1733  1  0.228700  0.560300  0.009400  1.0  -0.0612
  N  N1734  1  0.250800  0.569200  0.987800  1.0  -0.3605
  N  N1735  1  0.226000  0.526600  0.969700  1.0  -0.289
  N  N1736  1  0.298300  0.550400  0.875400  1.0  -0.3133
  N  N1737  1  0.555600  0.469600  0.647100  1.0  -0.038
  N  N1738  1  0.582200  0.458060  0.660900  1.0  -0.0866
  N  N1739  1  0.562200  0.480000  0.617600  1.0  -0.3216
  N  N1740  1  0.606630  0.461600  0.640500  1.0  -0.3345
  N  N1741  1  0.645300  0.501600  0.529500  1.0  -0.3656
  N  N1742  1  0.301600  0.488900  0.567500  1.0  -0.0288
  N  N1743  1  0.287900  0.464300  0.581700  1.0  -0.13
  N  N1744  1  0.301600  0.514500  0.587300  1.0  -0.3827
  N  N1745  1  0.279000  0.472300  0.611600  1.0  -0.3556
  N  N1746  1  0.280700  0.563500  0.697000  1.0  -0.2576
  N  N1747  1  0.770900  0.961400  0.200400  1.0  -0.0923
  N  N1748  1  0.748400  0.982600  0.191200  1.0  -0.3407
  N  N1749  1  0.761500  0.946000  0.226900  1.0  -0.0441
  N  N1750  1  0.732910  0.957500  0.235800  1.0  -0.3639
  N  N1751  1  0.637400  0.032200  0.217400  1.0  -0.403
  N  N1752  1  0.806800  0.894200  0.181300  1.0  -0.1011
  N  N1753  1  0.804100  0.873700  0.156500  1.0  -0.3766
  N  N1754  1  0.797500  0.881000  0.208600  1.0  -0.1305
  N  N1755  1  0.787200  0.850600  0.202800  1.0  -0.3387
  N  N1756  1  0.765500  0.761300  0.120100  1.0  -0.3603
  N  N1757  1  0.835200  0.937700  0.251000  1.0  -0.1316
  N  N1758  1  0.855600  0.946700  0.274000  1.0  -0.2977
  N  N1759  1  0.845600  0.950100  0.222400  1.0  -0.1645
  N  N1760  1  0.872200  0.967000  0.227700  1.0  -0.3658
  N  N1761  1  0.957100  0.008700  0.305400  1.0  -0.3385
  N  N1762  1  0.713800  0.965300  0.001100  1.0  -0.0209
  N  N1763  1  0.728700  0.939700  0.990600  1.0  -0.0613
  N  N1764  1  0.750800  0.930800  0.012200  1.0  -0.3609
  N  N1765  1  0.726000  0.973400  0.030300  1.0  -0.2895
  N  N1766  1  0.798300  0.949600  0.124600  1.0  -0.3129
  N  N1767  1  0.055600  0.030400  0.352900  1.0  -0.0373
  N  N1768  1  0.082200  0.041940  0.339100  1.0  -0.0885
  N  N1769  1  0.062200  0.020000  0.382400  1.0  -0.3218
  N  N1770  1  0.106630  0.038400  0.359500  1.0  -0.3349
  N  N1771  1  0.145300  0.998400  0.470500  1.0  -0.3665
  N  N1772  1  0.801600  0.011100  0.432500  1.0  -0.0291
  N  N1773  1  0.787900  0.035700  0.418300  1.0  -0.1303
  N  N1774  1  0.801600  0.985500  0.412700  1.0  -0.3824
  N  N1775  1  0.779000  0.027700  0.388400  1.0  -0.3565
  N  N1776  1  0.780700  0.936500  0.303000  1.0  -0.257
  N  N1777  1  0.299600  0.229100  0.461400  1.0  -0.0898
  N  N1778  1  0.308800  0.251600  0.482600  1.0  -0.3375
  N  N1779  1  0.273100  0.238500  0.446000  1.0  -0.0443
  N  N1780  1  0.264200  0.267090  0.457500  1.0  -0.3635
  N  N1781  1  0.282600  0.362600  0.532200  1.0  -0.4022
  N  N1782  1  0.318700  0.193200  0.394200  1.0  -0.1018
  N  N1783  1  0.343500  0.195900  0.373700  1.0  -0.3743
  N  N1784  1  0.291400  0.202500  0.381000  1.0  -0.1303
  N  N1785  1  0.297200  0.212800  0.350600  1.0  -0.3358
  N  N1786  1  0.379900  0.234500  0.261300  1.0  -0.3572
  N  N1787  1  0.249000  0.164800  0.437700  1.0  -0.134
  N  N1788  1  0.226000  0.144400  0.446700  1.0  -0.2961
  N  N1789  1  0.277600  0.154400  0.450100  1.0  -0.1648
  N  N1790  1  0.272300  0.127800  0.467000  1.0  -0.3588
  N  N1791  1  0.194600  0.042900  0.508700  1.0  -0.3386
  N  N1792  1  0.498900  0.286200  0.465300  1.0  -0.0221
  N  N1793  1  0.509400  0.271300  0.439700  1.0  -0.0626
  N  N1794  1  0.487800  0.249200  0.430800  1.0  -0.3618
  N  N1795  1  0.469700  0.274000  0.473400  1.0  -0.2872
  N  N1796  1  0.375400  0.201700  0.449600  1.0  -0.3163
  N  N1797  1  0.147100  0.944400  0.530400  1.0  -0.0386
  N  N1798  1  0.160900  0.917800  0.541940  1.0  -0.0842
  N  N1799  1  0.117600  0.937800  0.520000  1.0  -0.3231
  N  N1800  1  0.140500  0.893370  0.538400  1.0  -0.3357
  N  N1801  1  0.029500  0.854700  0.498400  1.0  -0.3655
  N  N1802  1  0.067500  0.198400  0.511100  1.0  -0.0278
  N  N1803  1  0.081700  0.212100  0.535700  1.0  -0.1284
  N  N1804  1  0.087300  0.198400  0.485500  1.0  -0.3867
  N  N1805  1  0.111600  0.221000  0.527700  1.0  -0.3536
  N  N1806  1  0.197000  0.219300  0.436500  1.0  -0.2617
  N  N1807  1  0.700400  0.729100  0.038600  1.0  -0.091
  N  N1808  1  0.691200  0.751600  0.017400  1.0  -0.3385
  N  N1809  1  0.726900  0.738500  0.054000  1.0  -0.046
  N  N1810  1  0.735800  0.767090  0.042500  1.0  -0.3639
  N  N1811  1  0.717400  0.862600  0.967800  1.0  -0.4052
  N  N1812  1  0.681300  0.693200  0.105800  1.0  -0.101
  N  N1813  1  0.656500  0.695900  0.126300  1.0  -0.373
  N  N1814  1  0.708600  0.702500  0.119000  1.0  -0.1296
  N  N1815  1  0.702800  0.712800  0.149400  1.0  -0.3361
  N  N1816  1  0.620100  0.734500  0.238700  1.0  -0.3585
  N  N1817  1  0.751000  0.664800  0.062300  1.0  -0.133
  N  N1818  1  0.774000  0.644400  0.053300  1.0  -0.2952
  N  N1819  1  0.722400  0.654400  0.049900  1.0  -0.1626
  N  N1820  1  0.727700  0.627800  0.033000  1.0  -0.36
  N  N1821  1  0.805400  0.542900  0.991300  1.0  -0.3364
  N  N1822  1  0.501100  0.786200  0.034700  1.0  -0.0224
  N  N1823  1  0.490600  0.771300  0.060300  1.0  -0.0628
  N  N1824  1  0.512200  0.749200  0.069200  1.0  -0.3619
  N  N1825  1  0.530300  0.774000  0.026600  1.0  -0.2864
  N  N1826  1  0.624600  0.701700  0.050400  1.0  -0.3156
  N  N1827  1  0.852900  0.444400  0.969600  1.0  -0.0377
  N  N1828  1  0.839100  0.417800  0.958060  1.0  -0.0832
  N  N1829  1  0.882400  0.437800  0.980000  1.0  -0.3223
  N  N1830  1  0.859500  0.393370  0.961600  1.0  -0.3359
  N  N1831  1  0.970500  0.354700  0.001600  1.0  -0.364
  N  N1832  1  0.932500  0.698400  0.988900  1.0  -0.0275
  N  N1833  1  0.918300  0.712100  0.964300  1.0  -0.1281
  N  N1834  1  0.912700  0.698400  0.014500  1.0  -0.3822
  N  N1835  1  0.888400  0.721000  0.972300  1.0  -0.3536
  N  N1836  1  0.803000  0.719300  0.063500  1.0  -0.255
  N  N1837  1  0.799600  0.270900  0.538600  1.0  -0.0898
  N  N1838  1  0.808800  0.248400  0.517400  1.0  -0.3379
  N  N1839  1  0.773100  0.261500  0.554000  1.0  -0.0458
  N  N1840  1  0.764200  0.232910  0.542500  1.0  -0.3637
  N  N1841  1  0.782600  0.137400  0.467800  1.0  -0.4029
  N  N1842  1  0.818700  0.306800  0.605800  1.0  -0.1009
  N  N1843  1  0.843500  0.304100  0.626300  1.0  -0.3745
  N  N1844  1  0.791400  0.297500  0.619000  1.0  -0.1291
  N  N1845  1  0.797200  0.287200  0.649400  1.0  -0.3357
  N  N1846  1  0.879900  0.265500  0.738700  1.0  -0.3588
  N  N1847  1  0.749000  0.335200  0.562300  1.0  -0.1332
  N  N1848  1  0.726000  0.355600  0.553300  1.0  -0.2956
  N  N1849  1  0.777600  0.345600  0.549900  1.0  -0.164
  N  N1850  1  0.772300  0.372200  0.533000  1.0  -0.3588
  N  N1851  1  0.694600  0.457100  0.491300  1.0  -0.3388
  N  N1852  1  0.998900  0.213800  0.534700  1.0  -0.0225
  N  N1853  1  0.009400  0.228700  0.560300  1.0  -0.062
  N  N1854  1  0.987800  0.250800  0.569200  1.0  -0.3611
  N  N1855  1  0.969700  0.226000  0.526600  1.0  -0.288
  N  N1856  1  0.875400  0.298300  0.550400  1.0  -0.3165
  N  N1857  1  0.647100  0.555600  0.469600  1.0  -0.0379
  N  N1858  1  0.660900  0.582200  0.458060  1.0  -0.0845
  N  N1859  1  0.617600  0.562200  0.480000  1.0  -0.3244
  N  N1860  1  0.640500  0.606630  0.461600  1.0  -0.3375
  N  N1861  1  0.529500  0.645300  0.501600  1.0  -0.366
  N  N1862  1  0.567500  0.301600  0.488900  1.0  -0.0272
  N  N1863  1  0.581700  0.287900  0.464300  1.0  -0.1288
  N  N1864  1  0.587300  0.301600  0.514500  1.0  -0.3843
  N  N1865  1  0.611600  0.279000  0.472300  1.0  -0.3545
  N  N1866  1  0.697000  0.280700  0.563500  1.0  -0.2583
  N  N1867  1  0.200400  0.770900  0.961400  1.0  -0.0905
  N  N1868  1  0.191200  0.748400  0.982600  1.0  -0.3389
  N  N1869  1  0.226900  0.761500  0.946000  1.0  -0.0447
  N  N1870  1  0.235800  0.732910  0.957500  1.0  -0.3641
  N  N1871  1  0.217400  0.637400  0.032200  1.0  -0.4007
  N  N1872  1  0.181300  0.806800  0.894200  1.0  -0.1015
  N  N1873  1  0.156500  0.804100  0.873700  1.0  -0.374
  N  N1874  1  0.208600  0.797500  0.881000  1.0  -0.1291
  N  N1875  1  0.202800  0.787200  0.850600  1.0  -0.336
  N  N1876  1  0.120100  0.765500  0.761300  1.0  -0.3581
  N  N1877  1  0.251000  0.835200  0.937700  1.0  -0.1337
  N  N1878  1  0.274000  0.855600  0.946700  1.0  -0.2959
  N  N1879  1  0.222400  0.845600  0.950100  1.0  -0.1631
  N  N1880  1  0.227700  0.872200  0.967000  1.0  -0.3611
  N  N1881  1  0.305400  0.957100  0.008700  1.0  -0.3373
  N  N1882  1  0.001100  0.713800  0.965300  1.0  -0.0233
  N  N1883  1  0.990600  0.728700  0.939700  1.0  -0.062
  N  N1884  1  0.012200  0.750800  0.930800  1.0  -0.3615
  N  N1885  1  0.030300  0.726000  0.973400  1.0  -0.2866
  N  N1886  1  0.124600  0.798300  0.949600  1.0  -0.3181
  N  N1887  1  0.352900  0.055600  0.030400  1.0  -0.0371
  N  N1888  1  0.339100  0.082200  0.041940  1.0  -0.0836
  N  N1889  1  0.382400  0.062200  0.020000  1.0  -0.3223
  N  N1890  1  0.359500  0.106630  0.038400  1.0  -0.3371
  N  N1891  1  0.470500  0.145300  0.998400  1.0  -0.3642
  N  N1892  1  0.432500  0.801600  0.011100  1.0  -0.0275
  N  N1893  1  0.418300  0.787900  0.035700  1.0  -0.1292
  N  N1894  1  0.412700  0.801600  0.985500  1.0  -0.3855
  N  N1895  1  0.388400  0.779000  0.027700  1.0  -0.355
  N  N1896  1  0.303000  0.780700  0.936500  1.0  -0.2575
  N  N1897  1  0.538600  0.700400  0.770900  1.0  -0.0935
  N  N1898  1  0.517400  0.691200  0.748400  1.0  -0.3383
  N  N1899  1  0.554000  0.726900  0.761500  1.0  -0.0447
  N  N1900  1  0.542500  0.735800  0.732910  1.0  -0.3638
  N  N1901  1  0.467800  0.717400  0.637400  1.0  -0.4001
  N  N1902  1  0.605800  0.681300  0.806800  1.0  -0.0979
  N  N1903  1  0.626300  0.656500  0.804100  1.0  -0.3744
  N  N1904  1  0.619000  0.708600  0.797500  1.0  -0.1312
  N  N1905  1  0.649400  0.702800  0.787200  1.0  -0.3351
  N  N1906  1  0.738700  0.620100  0.765500  1.0  -0.3611
  N  N1907  1  0.562300  0.751000  0.835200  1.0  -0.1348
  N  N1908  1  0.553300  0.774000  0.855600  1.0  -0.298
  N  N1909  1  0.549900  0.722400  0.845600  1.0  -0.1633
  N  N1910  1  0.533000  0.727700  0.872200  1.0  -0.359
  N  N1911  1  0.491300  0.805400  0.957100  1.0  -0.3385
  N  N1912  1  0.534700  0.501100  0.713800  1.0  -0.0226
  N  N1913  1  0.560300  0.490600  0.728700  1.0  -0.0604
  N  N1914  1  0.569200  0.512200  0.750800  1.0  -0.3593
  N  N1915  1  0.526600  0.530300  0.726000  1.0  -0.2877
  N  N1916  1  0.550400  0.624600  0.798300  1.0  -0.3153
  N  N1917  1  0.469600  0.852900  0.055600  1.0  -0.0388
  N  N1918  1  0.458060  0.839100  0.082200  1.0  -0.0841
  N  N1919  1  0.480000  0.882400  0.062200  1.0  -0.3234
  N  N1920  1  0.461600  0.859500  0.106630  1.0  -0.3347
  N  N1921  1  0.501600  0.970500  0.145300  1.0  -0.3666
  N  N1922  1  0.488900  0.932500  0.801600  1.0  -0.0287
  N  N1923  1  0.464300  0.918300  0.787900  1.0  -0.1274
  N  N1924  1  0.514500  0.912700  0.801600  1.0  -0.3821
  N  N1925  1  0.472300  0.888400  0.779000  1.0  -0.353
  N  N1926  1  0.563500  0.803000  0.780700  1.0  -0.2579
  N  N1927  1  0.961400  0.299600  0.270900  1.0  -0.0929
  N  N1928  1  0.982600  0.308800  0.248400  1.0  -0.3396
  N  N1929  1  0.946000  0.273100  0.261500  1.0  -0.0453
  N  N1930  1  0.957500  0.264200  0.232910  1.0  -0.3654
  N  N1931  1  0.032200  0.282600  0.137400  1.0  -0.403
  N  N1932  1  0.894200  0.318700  0.306800  1.0  -0.1002
  N  N1933  1  0.873700  0.343500  0.304100  1.0  -0.3746
  N  N1934  1  0.881000  0.291400  0.297500  1.0  -0.1313
  N  N1935  1  0.850600  0.297200  0.287200  1.0  -0.3364
  N  N1936  1  0.761300  0.379900  0.265500  1.0  -0.3606
  N  N1937  1  0.937700  0.249000  0.335200  1.0  -0.1348
  N  N1938  1  0.946700  0.226000  0.355600  1.0  -0.2994
  N  N1939  1  0.950100  0.277600  0.345600  1.0  -0.1624
  N  N1940  1  0.967000  0.272300  0.372200  1.0  -0.3638
  N  N1941  1  0.008700  0.194600  0.457100  1.0  -0.3363
  N  N1942  1  0.965300  0.498900  0.213800  1.0  -0.0225
  N  N1943  1  0.939700  0.509400  0.228700  1.0  -0.0606
  N  N1944  1  0.930800  0.487800  0.250800  1.0  -0.3621
  N  N1945  1  0.973400  0.469700  0.226000  1.0  -0.2871
  N  N1946  1  0.949600  0.375400  0.298300  1.0  -0.3126
  N  N1947  1  0.030400  0.147100  0.555600  1.0  -0.0383
  N  N1948  1  0.041940  0.160900  0.582200  1.0  -0.0864
  N  N1949  1  0.020000  0.117600  0.562200  1.0  -0.3242
  N  N1950  1  0.038400  0.140500  0.606630  1.0  -0.3347
  N  N1951  1  0.998400  0.029500  0.645300  1.0  -0.3664
  N  N1952  1  0.011100  0.067500  0.301600  1.0  -0.0287
  N  N1953  1  0.035700  0.081700  0.287900  1.0  -0.128
  N  N1954  1  0.985500  0.087300  0.301600  1.0  -0.3822
  N  N1955  1  0.027700  0.111600  0.279000  1.0  -0.3519
  N  N1956  1  0.936500  0.197000  0.280700  1.0  -0.2557
  N  N1957  1  0.461400  0.200400  0.729100  1.0  -0.0931
  N  N1958  1  0.482600  0.191200  0.751600  1.0  -0.3387
  N  N1959  1  0.446000  0.226900  0.738500  1.0  -0.0453
  N  N1960  1  0.457500  0.235800  0.767090  1.0  -0.3642
  N  N1961  1  0.532200  0.217400  0.862600  1.0  -0.4019
  N  N1962  1  0.394200  0.181300  0.693200  1.0  -0.1
  N  N1963  1  0.373700  0.156500  0.695900  1.0  -0.3734
  N  N1964  1  0.381000  0.208600  0.702500  1.0  -0.1329
  N  N1965  1  0.350600  0.202800  0.712800  1.0  -0.3363
  N  N1966  1  0.261300  0.120100  0.734500  1.0  -0.3625
  N  N1967  1  0.437700  0.251000  0.664800  1.0  -0.1347
  N  N1968  1  0.446700  0.274000  0.644400  1.0  -0.2997
  N  N1969  1  0.450100  0.222400  0.654400  1.0  -0.1641
  N  N1970  1  0.467000  0.227700  0.627800  1.0  -0.3607
  N  N1971  1  0.508700  0.305400  0.542900  1.0  -0.3383
  N  N1972  1  0.465300  0.001100  0.786200  1.0  -0.0231
  N  N1973  1  0.439700  0.990600  0.771300  1.0  -0.0607
  N  N1974  1  0.430800  0.012200  0.749200  1.0  -0.363
  N  N1975  1  0.473400  0.030300  0.774000  1.0  -0.2861
  N  N1976  1  0.449600  0.124600  0.701700  1.0  -0.3172
  N  N1977  1  0.530400  0.352900  0.444400  1.0  -0.0376
  N  N1978  1  0.541940  0.339100  0.417800  1.0  -0.0857
  N  N1979  1  0.520000  0.382400  0.437800  1.0  -0.3241
  N  N1980  1  0.538400  0.359500  0.393370  1.0  -0.3375
  N  N1981  1  0.498400  0.470500  0.354700  1.0  -0.3655
  N  N1982  1  0.511100  0.432500  0.698400  1.0  -0.0278
  N  N1983  1  0.535700  0.418300  0.712100  1.0  -0.1278
  N  N1984  1  0.485500  0.412700  0.698400  1.0  -0.3822
  N  N1985  1  0.527700  0.388400  0.721000  1.0  -0.353
  N  N1986  1  0.436500  0.303000  0.719300  1.0  -0.2558
  N  N1987  1  0.038600  0.799600  0.229100  1.0  -0.0935
  N  N1988  1  0.017400  0.808800  0.251600  1.0  -0.3404
  N  N1989  1  0.054000  0.773100  0.238500  1.0  -0.0446
  N  N1990  1  0.042500  0.764200  0.267090  1.0  -0.3637
  N  N1991  1  0.967800  0.782600  0.362600  1.0  -0.4012
  N  N1992  1  0.105800  0.818700  0.193200  1.0  -0.0978
  N  N1993  1  0.126300  0.843500  0.195900  1.0  -0.3753
  N  N1994  1  0.119000  0.791400  0.202500  1.0  -0.1307
  N  N1995  1  0.149400  0.797200  0.212800  1.0  -0.3362
  N  N1996  1  0.238700  0.879900  0.234500  1.0  -0.3602
  N  N1997  1  0.062300  0.749000  0.164800  1.0  -0.1341
  N  N1998  1  0.053300  0.726000  0.144400  1.0  -0.2986
  N  N1999  1  0.049900  0.777600  0.154400  1.0  -0.1612
  N  N2000  1  0.033000  0.772300  0.127800  1.0  -0.3657
  N  N2001  1  0.991300  0.694600  0.042900  1.0  -0.3375
  N  N2002  1  0.034700  0.998900  0.286200  1.0  -0.0231
  N  N2003  1  0.060300  0.009400  0.271300  1.0  -0.0604
  N  N2004  1  0.069200  0.987800  0.249200  1.0  -0.3615
  N  N2005  1  0.026600  0.969700  0.274000  1.0  -0.2883
  N  N2006  1  0.050400  0.875400  0.201700  1.0  -0.3144
  N  N2007  1  0.969600  0.647100  0.944400  1.0  -0.0376
  N  N2008  1  0.958060  0.660900  0.917800  1.0  -0.087
  N  N2009  1  0.980000  0.617600  0.937800  1.0  -0.3243
  N  N2010  1  0.961600  0.640500  0.893370  1.0  -0.3362
  N  N2011  1  0.001600  0.529500  0.854700  1.0  -0.3643
  N  N2012  1  0.988900  0.567500  0.198400  1.0  -0.0279
  N  N2013  1  0.964300  0.581700  0.212100  1.0  -0.1279
  N  N2014  1  0.014500  0.587300  0.198400  1.0  -0.383
  N  N2015  1  0.972300  0.611600  0.221000  1.0  -0.354
  N  N2016  1  0.063500  0.697000  0.219300  1.0  -0.2584
  N  N2017  1  0.770900  0.538600  0.700400  1.0  -0.0923
  N  N2018  1  0.748400  0.517400  0.691200  1.0  -0.339
  N  N2019  1  0.761500  0.554000  0.726900  1.0  -0.0444
  N  N2020  1  0.732910  0.542500  0.735800  1.0  -0.3639
  N  N2021  1  0.637400  0.467800  0.717400  1.0  -0.4043
  N  N2022  1  0.806800  0.605800  0.681300  1.0  -0.1012
  N  N2023  1  0.804100  0.626300  0.656500  1.0  -0.3772
  N  N2024  1  0.797500  0.619000  0.708600  1.0  -0.1302
  N  N2025  1  0.787200  0.649400  0.702800  1.0  -0.3379
  N  N2026  1  0.765500  0.738700  0.620100  1.0  -0.361
  N  N2027  1  0.835200  0.562300  0.751000  1.0  -0.1313
  N  N2028  1  0.855600  0.553300  0.774000  1.0  -0.2985
  N  N2029  1  0.845600  0.549900  0.722400  1.0  -0.164
  N  N2030  1  0.872200  0.533000  0.727700  1.0  -0.3623
  N  N2031  1  0.957100  0.491300  0.805400  1.0  -0.3363
  N  N2032  1  0.713800  0.534700  0.501100  1.0  -0.0212
  N  N2033  1  0.728700  0.560300  0.490600  1.0  -0.0605
  N  N2034  1  0.750800  0.569200  0.512200  1.0  -0.3601
  N  N2035  1  0.726000  0.526600  0.530300  1.0  -0.2885
  N  N2036  1  0.798300  0.550400  0.624600  1.0  -0.313
  N  N2037  1  0.055600  0.469600  0.852900  1.0  -0.038
  N  N2038  1  0.082200  0.458060  0.839100  1.0  -0.0884
  N  N2039  1  0.062200  0.480000  0.882400  1.0  -0.3226
  N  N2040  1  0.106630  0.461600  0.859500  1.0  -0.3348
  N  N2041  1  0.145300  0.501600  0.970500  1.0  -0.3671
  N  N2042  1  0.801600  0.488900  0.932500  1.0  -0.0292
  N  N2043  1  0.787900  0.464300  0.918300  1.0  -0.1301
  N  N2044  1  0.801600  0.514500  0.912700  1.0  -0.3834
  N  N2045  1  0.779000  0.472300  0.888400  1.0  -0.3557
  N  N2046  1  0.780700  0.563500  0.803000  1.0  -0.2605
  N  N2047  1  0.270900  0.961400  0.299600  1.0  -0.0907
  N  N2048  1  0.248400  0.982600  0.308800  1.0  -0.3404
  N  N2049  1  0.261500  0.946000  0.273100  1.0  -0.0438
  N  N2050  1  0.232910  0.957500  0.264200  1.0  -0.3643
  N  N2051  1  0.137400  0.032200  0.282600  1.0  -0.4028
  N  N2052  1  0.306800  0.894200  0.318700  1.0  -0.1013
  N  N2053  1  0.304100  0.873700  0.343500  1.0  -0.377
  N  N2054  1  0.297500  0.881000  0.291400  1.0  -0.1306
  N  N2055  1  0.287200  0.850600  0.297200  1.0  -0.3388
  N  N2056  1  0.265500  0.761300  0.379900  1.0  -0.3604
  N  N2057  1  0.335200  0.937700  0.249000  1.0  -0.1319
  N  N2058  1  0.355600  0.946700  0.226000  1.0  -0.2992
  N  N2059  1  0.345600  0.950100  0.277600  1.0  -0.163
  N  N2060  1  0.372200  0.967000  0.272300  1.0  -0.364
  N  N2061  1  0.457100  0.008700  0.194600  1.0  -0.3392
  N  N2062  1  0.213800  0.965300  0.498900  1.0  -0.0212
  N  N2063  1  0.228700  0.939700  0.509400  1.0  -0.0611
  N  N2064  1  0.250800  0.930800  0.487800  1.0  -0.3601
  N  N2065  1  0.226000  0.973400  0.469700  1.0  -0.2892
  N  N2066  1  0.298300  0.949600  0.375400  1.0  -0.3133
  N  N2067  1  0.555600  0.030400  0.147100  1.0  -0.0372
  N  N2068  1  0.582200  0.041940  0.160900  1.0  -0.0857
  N  N2069  1  0.562200  0.020000  0.117600  1.0  -0.3213
  N  N2070  1  0.606630  0.038400  0.140500  1.0  -0.3348
  N  N2071  1  0.645300  0.998400  0.029500  1.0  -0.3661
  N  N2072  1  0.301600  0.011100  0.067500  1.0  -0.0289
  N  N2073  1  0.287900  0.035700  0.081700  1.0  -0.1298
  N  N2074  1  0.301600  0.985500  0.087300  1.0  -0.3825
  N  N2075  1  0.279000  0.027700  0.111600  1.0  -0.3558
  N  N2076  1  0.280700  0.936500  0.197000  1.0  -0.256
  N  N2077  1  0.729100  0.461400  0.200400  1.0  -0.0916
  N  N2078  1  0.751600  0.482600  0.191200  1.0  -0.3382
  N  N2079  1  0.738500  0.446000  0.226900  1.0  -0.0447
  N  N2080  1  0.767090  0.457500  0.235800  1.0  -0.3636
  N  N2081  1  0.862600  0.532200  0.217400  1.0  -0.4068
  N  N2082  1  0.693200  0.394200  0.181300  1.0  -0.1011
  N  N2083  1  0.695900  0.373700  0.156500  1.0  -0.3758
  N  N2084  1  0.702500  0.381000  0.208600  1.0  -0.1324
  N  N2085  1  0.712800  0.350600  0.202800  1.0  -0.3383
  N  N2086  1  0.734500  0.261300  0.120100  1.0  -0.3602
  N  N2087  1  0.664800  0.437700  0.251000  1.0  -0.1301
  N  N2088  1  0.644400  0.446700  0.274000  1.0  -0.2984
  N  N2089  1  0.654400  0.450100  0.222400  1.0  -0.1647
  N  N2090  1  0.627800  0.467000  0.227700  1.0  -0.3615
  N  N2091  1  0.542900  0.508700  0.305400  1.0  -0.3387
  N  N2092  1  0.786200  0.465300  0.001100  1.0  -0.0198
  N  N2093  1  0.771300  0.439700  0.990600  1.0  -0.0623
  N  N2094  1  0.749200  0.430800  0.012200  1.0  -0.3607
  N  N2095  1  0.774000  0.473400  0.030300  1.0  -0.289
  N  N2096  1  0.701700  0.449600  0.124600  1.0  -0.3128
  N  N2097  1  0.444400  0.530400  0.352900  1.0  -0.038
  N  N2098  1  0.417800  0.541940  0.339100  1.0  -0.0888
  N  N2099  1  0.437800  0.520000  0.382400  1.0  -0.3218
  N  N2100  1  0.393370  0.538400  0.359500  1.0  -0.3337
  N  N2101  1  0.354700  0.498400  0.470500  1.0  -0.3682
  N  N2102  1  0.698400  0.511100  0.432500  1.0  -0.0308
  N  N2103  1  0.712100  0.535700  0.418300  1.0  -0.1299
  N  N2104  1  0.698400  0.485500  0.412700  1.0  -0.3827
  N  N2105  1  0.721000  0.527700  0.388400  1.0  -0.356
  N  N2106  1  0.719300  0.436500  0.303000  1.0  -0.2577
  N  N2107  1  0.229100  0.038600  0.799600  1.0  -0.091
  N  N2108  1  0.251600  0.017400  0.808800  1.0  -0.3404
  N  N2109  1  0.238500  0.054000  0.773100  1.0  -0.0445
  N  N2110  1  0.267090  0.042500  0.764200  1.0  -0.3646
  N  N2111  1  0.362600  0.967800  0.782600  1.0  -0.4057
  N  N2112  1  0.193200  0.105800  0.818700  1.0  -0.0999
  N  N2113  1  0.195900  0.126300  0.843500  1.0  -0.377
  N  N2114  1  0.202500  0.119000  0.791400  1.0  -0.1326
  N  N2115  1  0.212800  0.149400  0.797200  1.0  -0.3385
  N  N2116  1  0.234500  0.238700  0.879900  1.0  -0.3611
  N  N2117  1  0.164800  0.062300  0.749000  1.0  -0.1307
  N  N2118  1  0.144400  0.053300  0.726000  1.0  -0.2998
  N  N2119  1  0.154400  0.049900  0.777600  1.0  -0.1633
  N  N2120  1  0.127800  0.033000  0.772300  1.0  -0.3639
  N  N2121  1  0.042900  0.991300  0.694600  1.0  -0.3373
  N  N2122  1  0.286200  0.034700  0.998900  1.0  -0.0208
  N  N2123  1  0.271300  0.060300  0.009400  1.0  -0.0615
  N  N2124  1  0.249200  0.069200  0.987800  1.0  -0.3598
  N  N2125  1  0.274000  0.026600  0.969700  1.0  -0.2878
  N  N2126  1  0.201700  0.050400  0.875400  1.0  -0.3131
  N  N2127  1  0.944400  0.969600  0.647100  1.0  -0.0369
  N  N2128  1  0.917800  0.958060  0.660900  1.0  -0.0867
  N  N2129  1  0.937800  0.980000  0.617600  1.0  -0.3226
  N  N2130  1  0.893370  0.961600  0.640500  1.0  -0.3348
  N  N2131  1  0.854700  0.001600  0.529500  1.0  -0.3659
  N  N2132  1  0.198400  0.988900  0.567500  1.0  -0.0296
  N  N2133  1  0.212100  0.964300  0.581700  1.0  -0.1296
  N  N2134  1  0.198400  0.014500  0.587300  1.0  -0.383
  N  N2135  1  0.221000  0.972300  0.611600  1.0  -0.3561
  N  N2136  1  0.219300  0.063500  0.697000  1.0  -0.2583
  N  N2137  1  0.700400  0.770900  0.538600  1.0  -0.0906
  N  N2138  1  0.691200  0.748400  0.517400  1.0  -0.3367
  N  N2139  1  0.726900  0.761500  0.554000  1.0  -0.0457
  N  N2140  1  0.735800  0.732910  0.542500  1.0  -0.3632
  N  N2141  1  0.717400  0.637400  0.467800  1.0  -0.4023
  N  N2142  1  0.681300  0.806800  0.605800  1.0  -0.1008
  N  N2143  1  0.656500  0.804100  0.626300  1.0  -0.3733
  N  N2144  1  0.708600  0.797500  0.619000  1.0  -0.1292
  N  N2145  1  0.702800  0.787200  0.649400  1.0  -0.3355
  N  N2146  1  0.620100  0.765500  0.738700  1.0  -0.3589
  N  N2147  1  0.751000  0.835200  0.562300  1.0  -0.1329
  N  N2148  1  0.774000  0.855600  0.553300  1.0  -0.2949
  N  N2149  1  0.722400  0.845600  0.549900  1.0  -0.1634
  N  N2150  1  0.727700  0.872200  0.533000  1.0  -0.3567
  N  N2151  1  0.805400  0.957100  0.491300  1.0  -0.3381
  N  N2152  1  0.501100  0.713800  0.534700  1.0  -0.0229
  N  N2153  1  0.490600  0.728700  0.560300  1.0  -0.0625
  N  N2154  1  0.512200  0.750800  0.569200  1.0  -0.3613
  N  N2155  1  0.530300  0.726000  0.526600  1.0  -0.2872
  N  N2156  1  0.624600  0.798300  0.550400  1.0  -0.3181
  N  N2157  1  0.852900  0.055600  0.469600  1.0  -0.0377
  N  N2158  1  0.839100  0.082200  0.458060  1.0  -0.0835
  N  N2159  1  0.882400  0.062200  0.480000  1.0  -0.3232
  N  N2160  1  0.859500  0.106630  0.461600  1.0  -0.3371
  N  N2161  1  0.970500  0.145300  0.501600  1.0  -0.3644
  N  N2162  1  0.932500  0.801600  0.488900  1.0  -0.0272
  N  N2163  1  0.918300  0.787900  0.464300  1.0  -0.1288
  N  N2164  1  0.912700  0.801600  0.514500  1.0  -0.3829
  N  N2165  1  0.888400  0.779000  0.472300  1.0  -0.3539
  N  N2166  1  0.803000  0.780700  0.563500  1.0  -0.2551
  N  N2167  1  0.299600  0.270900  0.961400  1.0  -0.09
  N  N2168  1  0.308800  0.248400  0.982600  1.0  -0.3394
  N  N2169  1  0.273100  0.261500  0.946000  1.0  -0.0443
  N  N2170  1  0.264200  0.232910  0.957500  1.0  -0.3639
  N  N2171  1  0.282600  0.137400  0.032200  1.0  -0.4016
  N  N2172  1  0.318700  0.306800  0.894200  1.0  -0.1014
  N  N2173  1  0.343500  0.304100  0.873700  1.0  -0.3751
  N  N2174  1  0.291400  0.297500  0.881000  1.0  -0.1298
  N  N2175  1  0.297200  0.287200  0.850600  1.0  -0.3355
  N  N2176  1  0.379900  0.265500  0.761300  1.0  -0.3585
  N  N2177  1  0.249000  0.335200  0.937700  1.0  -0.1341
  N  N2178  1  0.226000  0.355600  0.946700  1.0  -0.296
  N  N2179  1  0.277600  0.345600  0.950100  1.0  -0.1637
  N  N2180  1  0.272300  0.372200  0.967000  1.0  -0.3622
  N  N2181  1  0.194600  0.457100  0.008700  1.0  -0.3389
  N  N2182  1  0.498900  0.213800  0.965300  1.0  -0.0228
  N  N2183  1  0.509400  0.228700  0.939700  1.0  -0.0623
  N  N2184  1  0.487800  0.250800  0.930800  1.0  -0.3613
  N  N2185  1  0.469700  0.226000  0.973400  1.0  -0.2872
  N  N2186  1  0.375400  0.298300  0.949600  1.0  -0.3161
  N  N2187  1  0.147100  0.555600  0.030400  1.0  -0.0377
  N  N2188  1  0.160900  0.582200  0.041940  1.0  -0.0845
  N  N2189  1  0.117600  0.562200  0.020000  1.0  -0.3237
  N  N2190  1  0.140500  0.606630  0.038400  1.0  -0.3369
  N  N2191  1  0.029500  0.645300  0.998400  1.0  -0.3655
  N  N2192  1  0.067500  0.301600  0.011100  1.0  -0.0274
  N  N2193  1  0.081700  0.287900  0.035700  1.0  -0.1285
  N  N2194  1  0.087300  0.301600  0.985500  1.0  -0.3865
  N  N2195  1  0.111600  0.279000  0.027700  1.0  -0.3529
  N  N2196  1  0.197000  0.280700  0.936500  1.0  -0.262
  N  N2197  1  0.200400  0.729100  0.461400  1.0  -0.0907
  N  N2198  1  0.191200  0.751600  0.482600  1.0  -0.3375
  N  N2199  1  0.226900  0.738500  0.446000  1.0  -0.0448
  N  N2200  1  0.235800  0.767090  0.457500  1.0  -0.3641
  N  N2201  1  0.217400  0.862600  0.532200  1.0  -0.4017
  N  N2202  1  0.181300  0.693200  0.394200  1.0  -0.1015
  N  N2203  1  0.156500  0.695900  0.373700  1.0  -0.3733
  N  N2204  1  0.208600  0.702500  0.381000  1.0  -0.1294
  N  N2205  1  0.202800  0.712800  0.350600  1.0  -0.3365
  N  N2206  1  0.120100  0.734500  0.261300  1.0  -0.3569
  N  N2207  1  0.251000  0.664800  0.437700  1.0  -0.1334
  N  N2208  1  0.274000  0.644400  0.446700  1.0  -0.2963
  N  N2209  1  0.222400  0.654400  0.450100  1.0  -0.1623
  N  N2210  1  0.227700  0.627800  0.467000  1.0  -0.3579
  N  N2211  1  0.305400  0.542900  0.508700  1.0  -0.3365
  N  N2212  1  0.001100  0.786200  0.465300  1.0  -0.0227
  N  N2213  1  0.990600  0.771300  0.439700  1.0  -0.0626
  N  N2214  1  0.012200  0.749200  0.430800  1.0  -0.3628
  N  N2215  1  0.030300  0.774000  0.473400  1.0  -0.2863
  N  N2216  1  0.124600  0.701700  0.449600  1.0  -0.3155
  N  N2217  1  0.352900  0.444400  0.530400  1.0  -0.0375
  N  N2218  1  0.339100  0.417800  0.541940  1.0  -0.0833
  N  N2219  1  0.382400  0.437800  0.520000  1.0  -0.3218
  N  N2220  1  0.359500  0.393370  0.538400  1.0  -0.3358
  N  N2221  1  0.470500  0.354700  0.498400  1.0  -0.3637
  N  N2222  1  0.432500  0.698400  0.511100  1.0  -0.0276
  N  N2223  1  0.418300  0.712100  0.535700  1.0  -0.1292
  N  N2224  1  0.412700  0.698400  0.485500  1.0  -0.3852
  N  N2225  1  0.388400  0.721000  0.527700  1.0  -0.3559
  N  N2226  1  0.303000  0.719300  0.436500  1.0  -0.2574
  N  N2227  1  0.799600  0.229100  0.038600  1.0  -0.0898
  N  N2228  1  0.808800  0.251600  0.017400  1.0  -0.3398
  N  N2229  1  0.773100  0.238500  0.054000  1.0  -0.0458
  N  N2230  1  0.764200  0.267090  0.042500  1.0  -0.3638
  N  N2231  1  0.782600  0.362600  0.967800  1.0  -0.4049
  N  N2232  1  0.818700  0.193200  0.105800  1.0  -0.1013
  N  N2233  1  0.843500  0.195900  0.126300  1.0  -0.3741
  N  N2234  1  0.791400  0.202500  0.119000  1.0  -0.1296
  N  N2235  1  0.797200  0.212800  0.149400  1.0  -0.3361
  N  N2236  1  0.879900  0.234500  0.238700  1.0  -0.3585
  N  N2237  1  0.749000  0.164800  0.062300  1.0  -0.1334
  N  N2238  1  0.726000  0.144400  0.053300  1.0  -0.2962
  N  N2239  1  0.777600  0.154400  0.049900  1.0  -0.1651
  N  N2240  1  0.772300  0.127800  0.033000  1.0  -0.3625
  N  N2241  1  0.694600  0.042900  0.991300  1.0  -0.3378
  N  N2242  1  0.998900  0.286200  0.034700  1.0  -0.0219
  N  N2243  1  0.009400  0.271300  0.060300  1.0  -0.062
  N  N2244  1  0.987800  0.249200  0.069200  1.0  -0.3606
  N  N2245  1  0.969700  0.274000  0.026600  1.0  -0.2874
  N  N2246  1  0.875400  0.201700  0.050400  1.0  -0.3163
  N  N2247  1  0.647100  0.944400  0.969600  1.0  -0.0385
  N  N2248  1  0.660900  0.917800  0.958060  1.0  -0.0842
  N  N2249  1  0.617600  0.937800  0.980000  1.0  -0.3232
  N  N2250  1  0.640500  0.893370  0.961600  1.0  -0.3364
  N  N2251  1  0.529500  0.854700  0.001600  1.0  -0.3657
  N  N2252  1  0.567500  0.198400  0.988900  1.0  -0.0277
  N  N2253  1  0.581700  0.212100  0.964300  1.0  -0.1278
  N  N2254  1  0.587300  0.198400  0.014500  1.0  -0.384
  N  N2255  1  0.611600  0.221000  0.972300  1.0  -0.3539
  N  N2256  1  0.697000  0.219300  0.063500  1.0  -0.2581
