# generated using pymatgen
data_CdH15C23N2O3
_symmetry_space_group_name_H-M   'P 1'
_cell_length_a   22.02230000
_cell_length_b   22.02230000
_cell_length_c   21.62800000
_cell_angle_alpha   90.00000000
_cell_angle_beta   90.00000000
_cell_angle_gamma   90.00000000
_symmetry_Int_Tables_number   1
_chemical_formula_structural   CdH15C23N2O3
_chemical_formula_sum   'Cd16 H240 C368 N32 O48'
_cell_volume   10489.18414899
_cell_formula_units_Z   16
loop_
 _symmetry_equiv_pos_site_id
 _symmetry_equiv_pos_as_xyz
  1  'x, y, z'
loop_
 _atom_site_type_symbol
 _atom_site_label
 _atom_site_symmetry_multiplicity
 _atom_site_fract_x
 _atom_site_fract_y
 _atom_site_fract_z
 _atom_site_occupancy
 _atom_site_charge
  Cd  Cd1  1  0.206390  0.810470  0.071100  1.0  1.0212
  Cd  Cd2  1  0.706390  0.310470  0.571100  1.0  1.0212
  Cd  Cd3  1  0.793610  0.189530  0.071100  1.0  1.0197
  Cd  Cd4  1  0.293610  0.689530  0.571100  1.0  1.0197
  Cd  Cd5  1  0.810470  0.793610  0.928900  1.0  1.0218
  Cd  Cd6  1  0.310470  0.293610  0.428900  1.0  1.0218
  Cd  Cd7  1  0.189530  0.206390  0.928900  1.0  1.0205
  Cd  Cd8  1  0.689530  0.706390  0.428900  1.0  1.0205
  Cd  Cd9  1  0.293610  0.810470  0.678900  1.0  1.0208
  Cd  Cd10  1  0.793610  0.310470  0.178900  1.0  1.0208
  Cd  Cd11  1  0.706390  0.189530  0.678900  1.0  1.0222
  Cd  Cd12  1  0.206390  0.689530  0.178900  1.0  1.0222
  Cd  Cd13  1  0.689530  0.793610  0.821100  1.0  1.0193
  Cd  Cd14  1  0.189530  0.293610  0.321100  1.0  1.0193
  Cd  Cd15  1  0.310470  0.206390  0.821100  1.0  1.0215
  Cd  Cd16  1  0.810470  0.706390  0.321100  1.0  1.0215
  H  H17  1  0.218700  0.592000  0.056400  1.0  0.1098
  H  H18  1  0.201500  0.541400  0.963900  1.0  0.0998
  H  H19  1  0.177700  0.591200  0.877300  1.0  0.1177
  H  H20  1  0.162500  0.692400  0.822000  1.0  0.1211
  H  H21  1  0.163400  0.797800  0.826100  1.0  0.1232
  H  H22  1  0.191900  0.882800  0.966500  1.0  0.1066
  H  H23  1  0.149300  0.898400  0.848200  1.0  0.0913
  H  H24  1  0.120800  0.002300  0.821700  1.0  0.0907
  H  H25  1  0.120200  0.105200  0.842700  1.0  0.0751
  H  H26  1  0.217300  0.079200  0.989700  1.0  0.0611
  H  H27  1  0.209500  0.976700  0.980500  1.0  0.12
  H  H28  1  0.410500  0.851000  0.009500  1.0  0.1102
  H  H29  1  0.502200  0.903800  0.004500  1.0  0.1001
  H  H30  1  0.418800  0.054200  0.067200  1.0  0.1058
  H  H31  1  0.327100  0.001000  0.073600  1.0  0.1095
  H  H32  1  0.718700  0.092000  0.556400  1.0  0.1098
  H  H33  1  0.701500  0.041400  0.463900  1.0  0.0998
  H  H34  1  0.677700  0.091200  0.377300  1.0  0.1177
  H  H35  1  0.662500  0.192400  0.322000  1.0  0.1211
  H  H36  1  0.663400  0.297800  0.326100  1.0  0.1232
  H  H37  1  0.691900  0.382800  0.466500  1.0  0.1066
  H  H38  1  0.649300  0.398400  0.348200  1.0  0.0913
  H  H39  1  0.620800  0.502300  0.321700  1.0  0.0907
  H  H40  1  0.620200  0.605200  0.342700  1.0  0.0751
  H  H41  1  0.717300  0.579200  0.489700  1.0  0.0611
  H  H42  1  0.709500  0.476700  0.480500  1.0  0.12
  H  H43  1  0.910500  0.351000  0.509500  1.0  0.1102
  H  H44  1  0.002200  0.403800  0.504500  1.0  0.1001
  H  H45  1  0.918800  0.554200  0.567200  1.0  0.1058
  H  H46  1  0.827100  0.501000  0.573600  1.0  0.1095
  H  H47  1  0.781300  0.408000  0.056400  1.0  0.1098
  H  H48  1  0.798500  0.458600  0.963900  1.0  0.0996
  H  H49  1  0.822300  0.408800  0.877300  1.0  0.118
  H  H50  1  0.837500  0.307600  0.822000  1.0  0.1209
  H  H51  1  0.836600  0.202200  0.826100  1.0  0.1236
  H  H52  1  0.808100  0.117200  0.966500  1.0  0.1063
  H  H53  1  0.850700  0.101600  0.848200  1.0  0.0913
  H  H54  1  0.879200  0.997700  0.821700  1.0  0.0904
  H  H55  1  0.879800  0.894800  0.842700  1.0  0.0751
  H  H56  1  0.782700  0.920800  0.989700  1.0  0.0616
  H  H57  1  0.790500  0.023300  0.980500  1.0  0.1201
  H  H58  1  0.589500  0.149000  0.009500  1.0  0.1101
  H  H59  1  0.497800  0.096200  0.004500  1.0  0.1004
  H  H60  1  0.581200  0.945800  0.067200  1.0  0.1065
  H  H61  1  0.672900  0.999000  0.073600  1.0  0.1099
  H  H62  1  0.281300  0.908000  0.556400  1.0  0.1098
  H  H63  1  0.298500  0.958600  0.463900  1.0  0.0996
  H  H64  1  0.322300  0.908800  0.377300  1.0  0.118
  H  H65  1  0.337500  0.807600  0.322000  1.0  0.1209
  H  H66  1  0.336600  0.702200  0.326100  1.0  0.1236
  H  H67  1  0.308100  0.617200  0.466500  1.0  0.1063
  H  H68  1  0.350700  0.601600  0.348200  1.0  0.0913
  H  H69  1  0.379200  0.497700  0.321700  1.0  0.0904
  H  H70  1  0.379800  0.394800  0.342700  1.0  0.0751
  H  H71  1  0.282700  0.420800  0.489700  1.0  0.0616
  H  H72  1  0.290500  0.523300  0.480500  1.0  0.1201
  H  H73  1  0.089500  0.649000  0.509500  1.0  0.1101
  H  H74  1  0.997800  0.596200  0.504500  1.0  0.1004
  H  H75  1  0.081200  0.445800  0.567200  1.0  0.1065
  H  H76  1  0.172900  0.499000  0.573600  1.0  0.1099
  H  H77  1  0.592000  0.781300  0.943600  1.0  0.1093
  H  H78  1  0.541400  0.798500  0.036100  1.0  0.1015
  H  H79  1  0.591200  0.822300  0.122700  1.0  0.1183
  H  H80  1  0.692400  0.837500  0.178000  1.0  0.1211
  H  H81  1  0.797800  0.836600  0.173900  1.0  0.1243
  H  H82  1  0.882800  0.808100  0.033500  1.0  0.1073
  H  H83  1  0.898400  0.850700  0.151800  1.0  0.0904
  H  H84  1  0.002300  0.879200  0.178300  1.0  0.0899
  H  H85  1  0.105200  0.879800  0.157300  1.0  0.0751
  H  H86  1  0.079200  0.782700  0.010300  1.0  0.0586
  H  H87  1  0.976700  0.790500  0.019500  1.0  0.1211
  H  H88  1  0.851000  0.589500  0.990500  1.0  0.1092
  H  H89  1  0.903800  0.497800  0.995500  1.0  0.1005
  H  H90  1  0.054200  0.581200  0.932800  1.0  0.1065
  H  H91  1  0.001000  0.672900  0.926400  1.0  0.11
  H  H92  1  0.092000  0.281300  0.443600  1.0  0.1093
  H  H93  1  0.041400  0.298500  0.536100  1.0  0.1015
  H  H94  1  0.091200  0.322300  0.622700  1.0  0.1183
  H  H95  1  0.192400  0.337500  0.678000  1.0  0.1211
  H  H96  1  0.297800  0.336600  0.673900  1.0  0.1243
  H  H97  1  0.382800  0.308100  0.533500  1.0  0.1073
  H  H98  1  0.398400  0.350700  0.651800  1.0  0.0904
  H  H99  1  0.502300  0.379200  0.678300  1.0  0.0899
  H  H100  1  0.605200  0.379800  0.657300  1.0  0.0751
  H  H101  1  0.579200  0.282700  0.510300  1.0  0.0586
  H  H102  1  0.476700  0.290500  0.519500  1.0  0.1211
  H  H103  1  0.351000  0.089500  0.490500  1.0  0.1092
  H  H104  1  0.403800  0.997800  0.495500  1.0  0.1005
  H  H105  1  0.554200  0.081200  0.432800  1.0  0.1065
  H  H106  1  0.501000  0.172900  0.426400  1.0  0.11
  H  H107  1  0.408000  0.218700  0.943600  1.0  0.1097
  H  H108  1  0.458600  0.201500  0.036100  1.0  0.0997
  H  H109  1  0.408800  0.177700  0.122700  1.0  0.1174
  H  H110  1  0.307600  0.162500  0.178000  1.0  0.1207
  H  H111  1  0.202200  0.163400  0.173900  1.0  0.1241
  H  H112  1  0.117200  0.191900  0.033500  1.0  0.1066
  H  H113  1  0.101600  0.149300  0.151800  1.0  0.09
  H  H114  1  0.997700  0.120800  0.178300  1.0  0.0902
  H  H115  1  0.894800  0.120200  0.157300  1.0  0.0748
  H  H116  1  0.920800  0.217300  0.010300  1.0  0.0588
  H  H117  1  0.023300  0.209500  0.019500  1.0  0.1208
  H  H118  1  0.149000  0.410500  0.990500  1.0  0.1098
  H  H119  1  0.096200  0.502200  0.995500  1.0  0.1004
  H  H120  1  0.945800  0.418800  0.932800  1.0  0.1082
  H  H121  1  0.999000  0.327100  0.926400  1.0  0.11
  H  H122  1  0.908000  0.718700  0.443600  1.0  0.1097
  H  H123  1  0.958600  0.701500  0.536100  1.0  0.0997
  H  H124  1  0.908800  0.677700  0.622700  1.0  0.1174
  H  H125  1  0.807600  0.662500  0.678000  1.0  0.1207
  H  H126  1  0.702200  0.663400  0.673900  1.0  0.1241
  H  H127  1  0.617200  0.691900  0.533500  1.0  0.1066
  H  H128  1  0.601600  0.649300  0.651800  1.0  0.09
  H  H129  1  0.497700  0.620800  0.678300  1.0  0.0902
  H  H130  1  0.394800  0.620200  0.657300  1.0  0.0748
  H  H131  1  0.420800  0.717300  0.510300  1.0  0.0588
  H  H132  1  0.523300  0.709500  0.519500  1.0  0.1208
  H  H133  1  0.649000  0.910500  0.490500  1.0  0.1098
  H  H134  1  0.596200  0.002200  0.495500  1.0  0.1004
  H  H135  1  0.445800  0.918800  0.432800  1.0  0.1082
  H  H136  1  0.499000  0.827100  0.426400  1.0  0.11
  H  H137  1  0.281300  0.592000  0.693600  1.0  0.11
  H  H138  1  0.298500  0.541400  0.786100  1.0  0.0995
  H  H139  1  0.322300  0.591200  0.872700  1.0  0.1177
  H  H140  1  0.337500  0.692400  0.928000  1.0  0.1197
  H  H141  1  0.336600  0.797800  0.923900  1.0  0.1234
  H  H142  1  0.308100  0.882800  0.783500  1.0  0.1071
  H  H143  1  0.350700  0.898400  0.901800  1.0  0.09
  H  H144  1  0.379200  0.002300  0.928300  1.0  0.0901
  H  H145  1  0.379800  0.105200  0.907300  1.0  0.0745
  H  H146  1  0.282700  0.079200  0.760300  1.0  0.0606
  H  H147  1  0.290500  0.976700  0.769500  1.0  0.1202
  H  H148  1  0.089500  0.851000  0.740500  1.0  0.11
  H  H149  1  0.997800  0.903800  0.745500  1.0  0.1003
  H  H150  1  0.081200  0.054200  0.682800  1.0  0.1059
  H  H151  1  0.172900  0.001000  0.676400  1.0  0.1099
  H  H152  1  0.781300  0.092000  0.193600  1.0  0.11
  H  H153  1  0.798500  0.041400  0.286100  1.0  0.0995
  H  H154  1  0.822300  0.091200  0.372700  1.0  0.1177
  H  H155  1  0.837500  0.192400  0.428000  1.0  0.1197
  H  H156  1  0.836600  0.297800  0.423900  1.0  0.1234
  H  H157  1  0.808100  0.382800  0.283500  1.0  0.1071
  H  H158  1  0.850700  0.398400  0.401800  1.0  0.09
  H  H159  1  0.879200  0.502300  0.428300  1.0  0.0901
  H  H160  1  0.879800  0.605200  0.407300  1.0  0.0745
  H  H161  1  0.782700  0.579200  0.260300  1.0  0.0606
  H  H162  1  0.790500  0.476700  0.269500  1.0  0.1202
  H  H163  1  0.589500  0.351000  0.240500  1.0  0.11
  H  H164  1  0.497800  0.403800  0.245500  1.0  0.1003
  H  H165  1  0.581200  0.554200  0.182800  1.0  0.1059
  H  H166  1  0.672900  0.501000  0.176400  1.0  0.1099
  H  H167  1  0.718700  0.408000  0.693600  1.0  0.1098
  H  H168  1  0.701500  0.458600  0.786100  1.0  0.0992
  H  H169  1  0.677700  0.408800  0.872700  1.0  0.1183
  H  H170  1  0.662500  0.307600  0.928000  1.0  0.1207
  H  H171  1  0.663400  0.202200  0.923900  1.0  0.1239
  H  H172  1  0.691900  0.117200  0.783500  1.0  0.1069
  H  H173  1  0.649300  0.101600  0.901800  1.0  0.09
  H  H174  1  0.620800  0.997700  0.928300  1.0  0.09
  H  H175  1  0.620200  0.894800  0.907300  1.0  0.0749
  H  H176  1  0.717300  0.920800  0.760300  1.0  0.0605
  H  H177  1  0.709500  0.023300  0.769500  1.0  0.1204
  H  H178  1  0.910500  0.149000  0.740500  1.0  0.11
  H  H179  1  0.002200  0.096200  0.745500  1.0  0.1
  H  H180  1  0.918800  0.945800  0.682800  1.0  0.1062
  H  H181  1  0.827100  0.999000  0.676400  1.0  0.1098
  H  H182  1  0.218700  0.908000  0.193600  1.0  0.1098
  H  H183  1  0.201500  0.958600  0.286100  1.0  0.0992
  H  H184  1  0.177700  0.908800  0.372700  1.0  0.1183
  H  H185  1  0.162500  0.807600  0.428000  1.0  0.1207
  H  H186  1  0.163400  0.702200  0.423900  1.0  0.1239
  H  H187  1  0.191900  0.617200  0.283500  1.0  0.1069
  H  H188  1  0.149300  0.601600  0.401800  1.0  0.09
  H  H189  1  0.120800  0.497700  0.428300  1.0  0.09
  H  H190  1  0.120200  0.394800  0.407300  1.0  0.0749
  H  H191  1  0.217300  0.420800  0.260300  1.0  0.0605
  H  H192  1  0.209500  0.523300  0.269500  1.0  0.1204
  H  H193  1  0.410500  0.649000  0.240500  1.0  0.11
  H  H194  1  0.502200  0.596200  0.245500  1.0  0.1
  H  H195  1  0.418800  0.445800  0.182800  1.0  0.1062
  H  H196  1  0.327100  0.499000  0.176400  1.0  0.1098
  H  H197  1  0.908000  0.781300  0.806400  1.0  0.1095
  H  H198  1  0.958600  0.798500  0.713900  1.0  0.1002
  H  H199  1  0.908800  0.822300  0.627300  1.0  0.118
  H  H200  1  0.807600  0.837500  0.572000  1.0  0.1216
  H  H201  1  0.702200  0.836600  0.576100  1.0  0.1237
  H  H202  1  0.617200  0.808100  0.716500  1.0  0.1066
  H  H203  1  0.601600  0.850700  0.598200  1.0  0.0914
  H  H204  1  0.497700  0.879200  0.571700  1.0  0.0904
  H  H205  1  0.394800  0.879800  0.592700  1.0  0.0752
  H  H206  1  0.420800  0.782700  0.739700  1.0  0.0595
  H  H207  1  0.523300  0.790500  0.730500  1.0  0.1208
  H  H208  1  0.649000  0.589500  0.759500  1.0  0.11
  H  H209  1  0.596200  0.497800  0.754500  1.0  0.1004
  H  H210  1  0.445800  0.581200  0.817200  1.0  0.1081
  H  H211  1  0.499000  0.672900  0.823600  1.0  0.1102
  H  H212  1  0.408000  0.281300  0.306400  1.0  0.1095
  H  H213  1  0.458600  0.298500  0.213900  1.0  0.1002
  H  H214  1  0.408800  0.322300  0.127300  1.0  0.118
  H  H215  1  0.307600  0.337500  0.072000  1.0  0.1216
  H  H216  1  0.202200  0.336600  0.076100  1.0  0.1237
  H  H217  1  0.117200  0.308100  0.216500  1.0  0.1066
  H  H218  1  0.101600  0.350700  0.098200  1.0  0.0914
  H  H219  1  0.997700  0.379200  0.071700  1.0  0.0904
  H  H220  1  0.894800  0.379800  0.092700  1.0  0.0752
  H  H221  1  0.920800  0.282700  0.239700  1.0  0.0595
  H  H222  1  0.023300  0.290500  0.230500  1.0  0.1208
  H  H223  1  0.149000  0.089500  0.259500  1.0  0.11
  H  H224  1  0.096200  0.997800  0.254500  1.0  0.1004
  H  H225  1  0.945800  0.081200  0.317200  1.0  0.1081
  H  H226  1  0.999000  0.172900  0.323600  1.0  0.1102
  H  H227  1  0.092000  0.218700  0.806400  1.0  0.1097
  H  H228  1  0.041400  0.201500  0.713900  1.0  0.1019
  H  H229  1  0.091200  0.177700  0.627300  1.0  0.1179
  H  H230  1  0.192400  0.162500  0.572000  1.0  0.1214
  H  H231  1  0.297800  0.163400  0.576100  1.0  0.1238
  H  H232  1  0.382800  0.191900  0.716500  1.0  0.1068
  H  H233  1  0.398400  0.149300  0.598200  1.0  0.0911
  H  H234  1  0.502300  0.120800  0.571700  1.0  0.0904
  H  H235  1  0.605200  0.120200  0.592700  1.0  0.0758
  H  H236  1  0.579200  0.217300  0.739700  1.0  0.0598
  H  H237  1  0.476700  0.209500  0.730500  1.0  0.1207
  H  H238  1  0.351000  0.410500  0.759500  1.0  0.1091
  H  H239  1  0.403800  0.502200  0.754500  1.0  0.1006
  H  H240  1  0.554200  0.418800  0.817200  1.0  0.1073
  H  H241  1  0.501000  0.327100  0.823600  1.0  0.1102
  H  H242  1  0.592000  0.718700  0.306400  1.0  0.1097
  H  H243  1  0.541400  0.701500  0.213900  1.0  0.1019
  H  H244  1  0.591200  0.677700  0.127300  1.0  0.1179
  H  H245  1  0.692400  0.662500  0.072000  1.0  0.1214
  H  H246  1  0.797800  0.663400  0.076100  1.0  0.1238
  H  H247  1  0.882800  0.691900  0.216500  1.0  0.1068
  H  H248  1  0.898400  0.649300  0.098200  1.0  0.0911
  H  H249  1  0.002300  0.620800  0.071700  1.0  0.0904
  H  H250  1  0.105200  0.620200  0.092700  1.0  0.0758
  H  H251  1  0.079200  0.717300  0.239700  1.0  0.0598
  H  H252  1  0.976700  0.709500  0.230500  1.0  0.1207
  H  H253  1  0.851000  0.910500  0.259500  1.0  0.1091
  H  H254  1  0.903800  0.002200  0.254500  1.0  0.1006
  H  H255  1  0.054200  0.918800  0.317200  1.0  0.1073
  H  H256  1  0.001000  0.827100  0.323600  1.0  0.1102
  C  C257  1  0.204200  0.677500  0.025200  1.0  0.2746
  C  C258  1  0.208700  0.614600  0.021000  1.0  -0.102
  C  C259  1  0.198500  0.584000  0.964900  1.0  -0.1056
  C  C260  1  0.184800  0.613200  0.913800  1.0  -0.1482
  C  C261  1  0.180600  0.677500  0.913000  1.0  0.0249
  C  C262  1  0.191100  0.709300  0.968900  1.0  0.1367
  C  C263  1  0.169800  0.712100  0.859800  1.0  -0.0465
  C  C264  1  0.169500  0.774800  0.862200  1.0  -0.1408
  C  C265  1  0.178400  0.803500  0.919100  1.0  0.1591
  C  C266  1  0.178900  0.868900  0.927600  1.0  -0.0756
  C  C267  1  0.163200  0.911400  0.887100  1.0  -0.1165
  C  C268  1  0.165700  0.976400  0.898000  1.0  0.0982
  C  C269  1  0.139600  0.016700  0.857900  1.0  -0.1453
  C  C270  1  0.140600  0.079000  0.870000  1.0  0.1654
  C  C271  1  0.195200  0.063600  0.956000  1.0  0.1923
  C  C272  1  0.192800  0.001900  0.949800  1.0  -0.2298
  C  C273  1  0.303300  0.883200  0.050900  1.0  0.6571
  C  C274  1  0.360800  0.920400  0.044600  1.0  -0.1455
  C  C275  1  0.412500  0.891600  0.022500  1.0  -0.0752
  C  C276  1  0.467200  0.923300  0.019500  1.0  -0.1252
  C  C277  1  0.470400  0.984200  0.038800  1.0  0.0441
  C  C278  1  0.417800  0.012800  0.057000  1.0  -0.0909
  C  C279  1  0.362600  0.981000  0.060500  1.0  -0.0594
  C  C280  1  0.704200  0.177500  0.525200  1.0  0.2746
  C  C281  1  0.708700  0.114600  0.521000  1.0  -0.102
  C  C282  1  0.698500  0.084000  0.464900  1.0  -0.1056
  C  C283  1  0.684800  0.113200  0.413800  1.0  -0.1482
  C  C284  1  0.680600  0.177500  0.413000  1.0  0.0249
  C  C285  1  0.691100  0.209300  0.468900  1.0  0.1367
  C  C286  1  0.669800  0.212100  0.359800  1.0  -0.0465
  C  C287  1  0.669500  0.274800  0.362200  1.0  -0.1408
  C  C288  1  0.678400  0.303500  0.419100  1.0  0.1591
  C  C289  1  0.678900  0.368900  0.427600  1.0  -0.0756
  C  C290  1  0.663200  0.411400  0.387100  1.0  -0.1165
  C  C291  1  0.665700  0.476400  0.398000  1.0  0.0982
  C  C292  1  0.639600  0.516700  0.357900  1.0  -0.1453
  C  C293  1  0.640600  0.579000  0.370000  1.0  0.1654
  C  C294  1  0.695200  0.563600  0.456000  1.0  0.1923
  C  C295  1  0.692800  0.501900  0.449800  1.0  -0.2298
  C  C296  1  0.803300  0.383200  0.550900  1.0  0.6571
  C  C297  1  0.860800  0.420400  0.544600  1.0  -0.1455
  C  C298  1  0.912500  0.391600  0.522500  1.0  -0.0752
  C  C299  1  0.967200  0.423300  0.519500  1.0  -0.1252
  C  C300  1  0.970400  0.484200  0.538800  1.0  0.0441
  C  C301  1  0.917800  0.512800  0.557000  1.0  -0.0909
  C  C302  1  0.862600  0.481000  0.560500  1.0  -0.0594
  C  C303  1  0.795800  0.322500  0.025200  1.0  0.2734
  C  C304  1  0.791300  0.385400  0.021000  1.0  -0.1022
  C  C305  1  0.801500  0.416000  0.964900  1.0  -0.1052
  C  C306  1  0.815200  0.386800  0.913800  1.0  -0.1514
  C  C307  1  0.819400  0.322500  0.913000  1.0  0.0252
  C  C308  1  0.808900  0.290700  0.968900  1.0  0.1367
  C  C309  1  0.830200  0.287900  0.859800  1.0  -0.0477
  C  C310  1  0.830500  0.225200  0.862200  1.0  -0.1407
  C  C311  1  0.821600  0.196500  0.919100  1.0  0.1588
  C  C312  1  0.821100  0.131100  0.927600  1.0  -0.0736
  C  C313  1  0.836800  0.088600  0.887100  1.0  -0.1171
  C  C314  1  0.834300  0.023600  0.898000  1.0  0.0968
  C  C315  1  0.860400  0.983300  0.857900  1.0  -0.1451
  C  C316  1  0.859400  0.921000  0.870000  1.0  0.165
  C  C317  1  0.804800  0.936400  0.956000  1.0  0.1935
  C  C318  1  0.807200  0.998100  0.949800  1.0  -0.2273
  C  C319  1  0.696700  0.116800  0.050900  1.0  0.6582
  C  C320  1  0.639200  0.079600  0.044600  1.0  -0.1457
  C  C321  1  0.587500  0.108400  0.022500  1.0  -0.0747
  C  C322  1  0.532800  0.076700  0.019500  1.0  -0.1252
  C  C323  1  0.529600  0.015800  0.038800  1.0  0.0439
  C  C324  1  0.582200  0.987200  0.057000  1.0  -0.0904
  C  C325  1  0.637400  0.019000  0.060500  1.0  -0.0584
  C  C326  1  0.295800  0.822500  0.525200  1.0  0.2734
  C  C327  1  0.291300  0.885400  0.521000  1.0  -0.1022
  C  C328  1  0.301500  0.916000  0.464900  1.0  -0.1052
  C  C329  1  0.315200  0.886800  0.413800  1.0  -0.1514
  C  C330  1  0.319400  0.822500  0.413000  1.0  0.0252
  C  C331  1  0.308900  0.790700  0.468900  1.0  0.1367
  C  C332  1  0.330200  0.787900  0.359800  1.0  -0.0477
  C  C333  1  0.330500  0.725200  0.362200  1.0  -0.1407
  C  C334  1  0.321600  0.696500  0.419100  1.0  0.1588
  C  C335  1  0.321100  0.631100  0.427600  1.0  -0.0736
  C  C336  1  0.336800  0.588600  0.387100  1.0  -0.1171
  C  C337  1  0.334300  0.523600  0.398000  1.0  0.0968
  C  C338  1  0.360400  0.483300  0.357900  1.0  -0.1451
  C  C339  1  0.359400  0.421000  0.370000  1.0  0.165
  C  C340  1  0.304800  0.436400  0.456000  1.0  0.1935
  C  C341  1  0.307200  0.498100  0.449800  1.0  -0.2273
  C  C342  1  0.196700  0.616800  0.550900  1.0  0.6582
  C  C343  1  0.139200  0.579600  0.544600  1.0  -0.1457
  C  C344  1  0.087500  0.608400  0.522500  1.0  -0.0747
  C  C345  1  0.032800  0.576700  0.519500  1.0  -0.1252
  C  C346  1  0.029600  0.515800  0.538800  1.0  0.0439
  C  C347  1  0.082200  0.487200  0.557000  1.0  -0.0904
  C  C348  1  0.137400  0.519000  0.560500  1.0  -0.0584
  C  C349  1  0.677500  0.795800  0.974800  1.0  0.2752
  C  C350  1  0.614600  0.791300  0.979000  1.0  -0.1043
  C  C351  1  0.584000  0.801500  0.035100  1.0  -0.1056
  C  C352  1  0.613200  0.815200  0.086200  1.0  -0.1473
  C  C353  1  0.677500  0.819400  0.087000  1.0  0.0251
  C  C354  1  0.709300  0.808900  0.031100  1.0  0.136
  C  C355  1  0.712100  0.830200  0.140200  1.0  -0.0511
  C  C356  1  0.774800  0.830500  0.137800  1.0  -0.1428
  C  C357  1  0.803500  0.821600  0.080900  1.0  0.1612
  C  C358  1  0.868900  0.821100  0.072400  1.0  -0.0769
  C  C359  1  0.911400  0.836800  0.112900  1.0  -0.1162
  C  C360  1  0.976400  0.834300  0.102000  1.0  0.1012
  C  C361  1  0.016700  0.860400  0.142100  1.0  -0.1477
  C  C362  1  0.079000  0.859400  0.130000  1.0  0.1647
  C  C363  1  0.063600  0.804800  0.044000  1.0  0.1929
  C  C364  1  0.001900  0.807200  0.050200  1.0  -0.2275
  C  C365  1  0.883200  0.696700  0.949100  1.0  0.6565
  C  C366  1  0.920400  0.639200  0.955400  1.0  -0.1467
  C  C367  1  0.891600  0.587500  0.977500  1.0  -0.0723
  C  C368  1  0.923300  0.532800  0.980500  1.0  -0.1273
  C  C369  1  0.984200  0.529600  0.961200  1.0  0.043
  C  C370  1  0.012800  0.582200  0.943000  1.0  -0.0899
  C  C371  1  0.981000  0.637400  0.939500  1.0  -0.058
  C  C372  1  0.177500  0.295800  0.474800  1.0  0.2752
  C  C373  1  0.114600  0.291300  0.479000  1.0  -0.1043
  C  C374  1  0.084000  0.301500  0.535100  1.0  -0.1056
  C  C375  1  0.113200  0.315200  0.586200  1.0  -0.1473
  C  C376  1  0.177500  0.319400  0.587000  1.0  0.0251
  C  C377  1  0.209300  0.308900  0.531100  1.0  0.136
  C  C378  1  0.212100  0.330200  0.640200  1.0  -0.0511
  C  C379  1  0.274800  0.330500  0.637800  1.0  -0.1428
  C  C380  1  0.303500  0.321600  0.580900  1.0  0.1612
  C  C381  1  0.368900  0.321100  0.572400  1.0  -0.0769
  C  C382  1  0.411400  0.336800  0.612900  1.0  -0.1162
  C  C383  1  0.476400  0.334300  0.602000  1.0  0.1012
  C  C384  1  0.516700  0.360400  0.642100  1.0  -0.1477
  C  C385  1  0.579000  0.359400  0.630000  1.0  0.1647
  C  C386  1  0.563600  0.304800  0.544000  1.0  0.1929
  C  C387  1  0.501900  0.307200  0.550200  1.0  -0.2275
  C  C388  1  0.383200  0.196700  0.449100  1.0  0.6565
  C  C389  1  0.420400  0.139200  0.455400  1.0  -0.1467
  C  C390  1  0.391600  0.087500  0.477500  1.0  -0.0723
  C  C391  1  0.423300  0.032800  0.480500  1.0  -0.1273
  C  C392  1  0.484200  0.029600  0.461200  1.0  0.043
  C  C393  1  0.512800  0.082200  0.443000  1.0  -0.0899
  C  C394  1  0.481000  0.137400  0.439500  1.0  -0.058
  C  C395  1  0.322500  0.204200  0.974800  1.0  0.2739
  C  C396  1  0.385400  0.208700  0.979000  1.0  -0.1042
  C  C397  1  0.416000  0.198500  0.035100  1.0  -0.1039
  C  C398  1  0.386800  0.184800  0.086200  1.0  -0.1464
  C  C399  1  0.322500  0.180600  0.087000  1.0  0.0252
  C  C400  1  0.290700  0.191100  0.031100  1.0  0.1362
  C  C401  1  0.287900  0.169800  0.140200  1.0  -0.0506
  C  C402  1  0.225200  0.169500  0.137800  1.0  -0.1419
  C  C403  1  0.196500  0.178400  0.080900  1.0  0.1603
  C  C404  1  0.131100  0.178900  0.072400  1.0  -0.0777
  C  C405  1  0.088600  0.163200  0.112900  1.0  -0.114
  C  C406  1  0.023600  0.165700  0.102000  1.0  0.0993
  C  C407  1  0.983300  0.139600  0.142100  1.0  -0.1476
  C  C408  1  0.921000  0.140600  0.130000  1.0  0.1635
  C  C409  1  0.936400  0.195200  0.044000  1.0  0.1929
  C  C410  1  0.998100  0.192800  0.050200  1.0  -0.2283
  C  C411  1  0.116800  0.303300  0.949100  1.0  0.6561
  C  C412  1  0.079600  0.360800  0.955400  1.0  -0.1468
  C  C413  1  0.108400  0.412500  0.977500  1.0  -0.072
  C  C414  1  0.076700  0.467200  0.980500  1.0  -0.1248
  C  C415  1  0.015800  0.470400  0.961200  1.0  0.0429
  C  C416  1  0.987200  0.417800  0.943000  1.0  -0.0911
  C  C417  1  0.019000  0.362600  0.939500  1.0  -0.0595
  C  C418  1  0.822500  0.704200  0.474800  1.0  0.2739
  C  C419  1  0.885400  0.708700  0.479000  1.0  -0.1042
  C  C420  1  0.916000  0.698500  0.535100  1.0  -0.1039
  C  C421  1  0.886800  0.684800  0.586200  1.0  -0.1464
  C  C422  1  0.822500  0.680600  0.587000  1.0  0.0252
  C  C423  1  0.790700  0.691100  0.531100  1.0  0.1362
  C  C424  1  0.787900  0.669800  0.640200  1.0  -0.0506
  C  C425  1  0.725200  0.669500  0.637800  1.0  -0.1419
  C  C426  1  0.696500  0.678400  0.580900  1.0  0.1603
  C  C427  1  0.631100  0.678900  0.572400  1.0  -0.0777
  C  C428  1  0.588600  0.663200  0.612900  1.0  -0.114
  C  C429  1  0.523600  0.665700  0.602000  1.0  0.0993
  C  C430  1  0.483300  0.639600  0.642100  1.0  -0.1476
  C  C431  1  0.421000  0.640600  0.630000  1.0  0.1635
  C  C432  1  0.436400  0.695200  0.544000  1.0  0.1929
  C  C433  1  0.498100  0.692800  0.550200  1.0  -0.2283
  C  C434  1  0.616800  0.803300  0.449100  1.0  0.6561
  C  C435  1  0.579600  0.860800  0.455400  1.0  -0.1468
  C  C436  1  0.608400  0.912500  0.477500  1.0  -0.072
  C  C437  1  0.576700  0.967200  0.480500  1.0  -0.1248
  C  C438  1  0.515800  0.970400  0.461200  1.0  0.0429
  C  C439  1  0.487200  0.917800  0.443000  1.0  -0.0911
  C  C440  1  0.519000  0.862600  0.439500  1.0  -0.0595
  C  C441  1  0.295800  0.677500  0.724800  1.0  0.2738
  C  C442  1  0.291300  0.614600  0.729000  1.0  -0.103
  C  C443  1  0.301500  0.584000  0.785100  1.0  -0.1063
  C  C444  1  0.315200  0.613200  0.836200  1.0  -0.149
  C  C445  1  0.319400  0.677500  0.837000  1.0  0.0249
  C  C446  1  0.308900  0.709300  0.781100  1.0  0.1358
  C  C447  1  0.330200  0.712100  0.890200  1.0  -0.0465
  C  C448  1  0.330500  0.774800  0.887800  1.0  -0.1398
  C  C449  1  0.321600  0.803500  0.830900  1.0  0.1596
  C  C450  1  0.321100  0.868900  0.822400  1.0  -0.0749
  C  C451  1  0.336800  0.911400  0.862900  1.0  -0.1172
  C  C452  1  0.334300  0.976400  0.852000  1.0  0.0974
  C  C453  1  0.360400  0.016700  0.892100  1.0  -0.1462
  C  C454  1  0.359400  0.079000  0.880000  1.0  0.1652
  C  C455  1  0.304800  0.063600  0.794000  1.0  0.1927
  C  C456  1  0.307200  0.001900  0.800200  1.0  -0.228
  C  C457  1  0.196700  0.883200  0.699100  1.0  0.6569
  C  C458  1  0.139200  0.920400  0.705400  1.0  -0.1459
  C  C459  1  0.087500  0.891600  0.727500  1.0  -0.0744
  C  C460  1  0.032800  0.923300  0.730500  1.0  -0.1249
  C  C461  1  0.029600  0.984200  0.711200  1.0  0.0433
  C  C462  1  0.082200  0.012800  0.693000  1.0  -0.0906
  C  C463  1  0.137400  0.981000  0.689500  1.0  -0.0576
  C  C464  1  0.795800  0.177500  0.224800  1.0  0.2738
  C  C465  1  0.791300  0.114600  0.229000  1.0  -0.103
  C  C466  1  0.801500  0.084000  0.285100  1.0  -0.1063
  C  C467  1  0.815200  0.113200  0.336200  1.0  -0.149
  C  C468  1  0.819400  0.177500  0.337000  1.0  0.0249
  C  C469  1  0.808900  0.209300  0.281100  1.0  0.1358
  C  C470  1  0.830200  0.212100  0.390200  1.0  -0.0465
  C  C471  1  0.830500  0.274800  0.387800  1.0  -0.1398
  C  C472  1  0.821600  0.303500  0.330900  1.0  0.1596
  C  C473  1  0.821100  0.368900  0.322400  1.0  -0.0749
  C  C474  1  0.836800  0.411400  0.362900  1.0  -0.1172
  C  C475  1  0.834300  0.476400  0.352000  1.0  0.0974
  C  C476  1  0.860400  0.516700  0.392100  1.0  -0.1462
  C  C477  1  0.859400  0.579000  0.380000  1.0  0.1652
  C  C478  1  0.804800  0.563600  0.294000  1.0  0.1927
  C  C479  1  0.807200  0.501900  0.300200  1.0  -0.228
  C  C480  1  0.696700  0.383200  0.199100  1.0  0.6569
  C  C481  1  0.639200  0.420400  0.205400  1.0  -0.1459
  C  C482  1  0.587500  0.391600  0.227500  1.0  -0.0744
  C  C483  1  0.532800  0.423300  0.230500  1.0  -0.1249
  C  C484  1  0.529600  0.484200  0.211200  1.0  0.0433
  C  C485  1  0.582200  0.512800  0.193000  1.0  -0.0906
  C  C486  1  0.637400  0.481000  0.189500  1.0  -0.0576
  C  C487  1  0.704200  0.322500  0.724800  1.0  0.2729
  C  C488  1  0.708700  0.385400  0.729000  1.0  -0.1022
  C  C489  1  0.698500  0.416000  0.785100  1.0  -0.1037
  C  C490  1  0.684800  0.386800  0.836200  1.0  -0.1508
  C  C491  1  0.680600  0.322500  0.837000  1.0  0.0251
  C  C492  1  0.691100  0.290700  0.781100  1.0  0.1363
  C  C493  1  0.669800  0.287900  0.890200  1.0  -0.0478
  C  C494  1  0.669500  0.225200  0.887800  1.0  -0.1421
  C  C495  1  0.678400  0.196500  0.830900  1.0  0.1584
  C  C496  1  0.678900  0.131100  0.822400  1.0  -0.0762
  C  C497  1  0.663200  0.088600  0.862900  1.0  -0.1163
  C  C498  1  0.665700  0.023600  0.852000  1.0  0.0981
  C  C499  1  0.639600  0.983300  0.892100  1.0  -0.1465
  C  C500  1  0.640600  0.921000  0.880000  1.0  0.1651
  C  C501  1  0.695200  0.936400  0.794000  1.0  0.1917
  C  C502  1  0.692800  0.998100  0.800200  1.0  -0.229
  C  C503  1  0.803300  0.116800  0.699100  1.0  0.656
  C  C504  1  0.860800  0.079600  0.705400  1.0  -0.1469
  C  C505  1  0.912500  0.108400  0.727500  1.0  -0.0749
  C  C506  1  0.967200  0.076700  0.730500  1.0  -0.1253
  C  C507  1  0.970400  0.015800  0.711200  1.0  0.0436
  C  C508  1  0.917800  0.987200  0.693000  1.0  -0.0911
  C  C509  1  0.862600  0.019000  0.689500  1.0  -0.058
  C  C510  1  0.204200  0.822500  0.224800  1.0  0.2729
  C  C511  1  0.208700  0.885400  0.229000  1.0  -0.1022
  C  C512  1  0.198500  0.916000  0.285100  1.0  -0.1037
  C  C513  1  0.184800  0.886800  0.336200  1.0  -0.1508
  C  C514  1  0.180600  0.822500  0.337000  1.0  0.0251
  C  C515  1  0.191100  0.790700  0.281100  1.0  0.1363
  C  C516  1  0.169800  0.787900  0.390200  1.0  -0.0478
  C  C517  1  0.169500  0.725200  0.387800  1.0  -0.1421
  C  C518  1  0.178400  0.696500  0.330900  1.0  0.1584
  C  C519  1  0.178900  0.631100  0.322400  1.0  -0.0762
  C  C520  1  0.163200  0.588600  0.362900  1.0  -0.1163
  C  C521  1  0.165700  0.523600  0.352000  1.0  0.0981
  C  C522  1  0.139600  0.483300  0.392100  1.0  -0.1465
  C  C523  1  0.140600  0.421000  0.380000  1.0  0.1651
  C  C524  1  0.195200  0.436400  0.294000  1.0  0.1917
  C  C525  1  0.192800  0.498100  0.300200  1.0  -0.229
  C  C526  1  0.303300  0.616800  0.199100  1.0  0.656
  C  C527  1  0.360800  0.579600  0.205400  1.0  -0.1469
  C  C528  1  0.412500  0.608400  0.227500  1.0  -0.0749
  C  C529  1  0.467200  0.576700  0.230500  1.0  -0.1253
  C  C530  1  0.470400  0.515800  0.211200  1.0  0.0436
  C  C531  1  0.417800  0.487200  0.193000  1.0  -0.0911
  C  C532  1  0.362600  0.519000  0.189500  1.0  -0.058
  C  C533  1  0.822500  0.795800  0.775200  1.0  0.2746
  C  C534  1  0.885400  0.791300  0.771000  1.0  -0.1036
  C  C535  1  0.916000  0.801500  0.714900  1.0  -0.1046
  C  C536  1  0.886800  0.815200  0.663800  1.0  -0.1469
  C  C537  1  0.822500  0.819400  0.663000  1.0  0.0256
  C  C538  1  0.790700  0.808900  0.718900  1.0  0.1366
  C  C539  1  0.787900  0.830200  0.609800  1.0  -0.05
  C  C540  1  0.725200  0.830500  0.612200  1.0  -0.1431
  C  C541  1  0.696500  0.821600  0.669100  1.0  0.161
  C  C542  1  0.631100  0.821100  0.677600  1.0  -0.0769
  C  C543  1  0.588600  0.836800  0.637100  1.0  -0.1143
  C  C544  1  0.523600  0.834300  0.648000  1.0  0.1012
  C  C545  1  0.483300  0.860400  0.607900  1.0  -0.146
  C  C546  1  0.421000  0.859400  0.620000  1.0  0.1642
  C  C547  1  0.436400  0.804800  0.706000  1.0  0.1929
  C  C548  1  0.498100  0.807200  0.699800  1.0  -0.2275
  C  C549  1  0.616800  0.696700  0.800900  1.0  0.6591
  C  C550  1  0.579600  0.639200  0.794600  1.0  -0.1459
  C  C551  1  0.608400  0.587500  0.772500  1.0  -0.0736
  C  C552  1  0.576700  0.532800  0.769500  1.0  -0.1242
  C  C553  1  0.515800  0.529600  0.788800  1.0  0.0433
  C  C554  1  0.487200  0.582200  0.807000  1.0  -0.0921
  C  C555  1  0.519000  0.637400  0.810500  1.0  -0.0593
  C  C556  1  0.322500  0.295800  0.275200  1.0  0.2746
  C  C557  1  0.385400  0.291300  0.271000  1.0  -0.1036
  C  C558  1  0.416000  0.301500  0.214900  1.0  -0.1046
  C  C559  1  0.386800  0.315200  0.163800  1.0  -0.1469
  C  C560  1  0.322500  0.319400  0.163000  1.0  0.0256
  C  C561  1  0.290700  0.308900  0.218900  1.0  0.1366
  C  C562  1  0.287900  0.330200  0.109800  1.0  -0.05
  C  C563  1  0.225200  0.330500  0.112200  1.0  -0.1431
  C  C564  1  0.196500  0.321600  0.169100  1.0  0.161
  C  C565  1  0.131100  0.321100  0.177600  1.0  -0.0769
  C  C566  1  0.088600  0.336800  0.137100  1.0  -0.1143
  C  C567  1  0.023600  0.334300  0.148000  1.0  0.1012
  C  C568  1  0.983300  0.360400  0.107900  1.0  -0.146
  C  C569  1  0.921000  0.359400  0.120000  1.0  0.1642
  C  C570  1  0.936400  0.304800  0.206000  1.0  0.1929
  C  C571  1  0.998100  0.307200  0.199800  1.0  -0.2275
  C  C572  1  0.116800  0.196700  0.300900  1.0  0.6591
  C  C573  1  0.079600  0.139200  0.294600  1.0  -0.1459
  C  C574  1  0.108400  0.087500  0.272500  1.0  -0.0736
  C  C575  1  0.076700  0.032800  0.269500  1.0  -0.1242
  C  C576  1  0.015800  0.029600  0.288800  1.0  0.0433
  C  C577  1  0.987200  0.082200  0.307000  1.0  -0.0921
  C  C578  1  0.019000  0.137400  0.310500  1.0  -0.0593
  C  C579  1  0.177500  0.204200  0.775200  1.0  0.2748
  C  C580  1  0.114600  0.208700  0.771000  1.0  -0.1044
  C  C581  1  0.084000  0.198500  0.714900  1.0  -0.1064
  C  C582  1  0.113200  0.184800  0.663800  1.0  -0.147
  C  C583  1  0.177500  0.180600  0.663000  1.0  0.025
  C  C584  1  0.209300  0.191100  0.718900  1.0  0.1362
  C  C585  1  0.212100  0.169800  0.609800  1.0  -0.0504
  C  C586  1  0.274800  0.169500  0.612200  1.0  -0.1418
  C  C587  1  0.303500  0.178400  0.669100  1.0  0.1606
  C  C588  1  0.368900  0.178900  0.677600  1.0  -0.0762
  C  C589  1  0.411400  0.163200  0.637100  1.0  -0.1155
  C  C590  1  0.476400  0.165700  0.648000  1.0  0.0994
  C  C591  1  0.516700  0.139600  0.607900  1.0  -0.1475
  C  C592  1  0.579000  0.140600  0.620000  1.0  0.1638
  C  C593  1  0.563600  0.195200  0.706000  1.0  0.1941
  C  C594  1  0.501900  0.192800  0.699800  1.0  -0.2287
  C  C595  1  0.383200  0.303300  0.800900  1.0  0.6563
  C  C596  1  0.420400  0.360800  0.794600  1.0  -0.1466
  C  C597  1  0.391600  0.412500  0.772500  1.0  -0.0725
  C  C598  1  0.423300  0.467200  0.769500  1.0  -0.1285
  C  C599  1  0.484200  0.470400  0.788800  1.0  0.0436
  C  C600  1  0.512800  0.417800  0.807000  1.0  -0.0895
  C  C601  1  0.481000  0.362600  0.810500  1.0  -0.0594
  C  C602  1  0.677500  0.704200  0.275200  1.0  0.2748
  C  C603  1  0.614600  0.708700  0.271000  1.0  -0.1044
  C  C604  1  0.584000  0.698500  0.214900  1.0  -0.1064
  C  C605  1  0.613200  0.684800  0.163800  1.0  -0.147
  C  C606  1  0.677500  0.680600  0.163000  1.0  0.025
  C  C607  1  0.709300  0.691100  0.218900  1.0  0.1362
  C  C608  1  0.712100  0.669800  0.109800  1.0  -0.0504
  C  C609  1  0.774800  0.669500  0.112200  1.0  -0.1418
  C  C610  1  0.803500  0.678400  0.169100  1.0  0.1606
  C  C611  1  0.868900  0.678900  0.177600  1.0  -0.0762
  C  C612  1  0.911400  0.663200  0.137100  1.0  -0.1155
  C  C613  1  0.976400  0.665700  0.148000  1.0  0.0994
  C  C614  1  0.016700  0.639600  0.107900  1.0  -0.1475
  C  C615  1  0.079000  0.640600  0.120000  1.0  0.1638
  C  C616  1  0.063600  0.695200  0.206000  1.0  0.1941
  C  C617  1  0.001900  0.692800  0.199800  1.0  -0.2287
  C  C618  1  0.883200  0.803300  0.300900  1.0  0.6563
  C  C619  1  0.920400  0.860800  0.294600  1.0  -0.1466
  C  C620  1  0.891600  0.912500  0.272500  1.0  -0.0725
  C  C621  1  0.923300  0.967200  0.269500  1.0  -0.1285
  C  C622  1  0.984200  0.970400  0.288800  1.0  0.0436
  C  C623  1  0.012800  0.917800  0.307000  1.0  -0.0895
  C  C624  1  0.981000  0.862600  0.310500  1.0  -0.0594
  N  N625  1  0.188800  0.771140  0.971500  1.0  -0.4452
  N  N626  1  0.169400  0.102900  0.919000  1.0  -0.3453
  N  N627  1  0.688800  0.271140  0.471500  1.0  -0.4452
  N  N628  1  0.669400  0.602900  0.419000  1.0  -0.3453
  N  N629  1  0.811200  0.228860  0.971500  1.0  -0.4457
  N  N630  1  0.830600  0.897100  0.919000  1.0  -0.3459
  N  N631  1  0.311200  0.728860  0.471500  1.0  -0.4457
  N  N632  1  0.330600  0.397100  0.419000  1.0  -0.3459
  N  N633  1  0.771140  0.811200  0.028500  1.0  -0.4456
  N  N634  1  0.102900  0.830600  0.081000  1.0  -0.3417
  N  N635  1  0.271140  0.311200  0.528500  1.0  -0.4456
  N  N636  1  0.602900  0.330600  0.581000  1.0  -0.3417
  N  N637  1  0.228860  0.188800  0.028500  1.0  -0.445
  N  N638  1  0.897100  0.169400  0.081000  1.0  -0.3413
  N  N639  1  0.728860  0.688800  0.528500  1.0  -0.445
  N  N640  1  0.397100  0.669400  0.581000  1.0  -0.3413
  N  N641  1  0.311200  0.771140  0.778500  1.0  -0.4463
  N  N642  1  0.330600  0.102900  0.831000  1.0  -0.3454
  N  N643  1  0.811200  0.271140  0.278500  1.0  -0.4463
  N  N644  1  0.830600  0.602900  0.331000  1.0  -0.3454
  N  N645  1  0.688800  0.228860  0.778500  1.0  -0.4467
  N  N646  1  0.669400  0.897100  0.831000  1.0  -0.3448
  N  N647  1  0.188800  0.728860  0.278500  1.0  -0.4467
  N  N648  1  0.169400  0.397100  0.331000  1.0  -0.3448
  N  N649  1  0.728860  0.811200  0.721500  1.0  -0.4444
  N  N650  1  0.397100  0.830600  0.669000  1.0  -0.3405
  N  N651  1  0.228860  0.311200  0.221500  1.0  -0.4444
  N  N652  1  0.897100  0.330600  0.169000  1.0  -0.3405
  N  N653  1  0.271140  0.188800  0.721500  1.0  -0.444
  N  N654  1  0.602900  0.169400  0.669000  1.0  -0.342
  N  N655  1  0.771140  0.688800  0.221500  1.0  -0.444
  N  N656  1  0.102900  0.669400  0.169000  1.0  -0.342
  O  O657  1  0.211900  0.708180  0.076300  1.0  -0.693
  O  O658  1  0.254370  0.909000  0.067600  1.0  -0.6082
  O  O659  1  0.306000  0.827700  0.040000  1.0  -0.6171
  O  O660  1  0.711900  0.208180  0.576300  1.0  -0.693
  O  O661  1  0.754370  0.409000  0.567600  1.0  -0.6082
  O  O662  1  0.806000  0.327700  0.540000  1.0  -0.6171
  O  O663  1  0.788100  0.291820  0.076300  1.0  -0.6916
  O  O664  1  0.745630  0.091000  0.067600  1.0  -0.6098
  O  O665  1  0.694000  0.172300  0.040000  1.0  -0.6194
  O  O666  1  0.288100  0.791820  0.576300  1.0  -0.6916
  O  O667  1  0.245630  0.591000  0.567600  1.0  -0.6098
  O  O668  1  0.194000  0.672300  0.540000  1.0  -0.6194
  O  O669  1  0.708180  0.788100  0.923700  1.0  -0.6942
  O  O670  1  0.909000  0.745630  0.932400  1.0  -0.6065
  O  O671  1  0.827700  0.694000  0.960000  1.0  -0.6195
  O  O672  1  0.208180  0.288100  0.423700  1.0  -0.6942
  O  O673  1  0.409000  0.245630  0.432400  1.0  -0.6065
  O  O674  1  0.327700  0.194000  0.460000  1.0  -0.6195
  O  O675  1  0.291820  0.211900  0.923700  1.0  -0.6933
  O  O676  1  0.091000  0.254370  0.932400  1.0  -0.6045
  O  O677  1  0.172300  0.306000  0.960000  1.0  -0.6159
  O  O678  1  0.791820  0.711900  0.423700  1.0  -0.6933
  O  O679  1  0.591000  0.754370  0.432400  1.0  -0.6045
  O  O680  1  0.672300  0.806000  0.460000  1.0  -0.6159
  O  O681  1  0.288100  0.708180  0.673700  1.0  -0.6934
  O  O682  1  0.245630  0.909000  0.682400  1.0  -0.6087
  O  O683  1  0.194000  0.827700  0.710000  1.0  -0.6183
  O  O684  1  0.788100  0.208180  0.173700  1.0  -0.6934
  O  O685  1  0.745630  0.409000  0.182400  1.0  -0.6087
  O  O686  1  0.694000  0.327700  0.210000  1.0  -0.6183
  O  O687  1  0.711900  0.291820  0.673700  1.0  -0.6938
  O  O688  1  0.754370  0.091000  0.682400  1.0  -0.6059
  O  O689  1  0.806000  0.172300  0.710000  1.0  -0.6152
  O  O690  1  0.211900  0.791820  0.173700  1.0  -0.6938
  O  O691  1  0.254370  0.591000  0.182400  1.0  -0.6059
  O  O692  1  0.306000  0.672300  0.210000  1.0  -0.6152
  O  O693  1  0.791820  0.788100  0.826300  1.0  -0.693
  O  O694  1  0.591000  0.745630  0.817600  1.0  -0.6074
  O  O695  1  0.672300  0.694000  0.790000  1.0  -0.6168
  O  O696  1  0.291820  0.288100  0.326300  1.0  -0.693
  O  O697  1  0.091000  0.245630  0.317600  1.0  -0.6074
  O  O698  1  0.172300  0.194000  0.290000  1.0  -0.6168
  O  O699  1  0.208180  0.211900  0.826300  1.0  -0.6937
  O  O700  1  0.409000  0.254370  0.817600  1.0  -0.607
  O  O701  1  0.327700  0.306000  0.790000  1.0  -0.6211
  O  O702  1  0.708180  0.711900  0.326300  1.0  -0.6937
  O  O703  1  0.909000  0.754370  0.317600  1.0  -0.607
  O  O704  1  0.827700  0.806000  0.290000  1.0  -0.6211
