# generated using pymatgen
data_Cu17H96C48(IN)17
_symmetry_space_group_name_H-M   'P 1'
_cell_length_a   44.06120000
_cell_length_b   44.06120000
_cell_length_c   44.06120000
_cell_angle_alpha   60.00000000
_cell_angle_beta   60.00000000
_cell_angle_gamma   60.00000000
_symmetry_Int_Tables_number   1
_chemical_formula_structural   Cu17H96C48(IN)17
_chemical_formula_sum   'Cu136 H768 C384 I136 N136'
_cell_volume   60485.87462544
_cell_formula_units_Z   8
loop_
 _symmetry_equiv_pos_site_id
 _symmetry_equiv_pos_as_xyz
  1  'x, y, z'
loop_
 _atom_site_type_symbol
 _atom_site_label
 _atom_site_symmetry_multiplicity
 _atom_site_fract_x
 _atom_site_fract_y
 _atom_site_fract_z
 _atom_site_occupancy
 _atom_site_charge
  Cu  Cu1  1  0.994740  0.852300  0.240160  1.0  0.0806
  Cu  Cu2  1  0.352300  0.494740  0.912800  1.0  0.0802
  Cu  Cu3  1  0.740160  0.912800  0.494740  1.0  0.0795
  Cu  Cu4  1  0.412800  0.240160  0.852300  1.0  0.081
  Cu  Cu5  1  0.994740  0.240160  0.912800  1.0  0.0806
  Cu  Cu6  1  0.352300  0.912800  0.240160  1.0  0.0801
  Cu  Cu7  1  0.740160  0.494740  0.852300  1.0  0.0809
  Cu  Cu8  1  0.412800  0.852300  0.494740  1.0  0.0807
  Cu  Cu9  1  0.994740  0.912800  0.852300  1.0  0.08
  Cu  Cu10  1  0.352300  0.240160  0.494740  1.0  0.0808
  Cu  Cu11  1  0.740160  0.852300  0.912800  1.0  0.0796
  Cu  Cu12  1  0.412800  0.494740  0.240160  1.0  0.0827
  Cu  Cu13  1  0.647700  0.505260  0.759840  1.0  0.0807
  Cu  Cu14  1  0.005260  0.147700  0.087200  1.0  0.0796
  Cu  Cu15  1  0.587200  0.759840  0.505260  1.0  0.0803
  Cu  Cu16  1  0.259840  0.087200  0.147700  1.0  0.0791
  Cu  Cu17  1  0.259840  0.505260  0.087200  1.0  0.0813
  Cu  Cu18  1  0.587200  0.147700  0.759840  1.0  0.0793
  Cu  Cu19  1  0.005260  0.759840  0.147700  1.0  0.0801
  Cu  Cu20  1  0.647700  0.087200  0.505260  1.0  0.0797
  Cu  Cu21  1  0.587200  0.505260  0.147700  1.0  0.0823
  Cu  Cu22  1  0.259840  0.147700  0.505260  1.0  0.0798
  Cu  Cu23  1  0.647700  0.759840  0.087200  1.0  0.0806
  Cu  Cu24  1  0.005260  0.087200  0.759840  1.0  0.0797
  Cu  Cu25  1  0.005260  0.147700  0.759840  1.0  0.0793
  Cu  Cu26  1  0.647700  0.505260  0.087200  1.0  0.0811
  Cu  Cu27  1  0.259840  0.087200  0.505260  1.0  0.0794
  Cu  Cu28  1  0.587200  0.759840  0.147700  1.0  0.08
  Cu  Cu29  1  0.005260  0.759840  0.087200  1.0  0.0804
  Cu  Cu30  1  0.647700  0.087200  0.759840  1.0  0.0794
  Cu  Cu31  1  0.259840  0.505260  0.147700  1.0  0.0807
  Cu  Cu32  1  0.587200  0.147700  0.505260  1.0  0.0795
  Cu  Cu33  1  0.005260  0.087200  0.147700  1.0  0.0795
  Cu  Cu34  1  0.647700  0.759840  0.505260  1.0  0.0804
  Cu  Cu35  1  0.259840  0.147700  0.087200  1.0  0.0799
  Cu  Cu36  1  0.587200  0.505260  0.759840  1.0  0.0824
  Cu  Cu37  1  0.352300  0.494740  0.240160  1.0  0.0806
  Cu  Cu38  1  0.994740  0.852300  0.912800  1.0  0.0804
  Cu  Cu39  1  0.412800  0.240160  0.494740  1.0  0.081
  Cu  Cu40  1  0.740160  0.912800  0.852300  1.0  0.08
  Cu  Cu41  1  0.740160  0.494740  0.912800  1.0  0.0804
  Cu  Cu42  1  0.412800  0.852300  0.240160  1.0  0.0807
  Cu  Cu43  1  0.994740  0.240160  0.852300  1.0  0.0811
  Cu  Cu44  1  0.352300  0.912800  0.494740  1.0  0.0799
  Cu  Cu45  1  0.412800  0.494740  0.852300  1.0  0.083
  Cu  Cu46  1  0.740160  0.852300  0.494740  1.0  0.08
  Cu  Cu47  1  0.352300  0.240160  0.912800  1.0  0.0805
  Cu  Cu48  1  0.994740  0.912800  0.240160  1.0  0.0799
  Cu  Cu49  1  0.140110  0.640110  0.579670  1.0  0.105
  Cu  Cu50  1  0.202560  0.702560  0.392320  1.0  0.1242
  Cu  Cu51  1  0.140110  0.640110  0.640110  1.0  0.1026
  Cu  Cu52  1  0.202560  0.702560  0.702560  1.0  0.1251
  Cu  Cu53  1  0.079670  0.640110  0.640110  1.0  0.1026
  Cu  Cu54  1  0.892320  0.702560  0.702560  1.0  0.1306
  Cu  Cu55  1  0.140110  0.579670  0.640110  1.0  0.1015
  Cu  Cu56  1  0.202560  0.392320  0.702560  1.0  0.1145
  Cu  Cu57  1  0.859890  0.359890  0.420330  1.0  0.1005
  Cu  Cu58  1  0.797440  0.297440  0.607680  1.0  0.1263
  Cu  Cu59  1  0.859890  0.359890  0.359890  1.0  0.1025
  Cu  Cu60  1  0.797440  0.297440  0.297440  1.0  0.1251
  Cu  Cu61  1  0.859890  0.420330  0.359890  1.0  0.1009
  Cu  Cu62  1  0.797440  0.607680  0.297440  1.0  0.1156
  Cu  Cu63  1  0.920330  0.359890  0.359890  1.0  0.1045
  Cu  Cu64  1  0.107680  0.297440  0.297440  1.0  0.1267
  Cu  Cu65  1  0.182810  0.742970  0.331250  1.0  0.1082
  Cu  Cu66  1  0.030790  0.845990  0.277230  1.0  0.1167
  Cu  Cu67  1  0.955690  0.871530  0.301250  1.0  0.1473
  Cu  Cu68  1  0.242970  0.682810  0.742970  1.0  0.107
  Cu  Cu69  1  0.345990  0.530790  0.845990  1.0  0.116
  Cu  Cu70  1  0.371530  0.455690  0.871530  1.0  0.1486
  Cu  Cu71  1  0.831250  0.742970  0.682810  1.0  0.1078
  Cu  Cu72  1  0.777230  0.845990  0.530790  1.0  0.117
  Cu  Cu73  1  0.801250  0.871530  0.455690  1.0  0.1488
  Cu  Cu74  1  0.242970  0.331250  0.742970  1.0  0.107
  Cu  Cu75  1  0.345990  0.277230  0.845990  1.0  0.1163
  Cu  Cu76  1  0.371530  0.301250  0.871530  1.0  0.1487
  Cu  Cu77  1  0.182810  0.331250  0.742970  1.0  0.1089
  Cu  Cu78  1  0.030790  0.277230  0.845990  1.0  0.1184
  Cu  Cu79  1  0.955690  0.301250  0.871530  1.0  0.1483
  Cu  Cu80  1  0.242970  0.742970  0.331250  1.0  0.1073
  Cu  Cu81  1  0.345990  0.845990  0.277230  1.0  0.119
  Cu  Cu82  1  0.371530  0.871530  0.301250  1.0  0.1492
  Cu  Cu83  1  0.831250  0.682810  0.742970  1.0  0.1066
  Cu  Cu84  1  0.777230  0.530790  0.845990  1.0  0.1157
  Cu  Cu85  1  0.801250  0.455690  0.871530  1.0  0.1488
  Cu  Cu86  1  0.242970  0.742970  0.682810  1.0  0.1078
  Cu  Cu87  1  0.345990  0.845990  0.530790  1.0  0.1188
  Cu  Cu88  1  0.371530  0.871530  0.455690  1.0  0.1493
  Cu  Cu89  1  0.182810  0.742970  0.742970  1.0  0.1072
  Cu  Cu90  1  0.030790  0.845990  0.845990  1.0  0.1183
  Cu  Cu91  1  0.955690  0.871530  0.871530  1.0  0.1477
  Cu  Cu92  1  0.242970  0.331250  0.682810  1.0  0.1079
  Cu  Cu93  1  0.345990  0.277230  0.530790  1.0  0.1166
  Cu  Cu94  1  0.371530  0.301250  0.455690  1.0  0.1491
  Cu  Cu95  1  0.831250  0.742970  0.742970  1.0  0.1068
  Cu  Cu96  1  0.777230  0.845990  0.845990  1.0  0.1167
  Cu  Cu97  1  0.801250  0.871530  0.871530  1.0  0.1481
  Cu  Cu98  1  0.242970  0.682810  0.331250  1.0  0.1079
  Cu  Cu99  1  0.345990  0.530790  0.277230  1.0  0.1149
  Cu  Cu100  1  0.371530  0.455690  0.301250  1.0  0.1484
  Cu  Cu101  1  0.757030  0.317190  0.668750  1.0  0.1063
  Cu  Cu102  1  0.654010  0.469210  0.722770  1.0  0.1153
  Cu  Cu103  1  0.628470  0.544310  0.698750  1.0  0.1486
  Cu  Cu104  1  0.817190  0.257030  0.257030  1.0  0.1084
  Cu  Cu105  1  0.969210  0.154010  0.154010  1.0  0.1153
  Cu  Cu106  1  0.044310  0.128470  0.128470  1.0  0.1477
  Cu  Cu107  1  0.757030  0.668750  0.317190  1.0  0.1063
  Cu  Cu108  1  0.654010  0.722770  0.469210  1.0  0.1173
  Cu  Cu109  1  0.628470  0.698750  0.544310  1.0  0.1481
  Cu  Cu110  1  0.168750  0.257030  0.257030  1.0  0.1077
  Cu  Cu111  1  0.222770  0.154010  0.154010  1.0  0.1168
  Cu  Cu112  1  0.198750  0.128470  0.128470  1.0  0.1487
  Cu  Cu113  1  0.168750  0.317190  0.257030  1.0  0.1066
  Cu  Cu114  1  0.222770  0.469210  0.154010  1.0  0.1136
  Cu  Cu115  1  0.198750  0.544310  0.128470  1.0  0.1484
  Cu  Cu116  1  0.757030  0.257030  0.668750  1.0  0.108
  Cu  Cu117  1  0.654010  0.154010  0.722770  1.0  0.1173
  Cu  Cu118  1  0.628470  0.128470  0.698750  1.0  0.1497
  Cu  Cu119  1  0.817190  0.668750  0.257030  1.0  0.1086
  Cu  Cu120  1  0.969210  0.722770  0.154010  1.0  0.1198
  Cu  Cu121  1  0.044310  0.698750  0.128470  1.0  0.1481
  Cu  Cu122  1  0.757030  0.257030  0.317190  1.0  0.108
  Cu  Cu123  1  0.654010  0.154010  0.469210  1.0  0.1179
  Cu  Cu124  1  0.628470  0.128470  0.544310  1.0  0.1496
  Cu  Cu125  1  0.757030  0.317190  0.257030  1.0  0.1073
  Cu  Cu126  1  0.654010  0.469210  0.154010  1.0  0.114
  Cu  Cu127  1  0.628470  0.544310  0.128470  1.0  0.1483
  Cu  Cu128  1  0.168750  0.257030  0.317190  1.0  0.1067
  Cu  Cu129  1  0.222770  0.154010  0.469210  1.0  0.1164
  Cu  Cu130  1  0.198750  0.128470  0.544310  1.0  0.1482
  Cu  Cu131  1  0.757030  0.668750  0.257030  1.0  0.1072
  Cu  Cu132  1  0.654010  0.722770  0.154010  1.0  0.1174
  Cu  Cu133  1  0.628470  0.698750  0.128470  1.0  0.1487
  Cu  Cu134  1  0.817190  0.257030  0.668750  1.0  0.1078
  Cu  Cu135  1  0.969210  0.154010  0.722770  1.0  0.1166
  Cu  Cu136  1  0.044310  0.128470  0.698750  1.0  0.148
  H  H137  1  0.204200  0.670200  0.512000  1.0  0.0982
  H  H138  1  0.189200  0.724600  0.451200  1.0  0.0693
  H  H139  1  0.100800  0.786400  0.361400  1.0  0.1053
  H  H140  1  0.137900  0.827500  0.302700  1.0  0.1092
  H  H141  1  0.161000  0.816800  0.266200  1.0  0.0897
  H  H142  1  0.052200  0.786200  0.340000  1.0  0.0953
  H  H143  1  0.112000  0.849200  0.248600  1.0  0.1161
  H  H144  1  0.089000  0.859800  0.284800  1.0  0.1055
  H  H145  1  0.978500  0.870900  0.169700  1.0  0.0715
  H  H146  1  0.021900  0.855300  0.156900  1.0  0.0669
  H  H147  1  0.055300  0.800100  0.195300  1.0  0.071
  H  H148  1  0.033100  0.775700  0.232500  1.0  0.0702
  H  H149  1  0.943100  0.835700  0.226300  1.0  0.08
  H  H150  1  0.963500  0.798500  0.251700  1.0  0.0858
  H  H151  1  0.896600  0.923400  0.350000  1.0  0.1299
  H  H152  1  0.874600  0.928200  0.328000  1.0  0.1261
  H  H153  1  0.170200  0.704200  0.613600  1.0  0.0991
  H  H154  1  0.224600  0.689200  0.635000  1.0  0.0698
  H  H155  1  0.286400  0.600800  0.751400  1.0  0.1038
  H  H156  1  0.327500  0.637900  0.731900  1.0  0.1132
  H  H157  1  0.316800  0.661000  0.756000  1.0  0.0935
  H  H158  1  0.286200  0.552200  0.821600  1.0  0.0985
  H  H159  1  0.349200  0.612000  0.790200  1.0  0.1152
  H  H160  1  0.359800  0.589000  0.766400  1.0  0.1073
  H  H161  1  0.370900  0.478500  0.980900  1.0  0.0674
  H  H162  1  0.355300  0.521900  0.965900  1.0  0.0678
  H  H163  1  0.300100  0.555300  0.949300  1.0  0.0748
  H  H164  1  0.275700  0.533100  0.958700  1.0  0.0689
  H  H165  1  0.335700  0.443100  0.994900  1.0  0.0777
  H  H166  1  0.298500  0.463500  0.986300  1.0  0.0831
  H  H167  1  0.423400  0.396600  0.830000  1.0  0.1258
  H  H168  1  0.428200  0.374600  0.869200  1.0  0.1296
  H  H169  1  0.012000  0.613600  0.704200  1.0  0.0986
  H  H170  1  0.951200  0.635000  0.689200  1.0  0.0684
  H  H171  1  0.861400  0.751400  0.600800  1.0  0.1021
  H  H172  1  0.802700  0.731900  0.637900  1.0  0.1071
  H  H173  1  0.766200  0.756000  0.661000  1.0  0.0941
  H  H174  1  0.840000  0.821600  0.552200  1.0  0.101
  H  H175  1  0.748600  0.790200  0.612000  1.0  0.1111
  H  H176  1  0.784800  0.766400  0.589000  1.0  0.1084
  H  H177  1  0.669700  0.980900  0.478500  1.0  0.0711
  H  H178  1  0.656900  0.965900  0.521900  1.0  0.0663
  H  H179  1  0.695300  0.949300  0.555300  1.0  0.0776
  H  H180  1  0.732500  0.958700  0.533100  1.0  0.0676
  H  H181  1  0.726300  0.994900  0.443100  1.0  0.0826
  H  H182  1  0.751700  0.986300  0.463500  1.0  0.0838
  H  H183  1  0.850000  0.830000  0.396600  1.0  0.1255
  H  H184  1  0.828000  0.869200  0.374600  1.0  0.1279
  H  H185  1  0.113600  0.512000  0.670200  1.0  0.096
  H  H186  1  0.135000  0.451200  0.724600  1.0  0.0687
  H  H187  1  0.251400  0.361400  0.786400  1.0  0.1026
  H  H188  1  0.231900  0.302700  0.827500  1.0  0.1075
  H  H189  1  0.256000  0.266200  0.816800  1.0  0.0966
  H  H190  1  0.321600  0.340000  0.786200  1.0  0.0968
  H  H191  1  0.290200  0.248600  0.849200  1.0  0.1109
  H  H192  1  0.266400  0.284800  0.859800  1.0  0.1108
  H  H193  1  0.480900  0.169700  0.870900  1.0  0.0696
  H  H194  1  0.465900  0.156900  0.855300  1.0  0.0651
  H  H195  1  0.449300  0.195300  0.800100  1.0  0.0714
  H  H196  1  0.458700  0.232500  0.775700  1.0  0.0717
  H  H197  1  0.494900  0.226300  0.835700  1.0  0.0822
  H  H198  1  0.486300  0.251700  0.798500  1.0  0.0846
  H  H199  1  0.330000  0.350000  0.923400  1.0  0.1294
  H  H200  1  0.369200  0.328000  0.928200  1.0  0.1232
  H  H201  1  0.204200  0.512000  0.613600  1.0  0.098
  H  H202  1  0.189200  0.451200  0.635000  1.0  0.0725
  H  H203  1  0.100800  0.361400  0.751400  1.0  0.1027
  H  H204  1  0.137900  0.302700  0.731900  1.0  0.1126
  H  H205  1  0.161000  0.266200  0.756000  1.0  0.096
  H  H206  1  0.052200  0.340000  0.821600  1.0  0.1012
  H  H207  1  0.112000  0.248600  0.790200  1.0  0.1136
  H  H208  1  0.089000  0.284800  0.766400  1.0  0.1097
  H  H209  1  0.978500  0.169700  0.980900  1.0  0.0673
  H  H210  1  0.021900  0.156900  0.965900  1.0  0.0665
  H  H211  1  0.055300  0.195300  0.949300  1.0  0.0753
  H  H212  1  0.033100  0.232500  0.958700  1.0  0.0694
  H  H213  1  0.943100  0.226300  0.994900  1.0  0.0824
  H  H214  1  0.963500  0.251700  0.986300  1.0  0.0853
  H  H215  1  0.896600  0.350000  0.830000  1.0  0.1334
  H  H216  1  0.874600  0.328000  0.869200  1.0  0.1257
  H  H217  1  0.170200  0.613600  0.512000  1.0  0.099
  H  H218  1  0.224600  0.635000  0.451200  1.0  0.0691
  H  H219  1  0.286400  0.751400  0.361400  1.0  0.103
  H  H220  1  0.327500  0.731900  0.302700  1.0  0.107
  H  H221  1  0.316800  0.756000  0.266200  1.0  0.0967
  H  H222  1  0.286200  0.821600  0.340000  1.0  0.1015
  H  H223  1  0.349200  0.790200  0.248600  1.0  0.1156
  H  H224  1  0.359800  0.766400  0.284800  1.0  0.1071
  H  H225  1  0.370900  0.980900  0.169700  1.0  0.067
  H  H226  1  0.355300  0.965900  0.156900  1.0  0.0669
  H  H227  1  0.300100  0.949300  0.195300  1.0  0.0747
  H  H228  1  0.275700  0.958700  0.232500  1.0  0.0694
  H  H229  1  0.335700  0.994900  0.226300  1.0  0.0806
  H  H230  1  0.298500  0.986300  0.251700  1.0  0.0855
  H  H231  1  0.423400  0.830000  0.350000  1.0  0.1237
  H  H232  1  0.428200  0.869200  0.328000  1.0  0.1296
  H  H233  1  0.012000  0.704200  0.670200  1.0  0.0992
  H  H234  1  0.951200  0.689200  0.724600  1.0  0.0709
  H  H235  1  0.861400  0.600800  0.786400  1.0  0.1014
  H  H236  1  0.802700  0.637900  0.827500  1.0  0.1141
  H  H237  1  0.766200  0.661000  0.816800  1.0  0.0943
  H  H238  1  0.840000  0.552200  0.786200  1.0  0.0997
  H  H239  1  0.748600  0.612000  0.849200  1.0  0.1122
  H  H240  1  0.784800  0.589000  0.859800  1.0  0.1101
  H  H241  1  0.669700  0.478500  0.870900  1.0  0.0706
  H  H242  1  0.656900  0.521900  0.855300  1.0  0.0671
  H  H243  1  0.695300  0.555300  0.800100  1.0  0.0751
  H  H244  1  0.732500  0.533100  0.775700  1.0  0.0675
  H  H245  1  0.726300  0.443100  0.835700  1.0  0.0784
  H  H246  1  0.751700  0.463500  0.798500  1.0  0.0848
  H  H247  1  0.850000  0.396600  0.923400  1.0  0.1345
  H  H248  1  0.828000  0.374600  0.928200  1.0  0.1227
  H  H249  1  0.113600  0.670200  0.704200  1.0  0.0955
  H  H250  1  0.135000  0.724600  0.689200  1.0  0.0696
  H  H251  1  0.251400  0.786400  0.600800  1.0  0.0981
  H  H252  1  0.231900  0.827500  0.637900  1.0  0.1082
  H  H253  1  0.256000  0.816800  0.661000  1.0  0.0979
  H  H254  1  0.321600  0.786200  0.552200  1.0  0.0997
  H  H255  1  0.290200  0.849200  0.612000  1.0  0.1171
  H  H256  1  0.266400  0.859800  0.589000  1.0  0.1072
  H  H257  1  0.480900  0.870900  0.478500  1.0  0.0704
  H  H258  1  0.465900  0.855300  0.521900  1.0  0.0675
  H  H259  1  0.449300  0.800100  0.555300  1.0  0.075
  H  H260  1  0.458700  0.775700  0.533100  1.0  0.0694
  H  H261  1  0.494900  0.835700  0.443100  1.0  0.0822
  H  H262  1  0.486300  0.798500  0.463500  1.0  0.0841
  H  H263  1  0.330000  0.923400  0.396600  1.0  0.1264
  H  H264  1  0.369200  0.928200  0.374600  1.0  0.1257
  H  H265  1  0.204200  0.613600  0.670200  1.0  0.099
  H  H266  1  0.189200  0.635000  0.724600  1.0  0.0716
  H  H267  1  0.100800  0.751400  0.786400  1.0  0.1018
  H  H268  1  0.137900  0.731900  0.827500  1.0  0.1074
  H  H269  1  0.161000  0.756000  0.816800  1.0  0.0893
  H  H270  1  0.052200  0.821600  0.786200  1.0  0.1006
  H  H271  1  0.112000  0.790200  0.849200  1.0  0.116
  H  H272  1  0.089000  0.766400  0.859800  1.0  0.1075
  H  H273  1  0.978500  0.980900  0.870900  1.0  0.0692
  H  H274  1  0.021900  0.965900  0.855300  1.0  0.0681
  H  H275  1  0.055300  0.949300  0.800100  1.0  0.0757
  H  H276  1  0.033100  0.958700  0.775700  1.0  0.0712
  H  H277  1  0.943100  0.994900  0.835700  1.0  0.0807
  H  H278  1  0.963500  0.986300  0.798500  1.0  0.0844
  H  H279  1  0.896600  0.830000  0.923400  1.0  0.1271
  H  H280  1  0.874600  0.869200  0.928200  1.0  0.1304
  H  H281  1  0.170200  0.512000  0.704200  1.0  0.0979
  H  H282  1  0.224600  0.451200  0.689200  1.0  0.0677
  H  H283  1  0.286400  0.361400  0.600800  1.0  0.1013
  H  H284  1  0.327500  0.302700  0.637900  1.0  0.1133
  H  H285  1  0.316800  0.266200  0.661000  1.0  0.097
  H  H286  1  0.286200  0.340000  0.552200  1.0  0.1013
  H  H287  1  0.349200  0.248600  0.612000  1.0  0.1137
  H  H288  1  0.359800  0.284800  0.589000  1.0  0.1034
  H  H289  1  0.370900  0.169700  0.478500  1.0  0.0667
  H  H290  1  0.355300  0.156900  0.521900  1.0  0.0653
  H  H291  1  0.300100  0.195300  0.555300  1.0  0.0781
  H  H292  1  0.275700  0.232500  0.533100  1.0  0.0702
  H  H293  1  0.335700  0.226300  0.443100  1.0  0.0802
  H  H294  1  0.298500  0.251700  0.463500  1.0  0.0868
  H  H295  1  0.423400  0.350000  0.396600  1.0  0.1326
  H  H296  1  0.428200  0.328000  0.374600  1.0  0.126
  H  H297  1  0.012000  0.670200  0.613600  1.0  0.0978
  H  H298  1  0.951200  0.724600  0.635000  1.0  0.0693
  H  H299  1  0.861400  0.786400  0.751400  1.0  0.1023
  H  H300  1  0.802700  0.827500  0.731900  1.0  0.1122
  H  H301  1  0.766200  0.816800  0.756000  1.0  0.0948
  H  H302  1  0.840000  0.786200  0.821600  1.0  0.1008
  H  H303  1  0.748600  0.849200  0.790200  1.0  0.1112
  H  H304  1  0.784800  0.859800  0.766400  1.0  0.1076
  H  H305  1  0.669700  0.870900  0.980900  1.0  0.0709
  H  H306  1  0.656900  0.855300  0.965900  1.0  0.0668
  H  H307  1  0.695300  0.800100  0.949300  1.0  0.0758
  H  H308  1  0.732500  0.775700  0.958700  1.0  0.0672
  H  H309  1  0.726300  0.835700  0.994900  1.0  0.0814
  H  H310  1  0.751700  0.798500  0.986300  1.0  0.0842
  H  H311  1  0.850000  0.923400  0.830000  1.0  0.1307
  H  H312  1  0.828000  0.928200  0.869200  1.0  0.1233
  H  H313  1  0.113600  0.704200  0.512000  1.0  0.0997
  H  H314  1  0.135000  0.689200  0.451200  1.0  0.0694
  H  H315  1  0.251400  0.600800  0.361400  1.0  0.1008
  H  H316  1  0.231900  0.637900  0.302700  1.0  0.1075
  H  H317  1  0.256000  0.661000  0.266200  1.0  0.0941
  H  H318  1  0.321600  0.552200  0.340000  1.0  0.1031
  H  H319  1  0.290200  0.612000  0.248600  1.0  0.1155
  H  H320  1  0.266400  0.589000  0.284800  1.0  0.1073
  H  H321  1  0.480900  0.478500  0.169700  1.0  0.0685
  H  H322  1  0.465900  0.521900  0.156900  1.0  0.0671
  H  H323  1  0.449300  0.555300  0.195300  1.0  0.0756
  H  H324  1  0.458700  0.533100  0.232500  1.0  0.0732
  H  H325  1  0.494900  0.443100  0.226300  1.0  0.0773
  H  H326  1  0.486300  0.463500  0.251700  1.0  0.0862
  H  H327  1  0.330000  0.396600  0.350000  1.0  0.1257
  H  H328  1  0.369200  0.374600  0.328000  1.0  0.1321
  H  H329  1  0.829800  0.295800  0.488000  1.0  0.0993
  H  H330  1  0.775400  0.310800  0.548800  1.0  0.0678
  H  H331  1  0.713600  0.399200  0.638600  1.0  0.1042
  H  H332  1  0.672500  0.362100  0.697300  1.0  0.1124
  H  H333  1  0.683200  0.339000  0.733800  1.0  0.0909
  H  H334  1  0.713800  0.447800  0.660000  1.0  0.1
  H  H335  1  0.650800  0.388000  0.751400  1.0  0.1155
  H  H336  1  0.640200  0.411000  0.715200  1.0  0.1077
  H  H337  1  0.629100  0.521500  0.830300  1.0  0.0701
  H  H338  1  0.644700  0.478100  0.843100  1.0  0.0693
  H  H339  1  0.699900  0.444700  0.804700  1.0  0.0749
  H  H340  1  0.724300  0.466900  0.767500  1.0  0.0682
  H  H341  1  0.664300  0.556900  0.773700  1.0  0.08
  H  H342  1  0.701500  0.536500  0.748300  1.0  0.0844
  H  H343  1  0.576600  0.603400  0.650000  1.0  0.1294
  H  H344  1  0.571800  0.625400  0.672000  1.0  0.1278
  H  H345  1  0.795800  0.329800  0.386400  1.0  0.0974
  H  H346  1  0.810800  0.275400  0.365000  1.0  0.0705
  H  H347  1  0.899200  0.213600  0.248600  1.0  0.1037
  H  H348  1  0.862100  0.172500  0.268100  1.0  0.1104
  H  H349  1  0.839000  0.183200  0.244000  1.0  0.0918
  H  H350  1  0.947800  0.213800  0.178400  1.0  0.0967
  H  H351  1  0.888000  0.150800  0.209800  1.0  0.1154
  H  H352  1  0.911000  0.140200  0.233600  1.0  0.1048
  H  H353  1  0.021500  0.129100  0.019100  1.0  0.0706
  H  H354  1  0.978100  0.144700  0.034100  1.0  0.0691
  H  H355  1  0.944700  0.199900  0.050700  1.0  0.0726
  H  H356  1  0.966900  0.224300  0.041300  1.0  0.0686
  H  H357  1  0.056900  0.164300  0.005100  1.0  0.0791
  H  H358  1  0.036500  0.201500  0.013700  1.0  0.0837
  H  H359  1  0.103400  0.076600  0.170000  1.0  0.1292
  H  H360  1  0.125400  0.071800  0.130800  1.0  0.1257
  H  H361  1  0.886400  0.488000  0.295800  1.0  0.0965
  H  H362  1  0.865000  0.548800  0.310800  1.0  0.0705
  H  H363  1  0.748600  0.638600  0.399200  1.0  0.1033
  H  H364  1  0.768100  0.697300  0.362100  1.0  0.1067
  H  H365  1  0.744000  0.733800  0.339000  1.0  0.0964
  H  H366  1  0.678400  0.660000  0.447800  1.0  0.0964
  H  H367  1  0.709800  0.751400  0.388000  1.0  0.1131
  H  H368  1  0.733600  0.715200  0.411000  1.0  0.1096
  H  H369  1  0.519100  0.830300  0.521500  1.0  0.0705
  H  H370  1  0.534100  0.843100  0.478100  1.0  0.0672
  H  H371  1  0.550700  0.804700  0.444700  1.0  0.0734
  H  H372  1  0.541300  0.767500  0.466900  1.0  0.0686
  H  H373  1  0.505100  0.773700  0.556900  1.0  0.0809
  H  H374  1  0.513700  0.748300  0.536500  1.0  0.0813
  H  H375  1  0.670000  0.650000  0.603400  1.0  0.134
  H  H376  1  0.630800  0.672000  0.625400  1.0  0.1258
  H  H377  1  0.988000  0.386400  0.329800  1.0  0.099
  H  H378  1  0.048800  0.365000  0.275400  1.0  0.0701
  H  H379  1  0.138600  0.248600  0.213600  1.0  0.1019
  H  H380  1  0.197300  0.268100  0.172500  1.0  0.1113
  H  H381  1  0.233800  0.244000  0.183200  1.0  0.0944
  H  H382  1  0.160000  0.178400  0.213800  1.0  0.1005
  H  H383  1  0.251400  0.209800  0.150800  1.0  0.1116
  H  H384  1  0.215200  0.233600  0.140200  1.0  0.1086
  H  H385  1  0.330300  0.019100  0.129100  1.0  0.0733
  H  H386  1  0.343100  0.034100  0.144700  1.0  0.0699
  H  H387  1  0.304700  0.050700  0.199900  1.0  0.0749
  H  H388  1  0.267500  0.041300  0.224300  1.0  0.0656
  H  H389  1  0.273700  0.005100  0.164300  1.0  0.0809
  H  H390  1  0.248300  0.013700  0.201500  1.0  0.0823
  H  H391  1  0.150000  0.170000  0.076600  1.0  0.1242
  H  H392  1  0.172000  0.130800  0.071800  1.0  0.1268
  H  H393  1  0.988000  0.295800  0.386400  1.0  0.0984
  H  H394  1  0.048800  0.310800  0.365000  1.0  0.071
  H  H395  1  0.138600  0.399200  0.248600  1.0  0.1039
  H  H396  1  0.197300  0.362100  0.268100  1.0  0.1135
  H  H397  1  0.233800  0.339000  0.244000  1.0  0.0898
  H  H398  1  0.160000  0.447800  0.178400  1.0  0.0998
  H  H399  1  0.251400  0.388000  0.209800  1.0  0.1105
  H  H400  1  0.215200  0.411000  0.233600  1.0  0.1101
  H  H401  1  0.330300  0.521500  0.019100  1.0  0.0707
  H  H402  1  0.343100  0.478100  0.034100  1.0  0.0711
  H  H403  1  0.304700  0.444700  0.050700  1.0  0.0755
  H  H404  1  0.267500  0.466900  0.041300  1.0  0.0671
  H  H405  1  0.273700  0.556900  0.005100  1.0  0.0801
  H  H406  1  0.248300  0.536500  0.013700  1.0  0.0832
  H  H407  1  0.150000  0.603400  0.170000  1.0  0.1316
  H  H408  1  0.172000  0.625400  0.130800  1.0  0.1315
  H  H409  1  0.886400  0.329800  0.488000  1.0  0.0963
  H  H410  1  0.865000  0.275400  0.548800  1.0  0.0692
  H  H411  1  0.748600  0.213600  0.638600  1.0  0.099
  H  H412  1  0.768100  0.172500  0.697300  1.0  0.1068
  H  H413  1  0.744000  0.183200  0.733800  1.0  0.0968
  H  H414  1  0.678400  0.213800  0.660000  1.0  0.1004
  H  H415  1  0.709800  0.150800  0.751400  1.0  0.1163
  H  H416  1  0.733600  0.140200  0.715200  1.0  0.1049
  H  H417  1  0.519100  0.129100  0.830300  1.0  0.07
  H  H418  1  0.534100  0.144700  0.843100  1.0  0.0702
  H  H419  1  0.550700  0.199900  0.804700  1.0  0.0745
  H  H420  1  0.541300  0.224300  0.767500  1.0  0.067
  H  H421  1  0.505100  0.164300  0.773700  1.0  0.079
  H  H422  1  0.513700  0.201500  0.748300  1.0  0.0843
  H  H423  1  0.670000  0.076600  0.650000  1.0  0.128
  H  H424  1  0.630800  0.071800  0.672000  1.0  0.1231
  H  H425  1  0.795800  0.488000  0.329800  1.0  0.097
  H  H426  1  0.810800  0.548800  0.275400  1.0  0.0723
  H  H427  1  0.899200  0.638600  0.213600  1.0  0.1016
  H  H428  1  0.862100  0.697300  0.172500  1.0  0.1123
  H  H429  1  0.839000  0.733800  0.183200  1.0  0.0958
  H  H430  1  0.947800  0.660000  0.213800  1.0  0.101
  H  H431  1  0.888000  0.751400  0.150800  1.0  0.1156
  H  H432  1  0.911000  0.715200  0.140200  1.0  0.1094
  H  H433  1  0.021500  0.830300  0.129100  1.0  0.071
  H  H434  1  0.978100  0.843100  0.144700  1.0  0.069
  H  H435  1  0.944700  0.804700  0.199900  1.0  0.0757
  H  H436  1  0.966900  0.767500  0.224300  1.0  0.0683
  H  H437  1  0.056900  0.773700  0.164300  1.0  0.0789
  H  H438  1  0.036500  0.748300  0.201500  1.0  0.0813
  H  H439  1  0.103400  0.650000  0.076600  1.0  0.1356
  H  H440  1  0.125400  0.672000  0.071800  1.0  0.1246
  H  H441  1  0.829800  0.386400  0.295800  1.0  0.099
  H  H442  1  0.775400  0.365000  0.310800  1.0  0.0674
  H  H443  1  0.713600  0.248600  0.399200  1.0  0.1022
  H  H444  1  0.672500  0.268100  0.362100  1.0  0.1107
  H  H445  1  0.683200  0.244000  0.339000  1.0  0.0968
  H  H446  1  0.713800  0.178400  0.447800  1.0  0.1021
  H  H447  1  0.650800  0.209800  0.388000  1.0  0.115
  H  H448  1  0.640200  0.233600  0.411000  1.0  0.1075
  H  H449  1  0.629100  0.019100  0.521500  1.0  0.0689
  H  H450  1  0.644700  0.034100  0.478100  1.0  0.0679
  H  H451  1  0.699900  0.050700  0.444700  1.0  0.0742
  H  H452  1  0.724300  0.041300  0.466900  1.0  0.0675
  H  H453  1  0.664300  0.005100  0.556900  1.0  0.0802
  H  H454  1  0.701500  0.013700  0.536500  1.0  0.0847
  H  H455  1  0.576600  0.170000  0.603400  1.0  0.1256
  H  H456  1  0.571800  0.130800  0.625400  1.0  0.1267
  H  H457  1  0.886400  0.295800  0.329800  1.0  0.1006
  H  H458  1  0.865000  0.310800  0.275400  1.0  0.0722
  H  H459  1  0.748600  0.399200  0.213600  1.0  0.0988
  H  H460  1  0.768100  0.362100  0.172500  1.0  0.108
  H  H461  1  0.744000  0.339000  0.183200  1.0  0.0894
  H  H462  1  0.678400  0.447800  0.213800  1.0  0.1018
  H  H463  1  0.709800  0.388000  0.150800  1.0  0.115
  H  H464  1  0.733600  0.411000  0.140200  1.0  0.1083
  H  H465  1  0.519100  0.521500  0.129100  1.0  0.071
  H  H466  1  0.534100  0.478100  0.144700  1.0  0.0684
  H  H467  1  0.550700  0.444700  0.199900  1.0  0.0748
  H  H468  1  0.541300  0.466900  0.224300  1.0  0.0715
  H  H469  1  0.505100  0.556900  0.164300  1.0  0.0796
  H  H470  1  0.513700  0.536500  0.201500  1.0  0.0845
  H  H471  1  0.670000  0.603400  0.076600  1.0  0.131
  H  H472  1  0.630800  0.625400  0.071800  1.0  0.1295
  H  H473  1  0.988000  0.329800  0.295800  1.0  0.0963
  H  H474  1  0.048800  0.275400  0.310800  1.0  0.0695
  H  H475  1  0.138600  0.213600  0.399200  1.0  0.1016
  H  H476  1  0.197300  0.172500  0.362100  1.0  0.112
  H  H477  1  0.233800  0.183200  0.339000  1.0  0.0951
  H  H478  1  0.160000  0.213800  0.447800  1.0  0.102
  H  H479  1  0.251400  0.150800  0.388000  1.0  0.1118
  H  H480  1  0.215200  0.140200  0.411000  1.0  0.1048
  H  H481  1  0.330300  0.129100  0.521500  1.0  0.0706
  H  H482  1  0.343100  0.144700  0.478100  1.0  0.0689
  H  H483  1  0.304700  0.199900  0.444700  1.0  0.0769
  H  H484  1  0.267500  0.224300  0.466900  1.0  0.0653
  H  H485  1  0.273700  0.164300  0.556900  1.0  0.0807
  H  H486  1  0.248300  0.201500  0.536500  1.0  0.0823
  H  H487  1  0.150000  0.076600  0.603400  1.0  0.1349
  H  H488  1  0.172000  0.071800  0.625400  1.0  0.1218
  H  H489  1  0.829800  0.488000  0.386400  1.0  0.098
  H  H490  1  0.775400  0.548800  0.365000  1.0  0.068
  H  H491  1  0.713600  0.638600  0.248600  1.0  0.1028
  H  H492  1  0.672500  0.697300  0.268100  1.0  0.1141
  H  H493  1  0.683200  0.733800  0.244000  1.0  0.0964
  H  H494  1  0.713800  0.660000  0.178400  1.0  0.1014
  H  H495  1  0.650800  0.751400  0.209800  1.0  0.1154
  H  H496  1  0.640200  0.715200  0.233600  1.0  0.1042
  H  H497  1  0.629100  0.830300  0.019100  1.0  0.0706
  H  H498  1  0.644700  0.843100  0.034100  1.0  0.066
  H  H499  1  0.699900  0.804700  0.050700  1.0  0.0767
  H  H500  1  0.724300  0.767500  0.041300  1.0  0.0689
  H  H501  1  0.664300  0.773700  0.005100  1.0  0.0766
  H  H502  1  0.701500  0.748300  0.013700  1.0  0.0829
  H  H503  1  0.576600  0.650000  0.170000  1.0  0.1331
  H  H504  1  0.571800  0.672000  0.130800  1.0  0.1266
  H  H505  1  0.795800  0.386400  0.488000  1.0  0.0995
  H  H506  1  0.810800  0.365000  0.548800  1.0  0.0696
  H  H507  1  0.899200  0.248600  0.638600  1.0  0.1026
  H  H508  1  0.862100  0.268100  0.697300  1.0  0.1122
  H  H509  1  0.839000  0.244000  0.733800  1.0  0.0931
  H  H510  1  0.947800  0.178400  0.660000  1.0  0.1004
  H  H511  1  0.888000  0.209800  0.751400  1.0  0.1166
  H  H512  1  0.911000  0.233600  0.715200  1.0  0.1059
  H  H513  1  0.021500  0.019100  0.830300  1.0  0.0681
  H  H514  1  0.978100  0.034100  0.843100  1.0  0.0688
  H  H515  1  0.944700  0.050700  0.804700  1.0  0.0743
  H  H516  1  0.966900  0.041300  0.767500  1.0  0.0694
  H  H517  1  0.056900  0.005100  0.773700  1.0  0.0782
  H  H518  1  0.036500  0.013700  0.748300  1.0  0.0853
  H  H519  1  0.103400  0.170000  0.650000  1.0  0.1268
  H  H520  1  0.125400  0.130800  0.672000  1.0  0.1337
  H  H521  1  0.795800  0.329800  0.488000  1.0  0.0984
  H  H522  1  0.810800  0.275400  0.548800  1.0  0.072
  H  H523  1  0.899200  0.213600  0.638600  1.0  0.1037
  H  H524  1  0.862100  0.172500  0.697300  1.0  0.1129
  H  H525  1  0.839000  0.183200  0.733800  1.0  0.0909
  H  H526  1  0.947800  0.213800  0.660000  1.0  0.0952
  H  H527  1  0.888000  0.150800  0.751400  1.0  0.1156
  H  H528  1  0.911000  0.140200  0.715200  1.0  0.104
  H  H529  1  0.021500  0.129100  0.830300  1.0  0.0697
  H  H530  1  0.978100  0.144700  0.843100  1.0  0.0674
  H  H531  1  0.944700  0.199900  0.804700  1.0  0.0731
  H  H532  1  0.966900  0.224300  0.767500  1.0  0.0697
  H  H533  1  0.056900  0.164300  0.773700  1.0  0.0827
  H  H534  1  0.036500  0.201500  0.748300  1.0  0.0854
  H  H535  1  0.103400  0.076600  0.650000  1.0  0.1282
  H  H536  1  0.125400  0.071800  0.672000  1.0  0.129
  H  H537  1  0.829800  0.295800  0.386400  1.0  0.1001
  H  H538  1  0.775400  0.310800  0.365000  1.0  0.0691
  H  H539  1  0.713600  0.399200  0.248600  1.0  0.1046
  H  H540  1  0.672500  0.362100  0.268100  1.0  0.111
  H  H541  1  0.683200  0.339000  0.244000  1.0  0.0895
  H  H542  1  0.713800  0.447800  0.178400  1.0  0.0995
  H  H543  1  0.650800  0.388000  0.209800  1.0  0.1154
  H  H544  1  0.640200  0.411000  0.233600  1.0  0.1078
  H  H545  1  0.629100  0.521500  0.019100  1.0  0.0685
  H  H546  1  0.644700  0.478100  0.034100  1.0  0.0668
  H  H547  1  0.699900  0.444700  0.050700  1.0  0.075
  H  H548  1  0.724300  0.466900  0.041300  1.0  0.0692
  H  H549  1  0.664300  0.556900  0.005100  1.0  0.0804
  H  H550  1  0.701500  0.536500  0.013700  1.0  0.0846
  H  H551  1  0.576600  0.603400  0.170000  1.0  0.1306
  H  H552  1  0.571800  0.625400  0.130800  1.0  0.1308
  H  H553  1  0.988000  0.386400  0.295800  1.0  0.0997
  H  H554  1  0.048800  0.365000  0.310800  1.0  0.0702
  H  H555  1  0.138600  0.248600  0.399200  1.0  0.102
  H  H556  1  0.197300  0.268100  0.362100  1.0  0.1112
  H  H557  1  0.233800  0.244000  0.339000  1.0  0.0952
  H  H558  1  0.160000  0.178400  0.447800  1.0  0.0999
  H  H559  1  0.251400  0.209800  0.388000  1.0  0.1101
  H  H560  1  0.215200  0.233600  0.411000  1.0  0.1089
  H  H561  1  0.330300  0.019100  0.521500  1.0  0.0693
  H  H562  1  0.343100  0.034100  0.478100  1.0  0.0667
  H  H563  1  0.304700  0.050700  0.444700  1.0  0.0755
  H  H564  1  0.267500  0.041300  0.466900  1.0  0.0648
  H  H565  1  0.273700  0.005100  0.556900  1.0  0.084
  H  H566  1  0.248300  0.013700  0.536500  1.0  0.0836
  H  H567  1  0.150000  0.170000  0.603400  1.0  0.1262
  H  H568  1  0.172000  0.130800  0.625400  1.0  0.1322
  H  H569  1  0.886400  0.488000  0.329800  1.0  0.0977
  H  H570  1  0.865000  0.548800  0.275400  1.0  0.0714
  H  H571  1  0.748600  0.638600  0.213600  1.0  0.1029
  H  H572  1  0.768100  0.697300  0.172500  1.0  0.1069
  H  H573  1  0.744000  0.733800  0.183200  1.0  0.0944
  H  H574  1  0.678400  0.660000  0.213800  1.0  0.0957
  H  H575  1  0.709800  0.751400  0.150800  1.0  0.1139
  H  H576  1  0.733600  0.715200  0.140200  1.0  0.1096
  H  H577  1  0.519100  0.830300  0.129100  1.0  0.0703
  H  H578  1  0.534100  0.843100  0.144700  1.0  0.0655
  H  H579  1  0.550700  0.804700  0.199900  1.0  0.0715
  H  H580  1  0.541300  0.767500  0.224300  1.0  0.0719
  H  H581  1  0.505100  0.773700  0.164300  1.0  0.0811
  H  H582  1  0.513700  0.748300  0.201500  1.0  0.0821
  H  H583  1  0.670000  0.650000  0.076600  1.0  0.1347
  H  H584  1  0.630800  0.672000  0.071800  1.0  0.127
  H  H585  1  0.795800  0.488000  0.386400  1.0  0.0972
  H  H586  1  0.810800  0.548800  0.365000  1.0  0.0721
  H  H587  1  0.899200  0.638600  0.248600  1.0  0.1034
  H  H588  1  0.862100  0.697300  0.268100  1.0  0.1137
  H  H589  1  0.839000  0.733800  0.244000  1.0  0.095
  H  H590  1  0.947800  0.660000  0.178400  1.0  0.0998
  H  H591  1  0.888000  0.751400  0.209800  1.0  0.1159
  H  H592  1  0.911000  0.715200  0.233600  1.0  0.1101
  H  H593  1  0.021500  0.830300  0.019100  1.0  0.0682
  H  H594  1  0.978100  0.843100  0.034100  1.0  0.0675
  H  H595  1  0.944700  0.804700  0.050700  1.0  0.0754
  H  H596  1  0.966900  0.767500  0.041300  1.0  0.0694
  H  H597  1  0.056900  0.773700  0.005100  1.0  0.0792
  H  H598  1  0.036500  0.748300  0.013700  1.0  0.0817
  H  H599  1  0.103400  0.650000  0.170000  1.0  0.1345
  H  H600  1  0.125400  0.672000  0.130800  1.0  0.1293
  H  H601  1  0.829800  0.386400  0.488000  1.0  0.0986
  H  H602  1  0.775400  0.365000  0.548800  1.0  0.0661
  H  H603  1  0.713600  0.248600  0.638600  1.0  0.1022
  H  H604  1  0.672500  0.268100  0.697300  1.0  0.1107
  H  H605  1  0.683200  0.244000  0.733800  1.0  0.0974
  H  H606  1  0.713800  0.178400  0.660000  1.0  0.0994
  H  H607  1  0.650800  0.209800  0.751400  1.0  0.1161
  H  H608  1  0.640200  0.233600  0.715200  1.0  0.1076
  H  H609  1  0.629100  0.019100  0.830300  1.0  0.0679
  H  H610  1  0.644700  0.034100  0.843100  1.0  0.0663
  H  H611  1  0.699900  0.050700  0.804700  1.0  0.0746
  H  H612  1  0.724300  0.041300  0.767500  1.0  0.0691
  H  H613  1  0.664300  0.005100  0.773700  1.0  0.0798
  H  H614  1  0.701500  0.013700  0.748300  1.0  0.0858
  H  H615  1  0.576600  0.170000  0.650000  1.0  0.1254
  H  H616  1  0.571800  0.130800  0.672000  1.0  0.1287
  H  H617  1  0.988000  0.295800  0.329800  1.0  0.0973
  H  H618  1  0.048800  0.310800  0.275400  1.0  0.0716
  H  H619  1  0.138600  0.399200  0.213600  1.0  0.1018
  H  H620  1  0.197300  0.362100  0.172500  1.0  0.1127
  H  H621  1  0.233800  0.339000  0.183200  1.0  0.0897
  H  H622  1  0.160000  0.447800  0.213800  1.0  0.1002
  H  H623  1  0.251400  0.388000  0.150800  1.0  0.1122
  H  H624  1  0.215200  0.411000  0.140200  1.0  0.1098
  H  H625  1  0.330300  0.521500  0.129100  1.0  0.0704
  H  H626  1  0.343100  0.478100  0.144700  1.0  0.0675
  H  H627  1  0.304700  0.444700  0.199900  1.0  0.075
  H  H628  1  0.267500  0.466900  0.224300  1.0  0.0679
  H  H629  1  0.273700  0.556900  0.164300  1.0  0.0823
  H  H630  1  0.248300  0.536500  0.201500  1.0  0.084
  H  H631  1  0.150000  0.603400  0.076600  1.0  0.1335
  H  H632  1  0.172000  0.625400  0.071800  1.0  0.1328
  H  H633  1  0.886400  0.329800  0.295800  1.0  0.0969
  H  H634  1  0.865000  0.275400  0.310800  1.0  0.0711
  H  H635  1  0.748600  0.213600  0.399200  1.0  0.0983
  H  H636  1  0.768100  0.172500  0.362100  1.0  0.1072
  H  H637  1  0.744000  0.183200  0.339000  1.0  0.0956
  H  H638  1  0.678400  0.213800  0.447800  1.0  0.1005
  H  H639  1  0.709800  0.150800  0.388000  1.0  0.1161
  H  H640  1  0.733600  0.140200  0.411000  1.0  0.1058
  H  H641  1  0.519100  0.129100  0.521500  1.0  0.0692
  H  H642  1  0.534100  0.144700  0.478100  1.0  0.0657
  H  H643  1  0.550700  0.199900  0.444700  1.0  0.0739
  H  H644  1  0.541300  0.224300  0.466900  1.0  0.0681
  H  H645  1  0.505100  0.164300  0.556900  1.0  0.0834
  H  H646  1  0.513700  0.201500  0.536500  1.0  0.0858
  H  H647  1  0.670000  0.076600  0.603400  1.0  0.1301
  H  H648  1  0.630800  0.071800  0.625400  1.0  0.1272
  H  H649  1  0.795800  0.386400  0.329800  1.0  0.0994
  H  H650  1  0.810800  0.365000  0.275400  1.0  0.0719
  H  H651  1  0.899200  0.248600  0.213600  1.0  0.1015
  H  H652  1  0.862100  0.268100  0.172500  1.0  0.1127
  H  H653  1  0.839000  0.244000  0.183200  1.0  0.0916
  H  H654  1  0.947800  0.178400  0.213800  1.0  0.1008
  H  H655  1  0.888000  0.209800  0.150800  1.0  0.1153
  H  H656  1  0.911000  0.233600  0.140200  1.0  0.1068
  H  H657  1  0.021500  0.019100  0.129100  1.0  0.0687
  H  H658  1  0.978100  0.034100  0.144700  1.0  0.0664
  H  H659  1  0.944700  0.050700  0.199900  1.0  0.075
  H  H660  1  0.966900  0.041300  0.224300  1.0  0.0727
  H  H661  1  0.056900  0.005100  0.164300  1.0  0.0799
  H  H662  1  0.036500  0.013700  0.201500  1.0  0.0863
  H  H663  1  0.103400  0.170000  0.076600  1.0  0.128
  H  H664  1  0.125400  0.130800  0.071800  1.0  0.1325
  H  H665  1  0.829800  0.488000  0.295800  1.0  0.0965
  H  H666  1  0.775400  0.548800  0.310800  1.0  0.0683
  H  H667  1  0.713600  0.638600  0.399200  1.0  0.1021
  H  H668  1  0.672500  0.697300  0.362100  1.0  0.1121
  H  H669  1  0.683200  0.733800  0.339000  1.0  0.0955
  H  H670  1  0.713800  0.660000  0.447800  1.0  0.1019
  H  H671  1  0.650800  0.751400  0.388000  1.0  0.1149
  H  H672  1  0.640200  0.715200  0.411000  1.0  0.1043
  H  H673  1  0.629100  0.830300  0.521500  1.0  0.0689
  H  H674  1  0.644700  0.843100  0.478100  1.0  0.0671
  H  H675  1  0.699900  0.804700  0.444700  1.0  0.0768
  H  H676  1  0.724300  0.767500  0.466900  1.0  0.0698
  H  H677  1  0.664300  0.773700  0.556900  1.0  0.0811
  H  H678  1  0.701500  0.748300  0.536500  1.0  0.0842
  H  H679  1  0.576600  0.650000  0.603400  1.0  0.1324
  H  H680  1  0.571800  0.672000  0.625400  1.0  0.1281
  H  H681  1  0.988000  0.329800  0.386400  1.0  0.0979
  H  H682  1  0.048800  0.275400  0.365000  1.0  0.0708
  H  H683  1  0.138600  0.213600  0.248600  1.0  0.1019
  H  H684  1  0.197300  0.172500  0.268100  1.0  0.1132
  H  H685  1  0.233800  0.183200  0.244000  1.0  0.0944
  H  H686  1  0.160000  0.213800  0.178400  1.0  0.1001
  H  H687  1  0.251400  0.150800  0.209800  1.0  0.112
  H  H688  1  0.215200  0.140200  0.233600  1.0  0.1054
  H  H689  1  0.330300  0.129100  0.019100  1.0  0.069
  H  H690  1  0.343100  0.144700  0.034100  1.0  0.0648
  H  H691  1  0.304700  0.199900  0.050700  1.0  0.0767
  H  H692  1  0.267500  0.224300  0.041300  1.0  0.0675
  H  H693  1  0.273700  0.164300  0.005100  1.0  0.0803
  H  H694  1  0.248300  0.201500  0.013700  1.0  0.0836
  H  H695  1  0.150000  0.076600  0.170000  1.0  0.1366
  H  H696  1  0.172000  0.071800  0.130800  1.0  0.1256
  H  H697  1  0.886400  0.295800  0.488000  1.0  0.1004
  H  H698  1  0.865000  0.310800  0.548800  1.0  0.0722
  H  H699  1  0.748600  0.399200  0.638600  1.0  0.1
  H  H700  1  0.768100  0.362100  0.697300  1.0  0.107
  H  H701  1  0.744000  0.339000  0.733800  1.0  0.0901
  H  H702  1  0.678400  0.447800  0.660000  1.0  0.1004
  H  H703  1  0.709800  0.388000  0.751400  1.0  0.1156
  H  H704  1  0.733600  0.411000  0.715200  1.0  0.1069
  H  H705  1  0.519100  0.521500  0.830300  1.0  0.0691
  H  H706  1  0.534100  0.478100  0.843100  1.0  0.068
  H  H707  1  0.550700  0.444700  0.804700  1.0  0.0748
  H  H708  1  0.541300  0.466900  0.767500  1.0  0.0709
  H  H709  1  0.505100  0.556900  0.773700  1.0  0.0803
  H  H710  1  0.513700  0.536500  0.748300  1.0  0.085
  H  H711  1  0.670000  0.603400  0.650000  1.0  0.1294
  H  H712  1  0.630800  0.625400  0.672000  1.0  0.1363
  H  H713  1  0.170200  0.704200  0.512000  1.0  0.0993
  H  H714  1  0.224600  0.689200  0.451200  1.0  0.0692
  H  H715  1  0.286400  0.600800  0.361400  1.0  0.1049
  H  H716  1  0.327500  0.637900  0.302700  1.0  0.1092
  H  H717  1  0.316800  0.661000  0.266200  1.0  0.0937
  H  H718  1  0.286200  0.552200  0.340000  1.0  0.099
  H  H719  1  0.349200  0.612000  0.248600  1.0  0.1162
  H  H720  1  0.359800  0.589000  0.284800  1.0  0.1068
  H  H721  1  0.370900  0.478500  0.169700  1.0  0.0688
  H  H722  1  0.355300  0.521900  0.156900  1.0  0.0704
  H  H723  1  0.300100  0.555300  0.195300  1.0  0.0738
  H  H724  1  0.275700  0.533100  0.232500  1.0  0.0686
  H  H725  1  0.335700  0.443100  0.226300  1.0  0.0745
  H  H726  1  0.298500  0.463500  0.251700  1.0  0.0839
  H  H727  1  0.423400  0.396600  0.350000  1.0  0.1294
  H  H728  1  0.428200  0.374600  0.328000  1.0  0.1323
  H  H729  1  0.204200  0.670200  0.613600  1.0  0.0995
  H  H730  1  0.189200  0.724600  0.635000  1.0  0.0713
  H  H731  1  0.100800  0.786400  0.751400  1.0  0.1037
  H  H732  1  0.137900  0.827500  0.731900  1.0  0.1124
  H  H733  1  0.161000  0.816800  0.756000  1.0  0.0885
  H  H734  1  0.052200  0.786200  0.821600  1.0  0.0942
  H  H735  1  0.112000  0.849200  0.790200  1.0  0.1153
  H  H736  1  0.089000  0.859800  0.766400  1.0  0.1063
  H  H737  1  0.978500  0.870900  0.980900  1.0  0.0728
  H  H738  1  0.021900  0.855300  0.965900  1.0  0.0692
  H  H739  1  0.055300  0.800100  0.949300  1.0  0.0724
  H  H740  1  0.033100  0.775700  0.958700  1.0  0.0672
  H  H741  1  0.943100  0.835700  0.994900  1.0  0.0797
  H  H742  1  0.963500  0.798500  0.986300  1.0  0.0826
  H  H743  1  0.896600  0.923400  0.830000  1.0  0.1285
  H  H744  1  0.874600  0.928200  0.869200  1.0  0.1292
  H  H745  1  0.113600  0.512000  0.704200  1.0  0.098
  H  H746  1  0.135000  0.451200  0.689200  1.0  0.0694
  H  H747  1  0.251400  0.361400  0.600800  1.0  0.1024
  H  H748  1  0.231900  0.302700  0.637900  1.0  0.1073
  H  H749  1  0.256000  0.266200  0.661000  1.0  0.0953
  H  H750  1  0.321600  0.340000  0.552200  1.0  0.0969
  H  H751  1  0.290200  0.248600  0.612000  1.0  0.1112
  H  H752  1  0.266400  0.284800  0.589000  1.0  0.1097
  H  H753  1  0.480900  0.169700  0.478500  1.0  0.0728
  H  H754  1  0.465900  0.156900  0.521900  1.0  0.0674
  H  H755  1  0.449300  0.195300  0.555300  1.0  0.0737
  H  H756  1  0.458700  0.232500  0.533100  1.0  0.0696
  H  H757  1  0.494900  0.226300  0.443100  1.0  0.0807
  H  H758  1  0.486300  0.251700  0.463500  1.0  0.0832
  H  H759  1  0.330000  0.350000  0.396600  1.0  0.1277
  H  H760  1  0.369200  0.328000  0.374600  1.0  0.1291
  H  H761  1  0.012000  0.613600  0.670200  1.0  0.0979
  H  H762  1  0.951200  0.635000  0.724600  1.0  0.0711
  H  H763  1  0.861400  0.751400  0.786400  1.0  0.1026
  H  H764  1  0.802700  0.731900  0.827500  1.0  0.1079
  H  H765  1  0.766200  0.756000  0.816800  1.0  0.0946
  H  H766  1  0.840000  0.821600  0.786200  1.0  0.0996
  H  H767  1  0.748600  0.790200  0.849200  1.0  0.1109
  H  H768  1  0.784800  0.766400  0.859800  1.0  0.1097
  H  H769  1  0.669700  0.980900  0.870900  1.0  0.0716
  H  H770  1  0.656900  0.965900  0.855300  1.0  0.0678
  H  H771  1  0.695300  0.949300  0.800100  1.0  0.0756
  H  H772  1  0.732500  0.958700  0.775700  1.0  0.067
  H  H773  1  0.726300  0.994900  0.835700  1.0  0.0805
  H  H774  1  0.751700  0.986300  0.798500  1.0  0.0831
  H  H775  1  0.850000  0.830000  0.923400  1.0  0.1271
  H  H776  1  0.828000  0.869200  0.928200  1.0  0.1284
  H  H777  1  0.012000  0.704200  0.613600  1.0  0.0993
  H  H778  1  0.951200  0.689200  0.635000  1.0  0.0713
  H  H779  1  0.861400  0.600800  0.751400  1.0  0.1013
  H  H780  1  0.802700  0.637900  0.731900  1.0  0.1125
  H  H781  1  0.766200  0.661000  0.756000  1.0  0.0939
  H  H782  1  0.840000  0.552200  0.821600  1.0  0.1
  H  H783  1  0.748600  0.612000  0.790200  1.0  0.1104
  H  H784  1  0.784800  0.589000  0.766400  1.0  0.1092
  H  H785  1  0.669700  0.478500  0.980900  1.0  0.0701
  H  H786  1  0.656900  0.521900  0.965900  1.0  0.0685
  H  H787  1  0.695300  0.555300  0.949300  1.0  0.0755
  H  H788  1  0.732500  0.533100  0.958700  1.0  0.066
  H  H789  1  0.726300  0.443100  0.994900  1.0  0.0757
  H  H790  1  0.751700  0.463500  0.986300  1.0  0.0836
  H  H791  1  0.850000  0.396600  0.830000  1.0  0.1318
  H  H792  1  0.828000  0.374600  0.869200  1.0  0.1292
  H  H793  1  0.113600  0.670200  0.512000  1.0  0.0959
  H  H794  1  0.135000  0.724600  0.451200  1.0  0.0705
  H  H795  1  0.251400  0.786400  0.361400  1.0  0.0999
  H  H796  1  0.231900  0.827500  0.302700  1.0  0.1083
  H  H797  1  0.256000  0.816800  0.266200  1.0  0.0963
  H  H798  1  0.321600  0.786200  0.340000  1.0  0.1014
  H  H799  1  0.290200  0.849200  0.248600  1.0  0.1161
  H  H800  1  0.266400  0.859800  0.284800  1.0  0.1067
  H  H801  1  0.480900  0.870900  0.169700  1.0  0.071
  H  H802  1  0.465900  0.855300  0.156900  1.0  0.0693
  H  H803  1  0.449300  0.800100  0.195300  1.0  0.0735
  H  H804  1  0.458700  0.775700  0.232500  1.0  0.0684
  H  H805  1  0.494900  0.835700  0.226300  1.0  0.0797
  H  H806  1  0.486300  0.798500  0.251700  1.0  0.0845
  H  H807  1  0.330000  0.923400  0.350000  1.0  0.1287
  H  H808  1  0.369200  0.928200  0.328000  1.0  0.129
  H  H809  1  0.204200  0.512000  0.670200  1.0  0.0969
  H  H810  1  0.189200  0.451200  0.724600  1.0  0.0727
  H  H811  1  0.100800  0.361400  0.786400  1.0  0.103
  H  H812  1  0.137900  0.302700  0.827500  1.0  0.1137
  H  H813  1  0.161000  0.266200  0.816800  1.0  0.0951
  H  H814  1  0.052200  0.340000  0.786200  1.0  0.0991
  H  H815  1  0.112000  0.248600  0.849200  1.0  0.1135
  H  H816  1  0.089000  0.284800  0.859800  1.0  0.1099
  H  H817  1  0.978500  0.169700  0.870900  1.0  0.0702
  H  H818  1  0.021900  0.156900  0.855300  1.0  0.0707
  H  H819  1  0.055300  0.195300  0.800100  1.0  0.0749
  H  H820  1  0.033100  0.232500  0.775700  1.0  0.0686
  H  H821  1  0.943100  0.226300  0.835700  1.0  0.0799
  H  H822  1  0.963500  0.251700  0.798500  1.0  0.0841
  H  H823  1  0.896600  0.350000  0.923400  1.0  0.1353
  H  H824  1  0.874600  0.328000  0.928200  1.0  0.1254
  H  H825  1  0.170200  0.613600  0.704200  1.0  0.0988
  H  H826  1  0.224600  0.635000  0.689200  1.0  0.0673
  H  H827  1  0.286400  0.751400  0.600800  1.0  0.102
  H  H828  1  0.327500  0.731900  0.637900  1.0  0.1054
  H  H829  1  0.316800  0.756000  0.661000  1.0  0.096
  H  H830  1  0.286200  0.821600  0.552200  1.0  0.0999
  H  H831  1  0.349200  0.790200  0.612000  1.0  0.1159
  H  H832  1  0.359800  0.766400  0.589000  1.0  0.1072
  H  H833  1  0.370900  0.980900  0.478500  1.0  0.0681
  H  H834  1  0.355300  0.965900  0.521900  1.0  0.0708
  H  H835  1  0.300100  0.949300  0.555300  1.0  0.077
  H  H836  1  0.275700  0.958700  0.533100  1.0  0.0683
  H  H837  1  0.335700  0.994900  0.443100  1.0  0.0798
  H  H838  1  0.298500  0.986300  0.463500  1.0  0.0832
  H  H839  1  0.423400  0.830000  0.396600  1.0  0.1273
  H  H840  1  0.428200  0.869200  0.374600  1.0  0.1315
  H  H841  1  0.113600  0.704200  0.670200  1.0  0.0993
  H  H842  1  0.135000  0.689200  0.724600  1.0  0.0712
  H  H843  1  0.251400  0.600800  0.786400  1.0  0.1009
  H  H844  1  0.231900  0.637900  0.827500  1.0  0.1075
  H  H845  1  0.256000  0.661000  0.816800  1.0  0.0934
  H  H846  1  0.321600  0.552200  0.786200  1.0  0.1001
  H  H847  1  0.290200  0.612000  0.849200  1.0  0.1158
  H  H848  1  0.266400  0.589000  0.859800  1.0  0.1083
  H  H849  1  0.480900  0.478500  0.870900  1.0  0.071
  H  H850  1  0.465900  0.521900  0.855300  1.0  0.0687
  H  H851  1  0.449300  0.555300  0.800100  1.0  0.0747
  H  H852  1  0.458700  0.533100  0.775700  1.0  0.0703
  H  H853  1  0.494900  0.443100  0.835700  1.0  0.0758
  H  H854  1  0.486300  0.463500  0.798500  1.0  0.0828
  H  H855  1  0.330000  0.396600  0.923400  1.0  0.1301
  H  H856  1  0.369200  0.374600  0.928200  1.0  0.1348
  H  H857  1  0.012000  0.670200  0.704200  1.0  0.0985
  H  H858  1  0.951200  0.724600  0.689200  1.0  0.0699
  H  H859  1  0.861400  0.786400  0.600800  1.0  0.1019
  H  H860  1  0.802700  0.827500  0.637900  1.0  0.1134
  H  H861  1  0.766200  0.816800  0.661000  1.0  0.0947
  H  H862  1  0.840000  0.786200  0.552200  1.0  0.1003
  H  H863  1  0.748600  0.849200  0.612000  1.0  0.112
  H  H864  1  0.784800  0.859800  0.589000  1.0  0.1073
  H  H865  1  0.669700  0.870900  0.478500  1.0  0.0722
  H  H866  1  0.656900  0.855300  0.521900  1.0  0.0664
  H  H867  1  0.695300  0.800100  0.555300  1.0  0.0779
  H  H868  1  0.732500  0.775700  0.533100  1.0  0.0661
  H  H869  1  0.726300  0.835700  0.443100  1.0  0.0809
  H  H870  1  0.751700  0.798500  0.463500  1.0  0.0827
  H  H871  1  0.850000  0.923400  0.396600  1.0  0.1362
  H  H872  1  0.828000  0.928200  0.374600  1.0  0.1281
  H  H873  1  0.170200  0.512000  0.613600  1.0  0.0965
  H  H874  1  0.224600  0.451200  0.635000  1.0  0.07
  H  H875  1  0.286400  0.361400  0.751400  1.0  0.1021
  H  H876  1  0.327500  0.302700  0.731900  1.0  0.1136
  H  H877  1  0.316800  0.266200  0.756000  1.0  0.0948
  H  H878  1  0.286200  0.340000  0.821600  1.0  0.1014
  H  H879  1  0.349200  0.248600  0.790200  1.0  0.1132
  H  H880  1  0.359800  0.284800  0.766400  1.0  0.1038
  H  H881  1  0.370900  0.169700  0.980900  1.0  0.0679
  H  H882  1  0.355300  0.156900  0.965900  1.0  0.0699
  H  H883  1  0.300100  0.195300  0.949300  1.0  0.0767
  H  H884  1  0.275700  0.232500  0.958700  1.0  0.0692
  H  H885  1  0.335700  0.226300  0.994900  1.0  0.0776
  H  H886  1  0.298500  0.251700  0.986300  1.0  0.0845
  H  H887  1  0.423400  0.350000  0.830000  1.0  0.1328
  H  H888  1  0.428200  0.328000  0.869200  1.0  0.1283
  H  H889  1  0.204200  0.613600  0.512000  1.0  0.0999
  H  H890  1  0.189200  0.635000  0.451200  1.0  0.0721
  H  H891  1  0.100800  0.751400  0.361400  1.0  0.1024
  H  H892  1  0.137900  0.731900  0.302700  1.0  0.1085
  H  H893  1  0.161000  0.756000  0.266200  1.0  0.0888
  H  H894  1  0.052200  0.821600  0.340000  1.0  0.1009
  H  H895  1  0.112000  0.790200  0.248600  1.0  0.1161
  H  H896  1  0.089000  0.766400  0.284800  1.0  0.106
  H  H897  1  0.978500  0.980900  0.169700  1.0  0.068
  H  H898  1  0.021900  0.965900  0.156900  1.0  0.0686
  H  H899  1  0.055300  0.949300  0.195300  1.0  0.0764
  H  H900  1  0.033100  0.958700  0.232500  1.0  0.0704
  H  H901  1  0.943100  0.994900  0.226300  1.0  0.0799
  H  H902  1  0.963500  0.986300  0.251700  1.0  0.0854
  H  H903  1  0.896600  0.830000  0.350000  1.0  0.1264
  H  H904  1  0.874600  0.869200  0.328000  1.0  0.1349
  C  C905  1  0.138500  0.816700  0.287700  1.0  -0.141
  C  C906  1  0.103900  0.839100  0.275500  1.0  -0.1412
  C  C907  1  0.999800  0.848400  0.170000  1.0  0.0349
  C  C908  1  0.033800  0.792400  0.207400  1.0  0.0072
  C  C909  1  0.965300  0.813900  0.226100  1.0  -0.0115
  C  C910  1  0.882100  0.912700  0.349900  1.0  -0.1356
  C  C911  1  0.316700  0.638500  0.757100  1.0  -0.1425
  C  C912  1  0.339100  0.603900  0.781500  1.0  -0.1419
  C  C913  1  0.348400  0.499800  0.981800  1.0  0.0423
  C  C914  1  0.292400  0.533800  0.966400  1.0  0.0068
  C  C915  1  0.313900  0.465300  0.994700  1.0  -0.0128
  C  C916  1  0.412700  0.382100  0.855300  1.0  -0.1358
  C  C917  1  0.787700  0.757100  0.638500  1.0  -0.1391
  C  C918  1  0.775500  0.781500  0.603900  1.0  -0.1405
  C  C919  1  0.670000  0.981800  0.499800  1.0  0.037
  C  C920  1  0.707400  0.966400  0.533800  1.0  0.005
  C  C921  1  0.726100  0.994700  0.465300  1.0  -0.0103
  C  C922  1  0.849900  0.855300  0.382100  1.0  -0.1351
  C  C923  1  0.257100  0.287700  0.816700  1.0  -0.1421
  C  C924  1  0.281500  0.275500  0.839100  1.0  -0.1447
  C  C925  1  0.481800  0.170000  0.848400  1.0  0.034
  C  C926  1  0.466400  0.207400  0.792400  1.0  0.0095
  C  C927  1  0.494700  0.226100  0.813900  1.0  -0.0148
  C  C928  1  0.355300  0.349900  0.912700  1.0  -0.1397
  C  C929  1  0.138500  0.287700  0.757100  1.0  -0.1427
  C  C930  1  0.103900  0.275500  0.781500  1.0  -0.1442
  C  C931  1  0.999800  0.170000  0.981800  1.0  0.0377
  C  C932  1  0.033800  0.207400  0.966400  1.0  0.0061
  C  C933  1  0.965300  0.226100  0.994700  1.0  -0.0107
  C  C934  1  0.882100  0.349900  0.855300  1.0  -0.1451
  C  C935  1  0.316700  0.757100  0.287700  1.0  -0.143
  C  C936  1  0.339100  0.781500  0.275500  1.0  -0.1388
  C  C937  1  0.348400  0.981800  0.170000  1.0  0.0366
  C  C938  1  0.292400  0.966400  0.207400  1.0  0.0092
  C  C939  1  0.313900  0.994700  0.226100  1.0  -0.0097
  C  C940  1  0.412700  0.855300  0.349900  1.0  -0.1341
  C  C941  1  0.787700  0.638500  0.816700  1.0  -0.1485
  C  C942  1  0.775500  0.603900  0.839100  1.0  -0.1456
  C  C943  1  0.670000  0.499800  0.848400  1.0  0.0376
  C  C944  1  0.707400  0.533800  0.792400  1.0  0.0042
  C  C945  1  0.726100  0.465300  0.813900  1.0  -0.0137
  C  C946  1  0.849900  0.382100  0.912700  1.0  -0.1486
  C  C947  1  0.257100  0.816700  0.638500  1.0  -0.1416
  C  C948  1  0.281500  0.839100  0.603900  1.0  -0.1414
  C  C949  1  0.481800  0.848400  0.499800  1.0  0.0356
  C  C950  1  0.466400  0.792400  0.533800  1.0  0.0094
  C  C951  1  0.494700  0.813900  0.465300  1.0  -0.0118
  C  C952  1  0.355300  0.912700  0.382100  1.0  -0.1368
  C  C953  1  0.138500  0.757100  0.816700  1.0  -0.1428
  C  C954  1  0.103900  0.781500  0.839100  1.0  -0.1458
  C  C955  1  0.999800  0.981800  0.848400  1.0  0.0342
  C  C956  1  0.033800  0.966400  0.792400  1.0  0.0053
  C  C957  1  0.965300  0.994700  0.813900  1.0  -0.01
  C  C958  1  0.882100  0.855300  0.912700  1.0  -0.1381
  C  C959  1  0.316700  0.287700  0.638500  1.0  -0.1407
  C  C960  1  0.339100  0.275500  0.603900  1.0  -0.1383
  C  C961  1  0.348400  0.170000  0.499800  1.0  0.0381
  C  C962  1  0.292400  0.207400  0.533800  1.0  0.0088
  C  C963  1  0.313900  0.226100  0.465300  1.0  -0.0111
  C  C964  1  0.412700  0.349900  0.382100  1.0  -0.1354
  C  C965  1  0.787700  0.816700  0.757100  1.0  -0.1431
  C  C966  1  0.775500  0.839100  0.781500  1.0  -0.1393
  C  C967  1  0.670000  0.848400  0.981800  1.0  0.0343
  C  C968  1  0.707400  0.792400  0.966400  1.0  0.0085
  C  C969  1  0.726100  0.813900  0.994700  1.0  -0.008
  C  C970  1  0.849900  0.912700  0.855300  1.0  -0.1375
  C  C971  1  0.257100  0.638500  0.287700  1.0  -0.139
  C  C972  1  0.281500  0.603900  0.275500  1.0  -0.1392
  C  C973  1  0.481800  0.499800  0.170000  1.0  0.0341
  C  C974  1  0.466400  0.533800  0.207400  1.0  0.0042
  C  C975  1  0.494700  0.465300  0.226100  1.0  -0.0145
  C  C976  1  0.355300  0.382100  0.349900  1.0  -0.1403
  C  C977  1  0.683300  0.361500  0.712300  1.0  -0.1418
  C  C978  1  0.660900  0.396100  0.724500  1.0  -0.1444
  C  C979  1  0.651600  0.500200  0.830000  1.0  0.039
  C  C980  1  0.707600  0.466200  0.792600  1.0  0.0072
  C  C981  1  0.686100  0.534700  0.773900  1.0  -0.015
  C  C982  1  0.587300  0.617900  0.650100  1.0  -0.1342
  C  C983  1  0.861500  0.183300  0.242900  1.0  -0.1412
  C  C984  1  0.896100  0.160900  0.218500  1.0  -0.1417
  C  C985  1  0.000200  0.151600  0.018200  1.0  0.0346
  C  C986  1  0.966200  0.207600  0.033600  1.0  0.0103
  C  C987  1  0.034700  0.186100  0.005300  1.0  -0.0131
  C  C988  1  0.117900  0.087300  0.144700  1.0  -0.1346
  C  C989  1  0.742900  0.712300  0.361500  1.0  -0.1407
  C  C990  1  0.718500  0.724500  0.396100  1.0  -0.1452
  C  C991  1  0.518200  0.830000  0.500200  1.0  0.0377
  C  C992  1  0.533600  0.792600  0.466200  1.0  0.0079
  C  C993  1  0.505300  0.773900  0.534700  1.0  -0.0122
  C  C994  1  0.644700  0.650100  0.617900  1.0  -0.1424
  C  C995  1  0.212300  0.242900  0.183300  1.0  -0.1415
  C  C996  1  0.224500  0.218500  0.160900  1.0  -0.1406
  C  C997  1  0.330000  0.018200  0.151600  1.0  0.0386
  C  C998  1  0.292600  0.033600  0.207600  1.0  0.0046
  C  C999  1  0.273900  0.005300  0.186100  1.0  -0.0091
  C  C1000  1  0.150100  0.144700  0.087300  1.0  -0.1382
  C  C1001  1  0.212300  0.361500  0.242900  1.0  -0.1465
  C  C1002  1  0.224500  0.396100  0.218500  1.0  -0.146
  C  C1003  1  0.330000  0.500200  0.018200  1.0  0.0389
  C  C1004  1  0.292600  0.466200  0.033600  1.0  0.0074
  C  C1005  1  0.273900  0.534700  0.005300  1.0  -0.012
  C  C1006  1  0.150100  0.617900  0.144700  1.0  -0.1452
  C  C1007  1  0.742900  0.183300  0.712300  1.0  -0.1419
  C  C1008  1  0.718500  0.160900  0.724500  1.0  -0.1426
  C  C1009  1  0.518200  0.151600  0.830000  1.0  0.0353
  C  C1010  1  0.533600  0.207600  0.792600  1.0  0.0124
  C  C1011  1  0.505300  0.186100  0.773900  1.0  -0.0114
  C  C1012  1  0.644700  0.087300  0.650100  1.0  -0.1355
  C  C1013  1  0.861500  0.712300  0.183300  1.0  -0.1423
  C  C1014  1  0.896100  0.724500  0.160900  1.0  -0.1431
  C  C1015  1  0.000200  0.830000  0.151600  1.0  0.0379
  C  C1016  1  0.966200  0.792600  0.207600  1.0  0.0086
  C  C1017  1  0.034700  0.773900  0.186100  1.0  -0.0117
  C  C1018  1  0.117900  0.650100  0.087300  1.0  -0.1455
  C  C1019  1  0.683300  0.242900  0.361500  1.0  -0.1429
  C  C1020  1  0.660900  0.218500  0.396100  1.0  -0.1421
  C  C1021  1  0.651600  0.018200  0.500200  1.0  0.0373
  C  C1022  1  0.707600  0.033600  0.466200  1.0  0.0086
  C  C1023  1  0.686100  0.005300  0.534700  1.0  -0.0112
  C  C1024  1  0.587300  0.144700  0.617900  1.0  -0.1356
  C  C1025  1  0.742900  0.361500  0.183300  1.0  -0.142
  C  C1026  1  0.718500  0.396100  0.160900  1.0  -0.14
  C  C1027  1  0.518200  0.500200  0.151600  1.0  0.0377
  C  C1028  1  0.533600  0.466200  0.207600  1.0  0.0047
  C  C1029  1  0.505300  0.534700  0.186100  1.0  -0.0166
  C  C1030  1  0.644700  0.617900  0.087300  1.0  -0.1401
  C  C1031  1  0.212300  0.183300  0.361500  1.0  -0.1426
  C  C1032  1  0.224500  0.160900  0.396100  1.0  -0.1402
  C  C1033  1  0.330000  0.151600  0.500200  1.0  0.0348
  C  C1034  1  0.292600  0.207600  0.466200  1.0  0.0122
  C  C1035  1  0.273900  0.186100  0.534700  1.0  -0.0089
  C  C1036  1  0.150100  0.087300  0.617900  1.0  -0.139
  C  C1037  1  0.683300  0.712300  0.242900  1.0  -0.1413
  C  C1038  1  0.660900  0.724500  0.218500  1.0  -0.1402
  C  C1039  1  0.651600  0.830000  0.018200  1.0  0.0357
  C  C1040  1  0.707600  0.792600  0.033600  1.0  0.0103
  C  C1041  1  0.686100  0.773900  0.005300  1.0  -0.0096
  C  C1042  1  0.587300  0.650100  0.144700  1.0  -0.1374
  C  C1043  1  0.861500  0.242900  0.712300  1.0  -0.1454
  C  C1044  1  0.896100  0.218500  0.724500  1.0  -0.1449
  C  C1045  1  0.000200  0.018200  0.830000  1.0  0.0331
  C  C1046  1  0.966200  0.033600  0.792600  1.0  0.0096
  C  C1047  1  0.034700  0.005300  0.773900  1.0  -0.0124
  C  C1048  1  0.117900  0.144700  0.650100  1.0  -0.1409
  C  C1049  1  0.861500  0.183300  0.712300  1.0  -0.1408
  C  C1050  1  0.896100  0.160900  0.724500  1.0  -0.1413
  C  C1051  1  0.000200  0.151600  0.830000  1.0  0.0361
  C  C1052  1  0.966200  0.207600  0.792600  1.0  0.0099
  C  C1053  1  0.034700  0.186100  0.773900  1.0  -0.0117
  C  C1054  1  0.117900  0.087300  0.650100  1.0  -0.135
  C  C1055  1  0.683300  0.361500  0.242900  1.0  -0.1412
  C  C1056  1  0.660900  0.396100  0.218500  1.0  -0.1436
  C  C1057  1  0.651600  0.500200  0.018200  1.0  0.0393
  C  C1058  1  0.707600  0.466200  0.033600  1.0  0.0047
  C  C1059  1  0.686100  0.534700  0.005300  1.0  -0.0174
  C  C1060  1  0.587300  0.617900  0.144700  1.0  -0.1341
  C  C1061  1  0.212300  0.242900  0.361500  1.0  -0.1421
  C  C1062  1  0.224500  0.218500  0.396100  1.0  -0.1424
  C  C1063  1  0.330000  0.018200  0.500200  1.0  0.0369
  C  C1064  1  0.292600  0.033600  0.466200  1.0  0.0075
  C  C1065  1  0.273900  0.005300  0.534700  1.0  -0.0101
  C  C1066  1  0.150100  0.144700  0.617900  1.0  -0.1402
  C  C1067  1  0.742900  0.712300  0.183300  1.0  -0.1405
  C  C1068  1  0.718500  0.724500  0.160900  1.0  -0.1438
  C  C1069  1  0.518200  0.830000  0.151600  1.0  0.0388
  C  C1070  1  0.533600  0.792600  0.207600  1.0  0.0042
  C  C1071  1  0.505300  0.773900  0.186100  1.0  -0.0119
  C  C1072  1  0.644700  0.650100  0.087300  1.0  -0.1405
  C  C1073  1  0.861500  0.712300  0.242900  1.0  -0.1451
  C  C1074  1  0.896100  0.724500  0.218500  1.0  -0.1486
  C  C1075  1  0.000200  0.830000  0.018200  1.0  0.0353
  C  C1076  1  0.966200  0.792600  0.033600  1.0  0.0076
  C  C1077  1  0.034700  0.773900  0.005300  1.0  -0.0114
  C  C1078  1  0.117900  0.650100  0.144700  1.0  -0.1474
  C  C1079  1  0.683300  0.242900  0.712300  1.0  -0.1463
  C  C1080  1  0.660900  0.218500  0.724500  1.0  -0.142
  C  C1081  1  0.651600  0.018200  0.830000  1.0  0.0385
  C  C1082  1  0.707600  0.033600  0.792600  1.0  0.0082
  C  C1083  1  0.686100  0.005300  0.773900  1.0  -0.0119
  C  C1084  1  0.587300  0.144700  0.650100  1.0  -0.1373
  C  C1085  1  0.212300  0.361500  0.183300  1.0  -0.1459
  C  C1086  1  0.224500  0.396100  0.160900  1.0  -0.1403
  C  C1087  1  0.330000  0.500200  0.151600  1.0  0.0413
  C  C1088  1  0.292600  0.466200  0.207600  1.0  0.0067
  C  C1089  1  0.273900  0.534700  0.186100  1.0  -0.0123
  C  C1090  1  0.150100  0.617900  0.087300  1.0  -0.1456
  C  C1091  1  0.742900  0.183300  0.361500  1.0  -0.1399
  C  C1092  1  0.718500  0.160900  0.396100  1.0  -0.1424
  C  C1093  1  0.518200  0.151600  0.500200  1.0  0.0333
  C  C1094  1  0.533600  0.207600  0.466200  1.0  0.0102
  C  C1095  1  0.505300  0.186100  0.534700  1.0  -0.01
  C  C1096  1  0.644700  0.087300  0.617900  1.0  -0.1362
  C  C1097  1  0.861500  0.242900  0.183300  1.0  -0.1421
  C  C1098  1  0.896100  0.218500  0.160900  1.0  -0.1417
  C  C1099  1  0.000200  0.018200  0.151600  1.0  0.0353
  C  C1100  1  0.966200  0.033600  0.207600  1.0  0.0062
  C  C1101  1  0.034700  0.005300  0.186100  1.0  -0.0115
  C  C1102  1  0.117900  0.144700  0.087300  1.0  -0.1403
  C  C1103  1  0.683300  0.712300  0.361500  1.0  -0.1391
  C  C1104  1  0.660900  0.724500  0.396100  1.0  -0.1401
  C  C1105  1  0.651600  0.830000  0.500200  1.0  0.0364
  C  C1106  1  0.707600  0.792600  0.466200  1.0  0.0089
  C  C1107  1  0.686100  0.773900  0.534700  1.0  -0.0112
  C  C1108  1  0.587300  0.650100  0.617900  1.0  -0.137
  C  C1109  1  0.212300  0.183300  0.242900  1.0  -0.1452
  C  C1110  1  0.224500  0.160900  0.218500  1.0  -0.1405
  C  C1111  1  0.330000  0.151600  0.018200  1.0  0.0344
  C  C1112  1  0.292600  0.207600  0.033600  1.0  0.009
  C  C1113  1  0.273900  0.186100  0.005300  1.0  -0.0073
  C  C1114  1  0.150100  0.087300  0.144700  1.0  -0.1375
  C  C1115  1  0.742900  0.361500  0.712300  1.0  -0.1408
  C  C1116  1  0.718500  0.396100  0.724500  1.0  -0.1447
  C  C1117  1  0.518200  0.500200  0.830000  1.0  0.0353
  C  C1118  1  0.533600  0.466200  0.792600  1.0  0.0033
  C  C1119  1  0.505300  0.534700  0.773900  1.0  -0.0173
  C  C1120  1  0.644700  0.617900  0.650100  1.0  -0.1382
  C  C1121  1  0.316700  0.638500  0.287700  1.0  -0.1424
  C  C1122  1  0.339100  0.603900  0.275500  1.0  -0.142
  C  C1123  1  0.348400  0.499800  0.170000  1.0  0.042
  C  C1124  1  0.292400  0.533800  0.207400  1.0  0.006
  C  C1125  1  0.313900  0.465300  0.226100  1.0  -0.0145
  C  C1126  1  0.412700  0.382100  0.349900  1.0  -0.1358
  C  C1127  1  0.138500  0.816700  0.757100  1.0  -0.1409
  C  C1128  1  0.103900  0.839100  0.781500  1.0  -0.1412
  C  C1129  1  0.999800  0.848400  0.981800  1.0  0.0358
  C  C1130  1  0.033800  0.792400  0.966400  1.0  0.0088
  C  C1131  1  0.965300  0.813900  0.994700  1.0  -0.0106
  C  C1132  1  0.882100  0.912700  0.855300  1.0  -0.1349
  C  C1133  1  0.257100  0.287700  0.638500  1.0  -0.1416
  C  C1134  1  0.281500  0.275500  0.603900  1.0  -0.1431
  C  C1135  1  0.481800  0.170000  0.499800  1.0  0.0356
  C  C1136  1  0.466400  0.207400  0.533800  1.0  0.0081
  C  C1137  1  0.494700  0.226100  0.465300  1.0  -0.013
  C  C1138  1  0.355300  0.349900  0.382100  1.0  -0.1381
  C  C1139  1  0.787700  0.757100  0.816700  1.0  -0.1398
  C  C1140  1  0.775500  0.781500  0.839100  1.0  -0.143
  C  C1141  1  0.670000  0.981800  0.848400  1.0  0.0361
  C  C1142  1  0.707400  0.966400  0.792400  1.0  0.0082
  C  C1143  1  0.726100  0.994700  0.813900  1.0  -0.011
  C  C1144  1  0.849900  0.855300  0.912700  1.0  -0.1365
  C  C1145  1  0.787700  0.638500  0.757100  1.0  -0.143
  C  C1146  1  0.775500  0.603900  0.781500  1.0  -0.1425
  C  C1147  1  0.670000  0.499800  0.981800  1.0  0.0401
  C  C1148  1  0.707400  0.533800  0.966400  1.0  0.0067
  C  C1149  1  0.726100  0.465300  0.994700  1.0  -0.0139
  C  C1150  1  0.849900  0.382100  0.855300  1.0  -0.1462
  C  C1151  1  0.257100  0.816700  0.287700  1.0  -0.1399
  C  C1152  1  0.281500  0.839100  0.275500  1.0  -0.1402
  C  C1153  1  0.481800  0.848400  0.170000  1.0  0.0343
  C  C1154  1  0.466400  0.792400  0.207400  1.0  0.0097
  C  C1155  1  0.494700  0.813900  0.226100  1.0  -0.0106
  C  C1156  1  0.355300  0.912700  0.349900  1.0  -0.1355
  C  C1157  1  0.138500  0.287700  0.816700  1.0  -0.1455
  C  C1158  1  0.103900  0.275500  0.839100  1.0  -0.1479
  C  C1159  1  0.999800  0.170000  0.848400  1.0  0.0342
  C  C1160  1  0.033800  0.207400  0.792400  1.0  0.0065
  C  C1161  1  0.965300  0.226100  0.813900  1.0  -0.0105
  C  C1162  1  0.882100  0.349900  0.912700  1.0  -0.1459
  C  C1163  1  0.316700  0.757100  0.638500  1.0  -0.144
  C  C1164  1  0.339100  0.781500  0.603900  1.0  -0.1401
  C  C1165  1  0.348400  0.981800  0.499800  1.0  0.0393
  C  C1166  1  0.292400  0.966400  0.533800  1.0  0.012
  C  C1167  1  0.313900  0.994700  0.465300  1.0  -0.0123
  C  C1168  1  0.412700  0.855300  0.382100  1.0  -0.133
  C  C1169  1  0.257100  0.638500  0.816700  1.0  -0.1414
  C  C1170  1  0.281500  0.603900  0.839100  1.0  -0.1429
  C  C1171  1  0.481800  0.499800  0.848400  1.0  0.0346
  C  C1172  1  0.466400  0.533800  0.792400  1.0  0.0083
  C  C1173  1  0.494700  0.465300  0.813900  1.0  -0.0149
  C  C1174  1  0.355300  0.382100  0.912700  1.0  -0.1413
  C  C1175  1  0.787700  0.816700  0.638500  1.0  -0.1463
  C  C1176  1  0.775500  0.839100  0.603900  1.0  -0.1395
  C  C1177  1  0.670000  0.848400  0.499800  1.0  0.0344
  C  C1178  1  0.707400  0.792400  0.533800  1.0  0.0088
  C  C1179  1  0.726100  0.813900  0.465300  1.0  -0.0063
  C  C1180  1  0.849900  0.912700  0.382100  1.0  -0.1391
  C  C1181  1  0.316700  0.287700  0.757100  1.0  -0.1394
  C  C1182  1  0.339100  0.275500  0.781500  1.0  -0.1386
  C  C1183  1  0.348400  0.170000  0.981800  1.0  0.0379
  C  C1184  1  0.292400  0.207400  0.966400  1.0  0.0123
  C  C1185  1  0.313900  0.226100  0.994700  1.0  -0.0135
  C  C1186  1  0.412700  0.349900  0.855300  1.0  -0.1366
  C  C1187  1  0.138500  0.757100  0.287700  1.0  -0.1436
  C  C1188  1  0.103900  0.781500  0.275500  1.0  -0.1401
  C  C1189  1  0.999800  0.981800  0.170000  1.0  0.0346
  C  C1190  1  0.033800  0.966400  0.207400  1.0  0.0078
  C  C1191  1  0.965300  0.994700  0.226100  1.0  -0.0098
  C  C1192  1  0.882100  0.855300  0.349900  1.0  -0.1396
  C  C1193  1  0.183700  0.683700  0.504100  1.0  -0.043
  C  C1194  1  0.197900  0.697900  0.460500  1.0  -0.0057
  C  C1195  1  0.183700  0.683700  0.628500  1.0  -0.0395
  C  C1196  1  0.197900  0.697900  0.643700  1.0  -0.0053
  C  C1197  1  0.004100  0.628500  0.683700  1.0  -0.0418
  C  C1198  1  0.960500  0.643700  0.697900  1.0  -0.0071
  C  C1199  1  0.128500  0.504100  0.683700  1.0  -0.0404
  C  C1200  1  0.143700  0.460500  0.697900  1.0  -0.0088
  C  C1201  1  0.183700  0.504100  0.628500  1.0  -0.0422
  C  C1202  1  0.197900  0.460500  0.643700  1.0  -0.0075
  C  C1203  1  0.183700  0.628500  0.504100  1.0  -0.0425
  C  C1204  1  0.197900  0.643700  0.460500  1.0  -0.0102
  C  C1205  1  0.004100  0.683700  0.683700  1.0  -0.0431
  C  C1206  1  0.960500  0.697900  0.697900  1.0  -0.0129
  C  C1207  1  0.128500  0.683700  0.683700  1.0  -0.0415
  C  C1208  1  0.143700  0.697900  0.697900  1.0  -0.0134
  C  C1209  1  0.183700  0.628500  0.683700  1.0  -0.0431
  C  C1210  1  0.197900  0.643700  0.697900  1.0  -0.0113
  C  C1211  1  0.183700  0.504100  0.683700  1.0  -0.0446
  C  C1212  1  0.197900  0.460500  0.697900  1.0  -0.0087
  C  C1213  1  0.004100  0.683700  0.628500  1.0  -0.0397
  C  C1214  1  0.960500  0.697900  0.643700  1.0  -0.0096
  C  C1215  1  0.128500  0.683700  0.504100  1.0  -0.0411
  C  C1216  1  0.143700  0.697900  0.460500  1.0  -0.0101
  C  C1217  1  0.816300  0.316300  0.495900  1.0  -0.0372
  C  C1218  1  0.802100  0.302100  0.539500  1.0  -0.0057
  C  C1219  1  0.816300  0.316300  0.371500  1.0  -0.0437
  C  C1220  1  0.802100  0.302100  0.356300  1.0  -0.0052
  C  C1221  1  0.871500  0.495900  0.316300  1.0  -0.0387
  C  C1222  1  0.856300  0.539500  0.302100  1.0  -0.0081
  C  C1223  1  0.995900  0.371500  0.316300  1.0  -0.0413
  C  C1224  1  0.039500  0.356300  0.302100  1.0  -0.0076
  C  C1225  1  0.995900  0.316300  0.371500  1.0  -0.0441
  C  C1226  1  0.039500  0.302100  0.356300  1.0  -0.0102
  C  C1227  1  0.871500  0.316300  0.495900  1.0  -0.0384
  C  C1228  1  0.856300  0.302100  0.539500  1.0  -0.0103
  C  C1229  1  0.816300  0.495900  0.316300  1.0  -0.0414
  C  C1230  1  0.802100  0.539500  0.302100  1.0  -0.0097
  C  C1231  1  0.816300  0.371500  0.316300  1.0  -0.043
  C  C1232  1  0.802100  0.356300  0.302100  1.0  -0.0114
  C  C1233  1  0.871500  0.316300  0.316300  1.0  -0.0369
  C  C1234  1  0.856300  0.302100  0.302100  1.0  -0.0085
  C  C1235  1  0.995900  0.316300  0.316300  1.0  -0.0396
  C  C1236  1  0.039500  0.302100  0.302100  1.0  -0.0092
  C  C1237  1  0.816300  0.495900  0.371500  1.0  -0.0448
  C  C1238  1  0.802100  0.539500  0.356300  1.0  -0.0103
  C  C1239  1  0.816300  0.371500  0.495900  1.0  -0.0436
  C  C1240  1  0.802100  0.356300  0.539500  1.0  -0.0138
  C  C1241  1  0.101900  0.775900  0.346300  1.0  -0.1726
  C  C1242  1  0.067400  0.801000  0.330600  1.0  -0.0913
  C  C1243  1  0.275900  0.601900  0.775900  1.0  -0.1698
  C  C1244  1  0.301000  0.567400  0.801000  1.0  -0.0891
  C  C1245  1  0.846300  0.775900  0.601900  1.0  -0.1703
  C  C1246  1  0.830600  0.801000  0.567400  1.0  -0.0863
  C  C1247  1  0.275900  0.346300  0.775900  1.0  -0.1696
  C  C1248  1  0.301000  0.330600  0.801000  1.0  -0.0926
  C  C1249  1  0.101900  0.346300  0.775900  1.0  -0.1686
  C  C1250  1  0.067400  0.330600  0.801000  1.0  -0.0871
  C  C1251  1  0.275900  0.775900  0.346300  1.0  -0.1725
  C  C1252  1  0.301000  0.801000  0.330600  1.0  -0.0925
  C  C1253  1  0.846300  0.601900  0.775900  1.0  -0.168
  C  C1254  1  0.830600  0.567400  0.801000  1.0  -0.0864
  C  C1255  1  0.275900  0.775900  0.601900  1.0  -0.1703
  C  C1256  1  0.301000  0.801000  0.567400  1.0  -0.0874
  C  C1257  1  0.101900  0.775900  0.775900  1.0  -0.1726
  C  C1258  1  0.067400  0.801000  0.801000  1.0  -0.0888
  C  C1259  1  0.275900  0.346300  0.601900  1.0  -0.1696
  C  C1260  1  0.301000  0.330600  0.567400  1.0  -0.0919
  C  C1261  1  0.846300  0.775900  0.775900  1.0  -0.1709
  C  C1262  1  0.830600  0.801000  0.801000  1.0  -0.0878
  C  C1263  1  0.275900  0.601900  0.346300  1.0  -0.1703
  C  C1264  1  0.301000  0.567400  0.330600  1.0  -0.0898
  C  C1265  1  0.724100  0.398100  0.653700  1.0  -0.1697
  C  C1266  1  0.699000  0.432600  0.669400  1.0  -0.0872
  C  C1267  1  0.898100  0.224100  0.224100  1.0  -0.174
  C  C1268  1  0.932600  0.199000  0.199000  1.0  -0.0892
  C  C1269  1  0.724100  0.653700  0.398100  1.0  -0.1713
  C  C1270  1  0.699000  0.669400  0.432600  1.0  -0.0921
  C  C1271  1  0.153700  0.224100  0.224100  1.0  -0.1748
  C  C1272  1  0.169400  0.199000  0.199000  1.0  -0.0889
  C  C1273  1  0.153700  0.398100  0.224100  1.0  -0.1731
  C  C1274  1  0.169400  0.432600  0.199000  1.0  -0.0866
  C  C1275  1  0.724100  0.224100  0.653700  1.0  -0.1697
  C  C1276  1  0.699000  0.199000  0.669400  1.0  -0.0876
  C  C1277  1  0.898100  0.653700  0.224100  1.0  -0.1706
  C  C1278  1  0.932600  0.669400  0.199000  1.0  -0.086
  C  C1279  1  0.724100  0.224100  0.398100  1.0  -0.1724
  C  C1280  1  0.699000  0.199000  0.432600  1.0  -0.0938
  C  C1281  1  0.724100  0.398100  0.224100  1.0  -0.1693
  C  C1282  1  0.699000  0.432600  0.199000  1.0  -0.0889
  C  C1283  1  0.153700  0.224100  0.398100  1.0  -0.1737
  C  C1284  1  0.169400  0.199000  0.432600  1.0  -0.0896
  C  C1285  1  0.724100  0.653700  0.224100  1.0  -0.1707
  C  C1286  1  0.699000  0.669400  0.199000  1.0  -0.0916
  C  C1287  1  0.898100  0.224100  0.653700  1.0  -0.1749
  C  C1288  1  0.932600  0.199000  0.669400  1.0  -0.089
  I  I1289  1  0.993060  0.799040  0.307940  1.0  -0.2361
  I  I1290  1  0.299040  0.493060  0.899960  1.0  -0.2354
  I  I1291  1  0.807940  0.899960  0.493060  1.0  -0.2345
  I  I1292  1  0.399960  0.307940  0.799040  1.0  -0.2366
  I  I1293  1  0.993060  0.307940  0.899960  1.0  -0.2394
  I  I1294  1  0.299040  0.899960  0.307940  1.0  -0.2376
  I  I1295  1  0.807940  0.493060  0.799040  1.0  -0.2372
  I  I1296  1  0.399960  0.799040  0.493060  1.0  -0.241
  I  I1297  1  0.993060  0.899960  0.799040  1.0  -0.24
  I  I1298  1  0.299040  0.307940  0.493060  1.0  -0.2366
  I  I1299  1  0.807940  0.799040  0.899960  1.0  -0.2375
  I  I1300  1  0.399960  0.493060  0.307940  1.0  -0.2365
  I  I1301  1  0.700960  0.506940  0.692060  1.0  -0.2341
  I  I1302  1  0.006940  0.200960  0.100040  1.0  -0.2365
  I  I1303  1  0.600040  0.692060  0.506940  1.0  -0.2368
  I  I1304  1  0.192060  0.100040  0.200960  1.0  -0.2342
  I  I1305  1  0.192060  0.506940  0.100040  1.0  -0.2385
  I  I1306  1  0.600040  0.200960  0.692060  1.0  -0.2419
  I  I1307  1  0.006940  0.692060  0.200960  1.0  -0.2404
  I  I1308  1  0.700960  0.100040  0.506940  1.0  -0.2381
  I  I1309  1  0.600040  0.506940  0.200960  1.0  -0.2372
  I  I1310  1  0.192060  0.200960  0.506940  1.0  -0.2366
  I  I1311  1  0.700960  0.692060  0.100040  1.0  -0.2367
  I  I1312  1  0.006940  0.100040  0.692060  1.0  -0.2391
  I  I1313  1  0.006940  0.200960  0.692060  1.0  -0.2375
  I  I1314  1  0.700960  0.506940  0.100040  1.0  -0.234
  I  I1315  1  0.192060  0.100040  0.506940  1.0  -0.2354
  I  I1316  1  0.600040  0.692060  0.200960  1.0  -0.2361
  I  I1317  1  0.006940  0.692060  0.100040  1.0  -0.2395
  I  I1318  1  0.700960  0.100040  0.692060  1.0  -0.2395
  I  I1319  1  0.192060  0.506940  0.200960  1.0  -0.2364
  I  I1320  1  0.600040  0.200960  0.506940  1.0  -0.2406
  I  I1321  1  0.006940  0.100040  0.200960  1.0  -0.2369
  I  I1322  1  0.700960  0.692060  0.506940  1.0  -0.2369
  I  I1323  1  0.192060  0.200960  0.100040  1.0  -0.2369
  I  I1324  1  0.600040  0.506940  0.692060  1.0  -0.2395
  I  I1325  1  0.299040  0.493060  0.307940  1.0  -0.2337
  I  I1326  1  0.993060  0.799040  0.899960  1.0  -0.2363
  I  I1327  1  0.399960  0.307940  0.493060  1.0  -0.2362
  I  I1328  1  0.807940  0.899960  0.799040  1.0  -0.2344
  I  I1329  1  0.807940  0.493060  0.899960  1.0  -0.2379
  I  I1330  1  0.399960  0.799040  0.307940  1.0  -0.2412
  I  I1331  1  0.993060  0.307940  0.799040  1.0  -0.2407
  I  I1332  1  0.299040  0.899960  0.493060  1.0  -0.24
  I  I1333  1  0.399960  0.493060  0.799040  1.0  -0.238
  I  I1334  1  0.807940  0.799040  0.493060  1.0  -0.2384
  I  I1335  1  0.299040  0.307940  0.899960  1.0  -0.2358
  I  I1336  1  0.993060  0.899960  0.307940  1.0  -0.2371
  I  I1337  1  0.099310  0.702070  0.599310  1.0  -0.2549
  I  I1338  1  0.202070  0.599310  0.599310  1.0  -0.2582
  I  I1339  1  0.099310  0.599310  0.599310  1.0  -0.2622
  I  I1340  1  0.099310  0.599310  0.702070  1.0  -0.2536
  I  I1341  1  0.797930  0.400690  0.400690  1.0  -0.2605
  I  I1342  1  0.900690  0.297930  0.400690  1.0  -0.2546
  I  I1343  1  0.900690  0.400690  0.400690  1.0  -0.2605
  I  I1344  1  0.900690  0.400690  0.297930  1.0  -0.2543
  I  I1345  1  0.243390  0.743390  0.269830  1.0  -0.2554
  I  I1346  1  0.243390  0.743390  0.743390  1.0  -0.2546
  I  I1347  1  0.769830  0.743390  0.743390  1.0  -0.2541
  I  I1348  1  0.243390  0.269830  0.743390  1.0  -0.254
  I  I1349  1  0.756610  0.256610  0.730170  1.0  -0.2552
  I  I1350  1  0.756610  0.256610  0.256610  1.0  -0.2542
  I  I1351  1  0.756610  0.730170  0.256610  1.0  -0.2542
  I  I1352  1  0.230170  0.256610  0.256610  1.0  -0.2522
  I  I1353  1  0.174790  0.777870  0.372550  1.0  -0.246
  I  I1354  1  0.277870  0.674790  0.674790  1.0  -0.2476
  I  I1355  1  0.872550  0.674790  0.674790  1.0  -0.2489
  I  I1356  1  0.174790  0.372550  0.777870  1.0  -0.2459
  I  I1357  1  0.174790  0.372550  0.674790  1.0  -0.2479
  I  I1358  1  0.277870  0.674790  0.372550  1.0  -0.2481
  I  I1359  1  0.872550  0.674790  0.777870  1.0  -0.2479
  I  I1360  1  0.174790  0.777870  0.674790  1.0  -0.2451
  I  I1361  1  0.174790  0.674790  0.777870  1.0  -0.2456
  I  I1362  1  0.277870  0.372550  0.674790  1.0  -0.2474
  I  I1363  1  0.872550  0.777870  0.674790  1.0  -0.2462
  I  I1364  1  0.174790  0.674790  0.372550  1.0  -0.2487
  I  I1365  1  0.722130  0.325210  0.627450  1.0  -0.2473
  I  I1366  1  0.825210  0.222130  0.325210  1.0  -0.2455
  I  I1367  1  0.825210  0.627450  0.325210  1.0  -0.2497
  I  I1368  1  0.127450  0.325210  0.222130  1.0  -0.2478
  I  I1369  1  0.127450  0.325210  0.325210  1.0  -0.2513
  I  I1370  1  0.825210  0.222130  0.627450  1.0  -0.2447
  I  I1371  1  0.825210  0.627450  0.222130  1.0  -0.2459
  I  I1372  1  0.722130  0.325210  0.325210  1.0  -0.2484
  I  I1373  1  0.825210  0.325210  0.222130  1.0  -0.2445
  I  I1374  1  0.127450  0.222130  0.325210  1.0  -0.2464
  I  I1375  1  0.722130  0.627450  0.325210  1.0  -0.2489
  I  I1376  1  0.825210  0.325210  0.627450  1.0  -0.2481
  I  I1377  1  0.058200  0.869920  0.201960  1.0  -0.2591
  I  I1378  1  0.933570  0.912630  0.241170  1.0  -0.2441
  I  I1379  1  0.369920  0.558200  0.869920  1.0  -0.2622
  I  I1380  1  0.412630  0.433570  0.912630  1.0  -0.2452
  I  I1381  1  0.701960  0.869920  0.558200  1.0  -0.2597
  I  I1382  1  0.741170  0.912630  0.433570  1.0  -0.2456
  I  I1383  1  0.369920  0.201960  0.869920  1.0  -0.2627
  I  I1384  1  0.412630  0.241170  0.912630  1.0  -0.2434
  I  I1385  1  0.058200  0.201960  0.869920  1.0  -0.2618
  I  I1386  1  0.933570  0.241170  0.912630  1.0  -0.2449
  I  I1387  1  0.369920  0.869920  0.201960  1.0  -0.2628
  I  I1388  1  0.412630  0.912630  0.241170  1.0  -0.2447
  I  I1389  1  0.701960  0.558200  0.869920  1.0  -0.2614
  I  I1390  1  0.741170  0.433570  0.912630  1.0  -0.245
  I  I1391  1  0.369920  0.869920  0.558200  1.0  -0.26
  I  I1392  1  0.412630  0.912630  0.433570  1.0  -0.2443
  I  I1393  1  0.058200  0.869920  0.869920  1.0  -0.2595
  I  I1394  1  0.933570  0.912630  0.912630  1.0  -0.2455
  I  I1395  1  0.369920  0.201960  0.558200  1.0  -0.2626
  I  I1396  1  0.412630  0.241170  0.433570  1.0  -0.249
  I  I1397  1  0.701960  0.869920  0.869920  1.0  -0.2601
  I  I1398  1  0.741170  0.912630  0.912630  1.0  -0.2469
  I  I1399  1  0.369920  0.558200  0.201960  1.0  -0.2615
  I  I1400  1  0.412630  0.433570  0.241170  1.0  -0.2504
  I  I1401  1  0.630080  0.441800  0.798040  1.0  -0.2639
  I  I1402  1  0.587370  0.566430  0.758830  1.0  -0.25
  I  I1403  1  0.941800  0.130080  0.130080  1.0  -0.2603
  I  I1404  1  0.066430  0.087370  0.087370  1.0  -0.2469
  I  I1405  1  0.630080  0.798040  0.441800  1.0  -0.2617
  I  I1406  1  0.587370  0.758830  0.566430  1.0  -0.2483
  I  I1407  1  0.298040  0.130080  0.130080  1.0  -0.259
  I  I1408  1  0.258830  0.087370  0.087370  1.0  -0.2479
  I  I1409  1  0.298040  0.441800  0.130080  1.0  -0.2625
  I  I1410  1  0.258830  0.566430  0.087370  1.0  -0.2455
  I  I1411  1  0.630080  0.130080  0.798040  1.0  -0.2606
  I  I1412  1  0.587370  0.087370  0.758830  1.0  -0.2443
  I  I1413  1  0.941800  0.798040  0.130080  1.0  -0.262
  I  I1414  1  0.066430  0.758830  0.087370  1.0  -0.2442
  I  I1415  1  0.630080  0.130080  0.441800  1.0  -0.2628
  I  I1416  1  0.587370  0.087370  0.566430  1.0  -0.2441
  I  I1417  1  0.630080  0.441800  0.130080  1.0  -0.2625
  I  I1418  1  0.587370  0.566430  0.087370  1.0  -0.2457
  I  I1419  1  0.298040  0.130080  0.441800  1.0  -0.2592
  I  I1420  1  0.258830  0.087370  0.566430  1.0  -0.244
  I  I1421  1  0.630080  0.798040  0.130080  1.0  -0.2612
  I  I1422  1  0.587370  0.758830  0.087370  1.0  -0.2433
  I  I1423  1  0.941800  0.130080  0.798040  1.0  -0.2609
  I  I1424  1  0.066430  0.087370  0.758830  1.0  -0.2437
  N  N1425  1  0.998300  0.825900  0.207900  1.0  -0.1465
  N  N1426  1  0.325900  0.498300  0.967900  1.0  -0.1449
  N  N1427  1  0.707900  0.967900  0.498300  1.0  -0.1469
  N  N1428  1  0.467900  0.207900  0.825900  1.0  -0.1394
  N  N1429  1  0.998300  0.207900  0.967900  1.0  -0.1403
  N  N1430  1  0.325900  0.967900  0.207900  1.0  -0.1469
  N  N1431  1  0.707900  0.498300  0.825900  1.0  -0.1451
  N  N1432  1  0.467900  0.825900  0.498300  1.0  -0.144
  N  N1433  1  0.998300  0.967900  0.825900  1.0  -0.1468
  N  N1434  1  0.325900  0.207900  0.498300  1.0  -0.1428
  N  N1435  1  0.707900  0.825900  0.967900  1.0  -0.1449
  N  N1436  1  0.467900  0.498300  0.207900  1.0  -0.1441
  N  N1437  1  0.674100  0.501700  0.792100  1.0  -0.1443
  N  N1438  1  0.001700  0.174100  0.032100  1.0  -0.1474
  N  N1439  1  0.532100  0.792100  0.501700  1.0  -0.1445
  N  N1440  1  0.292100  0.032100  0.174100  1.0  -0.1432
  N  N1441  1  0.292100  0.501700  0.032100  1.0  -0.1456
  N  N1442  1  0.532100  0.174100  0.792100  1.0  -0.1462
  N  N1443  1  0.001700  0.792100  0.174100  1.0  -0.1429
  N  N1444  1  0.674100  0.032100  0.501700  1.0  -0.1432
  N  N1445  1  0.532100  0.501700  0.174100  1.0  -0.1428
  N  N1446  1  0.292100  0.174100  0.501700  1.0  -0.1459
  N  N1447  1  0.674100  0.792100  0.032100  1.0  -0.1438
  N  N1448  1  0.001700  0.032100  0.792100  1.0  -0.1449
  N  N1449  1  0.001700  0.174100  0.792100  1.0  -0.1457
  N  N1450  1  0.674100  0.501700  0.032100  1.0  -0.1502
  N  N1451  1  0.292100  0.032100  0.501700  1.0  -0.1419
  N  N1452  1  0.532100  0.792100  0.174100  1.0  -0.1449
  N  N1453  1  0.001700  0.792100  0.032100  1.0  -0.142
  N  N1454  1  0.674100  0.032100  0.792100  1.0  -0.1442
  N  N1455  1  0.292100  0.501700  0.174100  1.0  -0.1442
  N  N1456  1  0.532100  0.174100  0.501700  1.0  -0.1456
  N  N1457  1  0.001700  0.032100  0.174100  1.0  -0.1447
  N  N1458  1  0.674100  0.792100  0.501700  1.0  -0.1455
  N  N1459  1  0.292100  0.174100  0.032100  1.0  -0.1443
  N  N1460  1  0.532100  0.501700  0.792100  1.0  -0.1431
  N  N1461  1  0.325900  0.498300  0.207900  1.0  -0.1492
  N  N1462  1  0.998300  0.825900  0.967900  1.0  -0.1419
  N  N1463  1  0.467900  0.207900  0.498300  1.0  -0.1405
  N  N1464  1  0.707900  0.967900  0.825900  1.0  -0.1464
  N  N1465  1  0.707900  0.498300  0.967900  1.0  -0.1441
  N  N1466  1  0.467900  0.825900  0.207900  1.0  -0.143
  N  N1467  1  0.998300  0.207900  0.825900  1.0  -0.1421
  N  N1468  1  0.325900  0.967900  0.498300  1.0  -0.1476
  N  N1469  1  0.467900  0.498300  0.825900  1.0  -0.144
  N  N1470  1  0.707900  0.825900  0.498300  1.0  -0.1439
  N  N1471  1  0.325900  0.207900  0.967900  1.0  -0.1441
  N  N1472  1  0.998300  0.967900  0.207900  1.0  -0.1468
  N  N1473  1  0.159400  0.659400  0.521800  1.0  -0.2659
  N  N1474  1  0.184000  0.684000  0.448000  1.0  -0.086
  N  N1475  1  0.159400  0.659400  0.659400  1.0  -0.2642
  N  N1476  1  0.184000  0.684000  0.684000  1.0  -0.085
  N  N1477  1  0.021800  0.659400  0.659400  1.0  -0.2648
  N  N1478  1  0.948000  0.684000  0.684000  1.0  -0.0844
  N  N1479  1  0.159400  0.521800  0.659400  1.0  -0.2674
  N  N1480  1  0.184000  0.448000  0.684000  1.0  -0.0876
  N  N1481  1  0.840600  0.340600  0.478200  1.0  -0.2617
  N  N1482  1  0.816000  0.316000  0.552000  1.0  -0.0849
  N  N1483  1  0.840600  0.340600  0.340600  1.0  -0.2641
  N  N1484  1  0.816000  0.316000  0.316000  1.0  -0.0851
  N  N1485  1  0.840600  0.478200  0.340600  1.0  -0.2711
  N  N1486  1  0.816000  0.552000  0.316000  1.0  -0.0861
  N  N1487  1  0.978200  0.340600  0.340600  1.0  -0.2625
  N  N1488  1  0.052000  0.316000  0.316000  1.0  -0.0841
  N  N1489  1  0.137300  0.775700  0.311300  1.0  -0.1803
  N  N1490  1  0.078900  0.815900  0.289300  1.0  -0.1545
  N  N1491  1  0.907400  0.872800  0.347000  1.0  -0.379
  N  N1492  1  0.275700  0.637300  0.775700  1.0  -0.1781
  N  N1493  1  0.315900  0.578900  0.815900  1.0  -0.1523
  N  N1494  1  0.372800  0.407400  0.872800  1.0  -0.3787
  N  N1495  1  0.811300  0.775700  0.637300  1.0  -0.1775
  N  N1496  1  0.789300  0.815900  0.578900  1.0  -0.1511
  N  N1497  1  0.847000  0.872800  0.407400  1.0  -0.3771
  N  N1498  1  0.275700  0.311300  0.775700  1.0  -0.1787
  N  N1499  1  0.315900  0.289300  0.815900  1.0  -0.152
  N  N1500  1  0.372800  0.347000  0.872800  1.0  -0.3764
  N  N1501  1  0.137300  0.311300  0.775700  1.0  -0.1785
  N  N1502  1  0.078900  0.289300  0.815900  1.0  -0.1556
  N  N1503  1  0.907400  0.347000  0.872800  1.0  -0.3742
  N  N1504  1  0.275700  0.775700  0.311300  1.0  -0.1792
  N  N1505  1  0.315900  0.815900  0.289300  1.0  -0.1521
  N  N1506  1  0.372800  0.872800  0.347000  1.0  -0.3829
  N  N1507  1  0.811300  0.637300  0.775700  1.0  -0.1783
  N  N1508  1  0.789300  0.578900  0.815900  1.0  -0.1555
  N  N1509  1  0.847000  0.407400  0.872800  1.0  -0.3775
  N  N1510  1  0.275700  0.775700  0.637300  1.0  -0.1791
  N  N1511  1  0.315900  0.815900  0.578900  1.0  -0.152
  N  N1512  1  0.372800  0.872800  0.407400  1.0  -0.3859
  N  N1513  1  0.137300  0.775700  0.775700  1.0  -0.1786
  N  N1514  1  0.078900  0.815900  0.815900  1.0  -0.1548
  N  N1515  1  0.907400  0.872800  0.872800  1.0  -0.3789
  N  N1516  1  0.275700  0.311300  0.637300  1.0  -0.1789
  N  N1517  1  0.315900  0.289300  0.578900  1.0  -0.1522
  N  N1518  1  0.372800  0.347000  0.407400  1.0  -0.3781
  N  N1519  1  0.811300  0.775700  0.775700  1.0  -0.1777
  N  N1520  1  0.789300  0.815900  0.815900  1.0  -0.1521
  N  N1521  1  0.847000  0.872800  0.872800  1.0  -0.3754
  N  N1522  1  0.275700  0.637300  0.311300  1.0  -0.1794
  N  N1523  1  0.315900  0.578900  0.289300  1.0  -0.1528
  N  N1524  1  0.372800  0.407400  0.347000  1.0  -0.3779
  N  N1525  1  0.724300  0.362700  0.688700  1.0  -0.1795
  N  N1526  1  0.684100  0.421100  0.710700  1.0  -0.1532
  N  N1527  1  0.627200  0.592600  0.653000  1.0  -0.3829
  N  N1528  1  0.862700  0.224300  0.224300  1.0  -0.1808
  N  N1529  1  0.921100  0.184100  0.184100  1.0  -0.152
  N  N1530  1  0.092600  0.127200  0.127200  1.0  -0.3795
  N  N1531  1  0.724300  0.688700  0.362700  1.0  -0.1769
  N  N1532  1  0.684100  0.710700  0.421100  1.0  -0.1546
  N  N1533  1  0.627200  0.653000  0.592600  1.0  -0.3764
  N  N1534  1  0.188700  0.224300  0.224300  1.0  -0.1782
  N  N1535  1  0.210700  0.184100  0.184100  1.0  -0.1511
  N  N1536  1  0.153000  0.127200  0.127200  1.0  -0.3757
  N  N1537  1  0.188700  0.362700  0.224300  1.0  -0.1802
  N  N1538  1  0.210700  0.421100  0.184100  1.0  -0.1533
  N  N1539  1  0.153000  0.592600  0.127200  1.0  -0.3824
  N  N1540  1  0.724300  0.224300  0.688700  1.0  -0.1789
  N  N1541  1  0.684100  0.184100  0.710700  1.0  -0.1547
  N  N1542  1  0.627200  0.127200  0.653000  1.0  -0.3831
  N  N1543  1  0.862700  0.688700  0.224300  1.0  -0.1796
  N  N1544  1  0.921100  0.710700  0.184100  1.0  -0.1528
  N  N1545  1  0.092600  0.653000  0.127200  1.0  -0.3775
  N  N1546  1  0.724300  0.224300  0.362700  1.0  -0.1777
  N  N1547  1  0.684100  0.184100  0.421100  1.0  -0.154
  N  N1548  1  0.627200  0.127200  0.592600  1.0  -0.3808
  N  N1549  1  0.724300  0.362700  0.224300  1.0  -0.1803
  N  N1550  1  0.684100  0.421100  0.184100  1.0  -0.1531
  N  N1551  1  0.627200  0.592600  0.127200  1.0  -0.3827
  N  N1552  1  0.188700  0.224300  0.362700  1.0  -0.1778
  N  N1553  1  0.210700  0.184100  0.421100  1.0  -0.1508
  N  N1554  1  0.153000  0.127200  0.592600  1.0  -0.3754
  N  N1555  1  0.724300  0.688700  0.224300  1.0  -0.1768
  N  N1556  1  0.684100  0.710700  0.184100  1.0  -0.1534
  N  N1557  1  0.627200  0.653000  0.127200  1.0  -0.3756
  N  N1558  1  0.862700  0.224300  0.688700  1.0  -0.1798
  N  N1559  1  0.921100  0.184100  0.710700  1.0  -0.1521
  N  N1560  1  0.092600  0.127200  0.653000  1.0  -0.3803
