# generated using pymatgen
data_Eu4H144C159(NO3)24
_symmetry_space_group_name_H-M   'P 1'
_cell_length_a   23.83300000
_cell_length_b   23.83300000
_cell_length_c   23.83300000
_cell_angle_alpha   109.47100000
_cell_angle_beta   109.47100000
_cell_angle_gamma   109.47100000
_symmetry_Int_Tables_number   1
_chemical_formula_structural   Eu4H144C159(NO3)24
_chemical_formula_sum   'Eu8 H288 C318 N48 O144'
_cell_volume   10421.20156019
_cell_formula_units_Z   2
loop_
 _symmetry_equiv_pos_site_id
 _symmetry_equiv_pos_as_xyz
  1  'x, y, z'
loop_
 _atom_site_type_symbol
 _atom_site_label
 _atom_site_symmetry_multiplicity
 _atom_site_fract_x
 _atom_site_fract_y
 _atom_site_fract_z
 _atom_site_occupancy
 _atom_site_charge
  Eu  Eu1  1  0.452340  0.452340  0.952340  1.0  2.031
  Eu  Eu2  1  0.000000  0.500000  0.547660  1.0  2.0269
  Eu  Eu3  1  0.500000  0.047660  0.500000  1.0  2.0264
  Eu  Eu4  1  0.047660  0.000000  0.000000  1.0  2.0282
  Eu  Eu5  1  0.000000  0.500000  0.047660  1.0  2.0268
  Eu  Eu6  1  0.952340  0.952340  0.452340  1.0  2.031
  Eu  Eu7  1  0.500000  0.547660  0.500000  1.0  2.0264
  Eu  Eu8  1  0.547660  0.000000  0.000000  1.0  2.0282
  H  H9  1  0.646000  0.500800  0.180800  1.0  0.236
  H  H10  1  0.701200  0.380600  0.221400  1.0  0.0788
  H  H11  1  0.630200  0.312500  0.166500  1.0  0.1102
  H  H12  1  0.673800  0.314900  0.104500  1.0  0.1237
  H  H13  1  0.690900  0.304200  0.009100  1.0  0.1153
  H  H14  1  0.659300  0.356400  0.952900  1.0  0.1054
  H  H15  1  0.607100  0.414500  0.983200  1.0  0.0728
  H  H16  1  0.618500  0.594700  0.175400  1.0  0.1021
  H  H17  1  0.542800  0.532800  0.135800  1.0  0.0965
  H  H18  1  0.519200  0.467700  0.211900  1.0  0.1417
  H  H19  1  0.547000  0.530100  0.334500  1.0  0.1548
  H  H20  1  0.650500  0.648700  0.392800  1.0  0.1482
  H  H21  1  0.820000  0.465200  0.319200  1.0  0.2354
  H  H22  1  0.659200  0.479800  0.278600  1.0  0.0755
  H  H23  1  0.646000  0.463700  0.333500  1.0  0.1089
  H  H24  1  0.710400  0.569300  0.395500  1.0  0.123
  H  H25  1  0.795100  0.681800  0.490900  1.0  0.1142
  H  H26  1  0.903500  0.706400  0.547100  1.0  0.1067
  H  H27  1  0.931300  0.623900  0.516800  1.0  0.074
  H  H28  1  0.919300  0.443100  0.324600  1.0  0.1014
  H  H29  1  0.897000  0.407000  0.364200  1.0  0.0965
  H  H30  1  0.755800  0.307300  0.288100  1.0  0.1433
  H  H31  1  0.695600  0.212500  0.165500  1.0  0.1551
  H  H32  1  0.755900  0.257700  0.107200  1.0  0.1483
  H  H33  1  0.680000  0.999200  0.645200  1.0  0.236
  H  H34  1  0.840800  0.119400  0.820600  1.0  0.0771
  H  H35  1  0.854000  0.187500  0.817700  1.0  0.1121
  H  H36  1  0.789600  0.185100  0.858900  1.0  0.1224
  H  H37  1  0.704900  0.195800  0.886700  1.0  0.1137
  H  H38  1  0.596500  0.143600  0.802900  1.0  0.1062
  H  H39  1  0.568700  0.085500  0.692600  1.0  0.0737
  H  H40  1  0.580700  0.905300  0.523800  1.0  0.1025
  H  H41  1  0.603000  0.967200  0.510000  1.0  0.095
  H  H42  1  0.744200  0.032300  0.551500  1.0  0.1423
  H  H43  1  0.804400  0.969900  0.516900  1.0  0.1543
  H  H44  1  0.744100  0.851300  0.501800  1.0  0.1492
  H  H45  1  0.854000  0.034800  0.854800  1.0  0.2361
  H  H46  1  0.798800  0.020200  0.679400  1.0  0.0762
  H  H47  1  0.869800  0.036300  0.682300  1.0  0.1072
  H  H48  1  0.826200  0.930700  0.641100  1.0  0.124
  H  H49  1  0.809100  0.818200  0.613300  1.0  0.1149
  H  H50  1  0.840700  0.793600  0.697100  1.0  0.1058
  H  H51  1  0.892900  0.876100  0.807400  1.0  0.0736
  H  H52  1  0.881500  0.056900  0.976200  1.0  0.1062
  H  H53  1  0.957200  0.093000  0.990000  1.0  0.0996
  H  H54  1  0.980800  0.192700  0.948500  1.0  0.1431
  H  H55  1  0.953000  0.287500  0.983100  1.0  0.1561
  H  H56  1  0.849500  0.242300  0.998200  1.0  0.1476
  H  H57  1  0.145200  0.680000  0.499200  1.0  0.2344
  H  H58  1  0.320600  0.840800  0.619400  1.0  0.0754
  H  H59  1  0.317700  0.854000  0.687500  1.0  0.1089
  H  H60  1  0.358900  0.789600  0.685100  1.0  0.1224
  H  H61  1  0.386700  0.704900  0.695800  1.0  0.1155
  H  H62  1  0.302900  0.596500  0.643600  1.0  0.1062
  H  H63  1  0.192600  0.568700  0.585500  1.0  0.0742
  H  H64  1  0.023800  0.580700  0.405300  1.0  0.1013
  H  H65  1  0.010000  0.603000  0.467200  1.0  0.0965
  H  H66  1  0.051500  0.744200  0.532300  1.0  0.1436
  H  H67  1  0.016900  0.804400  0.469900  1.0  0.1548
  H  H68  1  0.001800  0.744100  0.351300  1.0  0.1471
  H  H69  1  0.354800  0.854000  0.534800  1.0  0.2364
  H  H70  1  0.179400  0.798800  0.520200  1.0  0.0779
  H  H71  1  0.182300  0.869800  0.536300  1.0  0.1083
  H  H72  1  0.141100  0.826200  0.430700  1.0  0.1223
  H  H73  1  0.113300  0.809100  0.318200  1.0  0.1143
  H  H74  1  0.197100  0.840700  0.293600  1.0  0.1052
  H  H75  1  0.307400  0.892900  0.376100  1.0  0.0727
  H  H76  1  0.476200  0.881500  0.556900  1.0  0.1053
  H  H77  1  0.490000  0.957200  0.593000  1.0  0.0974
  H  H78  1  0.448500  0.980800  0.692700  1.0  0.1413
  H  H79  1  0.483100  0.953000  0.787500  1.0  0.1542
  H  H80  1  0.498200  0.849500  0.742300  1.0  0.1475
  H  H81  1  0.680800  0.646000  0.000800  1.0  0.2356
  H  H82  1  0.721400  0.701200  0.880600  1.0  0.0784
  H  H83  1  0.666500  0.630200  0.812500  1.0  0.1091
  H  H84  1  0.604500  0.673800  0.814900  1.0  0.1224
  H  H85  1  0.509100  0.690900  0.804200  1.0  0.1149
  H  H86  1  0.452900  0.659300  0.856400  1.0  0.1078
  H  H87  1  0.483200  0.607100  0.914500  1.0  0.0736
  H  H88  1  0.675400  0.618500  0.094700  1.0  0.1006
  H  H89  1  0.635800  0.542800  0.032800  1.0  0.0976
  H  H90  1  0.711900  0.519200  0.967700  1.0  0.1436
  H  H91  1  0.834500  0.547000  0.030100  1.0  0.1537
  H  H92  1  0.892800  0.650500  0.148700  1.0  0.1474
  H  H93  1  0.819200  0.820000  0.965200  1.0  0.2357
  H  H94  1  0.778600  0.659200  0.979800  1.0  0.0761
  H  H95  1  0.833500  0.646000  0.963700  1.0  0.1117
  H  H96  1  0.895500  0.710400  0.069300  1.0  0.1223
  H  H97  1  0.990900  0.795100  0.181800  1.0  0.1134
  H  H98  1  0.047100  0.903500  0.206400  1.0  0.1059
  H  H99  1  0.016800  0.931300  0.123900  1.0  0.0745
  H  H100  1  0.824600  0.919300  0.943100  1.0  0.103
  H  H101  1  0.864200  0.897000  0.907000  1.0  0.0957
  H  H102  1  0.788100  0.755800  0.807300  1.0  0.1426
  H  H103  1  0.665500  0.695600  0.712500  1.0  0.1557
  H  H104  1  0.607200  0.755900  0.757700  1.0  0.1458
  H  H105  1  0.465200  0.819200  0.320000  1.0  0.2356
  H  H106  1  0.479800  0.778600  0.159200  1.0  0.0802
  H  H107  1  0.463700  0.833500  0.146000  1.0  0.1085
  H  H108  1  0.569300  0.895500  0.210400  1.0  0.1234
  H  H109  1  0.681800  0.990900  0.295100  1.0  0.1144
  H  H110  1  0.706400  0.047100  0.403500  1.0  0.1063
  H  H111  1  0.623900  0.016800  0.431300  1.0  0.074
  H  H112  1  0.443100  0.824600  0.419300  1.0  0.1001
  H  H113  1  0.407000  0.864200  0.397000  1.0  0.0964
  H  H114  1  0.307300  0.788100  0.255800  1.0  0.1432
  H  H115  1  0.212500  0.665500  0.195600  1.0  0.1542
  H  H116  1  0.257700  0.607200  0.255900  1.0  0.1494
  H  H117  1  0.500800  0.680800  0.146000  1.0  0.2333
  H  H118  1  0.380600  0.721400  0.201200  1.0  0.0774
  H  H119  1  0.312500  0.666500  0.130200  1.0  0.1094
  H  H120  1  0.314900  0.604500  0.173800  1.0  0.1222
  H  H121  1  0.304200  0.509100  0.190900  1.0  0.1134
  H  H122  1  0.356400  0.452900  0.159300  1.0  0.1053
  H  H123  1  0.414500  0.483200  0.107100  1.0  0.073
  H  H124  1  0.594700  0.675400  0.118500  1.0  0.1013
  H  H125  1  0.532800  0.635800  0.042800  1.0  0.0956
  H  H126  1  0.467700  0.711900  0.019200  1.0  0.1425
  H  H127  1  0.530100  0.834500  0.047000  1.0  0.1548
  H  H128  1  0.648700  0.892800  0.150500  1.0  0.1461
  H  H129  1  0.034800  0.354800  0.354000  1.0  0.2324
  H  H130  1  0.020200  0.179400  0.298800  1.0  0.0739
  H  H131  1  0.036300  0.182300  0.369800  1.0  0.1098
  H  H132  1  0.930700  0.141100  0.326200  1.0  0.1219
  H  H133  1  0.818200  0.113300  0.309100  1.0  0.115
  H  H134  1  0.793600  0.197100  0.340700  1.0  0.1058
  H  H135  1  0.876100  0.307400  0.392900  1.0  0.0728
  H  H136  1  0.056900  0.476200  0.381500  1.0  0.1057
  H  H137  1  0.093000  0.490000  0.457200  1.0  0.0962
  H  H138  1  0.192700  0.448500  0.480800  1.0  0.1425
  H  H139  1  0.287500  0.483100  0.453000  1.0  0.1572
  H  H140  1  0.242300  0.498200  0.349500  1.0  0.149
  H  H141  1  0.999200  0.145200  0.180000  1.0  0.2354
  H  H142  1  0.119400  0.320600  0.340800  1.0  0.0755
  H  H143  1  0.187500  0.317700  0.354000  1.0  0.1081
  H  H144  1  0.185100  0.358900  0.289600  1.0  0.1234
  H  H145  1  0.195800  0.386700  0.204900  1.0  0.1141
  H  H146  1  0.143600  0.302900  0.096500  1.0  0.1055
  H  H147  1  0.085500  0.192600  0.068700  1.0  0.073
  H  H148  1  0.905300  0.023800  0.080700  1.0  0.1035
  H  H149  1  0.967200  0.010000  0.103000  1.0  0.0977
  H  H150  1  0.032300  0.051500  0.244200  1.0  0.142
  H  H151  1  0.969900  0.016900  0.304400  1.0  0.1555
  H  H152  1  0.851300  0.001800  0.244100  1.0  0.1463
  H  H153  1  0.965200  0.320000  0.819200  1.0  0.2346
  H  H154  1  0.979800  0.159200  0.778600  1.0  0.0758
  H  H155  1  0.963700  0.146000  0.833500  1.0  0.1085
  H  H156  1  0.069300  0.210400  0.895500  1.0  0.1227
  H  H157  1  0.181800  0.295100  0.990900  1.0  0.1153
  H  H158  1  0.206400  0.403500  0.047100  1.0  0.1062
  H  H159  1  0.123900  0.431300  0.016800  1.0  0.0739
  H  H160  1  0.943100  0.419300  0.824600  1.0  0.1013
  H  H161  1  0.907000  0.397000  0.864200  1.0  0.0961
  H  H162  1  0.807300  0.255800  0.788100  1.0  0.1436
  H  H163  1  0.712500  0.195600  0.665500  1.0  0.1554
  H  H164  1  0.757700  0.255900  0.607200  1.0  0.1469
  H  H165  1  0.000800  0.146000  0.680800  1.0  0.2351
  H  H166  1  0.880600  0.201200  0.721400  1.0  0.0779
  H  H167  1  0.812500  0.130200  0.666500  1.0  0.1078
  H  H168  1  0.814900  0.173800  0.604500  1.0  0.1226
  H  H169  1  0.804200  0.190900  0.509100  1.0  0.1147
  H  H170  1  0.856400  0.159300  0.452900  1.0  0.1055
  H  H171  1  0.914500  0.107100  0.483200  1.0  0.0724
  H  H172  1  0.094700  0.118500  0.675400  1.0  0.1022
  H  H173  1  0.032800  0.042800  0.635800  1.0  0.098
  H  H174  1  0.967700  0.019200  0.711900  1.0  0.1413
  H  H175  1  0.030100  0.047000  0.834500  1.0  0.154
  H  H176  1  0.148700  0.150500  0.892800  1.0  0.1471
  H  H177  1  0.534800  0.354000  0.354800  1.0  0.2371
  H  H178  1  0.520200  0.298800  0.179400  1.0  0.0783
  H  H179  1  0.536300  0.369800  0.182300  1.0  0.1098
  H  H180  1  0.430700  0.326200  0.141100  1.0  0.1222
  H  H181  1  0.318200  0.309100  0.113300  1.0  0.1144
  H  H182  1  0.293600  0.340700  0.197100  1.0  0.1072
  H  H183  1  0.376100  0.392900  0.307400  1.0  0.0735
  H  H184  1  0.556900  0.381500  0.476200  1.0  0.1044
  H  H185  1  0.593000  0.457200  0.490000  1.0  0.0971
  H  H186  1  0.692700  0.480800  0.448500  1.0  0.1436
  H  H187  1  0.787500  0.453000  0.483100  1.0  0.154
  H  H188  1  0.742300  0.349500  0.498200  1.0  0.148
  H  H189  1  0.499200  0.180000  0.145200  1.0  0.236
  H  H190  1  0.619400  0.340800  0.320600  1.0  0.0765
  H  H191  1  0.687500  0.354000  0.317700  1.0  0.1118
  H  H192  1  0.685100  0.289600  0.358900  1.0  0.1223
  H  H193  1  0.695800  0.204900  0.386700  1.0  0.1135
  H  H194  1  0.643600  0.096500  0.302900  1.0  0.1057
  H  H195  1  0.585500  0.068700  0.192600  1.0  0.0749
  H  H196  1  0.405300  0.080700  0.023800  1.0  0.1037
  H  H197  1  0.467200  0.103000  0.010000  1.0  0.0959
  H  H198  1  0.532300  0.244200  0.051500  1.0  0.1425
  H  H199  1  0.469900  0.304400  0.016900  1.0  0.1552
  H  H200  1  0.351300  0.244100  0.001800  1.0  0.1456
  H  H201  1  0.146000  0.180800  0.500800  1.0  0.2349
  H  H202  1  0.201200  0.221400  0.380600  1.0  0.08
  H  H203  1  0.130200  0.166500  0.312500  1.0  0.1082
  H  H204  1  0.173800  0.104500  0.314900  1.0  0.123
  H  H205  1  0.190900  0.009100  0.304200  1.0  0.1146
  H  H206  1  0.159300  0.952900  0.356400  1.0  0.106
  H  H207  1  0.107100  0.983200  0.414500  1.0  0.0742
  H  H208  1  0.118500  0.175400  0.594700  1.0  0.1001
  H  H209  1  0.042800  0.135800  0.532800  1.0  0.0966
  H  H210  1  0.019200  0.211900  0.467700  1.0  0.1434
  H  H211  1  0.047000  0.334500  0.530100  1.0  0.1549
  H  H212  1  0.150500  0.392800  0.648700  1.0  0.1494
  H  H213  1  0.320000  0.319200  0.465200  1.0  0.2344
  H  H214  1  0.159200  0.278600  0.479800  1.0  0.0776
  H  H215  1  0.146000  0.333500  0.463700  1.0  0.1094
  H  H216  1  0.210400  0.395500  0.569300  1.0  0.1223
  H  H217  1  0.295100  0.490900  0.681800  1.0  0.1135
  H  H218  1  0.403500  0.547100  0.706400  1.0  0.1055
  H  H219  1  0.431300  0.516800  0.623900  1.0  0.0728
  H  H220  1  0.419300  0.324600  0.443100  1.0  0.0996
  H  H221  1  0.397000  0.364200  0.407000  1.0  0.0955
  H  H222  1  0.255800  0.288100  0.307300  1.0  0.1426
  H  H223  1  0.195600  0.165500  0.212500  1.0  0.1535
  H  H224  1  0.255900  0.107200  0.257700  1.0  0.1462
  H  H225  1  0.180000  0.645200  0.999200  1.0  0.2318
  H  H226  1  0.340800  0.820600  0.119400  1.0  0.0743
  H  H227  1  0.354000  0.817700  0.187500  1.0  0.1098
  H  H228  1  0.289600  0.858900  0.185100  1.0  0.1216
  H  H229  1  0.204900  0.886700  0.195800  1.0  0.1151
  H  H230  1  0.096500  0.802900  0.143600  1.0  0.1061
  H  H231  1  0.068700  0.692600  0.085500  1.0  0.073
  H  H232  1  0.080700  0.523800  0.905300  1.0  0.1011
  H  H233  1  0.103000  0.510000  0.967200  1.0  0.0968
  H  H234  1  0.244200  0.551500  0.032300  1.0  0.1423
  H  H235  1  0.304400  0.516900  0.969900  1.0  0.1559
  H  H236  1  0.244100  0.501800  0.851300  1.0  0.1491
  H  H237  1  0.354000  0.854800  0.034800  1.0  0.235
  H  H238  1  0.298800  0.679400  0.020200  1.0  0.075
  H  H239  1  0.369800  0.682300  0.036300  1.0  0.1071
  H  H240  1  0.326200  0.641100  0.930700  1.0  0.1234
  H  H241  1  0.309100  0.613300  0.818200  1.0  0.114
  H  H242  1  0.340700  0.697100  0.793600  1.0  0.1054
  H  H243  1  0.392900  0.807400  0.876100  1.0  0.0727
  H  H244  1  0.381500  0.976200  0.056900  1.0  0.1078
  H  H245  1  0.457200  0.990000  0.093000  1.0  0.0976
  H  H246  1  0.480800  0.948500  0.192700  1.0  0.1422
  H  H247  1  0.453000  0.983100  0.287500  1.0  0.1565
  H  H248  1  0.349500  0.998200  0.242300  1.0  0.1465
  H  H249  1  0.645200  0.499200  0.680000  1.0  0.2371
  H  H250  1  0.820600  0.619400  0.840800  1.0  0.0784
  H  H251  1  0.817700  0.687500  0.854000  1.0  0.1102
  H  H252  1  0.858900  0.685100  0.789600  1.0  0.1236
  H  H253  1  0.886700  0.695800  0.704900  1.0  0.1154
  H  H254  1  0.802900  0.643600  0.596500  1.0  0.105
  H  H255  1  0.692600  0.585500  0.568700  1.0  0.0729
  H  H256  1  0.523800  0.405300  0.580700  1.0  0.1017
  H  H257  1  0.510000  0.467200  0.603000  1.0  0.0967
  H  H258  1  0.551500  0.532300  0.744200  1.0  0.1417
  H  H259  1  0.516900  0.469900  0.804400  1.0  0.1544
  H  H260  1  0.501800  0.351300  0.744100  1.0  0.1484
  H  H261  1  0.854800  0.534800  0.854000  1.0  0.2356
  H  H262  1  0.679400  0.520200  0.798800  1.0  0.0757
  H  H263  1  0.682300  0.536300  0.869800  1.0  0.1092
  H  H264  1  0.641100  0.430700  0.826200  1.0  0.1234
  H  H265  1  0.613300  0.318200  0.809100  1.0  0.1135
  H  H266  1  0.697100  0.293600  0.840700  1.0  0.1059
  H  H267  1  0.807400  0.376100  0.892900  1.0  0.0746
  H  H268  1  0.976200  0.556900  0.881500  1.0  0.106
  H  H269  1  0.990000  0.593000  0.957200  1.0  0.0962
  H  H270  1  0.948500  0.692700  0.980800  1.0  0.1435
  H  H271  1  0.983100  0.787500  0.953000  1.0  0.1553
  H  H272  1  0.998200  0.742300  0.849500  1.0  0.1476
  H  H273  1  0.180800  0.000800  0.646000  1.0  0.2339
  H  H274  1  0.221400  0.880600  0.701200  1.0  0.0762
  H  H275  1  0.166500  0.812500  0.630200  1.0  0.1112
  H  H276  1  0.104500  0.814900  0.673800  1.0  0.1226
  H  H277  1  0.009100  0.804200  0.690900  1.0  0.1137
  H  H278  1  0.952900  0.856400  0.659300  1.0  0.1059
  H  H279  1  0.983200  0.914500  0.607100  1.0  0.0736
  H  H280  1  0.175400  0.094700  0.618500  1.0  0.1018
  H  H281  1  0.135800  0.032800  0.542800  1.0  0.0948
  H  H282  1  0.211900  0.967700  0.519200  1.0  0.1422
  H  H283  1  0.334500  0.030100  0.547000  1.0  0.1545
  H  H284  1  0.392800  0.148700  0.650500  1.0  0.1482
  H  H285  1  0.319200  0.965200  0.820000  1.0  0.2357
  H  H286  1  0.278600  0.979800  0.659200  1.0  0.0763
  H  H287  1  0.333500  0.963700  0.646000  1.0  0.1076
  H  H288  1  0.395500  0.069300  0.710400  1.0  0.123
  H  H289  1  0.490900  0.181800  0.795100  1.0  0.1153
  H  H290  1  0.547100  0.206400  0.903500  1.0  0.1067
  H  H291  1  0.516800  0.123900  0.931300  1.0  0.0733
  H  H292  1  0.324600  0.943100  0.919300  1.0  0.1017
  H  H293  1  0.364200  0.907000  0.897000  1.0  0.0998
  H  H294  1  0.288100  0.807300  0.755800  1.0  0.1428
  H  H295  1  0.165500  0.712500  0.695600  1.0  0.1565
  H  H296  1  0.107200  0.757700  0.755900  1.0  0.1475
  C  C297  1  0.651800  0.361300  0.197500  1.0  0.0324
  C  C298  1  0.642800  0.384600  0.105000  1.0  0.2217
  C  C299  1  0.664500  0.339000  0.082500  1.0  -0.168
  C  C300  1  0.672100  0.330700  0.023400  1.0  -0.1075
  C  C301  1  0.652900  0.360200  0.990100  1.0  -0.0681
  C  C302  1  0.622900  0.396700  0.010200  1.0  -0.0614
  C  C303  1  0.613700  0.409900  0.064800  1.0  -0.0246
  C  C304  1  0.587000  0.460100  0.085500  1.0  0.607
  C  C305  1  0.589700  0.551300  0.170400  1.0  -0.0342
  C  C306  1  0.593700  0.560800  0.231100  1.0  0.208
  C  C307  1  0.552100  0.513600  0.243900  1.0  -0.1231
  C  C308  1  0.569000  0.548000  0.313800  1.0  -0.0991
  C  C309  1  0.626700  0.615900  0.346400  1.0  0.0073
  C  C310  1  0.663800  0.454300  0.302500  1.0  0.033
  C  C311  1  0.779600  0.537800  0.395000  1.0  0.2233
  C  C312  1  0.756500  0.582000  0.417500  1.0  -0.1686
  C  C313  1  0.807300  0.648700  0.476600  1.0  -0.1075
  C  C314  1  0.870100  0.662800  0.509900  1.0  -0.0655
  C  C315  1  0.886500  0.612700  0.489800  1.0  -0.0627
  C  C316  1  0.845100  0.548900  0.435200  1.0  -0.0242
  C  C317  1  0.874600  0.501500  0.414500  1.0  0.6098
  C  C318  1  0.880900  0.419300  0.329600  1.0  -0.0395
  C  C319  1  0.829700  0.362600  0.268900  1.0  0.1975
  C  C320  1  0.769700  0.308200  0.256100  1.0  -0.1159
  C  C321  1  0.734200  0.255200  0.186200  1.0  -0.0991
  C  C322  1  0.769500  0.280300  0.153600  1.0  0.011
  C  C323  1  0.836200  0.138700  0.790500  1.0  0.0277
  C  C324  1  0.720400  0.115400  0.758200  1.0  0.2191
  C  C325  1  0.743500  0.161000  0.825500  1.0  -0.1661
  C  C326  1  0.692700  0.169300  0.841400  1.0  -0.1039
  C  C327  1  0.629900  0.139800  0.792700  1.0  -0.0677
  C  C328  1  0.613500  0.103300  0.726200  1.0  -0.061
  C  C329  1  0.654900  0.090100  0.703800  1.0  -0.0259
  C  C330  1  0.625400  0.039900  0.626900  1.0  0.6077
  C  C331  1  0.619100  0.948700  0.538400  1.0  -0.0353
  C  C332  1  0.670300  0.939200  0.532900  1.0  0.2039
  C  C333  1  0.730300  0.986400  0.538500  1.0  -0.1187
  C  C334  1  0.765800  0.952000  0.521000  1.0  -0.0956
  C  C335  1  0.730500  0.884100  0.510800  1.0  0.0055
  C  C336  1  0.848200  0.045700  0.709500  1.0  0.031
  C  C337  1  0.857200  0.962200  0.741800  1.0  0.221
  C  C338  1  0.835500  0.918000  0.674500  1.0  -0.168
  C  C339  1  0.827900  0.851300  0.658600  1.0  -0.1064
  C  C340  1  0.847100  0.837200  0.707300  1.0  -0.0675
  C  C341  1  0.877100  0.887300  0.773800  1.0  -0.0598
  C  C342  1  0.886300  0.951100  0.796200  1.0  -0.0241
  C  C343  1  0.913000  0.998500  0.873100  1.0  0.6091
  C  C344  1  0.910300  0.080700  0.961600  1.0  -0.0381
  C  C345  1  0.906300  0.137400  0.967100  1.0  0.1992
  C  C346  1  0.947900  0.191800  0.961500  1.0  -0.1237
  C  C347  1  0.931000  0.244800  0.979000  1.0  -0.1007
  C  C348  1  0.873300  0.219700  0.989200  1.0  0.0081
  C  C349  1  0.290500  0.836200  0.638700  1.0  0.033
  C  C350  1  0.258200  0.720400  0.615400  1.0  0.2247
  C  C351  1  0.325500  0.743500  0.661000  1.0  -0.1677
  C  C352  1  0.341400  0.692700  0.669300  1.0  -0.1072
  C  C353  1  0.292700  0.629900  0.639800  1.0  -0.066
  C  C354  1  0.226200  0.613500  0.603300  1.0  -0.0639
  C  C355  1  0.203800  0.654900  0.590100  1.0  -0.0298
  C  C356  1  0.126900  0.625400  0.539900  1.0  0.6076
  C  C357  1  0.038400  0.619100  0.448700  1.0  -0.0371
  C  C358  1  0.032900  0.670300  0.439200  1.0  0.1978
  C  C359  1  0.038500  0.730300  0.486400  1.0  -0.1177
  C  C360  1  0.021000  0.765800  0.452000  1.0  -0.0977
  C  C361  1  0.010800  0.730500  0.384100  1.0  0.0056
  C  C362  1  0.209500  0.848200  0.545700  1.0  0.0319
  C  C363  1  0.241800  0.857200  0.462200  1.0  0.2223
  C  C364  1  0.174500  0.835500  0.418000  1.0  -0.1664
  C  C365  1  0.158600  0.827900  0.351300  1.0  -0.1058
  C  C366  1  0.207300  0.847100  0.337200  1.0  -0.0707
  C  C367  1  0.273800  0.877100  0.387300  1.0  -0.062
  C  C368  1  0.296200  0.886300  0.451100  1.0  -0.0236
  C  C369  1  0.373100  0.913000  0.498500  1.0  0.6107
  C  C370  1  0.461600  0.910300  0.580700  1.0  -0.036
  C  C371  1  0.467100  0.906300  0.637400  1.0  0.1959
  C  C372  1  0.461500  0.947900  0.691800  1.0  -0.1209
  C  C373  1  0.479000  0.931000  0.744800  1.0  -0.098
  C  C374  1  0.489200  0.873300  0.719700  1.0  0.0094
  C  C375  1  0.697500  0.651800  0.861300  1.0  0.0332
  C  C376  1  0.605000  0.642800  0.884600  1.0  0.2209
  C  C377  1  0.582500  0.664500  0.839000  1.0  -0.1675
  C  C378  1  0.523400  0.672100  0.830700  1.0  -0.1026
  C  C379  1  0.490100  0.652900  0.860200  1.0  -0.0673
  C  C380  1  0.510200  0.622900  0.896700  1.0  -0.0587
  C  C381  1  0.564800  0.613700  0.909900  1.0  -0.0259
  C  C382  1  0.585500  0.587000  0.960100  1.0  0.6084
  C  C383  1  0.670400  0.589700  0.051300  1.0  -0.0363
  C  C384  1  0.731100  0.593700  0.060800  1.0  0.205
  C  C385  1  0.743900  0.552100  0.013600  1.0  -0.1234
  C  C386  1  0.813800  0.569000  0.048000  1.0  -0.0989
  C  C387  1  0.846400  0.626700  0.115900  1.0  0.0081
  C  C388  1  0.802500  0.663800  0.954300  1.0  0.0277
  C  C389  1  0.895000  0.779600  0.037800  1.0  0.219
  C  C390  1  0.917500  0.756500  0.082000  1.0  -0.1632
  C  C391  1  0.976600  0.807300  0.148700  1.0  -0.1043
  C  C392  1  0.009900  0.870100  0.162800  1.0  -0.0657
  C  C393  1  0.989800  0.886500  0.112700  1.0  -0.062
  C  C394  1  0.935200  0.845100  0.048900  1.0  -0.0236
  C  C395  1  0.914500  0.874600  0.001500  1.0  0.6081
  C  C396  1  0.829600  0.880900  0.919300  1.0  -0.0353
  C  C397  1  0.768900  0.829700  0.862600  1.0  0.1976
  C  C398  1  0.756100  0.769700  0.808200  1.0  -0.1188
  C  C399  1  0.686200  0.734200  0.755200  1.0  -0.0926
  C  C400  1  0.653600  0.769500  0.780300  1.0  0.0062
  C  C401  1  0.454300  0.802500  0.163800  1.0  0.0315
  C  C402  1  0.537800  0.895000  0.279600  1.0  0.2238
  C  C403  1  0.582000  0.917500  0.256500  1.0  -0.1654
  C  C404  1  0.648700  0.976600  0.307300  1.0  -0.1041
  C  C405  1  0.662800  0.009900  0.370100  1.0  -0.0654
  C  C406  1  0.612700  0.989800  0.386500  1.0  -0.058
  C  C407  1  0.548900  0.935200  0.345100  1.0  -0.0262
  C  C408  1  0.501500  0.914500  0.374600  1.0  0.6078
  C  C409  1  0.419300  0.829600  0.380900  1.0  -0.035
  C  C410  1  0.362600  0.768900  0.329700  1.0  0.2008
  C  C411  1  0.308200  0.756100  0.269700  1.0  -0.1238
  C  C412  1  0.255200  0.686200  0.234200  1.0  -0.099
  C  C413  1  0.280300  0.653600  0.269500  1.0  0.007
  C  C414  1  0.361300  0.697500  0.151800  1.0  0.0287
  C  C415  1  0.384600  0.605000  0.142800  1.0  0.2205
  C  C416  1  0.339000  0.582500  0.164500  1.0  -0.1659
  C  C417  1  0.330700  0.523400  0.172100  1.0  -0.1061
  C  C418  1  0.360200  0.490100  0.152900  1.0  -0.0672
  C  C419  1  0.396700  0.510200  0.122900  1.0  -0.0608
  C  C420  1  0.409900  0.564800  0.113700  1.0  -0.0248
  C  C421  1  0.460100  0.585500  0.087000  1.0  0.6081
  C  C422  1  0.551300  0.670400  0.089700  1.0  -0.0355
  C  C423  1  0.560800  0.731100  0.093700  1.0  0.2023
  C  C424  1  0.513600  0.743900  0.052100  1.0  -0.1154
  C  C425  1  0.548000  0.813800  0.069000  1.0  -0.0934
  C  C426  1  0.615900  0.846400  0.126700  1.0  0.0055
  C  C427  1  0.045700  0.209500  0.348200  1.0  0.0292
  C  C428  1  0.962200  0.241800  0.357200  1.0  0.2253
  C  C429  1  0.918000  0.174500  0.335500  1.0  -0.1649
  C  C430  1  0.851300  0.158600  0.327900  1.0  -0.1067
  C  C431  1  0.837200  0.207300  0.347100  1.0  -0.0686
  C  C432  1  0.887300  0.273800  0.377100  1.0  -0.0609
  C  C433  1  0.951100  0.296200  0.386300  1.0  -0.025
  C  C434  1  0.998500  0.373100  0.413000  1.0  0.6078
  C  C435  1  0.080700  0.461600  0.410300  1.0  -0.0377
  C  C436  1  0.137400  0.467100  0.406300  1.0  0.2
  C  C437  1  0.191800  0.461500  0.447900  1.0  -0.1196
  C  C438  1  0.244800  0.479000  0.431000  1.0  -0.0982
  C  C439  1  0.219700  0.489200  0.373300  1.0  0.0056
  C  C440  1  0.138700  0.290500  0.336200  1.0  0.0312
  C  C441  1  0.115400  0.258200  0.220400  1.0  0.2205
  C  C442  1  0.161000  0.325500  0.243500  1.0  -0.1665
  C  C443  1  0.169300  0.341400  0.192700  1.0  -0.1061
  C  C444  1  0.139800  0.292700  0.129900  1.0  -0.0682
  C  C445  1  0.103300  0.226200  0.113500  1.0  -0.0599
  C  C446  1  0.090100  0.203800  0.154900  1.0  -0.025
  C  C447  1  0.039900  0.126900  0.125400  1.0  0.6092
  C  C448  1  0.948700  0.038400  0.119100  1.0  -0.0348
  C  C449  1  0.939200  0.032900  0.170300  1.0  0.1973
  C  C450  1  0.986400  0.038500  0.230300  1.0  -0.1231
  C  C451  1  0.952000  0.021000  0.265800  1.0  -0.0993
  C  C452  1  0.884100  0.010800  0.230500  1.0  0.0044
  C  C453  1  0.954300  0.163800  0.802500  1.0  0.0339
  C  C454  1  0.037800  0.279600  0.895000  1.0  0.2251
  C  C455  1  0.082000  0.256500  0.917500  1.0  -0.1679
  C  C456  1  0.148700  0.307300  0.976600  1.0  -0.108
  C  C457  1  0.162800  0.370100  0.009900  1.0  -0.0654
  C  C458  1  0.112700  0.386500  0.989800  1.0  -0.0635
  C  C459  1  0.048900  0.345100  0.935200  1.0  -0.0292
  C  C460  1  0.001500  0.374600  0.914500  1.0  0.6073
  C  C461  1  0.919300  0.380900  0.829600  1.0  -0.0363
  C  C462  1  0.862600  0.329700  0.768900  1.0  0.1985
  C  C463  1  0.808200  0.269700  0.756100  1.0  -0.1173
  C  C464  1  0.755200  0.234200  0.686200  1.0  -0.0968
  C  C465  1  0.780300  0.269500  0.653600  1.0  0.0079
  C  C466  1  0.861300  0.151800  0.697500  1.0  0.032
  C  C467  1  0.884600  0.142800  0.605000  1.0  0.2222
  C  C468  1  0.839000  0.164500  0.582500  1.0  -0.1669
  C  C469  1  0.830700  0.172100  0.523400  1.0  -0.1055
  C  C470  1  0.860200  0.152900  0.490100  1.0  -0.07
  C  C471  1  0.896700  0.122900  0.510200  1.0  -0.062
  C  C472  1  0.909900  0.113700  0.564800  1.0  -0.0235
  C  C473  1  0.960100  0.087000  0.585500  1.0  0.6099
  C  C474  1  0.051300  0.089700  0.670400  1.0  -0.0358
  C  C475  1  0.060800  0.093700  0.731100  1.0  0.2012
  C  C476  1  0.013600  0.052100  0.743900  1.0  -0.1203
  C  C477  1  0.048000  0.069000  0.813800  1.0  -0.0977
  C  C478  1  0.115900  0.126700  0.846400  1.0  0.009
  C  C479  1  0.545700  0.348200  0.209500  1.0  0.033
  C  C480  1  0.462200  0.357200  0.241800  1.0  0.2215
  C  C481  1  0.418000  0.335500  0.174500  1.0  -0.167
  C  C482  1  0.351300  0.327900  0.158600  1.0  -0.1027
  C  C483  1  0.337200  0.347100  0.207300  1.0  -0.0676
  C  C484  1  0.387300  0.377100  0.273800  1.0  -0.0587
  C  C485  1  0.451100  0.386300  0.296200  1.0  -0.0258
  C  C486  1  0.498500  0.413000  0.373100  1.0  0.6089
  C  C487  1  0.580700  0.410300  0.461600  1.0  -0.0355
  C  C488  1  0.637400  0.406300  0.467100  1.0  0.2
  C  C489  1  0.691800  0.447900  0.461500  1.0  -0.124
  C  C490  1  0.744800  0.431000  0.479000  1.0  -0.0986
  C  C491  1  0.719700  0.373300  0.489200  1.0  0.0086
  C  C492  1  0.638700  0.336200  0.290500  1.0  0.028
  C  C493  1  0.615400  0.220400  0.258200  1.0  0.2192
  C  C494  1  0.661000  0.243500  0.325500  1.0  -0.1635
  C  C495  1  0.669300  0.192700  0.341400  1.0  -0.1037
  C  C496  1  0.639800  0.129900  0.292700  1.0  -0.0663
  C  C497  1  0.603300  0.113500  0.226200  1.0  -0.0626
  C  C498  1  0.590100  0.154900  0.203800  1.0  -0.0236
  C  C499  1  0.539900  0.125400  0.126900  1.0  0.6086
  C  C500  1  0.448700  0.119100  0.038400  1.0  -0.0358
  C  C501  1  0.439200  0.170300  0.032900  1.0  0.1966
  C  C502  1  0.486400  0.230300  0.038500  1.0  -0.1197
  C  C503  1  0.452000  0.265800  0.021000  1.0  -0.0929
  C  C504  1  0.384100  0.230500  0.010800  1.0  0.0046
  C  C505  1  0.151800  0.197500  0.361300  1.0  0.0319
  C  C506  1  0.142800  0.105000  0.384600  1.0  0.2238
  C  C507  1  0.164500  0.082500  0.339000  1.0  -0.1648
  C  C508  1  0.172100  0.023400  0.330700  1.0  -0.1046
  C  C509  1  0.152900  0.990100  0.360200  1.0  -0.0659
  C  C510  1  0.122900  0.010200  0.396700  1.0  -0.0587
  C  C511  1  0.113700  0.064800  0.409900  1.0  -0.0261
  C  C512  1  0.087000  0.085500  0.460100  1.0  0.6089
  C  C513  1  0.089700  0.170400  0.551300  1.0  -0.0361
  C  C514  1  0.093700  0.231100  0.560800  1.0  0.2062
  C  C515  1  0.052100  0.243900  0.513600  1.0  -0.124
  C  C516  1  0.069000  0.313800  0.548000  1.0  -0.0995
  C  C517  1  0.126700  0.346400  0.615900  1.0  0.0067
  C  C518  1  0.163800  0.302500  0.454300  1.0  0.0283
  C  C519  1  0.279600  0.395000  0.537800  1.0  0.2205
  C  C520  1  0.256500  0.417500  0.582000  1.0  -0.1662
  C  C521  1  0.307300  0.476600  0.648700  1.0  -0.1061
  C  C522  1  0.370100  0.509900  0.662800  1.0  -0.0662
  C  C523  1  0.386500  0.489800  0.612700  1.0  -0.0602
  C  C524  1  0.345100  0.435200  0.548900  1.0  -0.025
  C  C525  1  0.374600  0.414500  0.501500  1.0  0.6077
  C  C526  1  0.380900  0.329600  0.419300  1.0  -0.0354
  C  C527  1  0.329700  0.268900  0.362600  1.0  0.1963
  C  C528  1  0.269700  0.256100  0.308200  1.0  -0.1163
  C  C529  1  0.234200  0.186200  0.255200  1.0  -0.094
  C  C530  1  0.269500  0.153600  0.280300  1.0  0.0052
  C  C531  1  0.336200  0.790500  0.138700  1.0  0.031
  C  C532  1  0.220400  0.758200  0.115400  1.0  0.2249
  C  C533  1  0.243500  0.825500  0.161000  1.0  -0.1643
  C  C534  1  0.192700  0.841400  0.169300  1.0  -0.1059
  C  C535  1  0.129900  0.792700  0.139800  1.0  -0.0684
  C  C536  1  0.113500  0.726200  0.103300  1.0  -0.0614
  C  C537  1  0.154900  0.703800  0.090100  1.0  -0.0251
  C  C538  1  0.125400  0.626900  0.039900  1.0  0.608
  C  C539  1  0.119100  0.538400  0.948700  1.0  -0.0377
  C  C540  1  0.170300  0.532900  0.939200  1.0  0.1991
  C  C541  1  0.230300  0.538500  0.986400  1.0  -0.119
  C  C542  1  0.265800  0.521000  0.952000  1.0  -0.0992
  C  C543  1  0.230500  0.510800  0.884100  1.0  0.0056
  C  C544  1  0.348200  0.709500  0.045700  1.0  0.0302
  C  C545  1  0.357200  0.741800  0.962200  1.0  0.2209
  C  C546  1  0.335500  0.674500  0.918000  1.0  -0.1673
  C  C547  1  0.327900  0.658600  0.851300  1.0  -0.1069
  C  C548  1  0.347100  0.707300  0.837200  1.0  -0.0685
  C  C549  1  0.377100  0.773800  0.887300  1.0  -0.0587
  C  C550  1  0.386300  0.796200  0.951100  1.0  -0.0248
  C  C551  1  0.413000  0.873100  0.998500  1.0  0.6088
  C  C552  1  0.410300  0.961600  0.080700  1.0  -0.0345
  C  C553  1  0.406300  0.967100  0.137400  1.0  0.1978
  C  C554  1  0.447900  0.961500  0.191800  1.0  -0.1232
  C  C555  1  0.431000  0.979000  0.244800  1.0  -0.0998
  C  C556  1  0.373300  0.989200  0.219700  1.0  0.0051
  C  C557  1  0.790500  0.638700  0.836200  1.0  0.0312
  C  C558  1  0.758200  0.615400  0.720400  1.0  0.2216
  C  C559  1  0.825500  0.661000  0.743500  1.0  -0.1667
  C  C560  1  0.841400  0.669300  0.692700  1.0  -0.1067
  C  C561  1  0.792700  0.639800  0.629900  1.0  -0.0684
  C  C562  1  0.726200  0.603300  0.613500  1.0  -0.0614
  C  C563  1  0.703800  0.590100  0.654900  1.0  -0.0248
  C  C564  1  0.626900  0.539900  0.625400  1.0  0.6074
  C  C565  1  0.538400  0.448700  0.619100  1.0  -0.035
  C  C566  1  0.532900  0.439200  0.670300  1.0  0.2038
  C  C567  1  0.538500  0.486400  0.730300  1.0  -0.1232
  C  C568  1  0.521000  0.452000  0.765800  1.0  -0.0987
  C  C569  1  0.510800  0.384100  0.730500  1.0  0.0073
  C  C570  1  0.709500  0.545700  0.848200  1.0  0.0332
  C  C571  1  0.741800  0.462200  0.857200  1.0  0.2236
  C  C572  1  0.674500  0.418000  0.835500  1.0  -0.1663
  C  C573  1  0.658600  0.351300  0.827900  1.0  -0.1087
  C  C574  1  0.707300  0.337200  0.847100  1.0  -0.0681
  C  C575  1  0.773800  0.387300  0.877100  1.0  -0.0631
  C  C576  1  0.796200  0.451100  0.886300  1.0  -0.0238
  C  C577  1  0.873100  0.498500  0.913000  1.0  0.6095
  C  C578  1  0.961600  0.580700  0.910300  1.0  -0.0396
  C  C579  1  0.967100  0.637400  0.906300  1.0  0.1981
  C  C580  1  0.961500  0.691800  0.947900  1.0  -0.1171
  C  C581  1  0.979000  0.744800  0.931000  1.0  -0.0992
  C  C582  1  0.989200  0.719700  0.873300  1.0  0.0104
  C  C583  1  0.197500  0.861300  0.651800  1.0  0.0264
  C  C584  1  0.105000  0.884600  0.642800  1.0  0.2187
  C  C585  1  0.082500  0.839000  0.664500  1.0  -0.1674
  C  C586  1  0.023400  0.830700  0.672100  1.0  -0.1043
  C  C587  1  0.990100  0.860200  0.652900  1.0  -0.0678
  C  C588  1  0.010200  0.896700  0.622900  1.0  -0.061
  C  C589  1  0.064800  0.909900  0.613700  1.0  -0.0259
  C  C590  1  0.085500  0.960100  0.587000  1.0  0.607
  C  C591  1  0.170400  0.051300  0.589700  1.0  -0.0343
  C  C592  1  0.231100  0.060800  0.593700  1.0  0.2075
  C  C593  1  0.243900  0.013600  0.552100  1.0  -0.1177
  C  C594  1  0.313800  0.048000  0.569000  1.0  -0.0962
  C  C595  1  0.346400  0.115900  0.626700  1.0  0.0067
  C  C596  1  0.302500  0.954300  0.663800  1.0  0.0311
  C  C597  1  0.395000  0.037800  0.779600  1.0  0.2206
  C  C598  1  0.417500  0.082000  0.756500  1.0  -0.1704
  C  C599  1  0.476600  0.148700  0.807300  1.0  -0.1044
  C  C600  1  0.509900  0.162800  0.870100  1.0  -0.0647
  C  C601  1  0.489800  0.112700  0.886500  1.0  -0.0596
  C  C602  1  0.435200  0.048900  0.845100  1.0  -0.0245
  C  C603  1  0.414500  0.001500  0.874600  1.0  0.6091
  C  C604  1  0.329600  0.919300  0.880900  1.0  -0.0377
  C  C605  1  0.268900  0.862600  0.829700  1.0  0.2001
  C  C606  1  0.256100  0.808200  0.769700  1.0  -0.1228
  C  C607  1  0.186200  0.755200  0.734200  1.0  -0.1006
  C  C608  1  0.153600  0.780300  0.769500  1.0  0.0086
  C  C609  1  0.625000  0.375000  0.250000  1.0  -0.0438
  C  C610  1  0.875000  0.125000  0.750000  1.0  -0.0438
  C  C611  1  0.250000  0.875000  0.625000  1.0  -0.0437
  C  C612  1  0.750000  0.625000  0.875000  1.0  -0.0438
  C  C613  1  0.375000  0.750000  0.125000  1.0  -0.0438
  C  C614  1  0.125000  0.250000  0.375000  1.0  -0.0438
  N  N615  1  0.614700  0.501700  0.150400  1.0  -0.3925
  N  N616  1  0.347400  0.361700  0.964100  1.0  0.8349
  N  N617  1  0.851300  0.464300  0.349600  1.0  -0.3916
  N  N618  1  0.897600  0.383300  0.535900  1.0  0.8402
  N  N619  1  0.648700  0.998300  0.613000  1.0  -0.3951
  N  N620  1  0.602400  0.138300  0.485700  1.0  0.8341
  N  N621  1  0.885300  0.035700  0.887000  1.0  -0.39
  N  N622  1  0.152600  0.116700  0.014300  1.0  0.8345
  N  N623  1  0.113000  0.648700  0.498300  1.0  -0.3918
  N  N624  1  0.985700  0.602400  0.638300  1.0  0.8382
  N  N625  1  0.387000  0.885300  0.535700  1.0  -0.3912
  N  N626  1  0.514300  0.152600  0.616700  1.0  0.8355
  N  N627  1  0.650400  0.614700  0.001700  1.0  -0.3908
  N  N628  1  0.464100  0.347400  0.861700  1.0  0.8337
  N  N629  1  0.849600  0.851300  0.964300  1.0  -0.3928
  N  N630  1  0.035900  0.897600  0.883300  1.0  0.8345
  N  N631  1  0.464300  0.849600  0.351300  1.0  -0.391
  N  N632  1  0.383300  0.035900  0.397600  1.0  0.8353
  N  N633  1  0.501700  0.650400  0.114700  1.0  -0.3921
  N  N634  1  0.361700  0.464100  0.847400  1.0  0.8337
  N  N635  1  0.035700  0.387000  0.385300  1.0  -0.3917
  N  N636  1  0.116700  0.514300  0.652600  1.0  0.839
  N  N637  1  0.998300  0.113000  0.148700  1.0  -0.3878
  N  N638  1  0.138300  0.985700  0.102400  1.0  0.8341
  N  N639  1  0.964300  0.351300  0.849600  1.0  -0.3906
  N  N640  1  0.883300  0.397600  0.035900  1.0  0.8388
  N  N641  1  0.001700  0.114700  0.650400  1.0  -0.3915
  N  N642  1  0.861700  0.847400  0.464100  1.0  0.8345
  N  N643  1  0.535700  0.385300  0.387000  1.0  -0.3907
  N  N644  1  0.616700  0.652600  0.514300  1.0  0.8343
  N  N645  1  0.498300  0.148700  0.113000  1.0  -0.3929
  N  N646  1  0.638300  0.102400  0.985700  1.0  0.8342
  N  N647  1  0.114700  0.150400  0.501700  1.0  -0.3909
  N  N648  1  0.847400  0.964100  0.361700  1.0  0.8346
  N  N649  1  0.351300  0.349600  0.464300  1.0  -0.3917
  N  N650  1  0.397600  0.535900  0.383300  1.0  0.8339
  N  N651  1  0.148700  0.613000  0.998300  1.0  -0.3917
  N  N652  1  0.102400  0.485700  0.138300  1.0  0.8379
  N  N653  1  0.385300  0.887000  0.035700  1.0  -0.3872
  N  N654  1  0.652600  0.014300  0.116700  1.0  0.8345
  N  N655  1  0.613000  0.498300  0.648700  1.0  -0.393
  N  N656  1  0.485700  0.638300  0.602400  1.0  0.8359
  N  N657  1  0.887000  0.535700  0.885300  1.0  -0.3925
  N  N658  1  0.014300  0.616700  0.152600  1.0  0.8403
  N  N659  1  0.150400  0.001700  0.614700  1.0  -0.395
  N  N660  1  0.964100  0.861700  0.347400  1.0  0.8331
  N  N661  1  0.349600  0.964300  0.851300  1.0  -0.3898
  N  N662  1  0.535900  0.883300  0.897600  1.0  0.8343
  O  O663  1  0.545400  0.462600  0.040600  1.0  -0.5942
  O  O664  1  0.640700  0.624000  0.295100  1.0  -0.4465
  O  O665  1  0.632300  0.395800  0.160300  1.0  -0.295
  O  O666  1  0.408700  0.386700  0.006000  1.0  -0.5812
  O  O667  1  0.332500  0.382900  0.923400  1.0  -0.5826
  O  O668  1  0.301100  0.321800  0.969300  1.0  -0.4909
  O  O669  1  0.922000  0.504800  0.459400  1.0  -0.5766
  O  O670  1  0.828900  0.345600  0.204900  1.0  -0.4553
  O  O671  1  0.735500  0.472000  0.339700  1.0  -0.2943
  O  O672  1  0.880700  0.402700  0.494000  1.0  -0.5817
  O  O673  1  0.959500  0.409100  0.576600  1.0  -0.5847
  O  O674  1  0.852500  0.331800  0.530700  1.0  -0.486
  O  O675  1  0.578000  0.037400  0.582800  1.0  -0.5931
  O  O676  1  0.671100  0.876000  0.516700  1.0  -0.4479
  O  O677  1  0.764500  0.104200  0.736500  1.0  -0.2931
  O  O678  1  0.619300  0.113300  0.522000  1.0  -0.5808
  O  O679  1  0.540500  0.117100  0.449600  1.0  -0.5863
  O  O680  1  0.647500  0.178200  0.479300  1.0  -0.492
  O  O681  1  0.954600  0.995200  0.917200  1.0  -0.576
  O  O682  1  0.859300  0.154400  0.983300  1.0  -0.4517
  O  O683  1  0.867700  0.028000  0.763500  1.0  -0.2959
  O  O684  1  0.091300  0.097300  0.978000  1.0  -0.5794
  O  O685  1  0.167500  0.090900  0.050400  1.0  -0.5629
  O  O686  1  0.198900  0.168200  0.020700  1.0  -0.4874
  O  O687  1  0.082800  0.578000  0.537400  1.0  -0.5884
  O  O688  1  0.016700  0.671100  0.376000  1.0  -0.4529
  O  O689  1  0.236500  0.764500  0.604200  1.0  -0.2947
  O  O690  1  0.022000  0.619300  0.613300  1.0  -0.582
  O  O691  1  0.949600  0.540500  0.617100  1.0  -0.5868
  O  O692  1  0.979300  0.647500  0.678200  1.0  -0.4899
  O  O693  1  0.417200  0.954600  0.495200  1.0  -0.5769
  O  O694  1  0.483300  0.859300  0.654400  1.0  -0.4498
  O  O695  1  0.263500  0.867700  0.528000  1.0  -0.2978
  O  O696  1  0.478000  0.091300  0.597300  1.0  -0.5807
  O  O697  1  0.550400  0.167500  0.590900  1.0  -0.5634
  O  O698  1  0.520700  0.198900  0.668200  1.0  -0.4887
  O  O699  1  0.540600  0.545400  0.962600  1.0  -0.5952
  O  O700  1  0.795100  0.640700  0.124000  1.0  -0.4523
  O  O701  1  0.660300  0.632300  0.895800  1.0  -0.2944
  O  O702  1  0.506000  0.408700  0.886700  1.0  -0.5808
  O  O703  1  0.423400  0.332500  0.882900  1.0  -0.5869
  O  O704  1  0.469300  0.301100  0.821800  1.0  -0.4909
  O  O705  1  0.959400  0.922000  0.004800  1.0  -0.5785
  O  O706  1  0.704900  0.828900  0.845600  1.0  -0.4456
  O  O707  1  0.839700  0.735500  0.972000  1.0  -0.2923
  O  O708  1  0.994000  0.880700  0.902700  1.0  -0.5823
  O  O709  1  0.076600  0.959500  0.909100  1.0  -0.5798
  O  O710  1  0.030700  0.852500  0.831800  1.0  -0.488
  O  O711  1  0.504800  0.959400  0.422000  1.0  -0.5795
  O  O712  1  0.345600  0.704900  0.328900  1.0  -0.4541
  O  O713  1  0.472000  0.839700  0.235500  1.0  -0.2942
  O  O714  1  0.402700  0.994000  0.380700  1.0  -0.58
  O  O715  1  0.409100  0.076600  0.459500  1.0  -0.5853
  O  O716  1  0.331800  0.030700  0.352500  1.0  -0.4899
  O  O717  1  0.462600  0.540600  0.045400  1.0  -0.5941
  O  O718  1  0.624000  0.795100  0.140700  1.0  -0.4526
  O  O719  1  0.395800  0.660300  0.132300  1.0  -0.2906
  O  O720  1  0.386700  0.506000  0.908700  1.0  -0.5812
  O  O721  1  0.382900  0.423400  0.832500  1.0  -0.5837
  O  O722  1  0.321800  0.469300  0.801100  1.0  -0.4903
  O  O723  1  0.995200  0.417200  0.454600  1.0  -0.5756
  O  O724  1  0.154400  0.483300  0.359300  1.0  -0.4541
  O  O725  1  0.028000  0.263500  0.367700  1.0  -0.2947
  O  O726  1  0.097300  0.478000  0.591300  1.0  -0.5831
  O  O727  1  0.090900  0.550400  0.667500  1.0  -0.5626
  O  O728  1  0.168200  0.520700  0.698900  1.0  -0.4923
  O  O729  1  0.037400  0.082800  0.078000  1.0  -0.5913
  O  O730  1  0.876000  0.016700  0.171100  1.0  -0.4457
  O  O731  1  0.104200  0.236500  0.264500  1.0  -0.2976
  O  O732  1  0.113300  0.022000  0.119300  1.0  -0.5812
  O  O733  1  0.117100  0.949600  0.040500  1.0  -0.5819
  O  O734  1  0.178200  0.979300  0.147500  1.0  -0.4905
  O  O735  1  0.004800  0.422000  0.959400  1.0  -0.5773
  O  O736  1  0.845600  0.328900  0.704900  1.0  -0.4553
  O  O737  1  0.972000  0.235500  0.839700  1.0  -0.2922
  O  O738  1  0.902700  0.380700  0.994000  1.0  -0.5832
  O  O739  1  0.909100  0.459500  0.076600  1.0  -0.5835
  O  O740  1  0.831800  0.352500  0.030700  1.0  -0.4901
  O  O741  1  0.962600  0.045400  0.540600  1.0  -0.5939
  O  O742  1  0.124000  0.140700  0.795100  1.0  -0.4523
  O  O743  1  0.895800  0.132300  0.660300  1.0  -0.297
  O  O744  1  0.886700  0.908700  0.506000  1.0  -0.5821
  O  O745  1  0.882900  0.832500  0.423400  1.0  -0.5865
  O  O746  1  0.821800  0.801100  0.469300  1.0  -0.4873
  O  O747  1  0.495200  0.454600  0.417200  1.0  -0.5782
  O  O748  1  0.654400  0.359300  0.483300  1.0  -0.452
  O  O749  1  0.528000  0.367700  0.263500  1.0  -0.2947
  O  O750  1  0.597300  0.591300  0.478000  1.0  -0.5816
  O  O751  1  0.590900  0.667500  0.550400  1.0  -0.5651
  O  O752  1  0.668200  0.698900  0.520700  1.0  -0.4917
  O  O753  1  0.537400  0.078000  0.082800  1.0  -0.5904
  O  O754  1  0.376000  0.171100  0.016700  1.0  -0.4453
  O  O755  1  0.604200  0.264500  0.236500  1.0  -0.2933
  O  O756  1  0.613300  0.119300  0.022000  1.0  -0.5835
  O  O757  1  0.617100  0.040500  0.949600  1.0  -0.5843
  O  O758  1  0.678200  0.147500  0.979300  1.0  -0.4872
  O  O759  1  0.045400  0.040600  0.462600  1.0  -0.5936
  O  O760  1  0.140700  0.295100  0.624000  1.0  -0.4557
  O  O761  1  0.132300  0.160300  0.395800  1.0  -0.2947
  O  O762  1  0.908700  0.006000  0.386700  1.0  -0.5802
  O  O763  1  0.832500  0.923400  0.382900  1.0  -0.5853
  O  O764  1  0.801100  0.969300  0.321800  1.0  -0.4904
  O  O765  1  0.422000  0.459400  0.504800  1.0  -0.579
  O  O766  1  0.328900  0.204900  0.345600  1.0  -0.4519
  O  O767  1  0.235500  0.339700  0.472000  1.0  -0.2904
  O  O768  1  0.380700  0.494000  0.402700  1.0  -0.5823
  O  O769  1  0.459500  0.576600  0.409100  1.0  -0.5842
  O  O770  1  0.352500  0.530700  0.331800  1.0  -0.4894
  O  O771  1  0.078000  0.582800  0.037400  1.0  -0.5907
  O  O772  1  0.171100  0.516700  0.876000  1.0  -0.4517
  O  O773  1  0.264500  0.736500  0.104200  1.0  -0.2948
  O  O774  1  0.119300  0.522000  0.113300  1.0  -0.5837
  O  O775  1  0.040500  0.449600  0.117100  1.0  -0.5861
  O  O776  1  0.147500  0.479300  0.178200  1.0  -0.4921
  O  O777  1  0.454600  0.917200  0.995200  1.0  -0.5755
  O  O778  1  0.359300  0.983300  0.154400  1.0  -0.4471
  O  O779  1  0.367700  0.763500  0.028000  1.0  -0.2964
  O  O780  1  0.591300  0.978000  0.097300  1.0  -0.5817
  O  O781  1  0.667500  0.050400  0.090900  1.0  -0.5597
  O  O782  1  0.698900  0.020700  0.168200  1.0  -0.4903
  O  O783  1  0.582800  0.537400  0.578000  1.0  -0.5921
  O  O784  1  0.516700  0.376000  0.671100  1.0  -0.4466
  O  O785  1  0.736500  0.604200  0.764500  1.0  -0.2973
  O  O786  1  0.522000  0.613300  0.619300  1.0  -0.5841
  O  O787  1  0.449600  0.617100  0.540500  1.0  -0.5839
  O  O788  1  0.479300  0.678200  0.647500  1.0  -0.4917
  O  O789  1  0.917200  0.495200  0.954600  1.0  -0.5738
  O  O790  1  0.983300  0.654400  0.859300  1.0  -0.4556
  O  O791  1  0.763500  0.528000  0.867700  1.0  -0.2943
  O  O792  1  0.978000  0.597300  0.091300  1.0  -0.5832
  O  O793  1  0.050400  0.590900  0.167500  1.0  -0.5632
  O  O794  1  0.020700  0.668200  0.198900  1.0  -0.4853
  O  O795  1  0.040600  0.962600  0.545400  1.0  -0.5961
  O  O796  1  0.295100  0.124000  0.640700  1.0  -0.4455
  O  O797  1  0.160300  0.895800  0.632300  1.0  -0.2919
  O  O798  1  0.006000  0.886700  0.408700  1.0  -0.5814
  O  O799  1  0.923400  0.882900  0.332500  1.0  -0.5844
  O  O800  1  0.969300  0.821800  0.301100  1.0  -0.4912
  O  O801  1  0.459400  0.004800  0.922000  1.0  -0.578
  O  O802  1  0.204900  0.845600  0.828900  1.0  -0.4519
  O  O803  1  0.339700  0.972000  0.735500  1.0  -0.2957
  O  O804  1  0.494000  0.902700  0.880700  1.0  -0.581
  O  O805  1  0.576600  0.909100  0.959500  1.0  -0.5829
  O  O806  1  0.530700  0.831800  0.852500  1.0  -0.4874
