# generated using pymatgen
data_Zn9H84(C81O37)2
_symmetry_space_group_name_H-M   'P 1'
_cell_length_a   26.01190000
_cell_length_b   26.01190000
_cell_length_c   26.01190000
_cell_angle_alpha   90.00000000
_cell_angle_beta   90.00000000
_cell_angle_gamma   90.00000000
_symmetry_Int_Tables_number   1
_chemical_formula_structural   Zn9H84(C81O37)2
_chemical_formula_sum   'Zn36 H336 C648 O296'
_cell_volume   17600.14424727
_cell_formula_units_Z   4
loop_
 _symmetry_equiv_pos_site_id
 _symmetry_equiv_pos_as_xyz
  1  'x, y, z'
loop_
 _atom_site_type_symbol
 _atom_site_label
 _atom_site_symmetry_multiplicity
 _atom_site_fract_x
 _atom_site_fract_y
 _atom_site_fract_z
 _atom_site_occupancy
 _atom_site_charge
  Zn  Zn1  1  0.455480  0.547490  0.545790  1.0  0.9899
  Zn  Zn2  1  0.044520  0.452510  0.045790  1.0  0.9911
  Zn  Zn3  1  0.544520  0.047490  0.954210  1.0  0.9898
  Zn  Zn4  1  0.955480  0.952510  0.454210  1.0  0.9912
  Zn  Zn5  1  0.545790  0.455480  0.547490  1.0  0.9886
  Zn  Zn6  1  0.045790  0.044520  0.452510  1.0  0.9865
  Zn  Zn7  1  0.954210  0.544520  0.047490  1.0  0.9876
  Zn  Zn8  1  0.454210  0.955480  0.952510  1.0  0.9878
  Zn  Zn9  1  0.547490  0.545790  0.455480  1.0  0.9857
  Zn  Zn10  1  0.452510  0.045790  0.044520  1.0  0.9868
  Zn  Zn11  1  0.047490  0.954210  0.544520  1.0  0.9867
  Zn  Zn12  1  0.952510  0.454210  0.955480  1.0  0.9883
  Zn  Zn13  1  0.297490  0.705480  0.704210  1.0  0.9879
  Zn  Zn14  1  0.202510  0.294520  0.204210  1.0  0.9894
  Zn  Zn15  1  0.797490  0.794520  0.295790  1.0  0.9879
  Zn  Zn16  1  0.702510  0.205480  0.795790  1.0  0.9905
  Zn  Zn17  1  0.205480  0.795790  0.702510  1.0  0.9883
  Zn  Zn18  1  0.794520  0.295790  0.797490  1.0  0.9891
  Zn  Zn19  1  0.294520  0.204210  0.202510  1.0  0.99
  Zn  Zn20  1  0.705480  0.704210  0.297490  1.0  0.9899
  Zn  Zn21  1  0.295790  0.797490  0.794520  1.0  0.9859
  Zn  Zn22  1  0.795790  0.702510  0.205480  1.0  0.9874
  Zn  Zn23  1  0.704210  0.297490  0.705480  1.0  0.9848
  Zn  Zn24  1  0.204210  0.202510  0.294520  1.0  0.9871
  Zn  Zn25  1  0.124280  0.374280  0.125000  1.0  0.8547
  Zn  Zn26  1  0.375720  0.625720  0.625000  1.0  0.855
  Zn  Zn27  1  0.875720  0.874280  0.375000  1.0  0.8551
  Zn  Zn28  1  0.624280  0.125720  0.875000  1.0  0.8548
  Zn  Zn29  1  0.125000  0.124280  0.374280  1.0  0.8556
  Zn  Zn30  1  0.625000  0.375720  0.625720  1.0  0.8552
  Zn  Zn31  1  0.375000  0.875720  0.874280  1.0  0.8557
  Zn  Zn32  1  0.875000  0.624280  0.125720  1.0  0.8549
  Zn  Zn33  1  0.374280  0.125000  0.124280  1.0  0.8546
  Zn  Zn34  1  0.625720  0.625000  0.375720  1.0  0.8547
  Zn  Zn35  1  0.874280  0.375000  0.875720  1.0  0.8542
  Zn  Zn36  1  0.125720  0.875000  0.624280  1.0  0.8552
  H  H37  1  0.268700  0.573100  0.370100  1.0  0.152
  H  H38  1  0.245000  0.702500  0.447200  1.0  0.1294
  H  H39  1  0.215100  0.592700  0.319200  1.0  0.1545
  H  H40  1  0.092200  0.680100  0.285300  1.0  0.1253
  H  H41  1  0.182900  0.716900  0.403600  1.0  0.1309
  H  H42  1  0.207200  0.559100  0.248400  1.0  0.1291
  H  H43  1  0.066100  0.619700  0.239800  1.0  0.1358
  H  H44  1  0.059400  0.751900  0.291100  1.0  0.1269
  H  H45  1  0.120400  0.759800  0.433700  1.0  0.1201
  H  H46  1  0.297900  0.690900  0.535300  1.0  0.4138
  H  H47  1  0.186800  0.468800  0.164400  1.0  0.4125
  H  H48  1  0.966600  0.830100  0.312400  1.0  0.3825
  H  H49  1  0.043100  0.808800  0.486000  1.0  0.4061
  H  H50  1  0.350800  0.523200  0.434700  1.0  0.4912
  H  H51  1  0.231300  0.426900  0.870100  1.0  0.1527
  H  H52  1  0.255000  0.297500  0.947200  1.0  0.1291
  H  H53  1  0.284900  0.407300  0.819200  1.0  0.1547
  H  H54  1  0.407800  0.319900  0.785300  1.0  0.1257
  H  H55  1  0.317100  0.283100  0.903600  1.0  0.131
  H  H56  1  0.292800  0.440900  0.748400  1.0  0.1288
  H  H57  1  0.433900  0.380300  0.739800  1.0  0.1361
  H  H58  1  0.440600  0.248100  0.791100  1.0  0.127
  H  H59  1  0.379600  0.240200  0.933700  1.0  0.1203
  H  H60  1  0.202100  0.309100  0.035300  1.0  0.4141
  H  H61  1  0.313200  0.531200  0.664400  1.0  0.4117
  H  H62  1  0.533400  0.169900  0.812400  1.0  0.3814
  H  H63  1  0.456900  0.191200  0.986000  1.0  0.4064
  H  H64  1  0.149200  0.476800  0.934700  1.0  0.4921
  H  H65  1  0.731300  0.073100  0.129900  1.0  0.1536
  H  H66  1  0.755000  0.202500  0.052800  1.0  0.1293
  H  H67  1  0.784900  0.092700  0.180800  1.0  0.1542
  H  H68  1  0.907800  0.180100  0.214700  1.0  0.1261
  H  H69  1  0.817100  0.216900  0.096400  1.0  0.131
  H  H70  1  0.792800  0.059100  0.251600  1.0  0.1285
  H  H71  1  0.933900  0.119700  0.260200  1.0  0.1367
  H  H72  1  0.940600  0.251900  0.208900  1.0  0.128
  H  H73  1  0.879600  0.259800  0.066300  1.0  0.1203
  H  H74  1  0.702100  0.190900  0.964700  1.0  0.4146
  H  H75  1  0.813200  0.968800  0.335600  1.0  0.4113
  H  H76  1  0.033400  0.330100  0.187600  1.0  0.3805
  H  H77  1  0.956900  0.308800  0.014000  1.0  0.4049
  H  H78  1  0.649200  0.023200  0.065300  1.0  0.4914
  H  H79  1  0.768700  0.926900  0.629900  1.0  0.1531
  H  H80  1  0.745000  0.797500  0.552800  1.0  0.1287
  H  H81  1  0.715100  0.907300  0.680800  1.0  0.1546
  H  H82  1  0.592200  0.819900  0.714700  1.0  0.1253
  H  H83  1  0.682900  0.783100  0.596400  1.0  0.1307
  H  H84  1  0.707200  0.940900  0.751600  1.0  0.1287
  H  H85  1  0.566100  0.880300  0.760200  1.0  0.1359
  H  H86  1  0.559400  0.748100  0.708900  1.0  0.1277
  H  H87  1  0.620400  0.740200  0.566300  1.0  0.1199
  H  H88  1  0.797900  0.809100  0.464700  1.0  0.414
  H  H89  1  0.686800  0.031200  0.835600  1.0  0.4119
  H  H90  1  0.466600  0.669900  0.687600  1.0  0.3817
  H  H91  1  0.543100  0.691200  0.514000  1.0  0.4047
  H  H92  1  0.850800  0.976800  0.565300  1.0  0.4908
  H  H93  1  0.370100  0.268700  0.573100  1.0  0.1545
  H  H94  1  0.447200  0.245000  0.702500  1.0  0.1278
  H  H95  1  0.319200  0.215100  0.592700  1.0  0.154
  H  H96  1  0.285300  0.092200  0.680100  1.0  0.1271
  H  H97  1  0.403600  0.182900  0.716900  1.0  0.1295
  H  H98  1  0.248400  0.207200  0.559100  1.0  0.1278
  H  H99  1  0.239800  0.066100  0.619700  1.0  0.1359
  H  H100  1  0.291100  0.059400  0.751900  1.0  0.1268
  H  H101  1  0.433700  0.120400  0.759800  1.0  0.1207
  H  H102  1  0.535300  0.297900  0.690900  1.0  0.4165
  H  H103  1  0.164400  0.186800  0.468800  1.0  0.4086
  H  H104  1  0.312400  0.966600  0.830100  1.0  0.3812
  H  H105  1  0.486000  0.043100  0.808800  1.0  0.4049
  H  H106  1  0.434700  0.350800  0.523200  1.0  0.4902
  H  H107  1  0.870100  0.231300  0.426900  1.0  0.1543
  H  H108  1  0.947200  0.255000  0.297500  1.0  0.1278
  H  H109  1  0.819200  0.284900  0.407300  1.0  0.1528
  H  H110  1  0.785300  0.407800  0.319900  1.0  0.1275
  H  H111  1  0.903600  0.317100  0.283100  1.0  0.1301
  H  H112  1  0.748400  0.292800  0.440900  1.0  0.1282
  H  H113  1  0.739800  0.433900  0.380300  1.0  0.1356
  H  H114  1  0.791100  0.440600  0.248100  1.0  0.1263
  H  H115  1  0.933700  0.379600  0.240200  1.0  0.1201
  H  H116  1  0.035300  0.202100  0.309100  1.0  0.4157
  H  H117  1  0.664400  0.313200  0.531200  1.0  0.4116
  H  H118  1  0.812400  0.533400  0.169900  1.0  0.3813
  H  H119  1  0.986000  0.456900  0.191200  1.0  0.4053
  H  H120  1  0.934700  0.149200  0.476800  1.0  0.4914
  H  H121  1  0.129900  0.731300  0.073100  1.0  0.1552
  H  H122  1  0.052800  0.755000  0.202500  1.0  0.1268
  H  H123  1  0.180800  0.784900  0.092700  1.0  0.1532
  H  H124  1  0.214700  0.907800  0.180100  1.0  0.1277
  H  H125  1  0.096400  0.817100  0.216900  1.0  0.128
  H  H126  1  0.251600  0.792800  0.059100  1.0  0.1278
  H  H127  1  0.260200  0.933900  0.119700  1.0  0.1355
  H  H128  1  0.208900  0.940600  0.251900  1.0  0.1274
  H  H129  1  0.066300  0.879600  0.259800  1.0  0.1202
  H  H130  1  0.964700  0.702100  0.190900  1.0  0.416
  H  H131  1  0.335600  0.813200  0.968800  1.0  0.4106
  H  H132  1  0.187600  0.033400  0.330100  1.0  0.3808
  H  H133  1  0.014000  0.956900  0.308800  1.0  0.4046
  H  H134  1  0.065300  0.649200  0.023200  1.0  0.4918
  H  H135  1  0.629900  0.768700  0.926900  1.0  0.1551
  H  H136  1  0.552800  0.745000  0.797500  1.0  0.1271
  H  H137  1  0.680800  0.715100  0.907300  1.0  0.1534
  H  H138  1  0.714700  0.592200  0.819900  1.0  0.1267
  H  H139  1  0.596400  0.682900  0.783100  1.0  0.1289
  H  H140  1  0.751600  0.707200  0.940900  1.0  0.1277
  H  H141  1  0.760200  0.566100  0.880300  1.0  0.1354
  H  H142  1  0.708900  0.559400  0.748100  1.0  0.127
  H  H143  1  0.566300  0.620400  0.740200  1.0  0.1204
  H  H144  1  0.464700  0.797900  0.809100  1.0  0.4166
  H  H145  1  0.835600  0.686800  0.031200  1.0  0.4093
  H  H146  1  0.687600  0.466600  0.669900  1.0  0.3804
  H  H147  1  0.514000  0.543100  0.691200  1.0  0.4056
  H  H148  1  0.565300  0.850800  0.976800  1.0  0.49
  H  H149  1  0.573100  0.370100  0.268700  1.0  0.154
  H  H150  1  0.702500  0.447200  0.245000  1.0  0.1274
  H  H151  1  0.592700  0.319200  0.215100  1.0  0.1551
  H  H152  1  0.680100  0.285300  0.092200  1.0  0.1256
  H  H153  1  0.716900  0.403600  0.182900  1.0  0.1304
  H  H154  1  0.559100  0.248400  0.207200  1.0  0.1271
  H  H155  1  0.619700  0.239800  0.066100  1.0  0.1355
  H  H156  1  0.751900  0.291100  0.059400  1.0  0.1282
  H  H157  1  0.759800  0.433700  0.120400  1.0  0.1203
  H  H158  1  0.690900  0.535300  0.297900  1.0  0.4134
  H  H159  1  0.468800  0.164400  0.186800  1.0  0.4133
  H  H160  1  0.830100  0.312400  0.966600  1.0  0.3798
  H  H161  1  0.808800  0.486000  0.043100  1.0  0.4049
  H  H162  1  0.523200  0.434700  0.350800  1.0  0.4975
  H  H163  1  0.426900  0.870100  0.231300  1.0  0.1551
  H  H164  1  0.297500  0.947200  0.255000  1.0  0.1279
  H  H165  1  0.407300  0.819200  0.284900  1.0  0.1551
  H  H166  1  0.319900  0.785300  0.407800  1.0  0.1259
  H  H167  1  0.283100  0.903600  0.317100  1.0  0.1304
  H  H168  1  0.440900  0.748400  0.292800  1.0  0.1268
  H  H169  1  0.380300  0.739800  0.433900  1.0  0.1355
  H  H170  1  0.248100  0.791100  0.440600  1.0  0.1285
  H  H171  1  0.240200  0.933700  0.379600  1.0  0.1198
  H  H172  1  0.309100  0.035300  0.202100  1.0  0.4122
  H  H173  1  0.531200  0.664400  0.313200  1.0  0.4134
  H  H174  1  0.169900  0.812400  0.533400  1.0  0.3803
  H  H175  1  0.191200  0.986000  0.456900  1.0  0.4053
  H  H176  1  0.476800  0.934700  0.149200  1.0  0.4964
  H  H177  1  0.073100  0.129900  0.731300  1.0  0.1543
  H  H178  1  0.202500  0.052800  0.755000  1.0  0.1279
  H  H179  1  0.092700  0.180800  0.784900  1.0  0.1549
  H  H180  1  0.180100  0.214700  0.907800  1.0  0.1257
  H  H181  1  0.216900  0.096400  0.817100  1.0  0.1306
  H  H182  1  0.059100  0.251600  0.792800  1.0  0.1272
  H  H183  1  0.119700  0.260200  0.933900  1.0  0.1358
  H  H184  1  0.251900  0.208900  0.940600  1.0  0.1286
  H  H185  1  0.259800  0.066300  0.879600  1.0  0.1195
  H  H186  1  0.190900  0.964700  0.702100  1.0  0.4142
  H  H187  1  0.968800  0.335600  0.813200  1.0  0.4143
  H  H188  1  0.330100  0.187600  0.033400  1.0  0.3808
  H  H189  1  0.308800  0.014000  0.956900  1.0  0.4052
  H  H190  1  0.023200  0.065300  0.649200  1.0  0.4979
  H  H191  1  0.926900  0.629900  0.768700  1.0  0.1548
  H  H192  1  0.797500  0.552800  0.745000  1.0  0.1273
  H  H193  1  0.907300  0.680800  0.715100  1.0  0.1545
  H  H194  1  0.819900  0.714700  0.592200  1.0  0.1257
  H  H195  1  0.783100  0.596400  0.682900  1.0  0.1302
  H  H196  1  0.940900  0.751600  0.707200  1.0  0.1269
  H  H197  1  0.880300  0.760200  0.566100  1.0  0.1358
  H  H198  1  0.748100  0.708900  0.559400  1.0  0.1292
  H  H199  1  0.740200  0.566300  0.620400  1.0  0.12
  H  H200  1  0.809100  0.464700  0.797900  1.0  0.413
  H  H201  1  0.031200  0.835600  0.686800  1.0  0.415
  H  H202  1  0.669900  0.687600  0.466600  1.0  0.3796
  H  H203  1  0.691200  0.514000  0.543100  1.0  0.4049
  H  H204  1  0.976800  0.565300  0.850800  1.0  0.4958
  H  H205  1  0.323100  0.518700  0.879900  1.0  0.1553
  H  H206  1  0.452500  0.495000  0.802800  1.0  0.1278
  H  H207  1  0.342700  0.465100  0.930800  1.0  0.1542
  H  H208  1  0.430100  0.342200  0.964700  1.0  0.1261
  H  H209  1  0.466900  0.432900  0.846400  1.0  0.1301
  H  H210  1  0.309100  0.457200  0.001600  1.0  0.1278
  H  H211  1  0.369700  0.316100  0.010200  1.0  0.1361
  H  H212  1  0.501900  0.309400  0.958900  1.0  0.1276
  H  H213  1  0.509800  0.370400  0.816300  1.0  0.1202
  H  H214  1  0.440900  0.547900  0.714700  1.0  0.415
  H  H215  1  0.218800  0.436800  0.085600  1.0  0.4089
  H  H216  1  0.580100  0.216600  0.937600  1.0  0.3808
  H  H217  1  0.558800  0.293100  0.764000  1.0  0.4045
  H  H218  1  0.273200  0.600800  0.815300  1.0  0.493
  H  H219  1  0.176900  0.481300  0.379900  1.0  0.1548
  H  H220  1  0.047500  0.505000  0.302800  1.0  0.1278
  H  H221  1  0.157300  0.534900  0.430800  1.0  0.1545
  H  H222  1  0.069900  0.657800  0.464700  1.0  0.1267
  H  H223  1  0.033100  0.567100  0.346400  1.0  0.1307
  H  H224  1  0.190900  0.542800  0.501600  1.0  0.1283
  H  H225  1  0.130300  0.683900  0.510200  1.0  0.1359
  H  H226  1  0.998100  0.690600  0.458900  1.0  0.1283
  H  H227  1  0.990200  0.629600  0.316300  1.0  0.1196
  H  H228  1  0.059100  0.452100  0.214700  1.0  0.4137
  H  H229  1  0.281200  0.563200  0.585600  1.0  0.4112
  H  H230  1  0.919900  0.783400  0.437600  1.0  0.3801
  H  H231  1  0.941200  0.706900  0.264000  1.0  0.4046
  H  H232  1  0.226800  0.399200  0.315300  1.0  0.4944
  H  H233  1  0.823100  0.981300  0.120100  1.0  0.1535
  H  H234  1  0.952500  0.005000  0.197200  1.0  0.1277
  H  H235  1  0.842700  0.034900  0.069200  1.0  0.1529
  H  H236  1  0.930100  0.157800  0.035300  1.0  0.1263
  H  H237  1  0.966900  0.067100  0.153600  1.0  0.1307
  H  H238  1  0.809100  0.042800  0.998400  1.0  0.1292
  H  H239  1  0.869700  0.183900  0.989800  1.0  0.1356
  H  H240  1  0.001900  0.190600  0.041100  1.0  0.1268
  H  H241  1  0.009800  0.129600  0.183700  1.0  0.12
  H  H242  1  0.940900  0.952100  0.285300  1.0  0.4138
  H  H243  1  0.718800  0.063200  0.914400  1.0  0.4112
  H  H244  1  0.080100  0.283400  0.062400  1.0  0.3812
  H  H245  1  0.058800  0.206900  0.236000  1.0  0.4056
  H  H246  1  0.773200  0.899200  0.184700  1.0  0.4966
  H  H247  1  0.676900  0.018700  0.620100  1.0  0.1541
  H  H248  1  0.547500  0.995000  0.697200  1.0  0.1277
  H  H249  1  0.657300  0.965100  0.569200  1.0  0.1553
  H  H250  1  0.569900  0.842200  0.535300  1.0  0.1259
  H  H251  1  0.533100  0.932900  0.653600  1.0  0.13
  H  H252  1  0.690900  0.957200  0.498400  1.0  0.1278
  H  H253  1  0.630300  0.816100  0.489800  1.0  0.1354
  H  H254  1  0.498100  0.809400  0.541100  1.0  0.1274
  H  H255  1  0.490200  0.870400  0.683700  1.0  0.12
  H  H256  1  0.559100  0.047900  0.785300  1.0  0.4135
  H  H257  1  0.781200  0.936800  0.414400  1.0  0.4105
  H  H258  1  0.419900  0.716600  0.562400  1.0  0.381
  H  H259  1  0.441200  0.793100  0.736000  1.0  0.4068
  H  H260  1  0.726800  0.100800  0.684700  1.0  0.4956
  H  H261  1  0.018700  0.620100  0.676900  1.0  0.1525
  H  H262  1  0.995000  0.697200  0.547500  1.0  0.128
  H  H263  1  0.965100  0.569200  0.657300  1.0  0.1543
  H  H264  1  0.842200  0.535300  0.569900  1.0  0.1257
  H  H265  1  0.932900  0.653600  0.533100  1.0  0.13
  H  H266  1  0.957200  0.498400  0.690900  1.0  0.1277
  H  H267  1  0.816100  0.489800  0.630300  1.0  0.1354
  H  H268  1  0.809400  0.541100  0.498100  1.0  0.1269
  H  H269  1  0.870400  0.683700  0.490200  1.0  0.1201
  H  H270  1  0.047900  0.785300  0.559100  1.0  0.4131
  H  H271  1  0.936800  0.414400  0.781200  1.0  0.413
  H  H272  1  0.716600  0.562400  0.419900  1.0  0.3813
  H  H273  1  0.793100  0.736000  0.441200  1.0  0.4059
  H  H274  1  0.100800  0.684700  0.726800  1.0  0.4893
  H  H275  1  0.981300  0.120100  0.823100  1.0  0.1532
  H  H276  1  0.005000  0.197200  0.952500  1.0  0.1288
  H  H277  1  0.034900  0.069200  0.842700  1.0  0.1537
  H  H278  1  0.157800  0.035300  0.930100  1.0  0.1269
  H  H279  1  0.067100  0.153600  0.966900  1.0  0.13
  H  H280  1  0.042800  0.998400  0.809100  1.0  0.1274
  H  H281  1  0.183900  0.989800  0.869700  1.0  0.1363
  H  H282  1  0.190600  0.041100  0.001900  1.0  0.1273
  H  H283  1  0.129600  0.183700  0.009800  1.0  0.121
  H  H284  1  0.952100  0.285300  0.940900  1.0  0.4135
  H  H285  1  0.063200  0.914400  0.718800  1.0  0.4114
  H  H286  1  0.283400  0.062400  0.080100  1.0  0.3805
  H  H287  1  0.206900  0.236000  0.058800  1.0  0.4047
  H  H288  1  0.899200  0.184700  0.773200  1.0  0.4919
  H  H289  1  0.481300  0.379900  0.176900  1.0  0.1537
  H  H290  1  0.505000  0.302800  0.047500  1.0  0.1287
  H  H291  1  0.534900  0.430800  0.157300  1.0  0.1532
  H  H292  1  0.657800  0.464700  0.069900  1.0  0.1272
  H  H293  1  0.567100  0.346400  0.033100  1.0  0.1304
  H  H294  1  0.542800  0.501600  0.190900  1.0  0.1274
  H  H295  1  0.683900  0.510200  0.130300  1.0  0.1364
  H  H296  1  0.690600  0.458900  0.998100  1.0  0.1278
  H  H297  1  0.629600  0.316300  0.990200  1.0  0.1201
  H  H298  1  0.452100  0.214700  0.059100  1.0  0.4148
  H  H299  1  0.563200  0.585600  0.281200  1.0  0.4128
  H  H300  1  0.783400  0.437600  0.919900  1.0  0.3808
  H  H301  1  0.706900  0.264000  0.941200  1.0  0.4064
  H  H302  1  0.399200  0.315300  0.226800  1.0  0.4911
  H  H303  1  0.518700  0.879900  0.323100  1.0  0.1529
  H  H304  1  0.495000  0.802800  0.452500  1.0  0.1279
  H  H305  1  0.465100  0.930800  0.342700  1.0  0.1544
  H  H306  1  0.342200  0.964700  0.430100  1.0  0.1259
  H  H307  1  0.432900  0.846400  0.466900  1.0  0.1299
  H  H308  1  0.457200  0.001600  0.309100  1.0  0.1276
  H  H309  1  0.316100  0.010200  0.369700  1.0  0.1357
  H  H310  1  0.309400  0.958900  0.501900  1.0  0.1279
  H  H311  1  0.370400  0.816300  0.509800  1.0  0.1202
  H  H312  1  0.547900  0.714700  0.440900  1.0  0.4136
  H  H313  1  0.436800  0.085600  0.218800  1.0  0.4126
  H  H314  1  0.216600  0.937600  0.580100  1.0  0.3816
  H  H315  1  0.293100  0.764000  0.558800  1.0  0.4043
  H  H316  1  0.600800  0.815300  0.273200  1.0  0.4903
  H  H317  1  0.120100  0.823100  0.981300  1.0  0.1543
  H  H318  1  0.197200  0.952500  0.005000  1.0  0.1287
  H  H319  1  0.069200  0.842700  0.034900  1.0  0.154
  H  H320  1  0.035300  0.930100  0.157800  1.0  0.1258
  H  H321  1  0.153600  0.966900  0.067100  1.0  0.1305
  H  H322  1  0.998400  0.809100  0.042800  1.0  0.1282
  H  H323  1  0.989800  0.869700  0.183900  1.0  0.136
  H  H324  1  0.041100  0.001900  0.190600  1.0  0.127
  H  H325  1  0.183700  0.009800  0.129600  1.0  0.1201
  H  H326  1  0.285300  0.940900  0.952100  1.0  0.4157
  H  H327  1  0.914400  0.718800  0.063200  1.0  0.413
  H  H328  1  0.062400  0.080100  0.283400  1.0  0.3799
  H  H329  1  0.236000  0.058800  0.206900  1.0  0.4053
  H  H330  1  0.184700  0.773200  0.899200  1.0  0.4905
  H  H331  1  0.620100  0.676900  0.018700  1.0  0.1553
  H  H332  1  0.697200  0.547500  0.995000  1.0  0.1274
  H  H333  1  0.569200  0.657300  0.965100  1.0  0.1547
  H  H334  1  0.535300  0.569900  0.842200  1.0  0.1255
  H  H335  1  0.653600  0.533100  0.932900  1.0  0.131
  H  H336  1  0.498400  0.690900  0.957200  1.0  0.1284
  H  H337  1  0.489800  0.630300  0.816100  1.0  0.1359
  H  H338  1  0.541100  0.498100  0.809400  1.0  0.1274
  H  H339  1  0.683700  0.490200  0.870400  1.0  0.1204
  H  H340  1  0.785300  0.559100  0.047900  1.0  0.4156
  H  H341  1  0.414400  0.781200  0.936800  1.0  0.4133
  H  H342  1  0.562400  0.419900  0.716600  1.0  0.3792
  H  H343  1  0.736000  0.441200  0.793100  1.0  0.4048
  H  H344  1  0.684700  0.726800  0.100800  1.0  0.4922
  H  H345  1  0.879900  0.323100  0.518700  1.0  0.1548
  H  H346  1  0.802800  0.452500  0.495000  1.0  0.1273
  H  H347  1  0.930800  0.342700  0.465100  1.0  0.1545
  H  H348  1  0.964700  0.430100  0.342200  1.0  0.1256
  H  H349  1  0.846400  0.466900  0.432900  1.0  0.129
  H  H350  1  0.001600  0.309100  0.457200  1.0  0.1274
  H  H351  1  0.010200  0.369700  0.316100  1.0  0.1361
  H  H352  1  0.958900  0.501900  0.309400  1.0  0.1276
  H  H353  1  0.816300  0.509800  0.370400  1.0  0.1203
  H  H354  1  0.714700  0.440900  0.547900  1.0  0.4158
  H  H355  1  0.085600  0.218800  0.436800  1.0  0.4128
  H  H356  1  0.937600  0.580100  0.216600  1.0  0.3788
  H  H357  1  0.764000  0.558800  0.293100  1.0  0.4047
  H  H358  1  0.815300  0.273200  0.600800  1.0  0.4918
  H  H359  1  0.379900  0.176900  0.481300  1.0  0.1548
  H  H360  1  0.302800  0.047500  0.505000  1.0  0.1275
  H  H361  1  0.430800  0.157300  0.534900  1.0  0.1554
  H  H362  1  0.464700  0.069900  0.657800  1.0  0.1264
  H  H363  1  0.346400  0.033100  0.567100  1.0  0.129
  H  H364  1  0.501600  0.190900  0.542800  1.0  0.1281
  H  H365  1  0.510200  0.130300  0.683900  1.0  0.1356
  H  H366  1  0.458900  0.998100  0.690600  1.0  0.1277
  H  H367  1  0.316300  0.990200  0.629600  1.0  0.1198
  H  H368  1  0.214700  0.059100  0.452100  1.0  0.416
  H  H369  1  0.585600  0.281200  0.563200  1.0  0.4122
  H  H370  1  0.437600  0.919900  0.783400  1.0  0.3797
  H  H371  1  0.264000  0.941200  0.706900  1.0  0.4051
  H  H372  1  0.315300  0.226800  0.399200  1.0  0.4928
  C  C373  1  0.370700  0.601500  0.508600  1.0  0.6629
  C  C374  1  0.330500  0.615400  0.470000  1.0  -0.1353
  C  C375  1  0.317700  0.582600  0.429300  1.0  0.2984
  C  C376  1  0.277400  0.595700  0.396400  1.0  -0.1422
  C  C377  1  0.250200  0.640200  0.401300  1.0  0.0057
  C  C378  1  0.263000  0.672000  0.442300  1.0  -0.1557
  C  C379  1  0.301800  0.659400  0.475900  1.0  0.4399
  C  C380  1  0.206100  0.654000  0.367400  1.0  -0.0263
  C  C381  1  0.194500  0.621300  0.325700  1.0  -0.1009
  C  C382  1  0.151800  0.631700  0.293800  1.0  0.0013
  C  C383  1  0.121000  0.673600  0.305500  1.0  -0.1105
  C  C384  1  0.131900  0.705700  0.346000  1.0  -0.0879
  C  C385  1  0.175100  0.695100  0.376400  1.0  -0.1215
  C  C386  1  0.138800  0.596200  0.250500  1.0  -0.0309
  C  C387  1  0.174900  0.560300  0.233200  1.0  -0.1511
  C  C388  1  0.163100  0.526700  0.193900  1.0  0.3194
  C  C389  1  0.114400  0.527500  0.170200  1.0  -0.1259
  C  C390  1  0.078300  0.562600  0.188300  1.0  -0.0556
  C  C391  1  0.090700  0.596500  0.228200  1.0  -0.151
  C  C392  1  0.100500  0.490200  0.128900  1.0  0.7229
  C  C393  1  0.097100  0.748500  0.359900  1.0  0.0493
  C  C394  1  0.060500  0.766300  0.323800  1.0  -0.1475
  C  C395  1  0.026500  0.804700  0.336500  1.0  0.3482
  C  C396  1  0.027200  0.826800  0.385300  1.0  -0.0891
  C  C397  1  0.063300  0.809800  0.420900  1.0  0.328
  C  C398  1  0.097100  0.771200  0.409000  1.0  -0.1726
  C  C399  1  0.990200  0.868300  0.399800  1.0  0.7004
  C  C400  1  0.129300  0.398500  0.008600  1.0  0.6617
  C  C401  1  0.169500  0.384600  0.970000  1.0  -0.1355
  C  C402  1  0.182300  0.417400  0.929300  1.0  0.2973
  C  C403  1  0.222600  0.404300  0.896400  1.0  -0.142
  C  C404  1  0.249800  0.359800  0.901300  1.0  0.0063
  C  C405  1  0.237000  0.328000  0.942300  1.0  -0.1543
  C  C406  1  0.198200  0.340600  0.975900  1.0  0.4389
  C  C407  1  0.293900  0.346000  0.867400  1.0  -0.0261
  C  C408  1  0.305500  0.378700  0.825700  1.0  -0.1037
  C  C409  1  0.348200  0.368300  0.793800  1.0  -0.0002
  C  C410  1  0.379000  0.326400  0.805500  1.0  -0.1129
  C  C411  1  0.368100  0.294300  0.846000  1.0  -0.0888
  C  C412  1  0.324900  0.304900  0.876400  1.0  -0.1246
  C  C413  1  0.361200  0.403800  0.750500  1.0  -0.0319
  C  C414  1  0.325100  0.439700  0.733200  1.0  -0.1512
  C  C415  1  0.336900  0.473300  0.693900  1.0  0.3167
  C  C416  1  0.385600  0.472500  0.670200  1.0  -0.1265
  C  C417  1  0.421700  0.437400  0.688300  1.0  -0.0512
  C  C418  1  0.409300  0.403500  0.728200  1.0  -0.1523
  C  C419  1  0.399500  0.509800  0.628900  1.0  0.72
  C  C420  1  0.402900  0.251500  0.859900  1.0  0.0477
  C  C421  1  0.439500  0.233700  0.823800  1.0  -0.1485
  C  C422  1  0.473500  0.195300  0.836500  1.0  0.348
  C  C423  1  0.472800  0.173200  0.885300  1.0  -0.0903
  C  C424  1  0.436700  0.190200  0.920900  1.0  0.3279
  C  C425  1  0.402900  0.228800  0.909000  1.0  -0.1726
  C  C426  1  0.509800  0.131700  0.899800  1.0  0.7006
  C  C427  1  0.629300  0.101500  0.991400  1.0  0.6616
  C  C428  1  0.669500  0.115400  0.030000  1.0  -0.135
  C  C429  1  0.682300  0.082600  0.070700  1.0  0.2973
  C  C430  1  0.722600  0.095700  0.103600  1.0  -0.1393
  C  C431  1  0.749800  0.140200  0.098700  1.0  0.0097
  C  C432  1  0.737000  0.172000  0.057700  1.0  -0.1544
  C  C433  1  0.698200  0.159400  0.024100  1.0  0.441
  C  C434  1  0.793900  0.154000  0.132600  1.0  -0.0226
  C  C435  1  0.805500  0.121300  0.174300  1.0  -0.1003
  C  C436  1  0.848200  0.131700  0.206200  1.0  0.0038
  C  C437  1  0.879000  0.173600  0.194500  1.0  -0.1117
  C  C438  1  0.868100  0.205700  0.154000  1.0  -0.0875
  C  C439  1  0.824900  0.195100  0.123600  1.0  -0.1237
  C  C440  1  0.861200  0.096200  0.249500  1.0  -0.0319
  C  C441  1  0.825100  0.060300  0.266800  1.0  -0.1501
  C  C442  1  0.836900  0.026700  0.306100  1.0  0.3159
  C  C443  1  0.885600  0.027500  0.329800  1.0  -0.1253
  C  C444  1  0.921700  0.062600  0.311700  1.0  -0.0506
  C  C445  1  0.909300  0.096500  0.271800  1.0  -0.1511
  C  C446  1  0.899500  0.990200  0.371100  1.0  0.7208
  C  C447  1  0.902900  0.248500  0.140100  1.0  0.0486
  C  C448  1  0.939500  0.266300  0.176200  1.0  -0.1488
  C  C449  1  0.973500  0.304700  0.163500  1.0  0.3471
  C  C450  1  0.972800  0.326800  0.114700  1.0  -0.0894
  C  C451  1  0.936700  0.309800  0.079100  1.0  0.3273
  C  C452  1  0.902900  0.271200  0.091000  1.0  -0.1733
  C  C453  1  0.009800  0.368300  0.100200  1.0  0.7006
  C  C454  1  0.870700  0.898500  0.491400  1.0  0.6633
  C  C455  1  0.830500  0.884600  0.530000  1.0  -0.1361
  C  C456  1  0.817700  0.917400  0.570700  1.0  0.2995
  C  C457  1  0.777400  0.904300  0.603600  1.0  -0.1415
  C  C458  1  0.750200  0.859800  0.598700  1.0  0.0102
  C  C459  1  0.763000  0.828000  0.557700  1.0  -0.1547
  C  C460  1  0.801800  0.840600  0.524100  1.0  0.44
  C  C461  1  0.706100  0.846000  0.632600  1.0  -0.0252
  C  C462  1  0.694500  0.878700  0.674300  1.0  -0.0971
  C  C463  1  0.651800  0.868300  0.706200  1.0  0.003
  C  C464  1  0.621000  0.826400  0.694500  1.0  -0.1117
  C  C465  1  0.631900  0.794300  0.654000  1.0  -0.0884
  C  C466  1  0.675100  0.804900  0.623600  1.0  -0.1206
  C  C467  1  0.638800  0.903800  0.749500  1.0  -0.0316
  C  C468  1  0.674900  0.939700  0.766800  1.0  -0.1494
  C  C469  1  0.663100  0.973300  0.806100  1.0  0.3177
  C  C470  1  0.614400  0.972500  0.829800  1.0  -0.1243
  C  C471  1  0.578300  0.937400  0.811700  1.0  -0.0533
  C  C472  1  0.590700  0.903500  0.771800  1.0  -0.149
  C  C473  1  0.600500  0.009800  0.871100  1.0  0.721
  C  C474  1  0.597100  0.751500  0.640100  1.0  0.0494
  C  C475  1  0.560500  0.733700  0.676200  1.0  -0.1477
  C  C476  1  0.526500  0.695300  0.663500  1.0  0.348
  C  C477  1  0.527200  0.673200  0.614700  1.0  -0.0902
  C  C478  1  0.563300  0.690200  0.579100  1.0  0.3263
  C  C479  1  0.597100  0.728800  0.591000  1.0  -0.173
  C  C480  1  0.490200  0.631700  0.600200  1.0  0.7006
  C  C481  1  0.508600  0.370700  0.601500  1.0  0.6625
  C  C482  1  0.470000  0.330500  0.615400  1.0  -0.1372
  C  C483  1  0.429300  0.317700  0.582600  1.0  0.2964
  C  C484  1  0.396400  0.277400  0.595700  1.0  -0.1426
  C  C485  1  0.401300  0.250200  0.640200  1.0  0.0107
  C  C486  1  0.442300  0.263000  0.672000  1.0  -0.1555
  C  C487  1  0.475900  0.301800  0.659400  1.0  0.4391
  C  C488  1  0.367400  0.206100  0.654000  1.0  -0.023
  C  C489  1  0.325700  0.194500  0.621300  1.0  -0.0982
  C  C490  1  0.293800  0.151800  0.631700  1.0  0.008
  C  C491  1  0.305500  0.121000  0.673600  1.0  -0.117
  C  C492  1  0.346000  0.131900  0.705700  1.0  -0.0892
  C  C493  1  0.376400  0.175100  0.695100  1.0  -0.1181
  C  C494  1  0.250500  0.138800  0.596200  1.0  -0.034
  C  C495  1  0.233200  0.174900  0.560300  1.0  -0.1549
  C  C496  1  0.193900  0.163100  0.526700  1.0  0.3166
  C  C497  1  0.170200  0.114400  0.527500  1.0  -0.1303
  C  C498  1  0.188300  0.078300  0.562600  1.0  -0.054
  C  C499  1  0.228200  0.090700  0.596500  1.0  -0.1527
  C  C500  1  0.128900  0.100500  0.490200  1.0  0.7091
  C  C501  1  0.359900  0.097100  0.748500  1.0  0.0474
  C  C502  1  0.323800  0.060500  0.766300  1.0  -0.1512
  C  C503  1  0.336500  0.026500  0.804700  1.0  0.3493
  C  C504  1  0.385300  0.027200  0.826800  1.0  -0.0903
  C  C505  1  0.420900  0.063300  0.809800  1.0  0.3308
  C  C506  1  0.409000  0.097100  0.771200  1.0  -0.1727
  C  C507  1  0.399800  0.990200  0.868300  1.0  0.7
  C  C508  1  0.008600  0.129300  0.398500  1.0  0.6634
  C  C509  1  0.970000  0.169500  0.384600  1.0  -0.1368
  C  C510  1  0.929300  0.182300  0.417400  1.0  0.2974
  C  C511  1  0.896400  0.222600  0.404300  1.0  -0.1398
  C  C512  1  0.901300  0.249800  0.359800  1.0  0.0102
  C  C513  1  0.942300  0.237000  0.328000  1.0  -0.1542
  C  C514  1  0.975900  0.198200  0.340600  1.0  0.4388
  C  C515  1  0.867400  0.293900  0.346000  1.0  -0.0228
  C  C516  1  0.825700  0.305500  0.378700  1.0  -0.0996
  C  C517  1  0.793800  0.348200  0.368300  1.0  0.0075
  C  C518  1  0.805500  0.379000  0.326400  1.0  -0.1186
  C  C519  1  0.846000  0.368100  0.294300  1.0  -0.0888
  C  C520  1  0.876400  0.324900  0.304900  1.0  -0.1185
  C  C521  1  0.750500  0.361200  0.403800  1.0  -0.0339
  C  C522  1  0.733200  0.325100  0.439700  1.0  -0.1543
  C  C523  1  0.693900  0.336900  0.473300  1.0  0.3158
  C  C524  1  0.670200  0.385600  0.472500  1.0  -0.1311
  C  C525  1  0.688300  0.421700  0.437400  1.0  -0.0529
  C  C526  1  0.728200  0.409300  0.403500  1.0  -0.1528
  C  C527  1  0.628900  0.399500  0.509800  1.0  0.709
  C  C528  1  0.859900  0.402900  0.251500  1.0  0.046
  C  C529  1  0.823800  0.439500  0.233700  1.0  -0.1505
  C  C530  1  0.836500  0.473500  0.195300  1.0  0.3489
  C  C531  1  0.885300  0.472800  0.173200  1.0  -0.0901
  C  C532  1  0.920900  0.436700  0.190200  1.0  0.3313
  C  C533  1  0.909000  0.402900  0.228800  1.0  -0.1733
  C  C534  1  0.899800  0.509800  0.131700  1.0  0.6993
  C  C535  1  0.991400  0.629300  0.101500  1.0  0.6615
  C  C536  1  0.030000  0.669500  0.115400  1.0  -0.1381
  C  C537  1  0.070700  0.682300  0.082600  1.0  0.2963
  C  C538  1  0.103600  0.722600  0.095700  1.0  -0.142
  C  C539  1  0.098700  0.749800  0.140200  1.0  0.0094
  C  C540  1  0.057700  0.737000  0.172000  1.0  -0.1545
  C  C541  1  0.024100  0.698200  0.159400  1.0  0.4402
  C  C542  1  0.132600  0.793900  0.154000  1.0  -0.0239
  C  C543  1  0.174300  0.805500  0.121300  1.0  -0.0995
  C  C544  1  0.206200  0.848200  0.131700  1.0  0.0068
  C  C545  1  0.194500  0.879000  0.173600  1.0  -0.1131
  C  C546  1  0.154000  0.868100  0.205700  1.0  -0.0901
  C  C547  1  0.123600  0.824900  0.195100  1.0  -0.1178
  C  C548  1  0.249500  0.861200  0.096200  1.0  -0.0328
  C  C549  1  0.266800  0.825100  0.060300  1.0  -0.1533
  C  C550  1  0.306100  0.836900  0.026700  1.0  0.3149
  C  C551  1  0.329800  0.885600  0.027500  1.0  -0.1299
  C  C552  1  0.311700  0.921700  0.062600  1.0  -0.0509
  C  C553  1  0.271800  0.909300  0.096500  1.0  -0.152
  C  C554  1  0.371100  0.899500  0.990200  1.0  0.7062
  C  C555  1  0.140100  0.902900  0.248500  1.0  0.0493
  C  C556  1  0.176200  0.939500  0.266300  1.0  -0.1508
  C  C557  1  0.163500  0.973500  0.304700  1.0  0.3488
  C  C558  1  0.114700  0.972800  0.326800  1.0  -0.0895
  C  C559  1  0.079100  0.936700  0.309800  1.0  0.3305
  C  C560  1  0.091000  0.902900  0.271200  1.0  -0.1719
  C  C561  1  0.100200  0.009800  0.368300  1.0  0.7002
  C  C562  1  0.491400  0.870700  0.898500  1.0  0.6626
  C  C563  1  0.530000  0.830500  0.884600  1.0  -0.1373
  C  C564  1  0.570700  0.817700  0.917400  1.0  0.2978
  C  C565  1  0.603600  0.777400  0.904300  1.0  -0.1411
  C  C566  1  0.598700  0.750200  0.859800  1.0  0.0092
  C  C567  1  0.557700  0.763000  0.828000  1.0  -0.1538
  C  C568  1  0.524100  0.801800  0.840600  1.0  0.4398
  C  C569  1  0.632600  0.706100  0.846000  1.0  -0.0252
  C  C570  1  0.674300  0.694500  0.878700  1.0  -0.0975
  C  C571  1  0.706200  0.651800  0.868300  1.0  0.0078
  C  C572  1  0.694500  0.621000  0.826400  1.0  -0.1131
  C  C573  1  0.654000  0.631900  0.794300  1.0  -0.0878
  C  C574  1  0.623600  0.675100  0.804900  1.0  -0.1176
  C  C575  1  0.749500  0.638800  0.903800  1.0  -0.0331
  C  C576  1  0.766800  0.674900  0.939700  1.0  -0.154
  C  C577  1  0.806100  0.663100  0.973300  1.0  0.3179
  C  C578  1  0.829800  0.614400  0.972500  1.0  -0.1288
  C  C579  1  0.811700  0.578300  0.937400  1.0  -0.0504
  C  C580  1  0.771800  0.590700  0.903500  1.0  -0.1511
  C  C581  1  0.871100  0.600500  0.009800  1.0  0.7061
  C  C582  1  0.640100  0.597100  0.751500  1.0  0.0483
  C  C583  1  0.676200  0.560500  0.733700  1.0  -0.1506
  C  C584  1  0.663500  0.526500  0.695300  1.0  0.3494
  C  C585  1  0.614700  0.527200  0.673200  1.0  -0.0901
  C  C586  1  0.579100  0.563300  0.690200  1.0  0.3314
  C  C587  1  0.591000  0.597100  0.728800  1.0  -0.173
  C  C588  1  0.600200  0.490200  0.631700  1.0  0.6996
  C  C589  1  0.601500  0.508600  0.370700  1.0  0.6656
  C  C590  1  0.615400  0.470000  0.330500  1.0  -0.1331
  C  C591  1  0.582600  0.429300  0.317700  1.0  0.2941
  C  C592  1  0.595700  0.396400  0.277400  1.0  -0.1436
  C  C593  1  0.640200  0.401300  0.250200  1.0  0.0109
  C  C594  1  0.672000  0.442300  0.263000  1.0  -0.1537
  C  C595  1  0.659400  0.475900  0.301800  1.0  0.4372
  C  C596  1  0.654000  0.367400  0.206100  1.0  -0.0272
  C  C597  1  0.621300  0.325700  0.194500  1.0  -0.0998
  C  C598  1  0.631700  0.293800  0.151800  1.0  0.0063
  C  C599  1  0.673600  0.305500  0.121000  1.0  -0.1158
  C  C600  1  0.705700  0.346000  0.131900  1.0  -0.0905
  C  C601  1  0.695100  0.376400  0.175100  1.0  -0.1195
  C  C602  1  0.596200  0.250500  0.138800  1.0  -0.0317
  C  C603  1  0.560300  0.233200  0.174900  1.0  -0.152
  C  C604  1  0.526700  0.193900  0.163100  1.0  0.3218
  C  C605  1  0.527500  0.170200  0.114400  1.0  -0.129
  C  C606  1  0.562600  0.188300  0.078300  1.0  -0.0533
  C  C607  1  0.596500  0.228200  0.090700  1.0  -0.1495
  C  C608  1  0.490200  0.128900  0.100500  1.0  0.7122
  C  C609  1  0.748500  0.359900  0.097100  1.0  0.0467
  C  C610  1  0.766300  0.323800  0.060500  1.0  -0.1468
  C  C611  1  0.804700  0.336500  0.026500  1.0  0.3485
  C  C612  1  0.826800  0.385300  0.027200  1.0  -0.0907
  C  C613  1  0.809800  0.420900  0.063300  1.0  0.3267
  C  C614  1  0.771200  0.409000  0.097100  1.0  -0.1716
  C  C615  1  0.868300  0.399800  0.990200  1.0  0.6984
  C  C616  1  0.398500  0.008600  0.129300  1.0  0.6679
  C  C617  1  0.384600  0.970000  0.169500  1.0  -0.1353
  C  C618  1  0.417400  0.929300  0.182300  1.0  0.2946
  C  C619  1  0.404300  0.896400  0.222600  1.0  -0.1442
  C  C620  1  0.359800  0.901300  0.249800  1.0  0.0096
  C  C621  1  0.328000  0.942300  0.237000  1.0  -0.1551
  C  C622  1  0.340600  0.975900  0.198200  1.0  0.4389
  C  C623  1  0.346000  0.867400  0.293900  1.0  -0.0268
  C  C624  1  0.378700  0.825700  0.305500  1.0  -0.1049
  C  C625  1  0.368300  0.793800  0.348200  1.0  0.0027
  C  C626  1  0.326400  0.805500  0.379000  1.0  -0.1222
  C  C627  1  0.294300  0.846000  0.368100  1.0  -0.0905
  C  C628  1  0.304900  0.876400  0.324900  1.0  -0.1234
  C  C629  1  0.403800  0.750500  0.361200  1.0  -0.0352
  C  C630  1  0.439700  0.733200  0.325100  1.0  -0.1514
  C  C631  1  0.473300  0.693900  0.336900  1.0  0.3167
  C  C632  1  0.472500  0.670200  0.385600  1.0  -0.1301
  C  C633  1  0.437400  0.688300  0.421700  1.0  -0.054
  C  C634  1  0.403500  0.728200  0.409300  1.0  -0.1507
  C  C635  1  0.509800  0.628900  0.399500  1.0  0.7126
  C  C636  1  0.251500  0.859900  0.402900  1.0  0.0444
  C  C637  1  0.233700  0.823800  0.439500  1.0  -0.1482
  C  C638  1  0.195300  0.836500  0.473500  1.0  0.3489
  C  C639  1  0.173200  0.885300  0.472800  1.0  -0.0903
  C  C640  1  0.190200  0.920900  0.436700  1.0  0.3276
  C  C641  1  0.228800  0.909000  0.402900  1.0  -0.1725
  C  C642  1  0.131700  0.899800  0.509800  1.0  0.6971
  C  C643  1  0.101500  0.991400  0.629300  1.0  0.6658
  C  C644  1  0.115400  0.030000  0.669500  1.0  -0.1356
  C  C645  1  0.082600  0.070700  0.682300  1.0  0.2929
  C  C646  1  0.095700  0.103600  0.722600  1.0  -0.1439
  C  C647  1  0.140200  0.098700  0.749800  1.0  0.0094
  C  C648  1  0.172000  0.057700  0.737000  1.0  -0.1543
  C  C649  1  0.159400  0.024100  0.698200  1.0  0.4371
  C  C650  1  0.154000  0.132600  0.793900  1.0  -0.0274
  C  C651  1  0.121300  0.174300  0.805500  1.0  -0.1027
  C  C652  1  0.131700  0.206200  0.848200  1.0  0.0043
  C  C653  1  0.173600  0.194500  0.879000  1.0  -0.1169
  C  C654  1  0.205700  0.154000  0.868100  1.0  -0.0895
  C  C655  1  0.195100  0.123600  0.824900  1.0  -0.1196
  C  C656  1  0.096200  0.249500  0.861200  1.0  -0.0348
  C  C657  1  0.060300  0.266800  0.825100  1.0  -0.154
  C  C658  1  0.026700  0.306100  0.836900  1.0  0.3181
  C  C659  1  0.027500  0.329800  0.885600  1.0  -0.1294
  C  C660  1  0.062600  0.311700  0.921700  1.0  -0.0542
  C  C661  1  0.096500  0.271800  0.909300  1.0  -0.1498
  C  C662  1  0.990200  0.371100  0.899500  1.0  0.7146
  C  C663  1  0.248500  0.140100  0.902900  1.0  0.0465
  C  C664  1  0.266300  0.176200  0.939500  1.0  -0.1498
  C  C665  1  0.304700  0.163500  0.973500  1.0  0.3481
  C  C666  1  0.326800  0.114700  0.972800  1.0  -0.0909
  C  C667  1  0.309800  0.079100  0.936700  1.0  0.3258
  C  C668  1  0.271200  0.091000  0.902900  1.0  -0.1723
  C  C669  1  0.368300  0.100200  0.009800  1.0  0.6989
  C  C670  1  0.898500  0.491400  0.870700  1.0  0.6673
  C  C671  1  0.884600  0.530000  0.830500  1.0  -0.1363
  C  C672  1  0.917400  0.570700  0.817700  1.0  0.2939
  C  C673  1  0.904300  0.603600  0.777400  1.0  -0.1434
  C  C674  1  0.859800  0.598700  0.750200  1.0  0.0097
  C  C675  1  0.828000  0.557700  0.763000  1.0  -0.1547
  C  C676  1  0.840600  0.524100  0.801800  1.0  0.4396
  C  C677  1  0.846000  0.632600  0.706100  1.0  -0.026
  C  C678  1  0.878700  0.674300  0.694500  1.0  -0.1002
  C  C679  1  0.868300  0.706200  0.651800  1.0  0.0036
  C  C680  1  0.826400  0.694500  0.621000  1.0  -0.1194
  C  C681  1  0.794300  0.654000  0.631900  1.0  -0.0904
  C  C682  1  0.804900  0.623600  0.675100  1.0  -0.1229
  C  C683  1  0.903800  0.749500  0.638800  1.0  -0.0341
  C  C684  1  0.939700  0.766800  0.674900  1.0  -0.1536
  C  C685  1  0.973300  0.806100  0.663100  1.0  0.3187
  C  C686  1  0.972500  0.829800  0.614400  1.0  -0.1309
  C  C687  1  0.937400  0.811700  0.578300  1.0  -0.0552
  C  C688  1  0.903500  0.771800  0.590700  1.0  -0.1505
  C  C689  1  0.009800  0.871100  0.600500  1.0  0.7146
  C  C690  1  0.751500  0.640100  0.597100  1.0  0.0459
  C  C691  1  0.733700  0.676200  0.560500  1.0  -0.1476
  C  C692  1  0.695300  0.663500  0.526500  1.0  0.3479
  C  C693  1  0.673200  0.614700  0.527200  1.0  -0.0904
  C  C694  1  0.690200  0.579100  0.563300  1.0  0.3279
  C  C695  1  0.728800  0.591000  0.597100  1.0  -0.1727
  C  C696  1  0.631700  0.600200  0.490200  1.0  0.6969
  C  C697  1  0.351500  0.620700  0.741400  1.0  0.6661
  C  C698  1  0.365400  0.580500  0.780000  1.0  -0.1333
  C  C699  1  0.332600  0.567700  0.820700  1.0  0.2922
  C  C700  1  0.345700  0.527400  0.853600  1.0  -0.1414
  C  C701  1  0.390200  0.500200  0.848700  1.0  0.0101
  C  C702  1  0.422000  0.513000  0.807700  1.0  -0.1537
  C  C703  1  0.409400  0.551800  0.774100  1.0  0.4377
  C  C704  1  0.404000  0.456100  0.882600  1.0  -0.0255
  C  C705  1  0.371300  0.444500  0.924300  1.0  -0.098
  C  C706  1  0.381700  0.401800  0.956200  1.0  0.0046
  C  C707  1  0.423600  0.371000  0.944500  1.0  -0.1128
  C  C708  1  0.455700  0.381900  0.904000  1.0  -0.0882
  C  C709  1  0.445100  0.425100  0.873600  1.0  -0.1201
  C  C710  1  0.346200  0.388800  0.999500  1.0  -0.0329
  C  C711  1  0.310300  0.424900  0.016800  1.0  -0.1547
  C  C712  1  0.276700  0.413100  0.056100  1.0  0.319
  C  C713  1  0.277500  0.364400  0.079800  1.0  -0.1245
  C  C714  1  0.312600  0.328300  0.061700  1.0  -0.0496
  C  C715  1  0.346500  0.340700  0.021800  1.0  -0.1509
  C  C716  1  0.240200  0.350500  0.121100  1.0  0.7211
  C  C717  1  0.498500  0.347100  0.890100  1.0  0.0502
  C  C718  1  0.516300  0.310500  0.926200  1.0  -0.1496
  C  C719  1  0.554700  0.276500  0.913500  1.0  0.3487
  C  C720  1  0.576800  0.277200  0.864700  1.0  -0.0905
  C  C721  1  0.559800  0.313300  0.829100  1.0  0.3261
  C  C722  1  0.521200  0.347100  0.841000  1.0  -0.1726
  C  C723  1  0.618300  0.240200  0.850200  1.0  0.6975
  C  C724  1  0.148500  0.379300  0.241400  1.0  0.6677
  C  C725  1  0.134600  0.419500  0.280000  1.0  -0.1352
  C  C726  1  0.167400  0.432300  0.320700  1.0  0.2935
  C  C727  1  0.154300  0.472600  0.353600  1.0  -0.1395
  C  C728  1  0.109800  0.499800  0.348700  1.0  0.0102
  C  C729  1  0.078000  0.487000  0.307700  1.0  -0.154
  C  C730  1  0.090600  0.448200  0.274100  1.0  0.4407
  C  C731  1  0.096000  0.543900  0.382600  1.0  -0.0238
  C  C732  1  0.128700  0.555500  0.424300  1.0  -0.1025
  C  C733  1  0.118300  0.598200  0.456200  1.0  0.0057
  C  C734  1  0.076400  0.629000  0.444500  1.0  -0.1176
  C  C735  1  0.044300  0.618100  0.404000  1.0  -0.0886
  C  C736  1  0.054900  0.574900  0.373600  1.0  -0.1236
  C  C737  1  0.153800  0.611200  0.499500  1.0  -0.0322
  C  C738  1  0.189700  0.575100  0.516800  1.0  -0.1533
  C  C739  1  0.223300  0.586900  0.556100  1.0  0.3166
  C  C740  1  0.222500  0.635600  0.579800  1.0  -0.1261
  C  C741  1  0.187400  0.671700  0.561700  1.0  -0.0491
  C  C742  1  0.153500  0.659300  0.521800  1.0  -0.1516
  C  C743  1  0.259800  0.649500  0.621100  1.0  0.7206
  C  C744  1  0.001500  0.652900  0.390100  1.0  0.049
  C  C745  1  0.983700  0.689500  0.426200  1.0  -0.1502
  C  C746  1  0.945300  0.723500  0.413500  1.0  0.3482
  C  C747  1  0.923200  0.722800  0.364700  1.0  -0.0896
  C  C748  1  0.940200  0.686700  0.329100  1.0  0.3273
  C  C749  1  0.978800  0.652900  0.341000  1.0  -0.1735
  C  C750  1  0.881700  0.759800  0.350200  1.0  0.6964
  C  C751  1  0.851500  0.879300  0.258600  1.0  0.6657
  C  C752  1  0.865400  0.919500  0.220000  1.0  -0.1347
  C  C753  1  0.832600  0.932300  0.179300  1.0  0.2913
  C  C754  1  0.845700  0.972600  0.146400  1.0  -0.1423
  C  C755  1  0.890200  0.999800  0.151300  1.0  0.0059
  C  C756  1  0.922000  0.987000  0.192300  1.0  -0.1542
  C  C757  1  0.909400  0.948200  0.225900  1.0  0.4378
  C  C758  1  0.904000  0.043900  0.117400  1.0  -0.028
  C  C759  1  0.871300  0.055500  0.075700  1.0  -0.1034
  C  C760  1  0.881700  0.098200  0.043800  1.0  0.0021
  C  C761  1  0.923600  0.129000  0.055500  1.0  -0.1146
  C  C762  1  0.955700  0.118100  0.096000  1.0  -0.089
  C  C763  1  0.945100  0.074900  0.126400  1.0  -0.122
  C  C764  1  0.846200  0.111200  0.000500  1.0  -0.0315
  C  C765  1  0.810300  0.075100  0.983200  1.0  -0.1544
  C  C766  1  0.776700  0.086900  0.943900  1.0  0.3182
  C  C767  1  0.777500  0.135600  0.920200  1.0  -0.1262
  C  C768  1  0.812600  0.171700  0.938300  1.0  -0.0497
  C  C769  1  0.846500  0.159300  0.978200  1.0  -0.1527
  C  C770  1  0.740200  0.149500  0.878900  1.0  0.7217
  C  C771  1  0.998500  0.152900  0.109900  1.0  0.0496
  C  C772  1  0.016300  0.189500  0.073800  1.0  -0.1497
  C  C773  1  0.054700  0.223500  0.086500  1.0  0.3487
  C  C774  1  0.076800  0.222800  0.135300  1.0  -0.0898
  C  C775  1  0.059800  0.186700  0.170900  1.0  0.3273
  C  C776  1  0.021200  0.152900  0.159000  1.0  -0.1725
  C  C777  1  0.118300  0.259800  0.149800  1.0  0.6974
  C  C778  1  0.648500  0.120700  0.758600  1.0  0.6672
  C  C779  1  0.634600  0.080500  0.720000  1.0  -0.1347
  C  C780  1  0.667400  0.067700  0.679300  1.0  0.2928
  C  C781  1  0.654300  0.027400  0.646400  1.0  -0.1421
  C  C782  1  0.609800  0.000200  0.651300  1.0  0.0064
  C  C783  1  0.578000  0.013000  0.692300  1.0  -0.1552
  C  C784  1  0.590600  0.051800  0.725900  1.0  0.4396
  C  C785  1  0.596000  0.956100  0.617400  1.0  -0.0271
  C  C786  1  0.628700  0.944500  0.575700  1.0  -0.103
  C  C787  1  0.618300  0.901800  0.543800  1.0  0.0036
  C  C788  1  0.576400  0.871000  0.555500  1.0  -0.1164
  C  C789  1  0.544300  0.881900  0.596000  1.0  -0.0891
  C  C790  1  0.554900  0.925100  0.626400  1.0  -0.1231
  C  C791  1  0.653800  0.888800  0.500500  1.0  -0.0332
  C  C792  1  0.689700  0.924900  0.483200  1.0  -0.1533
  C  C793  1  0.723300  0.913100  0.443900  1.0  0.3183
  C  C794  1  0.722500  0.864400  0.420200  1.0  -0.127
  C  C795  1  0.687400  0.828300  0.438300  1.0  -0.0513
  C  C796  1  0.653500  0.840700  0.478200  1.0  -0.153
  C  C797  1  0.759800  0.850500  0.378900  1.0  0.722
  C  C798  1  0.501500  0.847100  0.609900  1.0  0.0485
  C  C799  1  0.483700  0.810500  0.573800  1.0  -0.1502
  C  C800  1  0.445300  0.776500  0.586500  1.0  0.3493
  C  C801  1  0.423200  0.777200  0.635300  1.0  -0.0901
  C  C802  1  0.440200  0.813300  0.670900  1.0  0.329
  C  C803  1  0.478800  0.847100  0.659000  1.0  -0.1734
  C  C804  1  0.381700  0.740200  0.649800  1.0  0.6954
  C  C805  1  0.120700  0.758600  0.648500  1.0  0.6651
  C  C806  1  0.080500  0.720000  0.634600  1.0  -0.1383
  C  C807  1  0.067700  0.679300  0.667400  1.0  0.3009
  C  C808  1  0.027400  0.646400  0.654300  1.0  -0.1412
  C  C809  1  0.000200  0.651300  0.609800  1.0  0.0096
  C  C810  1  0.013000  0.692300  0.578000  1.0  -0.1545
  C  C811  1  0.051800  0.725900  0.590600  1.0  0.4391
  C  C812  1  0.956100  0.617400  0.596000  1.0  -0.0249
  C  C813  1  0.944500  0.575700  0.628700  1.0  -0.1009
  C  C814  1  0.901800  0.543800  0.618300  1.0  0.0059
  C  C815  1  0.871000  0.555500  0.576400  1.0  -0.1126
  C  C816  1  0.881900  0.596000  0.544300  1.0  -0.0894
  C  C817  1  0.925100  0.626400  0.554900  1.0  -0.121
  C  C818  1  0.888800  0.500500  0.653800  1.0  -0.0319
  C  C819  1  0.924900  0.483200  0.689700  1.0  -0.1476
  C  C820  1  0.913100  0.443900  0.723300  1.0  0.3169
  C  C821  1  0.864400  0.420200  0.722500  1.0  -0.1294
  C  C822  1  0.828300  0.438300  0.687400  1.0  -0.0597
  C  C823  1  0.840700  0.478200  0.653500  1.0  -0.1493
  C  C824  1  0.850500  0.378900  0.759800  1.0  0.7113
  C  C825  1  0.847100  0.609900  0.501500  1.0  0.0479
  C  C826  1  0.810500  0.573800  0.483700  1.0  -0.1468
  C  C827  1  0.776500  0.586500  0.445300  1.0  0.3482
  C  C828  1  0.777200  0.635300  0.423200  1.0  -0.0897
  C  C829  1  0.813300  0.670900  0.440200  1.0  0.3311
  C  C830  1  0.847100  0.659000  0.478800  1.0  -0.1732
  C  C831  1  0.740200  0.649800  0.381700  1.0  0.7009
  C  C832  1  0.879300  0.258600  0.851500  1.0  0.6624
  C  C833  1  0.919500  0.220000  0.865400  1.0  -0.1382
  C  C834  1  0.932300  0.179300  0.832600  1.0  0.2984
  C  C835  1  0.972600  0.146400  0.845700  1.0  -0.1423
  C  C836  1  0.999800  0.151300  0.890200  1.0  0.0105
  C  C837  1  0.987000  0.192300  0.922000  1.0  -0.1557
  C  C838  1  0.948200  0.225900  0.909400  1.0  0.439
  C  C839  1  0.043900  0.117400  0.904000  1.0  -0.0236
  C  C840  1  0.055500  0.075700  0.871300  1.0  -0.1028
  C  C841  1  0.098200  0.043800  0.881700  1.0  0.0051
  C  C842  1  0.129000  0.055500  0.923600  1.0  -0.1124
  C  C843  1  0.118100  0.096000  0.955700  1.0  -0.0895
  C  C844  1  0.074900  0.126400  0.945100  1.0  -0.1229
  C  C845  1  0.111200  0.000500  0.846200  1.0  -0.0307
  C  C846  1  0.075100  0.983200  0.810300  1.0  -0.149
  C  C847  1  0.086900  0.943900  0.776700  1.0  0.3142
  C  C848  1  0.135600  0.920200  0.777500  1.0  -0.1292
  C  C849  1  0.171700  0.938300  0.812600  1.0  -0.0568
  C  C850  1  0.159300  0.978200  0.846500  1.0  -0.1519
  C  C851  1  0.149500  0.878900  0.740200  1.0  0.7124
  C  C852  1  0.152900  0.109900  0.998500  1.0  0.0475
  C  C853  1  0.189500  0.073800  0.016300  1.0  -0.1476
  C  C854  1  0.223500  0.086500  0.054700  1.0  0.3477
  C  C855  1  0.222800  0.135300  0.076800  1.0  -0.0901
  C  C856  1  0.186700  0.170900  0.059800  1.0  0.3316
  C  C857  1  0.152900  0.159000  0.021200  1.0  -0.1729
  C  C858  1  0.259800  0.149800  0.118300  1.0  0.7013
  C  C859  1  0.379300  0.241400  0.148500  1.0  0.662
  C  C860  1  0.419500  0.280000  0.134600  1.0  -0.1386
  C  C861  1  0.432300  0.320700  0.167400  1.0  0.297
  C  C862  1  0.472600  0.353600  0.154300  1.0  -0.1404
  C  C863  1  0.499800  0.348700  0.109800  1.0  0.0095
  C  C864  1  0.487000  0.307700  0.078000  1.0  -0.1549
  C  C865  1  0.448200  0.274100  0.090600  1.0  0.4395
  C  C866  1  0.543900  0.382600  0.096000  1.0  -0.0236
  C  C867  1  0.555500  0.424300  0.128700  1.0  -0.101
  C  C868  1  0.598200  0.456200  0.118300  1.0  0.0057
  C  C869  1  0.629000  0.444500  0.076400  1.0  -0.1114
  C  C870  1  0.618100  0.404000  0.044300  1.0  -0.0888
  C  C871  1  0.574900  0.373600  0.054900  1.0  -0.1229
  C  C872  1  0.611200  0.499500  0.153800  1.0  -0.0317
  C  C873  1  0.575100  0.516800  0.189700  1.0  -0.1498
  C  C874  1  0.586900  0.556100  0.223300  1.0  0.3156
  C  C875  1  0.635600  0.579800  0.222500  1.0  -0.13
  C  C876  1  0.671700  0.561700  0.187400  1.0  -0.0564
  C  C877  1  0.659300  0.521800  0.153500  1.0  -0.1511
  C  C878  1  0.649500  0.621100  0.259800  1.0  0.7142
  C  C879  1  0.652900  0.390100  0.001500  1.0  0.0464
  C  C880  1  0.689500  0.426200  0.983700  1.0  -0.1487
  C  C881  1  0.723500  0.413500  0.945300  1.0  0.3472
  C  C882  1  0.722800  0.364700  0.923200  1.0  -0.09
  C  C883  1  0.686700  0.329100  0.940200  1.0  0.3323
  C  C884  1  0.652900  0.341000  0.978800  1.0  -0.1737
  C  C885  1  0.759800  0.350200  0.881700  1.0  0.7
  C  C886  1  0.620700  0.741400  0.351500  1.0  0.6631
  C  C887  1  0.580500  0.780000  0.365400  1.0  -0.1387
  C  C888  1  0.567700  0.820700  0.332600  1.0  0.2985
  C  C889  1  0.527400  0.853600  0.345700  1.0  -0.1427
  C  C890  1  0.500200  0.848700  0.390200  1.0  0.0096
  C  C891  1  0.513000  0.807700  0.422000  1.0  -0.1561
  C  C892  1  0.551800  0.774100  0.409400  1.0  0.4397
  C  C893  1  0.456100  0.882600  0.404000  1.0  -0.0248
  C  C894  1  0.444500  0.924300  0.371300  1.0  -0.0991
  C  C895  1  0.401800  0.956200  0.381700  1.0  0.006
  C  C896  1  0.371000  0.944500  0.423600  1.0  -0.1097
  C  C897  1  0.381900  0.904000  0.455700  1.0  -0.0906
  C  C898  1  0.425100  0.873600  0.445100  1.0  -0.1201
  C  C899  1  0.388800  0.999500  0.346200  1.0  -0.0321
  C  C900  1  0.424900  0.016800  0.310300  1.0  -0.1514
  C  C901  1  0.413100  0.056100  0.276700  1.0  0.3163
  C  C902  1  0.364400  0.079800  0.277500  1.0  -0.1296
  C  C903  1  0.328300  0.061700  0.312600  1.0  -0.0617
  C  C904  1  0.340700  0.021800  0.346500  1.0  -0.1506
  C  C905  1  0.350500  0.121100  0.240200  1.0  0.7146
  C  C906  1  0.347100  0.890100  0.498500  1.0  0.0486
  C  C907  1  0.310500  0.926200  0.516300  1.0  -0.1483
  C  C908  1  0.276500  0.913500  0.554700  1.0  0.3473
  C  C909  1  0.277200  0.864700  0.576800  1.0  -0.0899
  C  C910  1  0.313300  0.829100  0.559800  1.0  0.3304
  C  C911  1  0.347100  0.841000  0.521200  1.0  -0.1731
  C  C912  1  0.240200  0.850200  0.618300  1.0  0.7013
  C  C913  1  0.258600  0.851500  0.879300  1.0  0.6614
  C  C914  1  0.220000  0.865400  0.919500  1.0  -0.135
  C  C915  1  0.179300  0.832600  0.932300  1.0  0.2959
  C  C916  1  0.146400  0.845700  0.972600  1.0  -0.1439
  C  C917  1  0.151300  0.890200  0.999800  1.0  0.0109
  C  C918  1  0.192300  0.922000  0.987000  1.0  -0.155
  C  C919  1  0.225900  0.909400  0.948200  1.0  0.4392
  C  C920  1  0.117400  0.904000  0.043900  1.0  -0.0246
  C  C921  1  0.075700  0.871300  0.055500  1.0  -0.0997
  C  C922  1  0.043800  0.881700  0.098200  1.0  0.0043
  C  C923  1  0.055500  0.923600  0.129000  1.0  -0.1203
  C  C924  1  0.096000  0.955700  0.118100  1.0  -0.0893
  C  C925  1  0.126400  0.945100  0.074900  1.0  -0.1176
  C  C926  1  0.000500  0.846200  0.111200  1.0  -0.0351
  C  C927  1  0.983200  0.810300  0.075100  1.0  -0.1526
  C  C928  1  0.943900  0.776700  0.086900  1.0  0.319
  C  C929  1  0.920200  0.777500  0.135600  1.0  -0.1311
  C  C930  1  0.938300  0.812600  0.171700  1.0  -0.0514
  C  C931  1  0.978200  0.846500  0.159300  1.0  -0.1515
  C  C932  1  0.878900  0.740200  0.149500  1.0  0.7104
  C  C933  1  0.109900  0.998500  0.152900  1.0  0.0443
  C  C934  1  0.073800  0.016300  0.189500  1.0  -0.15
  C  C935  1  0.086500  0.054700  0.223500  1.0  0.3491
  C  C936  1  0.135300  0.076800  0.222800  1.0  -0.09
  C  C937  1  0.170900  0.059800  0.186700  1.0  0.3269
  C  C938  1  0.159000  0.021200  0.152900  1.0  -0.1719
  C  C939  1  0.149800  0.118300  0.259800  1.0  0.7003
  C  C940  1  0.758600  0.648500  0.120700  1.0  0.6615
  C  C941  1  0.720000  0.634600  0.080500  1.0  -0.1346
  C  C942  1  0.679300  0.667400  0.067700  1.0  0.2973
  C  C943  1  0.646400  0.654300  0.027400  1.0  -0.1439
  C  C944  1  0.651300  0.609800  0.000200  1.0  0.0118
  C  C945  1  0.692300  0.578000  0.013000  1.0  -0.1542
  C  C946  1  0.725900  0.590600  0.051800  1.0  0.4384
  C  C947  1  0.617400  0.596000  0.956100  1.0  -0.0248
  C  C948  1  0.575700  0.628700  0.944500  1.0  -0.0975
  C  C949  1  0.543800  0.618300  0.901800  1.0  0.005
  C  C950  1  0.555500  0.576400  0.871000  1.0  -0.1206
  C  C951  1  0.596000  0.544300  0.881900  1.0  -0.0889
  C  C952  1  0.626400  0.554900  0.925100  1.0  -0.1182
  C  C953  1  0.500500  0.653800  0.888800  1.0  -0.0332
  C  C954  1  0.483200  0.689700  0.924900  1.0  -0.1529
  C  C955  1  0.443900  0.723300  0.913100  1.0  0.3201
  C  C956  1  0.420200  0.722500  0.864400  1.0  -0.1309
  C  C957  1  0.438300  0.687400  0.828300  1.0  -0.0515
  C  C958  1  0.478200  0.653500  0.840700  1.0  -0.1502
  C  C959  1  0.378900  0.759800  0.850500  1.0  0.7093
  C  C960  1  0.609900  0.501500  0.847100  1.0  0.0456
  C  C961  1  0.573800  0.483700  0.810500  1.0  -0.1478
  C  C962  1  0.586500  0.445300  0.776500  1.0  0.349
  C  C963  1  0.635300  0.423200  0.777200  1.0  -0.0914
  C  C964  1  0.670900  0.440200  0.813300  1.0  0.3268
  C  C965  1  0.659000  0.478800  0.847100  1.0  -0.1717
  C  C966  1  0.649800  0.381700  0.740200  1.0  0.7007
  C  C967  1  0.741400  0.351500  0.620700  1.0  0.6615
  C  C968  1  0.780000  0.365400  0.580500  1.0  -0.1349
  C  C969  1  0.820700  0.332600  0.567700  1.0  0.298
  C  C970  1  0.853600  0.345700  0.527400  1.0  -0.143
  C  C971  1  0.848700  0.390200  0.500200  1.0  0.0092
  C  C972  1  0.807700  0.422000  0.513000  1.0  -0.154
  C  C973  1  0.774100  0.409400  0.551800  1.0  0.4405
  C  C974  1  0.882600  0.404000  0.456100  1.0  -0.0268
  C  C975  1  0.924300  0.371300  0.444500  1.0  -0.0946
  C  C976  1  0.956200  0.381700  0.401800  1.0  0.0051
  C  C977  1  0.944500  0.423600  0.371000  1.0  -0.1144
  C  C978  1  0.904000  0.455700  0.381900  1.0  -0.0894
  C  C979  1  0.873600  0.445100  0.425100  1.0  -0.1182
  C  C980  1  0.999500  0.346200  0.388800  1.0  -0.0341
  C  C981  1  0.016800  0.310300  0.424900  1.0  -0.1522
  C  C982  1  0.056100  0.276700  0.413100  1.0  0.3211
  C  C983  1  0.079800  0.277500  0.364400  1.0  -0.1299
  C  C984  1  0.061700  0.312600  0.328300  1.0  -0.0491
  C  C985  1  0.021800  0.346500  0.340700  1.0  -0.1495
  C  C986  1  0.121100  0.240200  0.350500  1.0  0.7067
  C  C987  1  0.890100  0.498500  0.347100  1.0  0.0467
  C  C988  1  0.926200  0.516300  0.310500  1.0  -0.1491
  C  C989  1  0.913500  0.554700  0.276500  1.0  0.3486
  C  C990  1  0.864700  0.576800  0.277200  1.0  -0.09
  C  C991  1  0.829100  0.559800  0.313300  1.0  0.3264
  C  C992  1  0.841000  0.521200  0.347100  1.0  -0.1717
  C  C993  1  0.850200  0.618300  0.240200  1.0  0.7006
  C  C994  1  0.241400  0.148500  0.379300  1.0  0.6623
  C  C995  1  0.280000  0.134600  0.419500  1.0  -0.1353
  C  C996  1  0.320700  0.167400  0.432300  1.0  0.2978
  C  C997  1  0.353600  0.154300  0.472600  1.0  -0.1437
  C  C998  1  0.348700  0.109800  0.499800  1.0  0.0103
  C  C999  1  0.307700  0.078000  0.487000  1.0  -0.1539
  C  C1000  1  0.274100  0.090600  0.448200  1.0  0.439
  C  C1001  1  0.382600  0.096000  0.543900  1.0  -0.0269
  C  C1002  1  0.424300  0.128700  0.555500  1.0  -0.0999
  C  C1003  1  0.456200  0.118300  0.598200  1.0  0.0017
  C  C1004  1  0.444500  0.076400  0.629000  1.0  -0.1181
  C  C1005  1  0.404000  0.044300  0.618100  1.0  -0.0896
  C  C1006  1  0.373600  0.054900  0.574900  1.0  -0.1187
  C  C1007  1  0.499500  0.153800  0.611200  1.0  -0.0361
  C  C1008  1  0.516800  0.189700  0.575100  1.0  -0.1507
  C  C1009  1  0.556100  0.223300  0.586900  1.0  0.3166
  C  C1010  1  0.579800  0.222500  0.635600  1.0  -0.1293
  C  C1011  1  0.561700  0.187400  0.671700  1.0  -0.0481
  C  C1012  1  0.521800  0.153500  0.659300  1.0  -0.1498
  C  C1013  1  0.621100  0.259800  0.649500  1.0  0.7064
  C  C1014  1  0.390100  0.001500  0.652900  1.0  0.0462
  C  C1015  1  0.426200  0.983700  0.689500  1.0  -0.1497
  C  C1016  1  0.413500  0.945300  0.723500  1.0  0.3493
  C  C1017  1  0.364700  0.923200  0.722800  1.0  -0.091
  C  C1018  1  0.329100  0.940200  0.686700  1.0  0.326
  C  C1019  1  0.341000  0.978800  0.652900  1.0  -0.171
  C  C1020  1  0.350200  0.881700  0.759800  1.0  0.7011
  O  O1021  1  0.396700  0.560200  0.500200  1.0  -0.5874
  O  O1022  1  0.378100  0.630200  0.545400  1.0  -0.5779
  O  O1023  1  0.131700  0.454300  0.120900  1.0  -0.6294
  O  O1024  1  0.061500  0.498200  0.102600  1.0  -0.5614
  O  O1025  1  0.954100  0.878500  0.368800  1.0  -0.5898
  O  O1026  1  0.998200  0.893000  0.440100  1.0  -0.558
  O  O1027  1  0.314200  0.695000  0.508600  1.0  -0.5185
  O  O1028  1  0.199600  0.491700  0.182000  1.0  -0.526
  O  O1029  1  0.992400  0.817800  0.299200  1.0  -0.5217
  O  O1030  1  0.037000  0.561000  0.181000  1.0  -0.4071
  O  O1031  1  0.062500  0.826800  0.468800  1.0  -0.5232
  O  O1032  1  0.351000  0.547200  0.414300  1.0  -0.5084
  O  O1033  1  0.103300  0.439800  0.000200  1.0  -0.5883
  O  O1034  1  0.121900  0.369800  0.045400  1.0  -0.5765
  O  O1035  1  0.368300  0.545700  0.620900  1.0  -0.628
  O  O1036  1  0.438500  0.501800  0.602600  1.0  -0.5615
  O  O1037  1  0.545900  0.121500  0.868800  1.0  -0.5905
  O  O1038  1  0.501800  0.107000  0.940100  1.0  -0.5581
  O  O1039  1  0.185800  0.305000  0.008600  1.0  -0.5181
  O  O1040  1  0.300400  0.508300  0.682000  1.0  -0.5272
  O  O1041  1  0.507600  0.182200  0.799200  1.0  -0.5225
  O  O1042  1  0.463000  0.439000  0.681000  1.0  -0.4065
  O  O1043  1  0.437500  0.173200  0.968800  1.0  -0.5233
  O  O1044  1  0.149000  0.452800  0.914300  1.0  -0.5113
  O  O1045  1  0.603300  0.060200  0.999800  1.0  -0.5879
  O  O1046  1  0.621900  0.130200  0.954600  1.0  -0.5772
  O  O1047  1  0.868300  0.954300  0.379100  1.0  -0.6277
  O  O1048  1  0.938500  0.998200  0.397400  1.0  -0.5611
  O  O1049  1  0.045900  0.378500  0.131200  1.0  -0.5908
  O  O1050  1  0.001800  0.393000  0.059900  1.0  -0.5572
  O  O1051  1  0.685800  0.195000  0.991400  1.0  -0.5175
  O  O1052  1  0.800400  0.991700  0.318000  1.0  -0.5273
  O  O1053  1  0.007600  0.317800  0.200800  1.0  -0.5231
  O  O1054  1  0.963000  0.061000  0.319000  1.0  -0.4072
  O  O1055  1  0.937500  0.326800  0.031200  1.0  -0.523
  O  O1056  1  0.649000  0.047200  0.085700  1.0  -0.5145
  O  O1057  1  0.896700  0.939800  0.499800  1.0  -0.5877
  O  O1058  1  0.878100  0.869800  0.454600  1.0  -0.5768
  O  O1059  1  0.631700  0.045700  0.879100  1.0  -0.628
  O  O1060  1  0.561500  0.001800  0.897400  1.0  -0.5614
  O  O1061  1  0.454100  0.621500  0.631200  1.0  -0.5896
  O  O1062  1  0.498200  0.607000  0.559900  1.0  -0.5579
  O  O1063  1  0.814200  0.805000  0.491400  1.0  -0.5169
  O  O1064  1  0.699600  0.008300  0.818000  1.0  -0.5266
  O  O1065  1  0.492400  0.682200  0.700800  1.0  -0.5226
  O  O1066  1  0.537000  0.939000  0.819000  1.0  -0.4076
  O  O1067  1  0.562500  0.673200  0.531200  1.0  -0.524
  O  O1068  1  0.851000  0.952800  0.585700  1.0  -0.5133
  O  O1069  1  0.500200  0.396700  0.560200  1.0  -0.5928
  O  O1070  1  0.545400  0.378100  0.630200  1.0  -0.5778
  O  O1071  1  0.120900  0.131700  0.454300  1.0  -0.6272
  O  O1072  1  0.102600  0.061500  0.498200  1.0  -0.5588
  O  O1073  1  0.368800  0.954100  0.878500  1.0  -0.5895
  O  O1074  1  0.440100  0.998200  0.893000  1.0  -0.5576
  O  O1075  1  0.508600  0.314200  0.695000  1.0  -0.5119
  O  O1076  1  0.182000  0.199600  0.491700  1.0  -0.5246
  O  O1077  1  0.299200  0.992400  0.817800  1.0  -0.5246
  O  O1078  1  0.181000  0.037000  0.561000  1.0  -0.4067
  O  O1079  1  0.468800  0.062500  0.826800  1.0  -0.5247
  O  O1080  1  0.414300  0.351000  0.547200  1.0  -0.5123
  O  O1081  1  0.000200  0.103300  0.439800  1.0  -0.5895
  O  O1082  1  0.045400  0.121900  0.369800  1.0  -0.5773
  O  O1083  1  0.620900  0.368300  0.545700  1.0  -0.6269
  O  O1084  1  0.602600  0.438500  0.501800  1.0  -0.5593
  O  O1085  1  0.868800  0.545900  0.121500  1.0  -0.59
  O  O1086  1  0.940100  0.501800  0.107000  1.0  -0.5577
  O  O1087  1  0.008600  0.185800  0.305000  1.0  -0.5146
  O  O1088  1  0.682000  0.300400  0.508300  1.0  -0.5256
  O  O1089  1  0.799200  0.507600  0.182200  1.0  -0.5232
  O  O1090  1  0.681000  0.463000  0.439000  1.0  -0.4066
  O  O1091  1  0.968800  0.437500  0.173200  1.0  -0.5233
  O  O1092  1  0.914300  0.149000  0.452800  1.0  -0.5146
  O  O1093  1  0.999800  0.603300  0.060200  1.0  -0.5927
  O  O1094  1  0.954600  0.621900  0.130200  1.0  -0.5779
  O  O1095  1  0.379100  0.868300  0.954300  1.0  -0.6267
  O  O1096  1  0.397400  0.938500  0.998200  1.0  -0.5597
  O  O1097  1  0.131200  0.045900  0.378500  1.0  -0.5902
  O  O1098  1  0.059900  0.001800  0.393000  1.0  -0.5591
  O  O1099  1  0.991400  0.685800  0.195000  1.0  -0.5133
  O  O1100  1  0.318000  0.800400  0.991700  1.0  -0.5284
  O  O1101  1  0.200800  0.007600  0.317800  1.0  -0.5212
  O  O1102  1  0.319000  0.963000  0.061000  1.0  -0.4068
  O  O1103  1  0.031200  0.937500  0.326800  1.0  -0.524
  O  O1104  1  0.085700  0.649000  0.047200  1.0  -0.5116
  O  O1105  1  0.499800  0.896700  0.939800  1.0  -0.5901
  O  O1106  1  0.454600  0.878100  0.869800  1.0  -0.577
  O  O1107  1  0.879100  0.631700  0.045700  1.0  -0.6263
  O  O1108  1  0.897400  0.561500  0.001800  1.0  -0.5597
  O  O1109  1  0.631200  0.454100  0.621500  1.0  -0.591
  O  O1110  1  0.559900  0.498200  0.607000  1.0  -0.5582
  O  O1111  1  0.491400  0.814200  0.805000  1.0  -0.5156
  O  O1112  1  0.818000  0.699600  0.008300  1.0  -0.5212
  O  O1113  1  0.700800  0.492400  0.682200  1.0  -0.5236
  O  O1114  1  0.819000  0.537000  0.939000  1.0  -0.407
  O  O1115  1  0.531200  0.562500  0.673200  1.0  -0.5243
  O  O1116  1  0.585700  0.851000  0.952800  1.0  -0.5117
  O  O1117  1  0.560200  0.500200  0.396700  1.0  -0.5896
  O  O1118  1  0.630200  0.545400  0.378100  1.0  -0.5793
  O  O1119  1  0.454300  0.120900  0.131700  1.0  -0.6273
  O  O1120  1  0.498200  0.102600  0.061500  1.0  -0.5628
  O  O1121  1  0.878500  0.368800  0.954100  1.0  -0.5906
  O  O1122  1  0.893000  0.440100  0.998200  1.0  -0.5572
  O  O1123  1  0.695000  0.508600  0.314200  1.0  -0.515
  O  O1124  1  0.491700  0.182000  0.199600  1.0  -0.5269
  O  O1125  1  0.817800  0.299200  0.992400  1.0  -0.5249
  O  O1126  1  0.561000  0.181000  0.037000  1.0  -0.4089
  O  O1127  1  0.826800  0.468800  0.062500  1.0  -0.5262
  O  O1128  1  0.547200  0.414300  0.351000  1.0  -0.5151
  O  O1129  1  0.439800  0.000200  0.103300  1.0  -0.5896
  O  O1130  1  0.369800  0.045400  0.121900  1.0  -0.5785
  O  O1131  1  0.545700  0.620900  0.368300  1.0  -0.628
  O  O1132  1  0.501800  0.602600  0.438500  1.0  -0.5623
  O  O1133  1  0.121500  0.868800  0.545900  1.0  -0.5892
  O  O1134  1  0.107000  0.940100  0.501800  1.0  -0.5581
  O  O1135  1  0.305000  0.008600  0.185800  1.0  -0.5171
  O  O1136  1  0.508300  0.682000  0.300400  1.0  -0.5295
  O  O1137  1  0.182200  0.799200  0.507600  1.0  -0.5236
  O  O1138  1  0.439000  0.681000  0.463000  1.0  -0.4075
  O  O1139  1  0.173200  0.968800  0.437500  1.0  -0.526
  O  O1140  1  0.452800  0.914300  0.149000  1.0  -0.5134
  O  O1141  1  0.060200  0.999800  0.603300  1.0  -0.5897
  O  O1142  1  0.130200  0.954600  0.621900  1.0  -0.5792
  O  O1143  1  0.954300  0.379100  0.868300  1.0  -0.6283
  O  O1144  1  0.998200  0.397400  0.938500  1.0  -0.5627
  O  O1145  1  0.378500  0.131200  0.045900  1.0  -0.5887
  O  O1146  1  0.393000  0.059900  0.001800  1.0  -0.5572
  O  O1147  1  0.195000  0.991400  0.685800  1.0  -0.5178
  O  O1148  1  0.991700  0.318000  0.800400  1.0  -0.529
  O  O1149  1  0.317800  0.200800  0.007600  1.0  -0.5242
  O  O1150  1  0.061000  0.319000  0.963000  1.0  -0.408
  O  O1151  1  0.326800  0.031200  0.937500  1.0  -0.5262
  O  O1152  1  0.047200  0.085700  0.649000  1.0  -0.514
  O  O1153  1  0.939800  0.499800  0.896700  1.0  -0.5893
  O  O1154  1  0.869800  0.454600  0.878100  1.0  -0.5781
  O  O1155  1  0.045700  0.879100  0.631700  1.0  -0.6287
  O  O1156  1  0.001800  0.897400  0.561500  1.0  -0.5624
  O  O1157  1  0.621500  0.631200  0.454100  1.0  -0.5893
  O  O1158  1  0.607000  0.559900  0.498200  1.0  -0.5577
  O  O1159  1  0.805000  0.491400  0.814200  1.0  -0.5173
  O  O1160  1  0.008300  0.818000  0.699600  1.0  -0.5276
  O  O1161  1  0.682200  0.700800  0.492400  1.0  -0.5247
  O  O1162  1  0.939000  0.819000  0.537000  1.0  -0.4086
  O  O1163  1  0.673200  0.531200  0.562500  1.0  -0.5269
  O  O1164  1  0.952800  0.585700  0.851000  1.0  -0.5125
  O  O1165  1  0.310200  0.646700  0.749800  1.0  -0.5888
  O  O1166  1  0.380200  0.628100  0.704600  1.0  -0.5784
  O  O1167  1  0.204300  0.381700  0.129100  1.0  -0.6265
  O  O1168  1  0.248200  0.311500  0.147400  1.0  -0.5608
  O  O1169  1  0.628500  0.204100  0.881200  1.0  -0.5906
  O  O1170  1  0.643000  0.248200  0.809900  1.0  -0.5571
  O  O1171  1  0.445000  0.564200  0.741400  1.0  -0.5164
  O  O1172  1  0.241700  0.449600  0.068000  1.0  -0.5259
  O  O1173  1  0.567800  0.242400  0.950800  1.0  -0.526
  O  O1174  1  0.311000  0.287000  0.069000  1.0  -0.4064
  O  O1175  1  0.576800  0.312500  0.781200  1.0  -0.5249
  O  O1176  1  0.297200  0.601000  0.835700  1.0  -0.5121
  O  O1177  1  0.189800  0.353300  0.249800  1.0  -0.5888
  O  O1178  1  0.119800  0.371900  0.204600  1.0  -0.5777
  O  O1179  1  0.295700  0.618300  0.629100  1.0  -0.6268
  O  O1180  1  0.251800  0.688500  0.647400  1.0  -0.5608
  O  O1181  1  0.871500  0.795900  0.381200  1.0  -0.5899
  O  O1182  1  0.857000  0.751800  0.309900  1.0  -0.5576
  O  O1183  1  0.055000  0.435800  0.241400  1.0  -0.5175
  O  O1184  1  0.258300  0.550400  0.568000  1.0  -0.5303
  O  O1185  1  0.932200  0.757600  0.450800  1.0  -0.523
  O  O1186  1  0.189000  0.713000  0.569000  1.0  -0.4068
  O  O1187  1  0.923200  0.687500  0.281200  1.0  -0.5245
  O  O1188  1  0.202800  0.399000  0.335700  1.0  -0.5121
  O  O1189  1  0.810200  0.853300  0.250200  1.0  -0.5893
  O  O1190  1  0.880200  0.871900  0.295400  1.0  -0.5792
  O  O1191  1  0.704300  0.118300  0.870900  1.0  -0.6271
  O  O1192  1  0.748200  0.188500  0.852600  1.0  -0.5614
  O  O1193  1  0.128500  0.295900  0.118800  1.0  -0.5903
  O  O1194  1  0.143000  0.251800  0.190100  1.0  -0.5571
  O  O1195  1  0.945000  0.935800  0.258600  1.0  -0.5175
  O  O1196  1  0.741700  0.050400  0.932000  1.0  -0.5293
  O  O1197  1  0.067800  0.257600  0.049200  1.0  -0.5236
  O  O1198  1  0.811000  0.213000  0.931000  1.0  -0.4052
  O  O1199  1  0.076800  0.187500  0.218800  1.0  -0.5231
  O  O1200  1  0.797200  0.899000  0.164300  1.0  -0.5123
  O  O1201  1  0.689800  0.146700  0.750200  1.0  -0.5887
  O  O1202  1  0.619800  0.128100  0.795400  1.0  -0.578
  O  O1203  1  0.795700  0.881700  0.370900  1.0  -0.6271
  O  O1204  1  0.751800  0.811500  0.352600  1.0  -0.5599
  O  O1205  1  0.371500  0.704100  0.618800  1.0  -0.5902
  O  O1206  1  0.357000  0.748200  0.690100  1.0  -0.5578
  O  O1207  1  0.555000  0.064200  0.758600  1.0  -0.5183
  O  O1208  1  0.758300  0.949600  0.432000  1.0  -0.5262
  O  O1209  1  0.432200  0.742400  0.549200  1.0  -0.5248
  O  O1210  1  0.689000  0.787000  0.431000  1.0  -0.4059
  O  O1211  1  0.423200  0.812500  0.718800  1.0  -0.5234
  O  O1212  1  0.702800  0.101000  0.664300  1.0  -0.5088
  O  O1213  1  0.146700  0.750200  0.689800  1.0  -0.5889
  O  O1214  1  0.128100  0.795400  0.619800  1.0  -0.5768
  O  O1215  1  0.881700  0.370900  0.795700  1.0  -0.6294
  O  O1216  1  0.811500  0.352600  0.751800  1.0  -0.563
  O  O1217  1  0.704100  0.618800  0.371500  1.0  -0.589
  O  O1218  1  0.748200  0.690100  0.357000  1.0  -0.5585
  O  O1219  1  0.064200  0.758600  0.555000  1.0  -0.5163
  O  O1220  1  0.949600  0.432000  0.758300  1.0  -0.5233
  O  O1221  1  0.742400  0.549200  0.432200  1.0  -0.5208
  O  O1222  1  0.787000  0.431000  0.689000  1.0  -0.409
  O  O1223  1  0.812500  0.718800  0.423200  1.0  -0.5252
  O  O1224  1  0.101000  0.664300  0.702800  1.0  -0.5121
  O  O1225  1  0.853300  0.250200  0.810200  1.0  -0.5908
  O  O1226  1  0.871900  0.295400  0.880200  1.0  -0.5772
  O  O1227  1  0.118300  0.870900  0.704300  1.0  -0.6283
  O  O1228  1  0.188500  0.852600  0.748200  1.0  -0.5614
  O  O1229  1  0.295900  0.118800  0.128500  1.0  -0.589
  O  O1230  1  0.251800  0.190100  0.143000  1.0  -0.5587
  O  O1231  1  0.935800  0.258600  0.945000  1.0  -0.5152
  O  O1232  1  0.050400  0.932000  0.741700  1.0  -0.5252
  O  O1233  1  0.257600  0.049200  0.067800  1.0  -0.5214
  O  O1234  1  0.213000  0.931000  0.811000  1.0  -0.4079
  O  O1235  1  0.187500  0.218800  0.076800  1.0  -0.5251
  O  O1236  1  0.899000  0.164300  0.797200  1.0  -0.5128
  O  O1237  1  0.353300  0.249800  0.189800  1.0  -0.5902
  O  O1238  1  0.371900  0.204600  0.119800  1.0  -0.576
  O  O1239  1  0.618300  0.629100  0.295700  1.0  -0.6292
  O  O1240  1  0.688500  0.647400  0.251800  1.0  -0.5623
  O  O1241  1  0.795900  0.381200  0.871500  1.0  -0.5893
  O  O1242  1  0.751800  0.309900  0.857000  1.0  -0.558
  O  O1243  1  0.435800  0.241400  0.055000  1.0  -0.5172
  O  O1244  1  0.550400  0.568000  0.258300  1.0  -0.5239
  O  O1245  1  0.757600  0.450800  0.932200  1.0  -0.5216
  O  O1246  1  0.713000  0.569000  0.189000  1.0  -0.4085
  O  O1247  1  0.687500  0.281200  0.923200  1.0  -0.5245
  O  O1248  1  0.399000  0.335700  0.202800  1.0  -0.5101
  O  O1249  1  0.646700  0.749800  0.310200  1.0  -0.5928
  O  O1250  1  0.628100  0.704600  0.380200  1.0  -0.5774
  O  O1251  1  0.381700  0.129100  0.204300  1.0  -0.6308
  O  O1252  1  0.311500  0.147400  0.248200  1.0  -0.5626
  O  O1253  1  0.204100  0.881200  0.628500  1.0  -0.5874
  O  O1254  1  0.248200  0.809900  0.643000  1.0  -0.5585
  O  O1255  1  0.564200  0.741400  0.445000  1.0  -0.5162
  O  O1256  1  0.449600  0.068000  0.241700  1.0  -0.525
  O  O1257  1  0.242400  0.950800  0.567800  1.0  -0.5213
  O  O1258  1  0.287000  0.069000  0.311000  1.0  -0.409
  O  O1259  1  0.312500  0.781200  0.576800  1.0  -0.5252
  O  O1260  1  0.601000  0.835700  0.297200  1.0  -0.5117
  O  O1261  1  0.250200  0.810200  0.853300  1.0  -0.5883
  O  O1262  1  0.295400  0.880200  0.871900  1.0  -0.579
  O  O1263  1  0.870900  0.704300  0.118300  1.0  -0.6286
  O  O1264  1  0.852600  0.748200  0.188500  1.0  -0.5602
  O  O1265  1  0.118800  0.128500  0.295900  1.0  -0.5901
  O  O1266  1  0.190100  0.143000  0.251800  1.0  -0.5575
  O  O1267  1  0.258600  0.945000  0.935800  1.0  -0.5153
  O  O1268  1  0.932000  0.741700  0.050400  1.0  -0.5298
  O  O1269  1  0.049200  0.067800  0.257600  1.0  -0.5241
  O  O1270  1  0.931000  0.811000  0.213000  1.0  -0.4068
  O  O1271  1  0.218800  0.076800  0.187500  1.0  -0.524
  O  O1272  1  0.164300  0.797200  0.899000  1.0  -0.5145
  O  O1273  1  0.750200  0.689800  0.146700  1.0  -0.5898
  O  O1274  1  0.795400  0.619800  0.128100  1.0  -0.5781
  O  O1275  1  0.370900  0.795700  0.881700  1.0  -0.6279
  O  O1276  1  0.352600  0.751800  0.811500  1.0  -0.5603
  O  O1277  1  0.618800  0.371500  0.704100  1.0  -0.5908
  O  O1278  1  0.690100  0.357000  0.748200  1.0  -0.5572
  O  O1279  1  0.758600  0.555000  0.064200  1.0  -0.5137
  O  O1280  1  0.432000  0.758300  0.949600  1.0  -0.5264
  O  O1281  1  0.549200  0.432200  0.742400  1.0  -0.5247
  O  O1282  1  0.431000  0.689000  0.787000  1.0  -0.408
  O  O1283  1  0.718800  0.423200  0.812500  1.0  -0.5252
  O  O1284  1  0.664300  0.702800  0.101000  1.0  -0.5152
  O  O1285  1  0.749800  0.310200  0.646700  1.0  -0.589
  O  O1286  1  0.704600  0.380200  0.628100  1.0  -0.5783
  O  O1287  1  0.129100  0.204300  0.381700  1.0  -0.6282
  O  O1288  1  0.147400  0.248200  0.311500  1.0  -0.5602
  O  O1289  1  0.881200  0.628500  0.204100  1.0  -0.5918
  O  O1290  1  0.809900  0.643000  0.248200  1.0  -0.5581
  O  O1291  1  0.741400  0.445000  0.564200  1.0  -0.5154
  O  O1292  1  0.068000  0.241700  0.449600  1.0  -0.5269
  O  O1293  1  0.950800  0.567800  0.242400  1.0  -0.5236
  O  O1294  1  0.069000  0.311000  0.287000  1.0  -0.4083
  O  O1295  1  0.781200  0.576800  0.312500  1.0  -0.5259
  O  O1296  1  0.835700  0.297200  0.601000  1.0  -0.512
  O  O1297  1  0.249800  0.189800  0.353300  1.0  -0.5901
  O  O1298  1  0.204600  0.119800  0.371900  1.0  -0.5777
  O  O1299  1  0.629100  0.295700  0.618300  1.0  -0.628
  O  O1300  1  0.647400  0.251800  0.688500  1.0  -0.5607
  O  O1301  1  0.381200  0.871500  0.795900  1.0  -0.5906
  O  O1302  1  0.309900  0.857000  0.751800  1.0  -0.5587
  O  O1303  1  0.241400  0.055000  0.435800  1.0  -0.5164
  O  O1304  1  0.568000  0.258300  0.550400  1.0  -0.528
  O  O1305  1  0.450800  0.932200  0.757600  1.0  -0.5226
  O  O1306  1  0.569000  0.189000  0.713000  1.0  -0.4066
  O  O1307  1  0.281200  0.923200  0.687500  1.0  -0.5257
  O  O1308  1  0.335700  0.202800  0.399000  1.0  -0.5135
  O  O1309  1  0.503200  0.503200  0.503200  1.0  -0.7974
  O  O1310  1  0.996800  0.496800  0.003200  1.0  -0.7983
  O  O1311  1  0.496800  0.003200  0.996800  1.0  -0.8007
  O  O1312  1  0.003200  0.996800  0.496800  1.0  -0.7969
  O  O1313  1  0.253200  0.753200  0.746800  1.0  -0.7984
  O  O1314  1  0.246800  0.246800  0.246800  1.0  -0.7986
  O  O1315  1  0.753200  0.746800  0.253200  1.0  -0.7967
  O  O1316  1  0.746800  0.253200  0.753200  1.0  -0.7994
