# generated using pymatgen
data_CuH8(C5O)4
_symmetry_space_group_name_H-M   'P 1'
_cell_length_a   41.82750000
_cell_length_b   41.82750000
_cell_length_c   41.82750000
_cell_angle_alpha   60.00000000
_cell_angle_beta   60.00000000
_cell_angle_gamma   60.00000000
_symmetry_Int_Tables_number   1
_chemical_formula_structural   CuH8(C5O)4
_chemical_formula_sum   'Cu24 H192 C480 O96'
_cell_volume   51745.27815428
_cell_formula_units_Z   24
loop_
 _symmetry_equiv_pos_site_id
 _symmetry_equiv_pos_as_xyz
  1  'x, y, z'
loop_
 _atom_site_type_symbol
 _atom_site_label
 _atom_site_symmetry_multiplicity
 _atom_site_fract_x
 _atom_site_fract_y
 _atom_site_fract_z
 _atom_site_occupancy
 _atom_site_charge
  Cu  Cu1  1  0.809260  0.000000  0.000000  1.0  0.8809
  Cu  Cu2  1  0.746000  0.000000  0.000000  1.0  0.8841
  Cu  Cu3  1  0.000000  0.809260  0.190740  1.0  0.8824
  Cu  Cu4  1  0.000000  0.746000  0.254000  1.0  0.884
  Cu  Cu5  1  0.000000  0.190740  0.809260  1.0  0.8821
  Cu  Cu6  1  0.000000  0.254000  0.746000  1.0  0.8839
  Cu  Cu7  1  0.190740  0.000000  0.000000  1.0  0.8824
  Cu  Cu8  1  0.254000  0.000000  0.000000  1.0  0.8828
  Cu  Cu9  1  0.809260  0.000000  0.190740  1.0  0.8813
  Cu  Cu10  1  0.746000  0.000000  0.254000  1.0  0.8838
  Cu  Cu11  1  0.000000  0.190740  0.000000  1.0  0.8821
  Cu  Cu12  1  0.000000  0.254000  0.000000  1.0  0.8836
  Cu  Cu13  1  0.000000  0.809260  0.000000  1.0  0.882
  Cu  Cu14  1  0.000000  0.746000  0.000000  1.0  0.8839
  Cu  Cu15  1  0.190740  0.000000  0.809260  1.0  0.8821
  Cu  Cu16  1  0.254000  0.000000  0.746000  1.0  0.8832
  Cu  Cu17  1  0.809260  0.190740  0.000000  1.0  0.8805
  Cu  Cu18  1  0.746000  0.254000  0.000000  1.0  0.8839
  Cu  Cu19  1  0.000000  0.000000  0.809260  1.0  0.8802
  Cu  Cu20  1  0.000000  0.000000  0.746000  1.0  0.8823
  Cu  Cu21  1  0.000000  0.000000  0.190740  1.0  0.8805
  Cu  Cu22  1  0.000000  0.000000  0.254000  1.0  0.8824
  Cu  Cu23  1  0.190740  0.809260  0.000000  1.0  0.8823
  Cu  Cu24  1  0.254000  0.746000  0.000000  1.0  0.8822
  H  H25  1  0.680900  0.976100  0.123100  1.0  0.1059
  H  H26  1  0.568700  0.951500  0.191500  1.0  0.1077
  H  H27  1  0.508800  0.940400  0.227000  1.0  0.1061
  H  H28  1  0.976100  0.680900  0.219900  1.0  0.1057
  H  H29  1  0.951500  0.568700  0.288300  1.0  0.1069
  H  H30  1  0.940400  0.508800  0.323800  1.0  0.106
  H  H31  1  0.123100  0.219900  0.680900  1.0  0.1061
  H  H32  1  0.191500  0.288300  0.568700  1.0  0.1066
  H  H33  1  0.227000  0.323800  0.508800  1.0  0.1062
  H  H34  1  0.219900  0.123100  0.976100  1.0  0.106
  H  H35  1  0.288300  0.191500  0.951500  1.0  0.1075
  H  H36  1  0.323800  0.227000  0.940400  1.0  0.1069
  H  H37  1  0.680900  0.123100  0.219900  1.0  0.1056
  H  H38  1  0.568700  0.191500  0.288300  1.0  0.1081
  H  H39  1  0.508800  0.227000  0.323800  1.0  0.106
  H  H40  1  0.976100  0.219900  0.123100  1.0  0.1071
  H  H41  1  0.951500  0.288300  0.191500  1.0  0.107
  H  H42  1  0.940400  0.323800  0.227000  1.0  0.1087
  H  H43  1  0.123100  0.680900  0.976100  1.0  0.1058
  H  H44  1  0.191500  0.568700  0.951500  1.0  0.1071
  H  H45  1  0.227000  0.508800  0.940400  1.0  0.1068
  H  H46  1  0.219900  0.976100  0.680900  1.0  0.1057
  H  H47  1  0.288300  0.951500  0.568700  1.0  0.1065
  H  H48  1  0.323800  0.940400  0.508800  1.0  0.1068
  H  H49  1  0.680900  0.219900  0.976100  1.0  0.1069
  H  H50  1  0.568700  0.288300  0.951500  1.0  0.1073
  H  H51  1  0.508800  0.323800  0.940400  1.0  0.1072
  H  H52  1  0.976100  0.123100  0.680900  1.0  0.1059
  H  H53  1  0.951500  0.191500  0.568700  1.0  0.1083
  H  H54  1  0.940400  0.227000  0.508800  1.0  0.106
  H  H55  1  0.123100  0.976100  0.219900  1.0  0.105
  H  H56  1  0.191500  0.951500  0.288300  1.0  0.1067
  H  H57  1  0.227000  0.940400  0.323800  1.0  0.1062
  H  H58  1  0.219900  0.680900  0.123100  1.0  0.1057
  H  H59  1  0.288300  0.568700  0.191500  1.0  0.1083
  H  H60  1  0.323800  0.508800  0.227000  1.0  0.1066
  H  H61  1  0.023900  0.319100  0.876900  1.0  0.1054
  H  H62  1  0.048500  0.431300  0.808500  1.0  0.1071
  H  H63  1  0.059600  0.491200  0.773000  1.0  0.106
  H  H64  1  0.319100  0.023900  0.780100  1.0  0.1059
  H  H65  1  0.431300  0.048500  0.711700  1.0  0.1072
  H  H66  1  0.491200  0.059600  0.676200  1.0  0.1058
  H  H67  1  0.780100  0.876900  0.319100  1.0  0.1057
  H  H68  1  0.711700  0.808500  0.431300  1.0  0.1076
  H  H69  1  0.676200  0.773000  0.491200  1.0  0.1061
  H  H70  1  0.876900  0.780100  0.023900  1.0  0.1064
  H  H71  1  0.808500  0.711700  0.048500  1.0  0.1075
  H  H72  1  0.773000  0.676200  0.059600  1.0  0.1072
  H  H73  1  0.876900  0.319100  0.780100  1.0  0.1051
  H  H74  1  0.808500  0.431300  0.711700  1.0  0.1079
  H  H75  1  0.773000  0.491200  0.676200  1.0  0.1078
  H  H76  1  0.780100  0.023900  0.876900  1.0  0.1071
  H  H77  1  0.711700  0.048500  0.808500  1.0  0.107
  H  H78  1  0.676200  0.059600  0.773000  1.0  0.1061
  H  H79  1  0.319100  0.876900  0.023900  1.0  0.1046
  H  H80  1  0.431300  0.808500  0.048500  1.0  0.1078
  H  H81  1  0.491200  0.773000  0.059600  1.0  0.1066
  H  H82  1  0.023900  0.780100  0.319100  1.0  0.1072
  H  H83  1  0.048500  0.711700  0.431300  1.0  0.1068
  H  H84  1  0.059600  0.676200  0.491200  1.0  0.1073
  H  H85  1  0.780100  0.319100  0.023900  1.0  0.1058
  H  H86  1  0.711700  0.431300  0.048500  1.0  0.1071
  H  H87  1  0.676200  0.491200  0.059600  1.0  0.106
  H  H88  1  0.876900  0.023900  0.319100  1.0  0.1044
  H  H89  1  0.808500  0.048500  0.431300  1.0  0.1078
  H  H90  1  0.773000  0.059600  0.491200  1.0  0.1053
  H  H91  1  0.023900  0.876900  0.780100  1.0  0.1054
  H  H92  1  0.048500  0.808500  0.711700  1.0  0.1097
  H  H93  1  0.059600  0.773000  0.676200  1.0  0.1063
  H  H94  1  0.319100  0.780100  0.876900  1.0  0.1066
  H  H95  1  0.431300  0.711700  0.808500  1.0  0.1072
  H  H96  1  0.491200  0.676200  0.773000  1.0  0.1077
  H  H97  1  0.319100  0.023900  0.876900  1.0  0.1052
  H  H98  1  0.431300  0.048500  0.808500  1.0  0.1072
  H  H99  1  0.491200  0.059600  0.773000  1.0  0.1061
  H  H100  1  0.023900  0.319100  0.780100  1.0  0.1054
  H  H101  1  0.048500  0.431300  0.711700  1.0  0.1073
  H  H102  1  0.059600  0.491200  0.676200  1.0  0.1057
  H  H103  1  0.876900  0.780100  0.319100  1.0  0.1062
  H  H104  1  0.808500  0.711700  0.431300  1.0  0.1075
  H  H105  1  0.773000  0.676200  0.491200  1.0  0.1072
  H  H106  1  0.780100  0.876900  0.023900  1.0  0.1056
  H  H107  1  0.711700  0.808500  0.048500  1.0  0.1077
  H  H108  1  0.676200  0.773000  0.059600  1.0  0.1064
  H  H109  1  0.319100  0.876900  0.780100  1.0  0.1055
  H  H110  1  0.431300  0.808500  0.711700  1.0  0.1078
  H  H111  1  0.491200  0.773000  0.676200  1.0  0.1071
  H  H112  1  0.023900  0.780100  0.876900  1.0  0.1066
  H  H113  1  0.048500  0.711700  0.808500  1.0  0.107
  H  H114  1  0.059600  0.676200  0.773000  1.0  0.1081
  H  H115  1  0.876900  0.319100  0.023900  1.0  0.1046
  H  H116  1  0.808500  0.431300  0.048500  1.0  0.1077
  H  H117  1  0.773000  0.491200  0.059600  1.0  0.1071
  H  H118  1  0.780100  0.023900  0.319100  1.0  0.1078
  H  H119  1  0.711700  0.048500  0.431300  1.0  0.1064
  H  H120  1  0.676200  0.059600  0.491200  1.0  0.1054
  H  H121  1  0.319100  0.780100  0.023900  1.0  0.1068
  H  H122  1  0.431300  0.711700  0.048500  1.0  0.1069
  H  H123  1  0.491200  0.676200  0.059600  1.0  0.107
  H  H124  1  0.023900  0.876900  0.319100  1.0  0.1042
  H  H125  1  0.048500  0.808500  0.431300  1.0  0.1095
  H  H126  1  0.059600  0.773000  0.491200  1.0  0.1059
  H  H127  1  0.876900  0.023900  0.780100  1.0  0.1056
  H  H128  1  0.808500  0.048500  0.711700  1.0  0.1082
  H  H129  1  0.773000  0.059600  0.676200  1.0  0.1063
  H  H130  1  0.780100  0.319100  0.876900  1.0  0.1058
  H  H131  1  0.711700  0.431300  0.808500  1.0  0.1077
  H  H132  1  0.676200  0.491200  0.773000  1.0  0.1069
  H  H133  1  0.976100  0.680900  0.123100  1.0  0.1058
  H  H134  1  0.951500  0.568700  0.191500  1.0  0.1073
  H  H135  1  0.940400  0.508800  0.227000  1.0  0.1061
  H  H136  1  0.680900  0.976100  0.219900  1.0  0.106
  H  H137  1  0.568700  0.951500  0.288300  1.0  0.1071
  H  H138  1  0.508800  0.940400  0.323800  1.0  0.1061
  H  H139  1  0.219900  0.123100  0.680900  1.0  0.1059
  H  H140  1  0.288300  0.191500  0.568700  1.0  0.1075
  H  H141  1  0.323800  0.227000  0.508800  1.0  0.1064
  H  H142  1  0.123100  0.219900  0.976100  1.0  0.1065
  H  H143  1  0.191500  0.288300  0.951500  1.0  0.1068
  H  H144  1  0.227000  0.323800  0.940400  1.0  0.1067
  H  H145  1  0.123100  0.680900  0.219900  1.0  0.1056
  H  H146  1  0.191500  0.568700  0.288300  1.0  0.1072
  H  H147  1  0.227000  0.508800  0.323800  1.0  0.1063
  H  H148  1  0.219900  0.976100  0.123100  1.0  0.1066
  H  H149  1  0.288300  0.951500  0.191500  1.0  0.1075
  H  H150  1  0.323800  0.940400  0.227000  1.0  0.1069
  H  H151  1  0.680900  0.123100  0.976100  1.0  0.1057
  H  H152  1  0.568700  0.191500  0.951500  1.0  0.1081
  H  H153  1  0.508800  0.227000  0.940400  1.0  0.1067
  H  H154  1  0.976100  0.219900  0.680900  1.0  0.106
  H  H155  1  0.951500  0.288300  0.568700  1.0  0.1071
  H  H156  1  0.940400  0.323800  0.508800  1.0  0.1085
  H  H157  1  0.219900  0.680900  0.976100  1.0  0.1055
  H  H158  1  0.288300  0.568700  0.951500  1.0  0.1078
  H  H159  1  0.323800  0.508800  0.940400  1.0  0.1076
  H  H160  1  0.123100  0.976100  0.680900  1.0  0.1059
  H  H161  1  0.191500  0.951500  0.568700  1.0  0.1066
  H  H162  1  0.227000  0.940400  0.508800  1.0  0.1057
  H  H163  1  0.976100  0.123100  0.219900  1.0  0.105
  H  H164  1  0.951500  0.191500  0.288300  1.0  0.1082
  H  H165  1  0.940400  0.227000  0.323800  1.0  0.1062
  H  H166  1  0.680900  0.219900  0.123100  1.0  0.107
  H  H167  1  0.568700  0.288300  0.191500  1.0  0.1075
  H  H168  1  0.508800  0.323800  0.227000  1.0  0.1068
  H  H169  1  0.770900  0.991300  0.118900  1.0  0.086
  H  H170  1  0.991300  0.770900  0.118900  1.0  0.0863
  H  H171  1  0.118900  0.118900  0.770900  1.0  0.0856
  H  H172  1  0.118900  0.118900  0.991300  1.0  0.0854
  H  H173  1  0.770900  0.118900  0.118900  1.0  0.0849
  H  H174  1  0.991300  0.118900  0.118900  1.0  0.0858
  H  H175  1  0.118900  0.770900  0.991300  1.0  0.0859
  H  H176  1  0.118900  0.991300  0.770900  1.0  0.0862
  H  H177  1  0.770900  0.118900  0.991300  1.0  0.0846
  H  H178  1  0.991300  0.118900  0.770900  1.0  0.0858
  H  H179  1  0.118900  0.991300  0.118900  1.0  0.0861
  H  H180  1  0.118900  0.770900  0.118900  1.0  0.0861
  H  H181  1  0.008700  0.229100  0.881100  1.0  0.0865
  H  H182  1  0.229100  0.008700  0.881100  1.0  0.0856
  H  H183  1  0.881100  0.881100  0.229100  1.0  0.085
  H  H184  1  0.881100  0.881100  0.008700  1.0  0.0853
  H  H185  1  0.881100  0.229100  0.881100  1.0  0.0862
  H  H186  1  0.881100  0.008700  0.881100  1.0  0.0863
  H  H187  1  0.229100  0.881100  0.008700  1.0  0.085
  H  H188  1  0.008700  0.881100  0.229100  1.0  0.0856
  H  H189  1  0.881100  0.229100  0.008700  1.0  0.0865
  H  H190  1  0.881100  0.008700  0.229100  1.0  0.0861
  H  H191  1  0.008700  0.881100  0.881100  1.0  0.0858
  H  H192  1  0.229100  0.881100  0.881100  1.0  0.0846
  H  H193  1  0.392000  0.920400  0.392000  1.0  0.1117
  H  H194  1  0.920400  0.392000  0.295600  1.0  0.1113
  H  H195  1  0.392000  0.295600  0.392000  1.0  0.1153
  H  H196  1  0.295600  0.392000  0.920400  1.0  0.1124
  H  H197  1  0.392000  0.392000  0.295600  1.0  0.1126
  H  H198  1  0.920400  0.295600  0.392000  1.0  0.1149
  H  H199  1  0.392000  0.392000  0.920400  1.0  0.1129
  H  H200  1  0.295600  0.920400  0.392000  1.0  0.1114
  H  H201  1  0.392000  0.295600  0.920400  1.0  0.1156
  H  H202  1  0.920400  0.392000  0.392000  1.0  0.112
  H  H203  1  0.392000  0.920400  0.295600  1.0  0.1118
  H  H204  1  0.295600  0.392000  0.392000  1.0  0.112
  H  H205  1  0.079600  0.608000  0.608000  1.0  0.1111
  H  H206  1  0.608000  0.079600  0.704400  1.0  0.1128
  H  H207  1  0.704400  0.608000  0.608000  1.0  0.1125
  H  H208  1  0.608000  0.704400  0.079600  1.0  0.1153
  H  H209  1  0.608000  0.608000  0.704400  1.0  0.1119
  H  H210  1  0.704400  0.079600  0.608000  1.0  0.1129
  H  H211  1  0.608000  0.608000  0.079600  1.0  0.1115
  H  H212  1  0.079600  0.704400  0.608000  1.0  0.1142
  H  H213  1  0.704400  0.608000  0.079600  1.0  0.1123
  H  H214  1  0.608000  0.079600  0.608000  1.0  0.1116
  H  H215  1  0.079600  0.608000  0.704400  1.0  0.1114
  H  H216  1  0.608000  0.704400  0.608000  1.0  0.1148
  C  C217  1  0.747700  0.988900  0.072100  1.0  0.6852
  C  C218  1  0.729050  0.984750  0.114370  1.0  -0.1737
  C  C219  1  0.693250  0.977950  0.135630  1.0  -0.0588
  C  C220  1  0.556600  0.949200  0.218400  1.0  -0.1532
  C  C221  1  0.520900  0.942700  0.239500  1.0  -0.1263
  C  C222  1  0.988900  0.747700  0.191300  1.0  0.6851
  C  C223  1  0.984750  0.729050  0.171830  1.0  -0.1739
  C  C224  1  0.977950  0.693250  0.193170  1.0  -0.0598
  C  C225  1  0.949200  0.556600  0.275800  1.0  -0.1528
  C  C226  1  0.942700  0.520900  0.296900  1.0  -0.1265
  C  C227  1  0.072100  0.191300  0.747700  1.0  0.6848
  C  C228  1  0.114370  0.171830  0.729050  1.0  -0.1743
  C  C229  1  0.135630  0.193170  0.693250  1.0  -0.0587
  C  C230  1  0.218400  0.275800  0.556600  1.0  -0.151
  C  C231  1  0.239500  0.296900  0.520900  1.0  -0.131
  C  C232  1  0.191300  0.072100  0.988900  1.0  0.6842
  C  C233  1  0.171830  0.114370  0.984750  1.0  -0.1745
  C  C234  1  0.193170  0.135630  0.977950  1.0  -0.0568
  C  C235  1  0.275800  0.218400  0.949200  1.0  -0.1529
  C  C236  1  0.296900  0.239500  0.942700  1.0  -0.1283
  C  C237  1  0.747700  0.072100  0.191300  1.0  0.6842
  C  C238  1  0.729050  0.114370  0.171830  1.0  -0.1738
  C  C239  1  0.693250  0.135630  0.193170  1.0  -0.0589
  C  C240  1  0.556600  0.218400  0.275800  1.0  -0.152
  C  C241  1  0.520900  0.239500  0.296900  1.0  -0.1264
  C  C242  1  0.988900  0.191300  0.072100  1.0  0.6851
  C  C243  1  0.984750  0.171830  0.114370  1.0  -0.1738
  C  C244  1  0.977950  0.193170  0.135630  1.0  -0.0581
  C  C245  1  0.949200  0.275800  0.218400  1.0  -0.1516
  C  C246  1  0.942700  0.296900  0.239500  1.0  -0.1313
  C  C247  1  0.072100  0.747700  0.988900  1.0  0.6851
  C  C248  1  0.114370  0.729050  0.984750  1.0  -0.1742
  C  C249  1  0.135630  0.693250  0.977950  1.0  -0.0594
  C  C250  1  0.218400  0.556600  0.949200  1.0  -0.1538
  C  C251  1  0.239500  0.520900  0.942700  1.0  -0.1242
  C  C252  1  0.191300  0.988900  0.747700  1.0  0.6855
  C  C253  1  0.171830  0.984750  0.729050  1.0  -0.1742
  C  C254  1  0.193170  0.977950  0.693250  1.0  -0.0558
  C  C255  1  0.275800  0.949200  0.556600  1.0  -0.1516
  C  C256  1  0.296900  0.942700  0.520900  1.0  -0.1293
  C  C257  1  0.747700  0.191300  0.988900  1.0  0.6838
  C  C258  1  0.729050  0.171830  0.984750  1.0  -0.1735
  C  C259  1  0.693250  0.193170  0.977950  1.0  -0.0579
  C  C260  1  0.556600  0.275800  0.949200  1.0  -0.1513
  C  C261  1  0.520900  0.296900  0.942700  1.0  -0.1323
  C  C262  1  0.988900  0.072100  0.747700  1.0  0.6843
  C  C263  1  0.984750  0.114370  0.729050  1.0  -0.1742
  C  C264  1  0.977950  0.135630  0.693250  1.0  -0.0607
  C  C265  1  0.949200  0.218400  0.556600  1.0  -0.1543
  C  C266  1  0.942700  0.239500  0.520900  1.0  -0.1251
  C  C267  1  0.072100  0.988900  0.191300  1.0  0.6855
  C  C268  1  0.114370  0.984750  0.171830  1.0  -0.1746
  C  C269  1  0.135630  0.977950  0.193170  1.0  -0.0609
  C  C270  1  0.218400  0.949200  0.275800  1.0  -0.1511
  C  C271  1  0.239500  0.942700  0.296900  1.0  -0.1246
  C  C272  1  0.191300  0.747700  0.072100  1.0  0.6841
  C  C273  1  0.171830  0.729050  0.114370  1.0  -0.1746
  C  C274  1  0.193170  0.693250  0.135630  1.0  -0.0562
  C  C275  1  0.275800  0.556600  0.218400  1.0  -0.1532
  C  C276  1  0.296900  0.520900  0.239500  1.0  -0.1294
  C  C277  1  0.011100  0.252300  0.927900  1.0  0.6852
  C  C278  1  0.015250  0.270950  0.885630  1.0  -0.1744
  C  C279  1  0.022050  0.306750  0.864370  1.0  -0.059
  C  C280  1  0.050800  0.443400  0.781600  1.0  -0.1512
  C  C281  1  0.057300  0.479100  0.760500  1.0  -0.1315
  C  C282  1  0.252300  0.011100  0.808700  1.0  0.6852
  C  C283  1  0.270950  0.015250  0.828170  1.0  -0.1745
  C  C284  1  0.306750  0.022050  0.806830  1.0  -0.0577
  C  C285  1  0.443400  0.050800  0.724200  1.0  -0.1501
  C  C286  1  0.479100  0.057300  0.703100  1.0  -0.1293
  C  C287  1  0.808700  0.927900  0.252300  1.0  0.6847
  C  C288  1  0.828170  0.885630  0.270950  1.0  -0.174
  C  C289  1  0.806830  0.864370  0.306750  1.0  -0.0582
  C  C290  1  0.724200  0.781600  0.443400  1.0  -0.1538
  C  C291  1  0.703100  0.760500  0.479100  1.0  -0.1246
  C  C292  1  0.927900  0.808700  0.011100  1.0  0.6849
  C  C293  1  0.885630  0.828170  0.015250  1.0  -0.1742
  C  C294  1  0.864370  0.806830  0.022050  1.0  -0.0584
  C  C295  1  0.781600  0.724200  0.050800  1.0  -0.1517
  C  C296  1  0.760500  0.703100  0.057300  1.0  -0.1289
  C  C297  1  0.927900  0.252300  0.808700  1.0  0.6846
  C  C298  1  0.885630  0.270950  0.828170  1.0  -0.1738
  C  C299  1  0.864370  0.306750  0.806830  1.0  -0.0587
  C  C300  1  0.781600  0.443400  0.724200  1.0  -0.1515
  C  C301  1  0.760500  0.479100  0.703100  1.0  -0.1293
  C  C302  1  0.808700  0.011100  0.927900  1.0  0.6847
  C  C303  1  0.828170  0.015250  0.885630  1.0  -0.1747
  C  C304  1  0.806830  0.022050  0.864370  1.0  -0.0573
  C  C305  1  0.724200  0.050800  0.781600  1.0  -0.1497
  C  C306  1  0.703100  0.057300  0.760500  1.0  -0.1259
  C  C307  1  0.252300  0.927900  0.011100  1.0  0.6849
  C  C308  1  0.270950  0.885630  0.015250  1.0  -0.1734
  C  C309  1  0.306750  0.864370  0.022050  1.0  -0.0575
  C  C310  1  0.443400  0.781600  0.050800  1.0  -0.155
  C  C311  1  0.479100  0.760500  0.057300  1.0  -0.1293
  C  C312  1  0.011100  0.808700  0.252300  1.0  0.685
  C  C313  1  0.015250  0.828170  0.270950  1.0  -0.1749
  C  C314  1  0.022050  0.806830  0.306750  1.0  -0.0595
  C  C315  1  0.050800  0.724200  0.443400  1.0  -0.1528
  C  C316  1  0.057300  0.703100  0.479100  1.0  -0.13
  C  C317  1  0.808700  0.252300  0.011100  1.0  0.6837
  C  C318  1  0.828170  0.270950  0.015250  1.0  -0.1751
  C  C319  1  0.806830  0.306750  0.022050  1.0  -0.0583
  C  C320  1  0.724200  0.443400  0.050800  1.0  -0.1518
  C  C321  1  0.703100  0.479100  0.057300  1.0  -0.1286
  C  C322  1  0.927900  0.011100  0.252300  1.0  0.6848
  C  C323  1  0.885630  0.015250  0.270950  1.0  -0.1742
  C  C324  1  0.864370  0.022050  0.306750  1.0  -0.0594
  C  C325  1  0.781600  0.050800  0.443400  1.0  -0.1526
  C  C326  1  0.760500  0.057300  0.479100  1.0  -0.1291
  C  C327  1  0.011100  0.927900  0.808700  1.0  0.6849
  C  C328  1  0.015250  0.885630  0.828170  1.0  -0.1744
  C  C329  1  0.022050  0.864370  0.806830  1.0  -0.0601
  C  C330  1  0.050800  0.781600  0.724200  1.0  -0.1535
  C  C331  1  0.057300  0.760500  0.703100  1.0  -0.129
  C  C332  1  0.252300  0.808700  0.927900  1.0  0.6836
  C  C333  1  0.270950  0.828170  0.885630  1.0  -0.1739
  C  C334  1  0.306750  0.806830  0.864370  1.0  -0.0571
  C  C335  1  0.443400  0.724200  0.781600  1.0  -0.149
  C  C336  1  0.479100  0.703100  0.760500  1.0  -0.1275
  C  C337  1  0.252300  0.011100  0.927900  1.0  0.6851
  C  C338  1  0.270950  0.015250  0.885630  1.0  -0.1748
  C  C339  1  0.306750  0.022050  0.864370  1.0  -0.0577
  C  C340  1  0.443400  0.050800  0.781600  1.0  -0.1519
  C  C341  1  0.479100  0.057300  0.760500  1.0  -0.1313
  C  C342  1  0.011100  0.252300  0.808700  1.0  0.6853
  C  C343  1  0.015250  0.270950  0.828170  1.0  -0.1742
  C  C344  1  0.022050  0.306750  0.806830  1.0  -0.0595
  C  C345  1  0.050800  0.443400  0.724200  1.0  -0.152
  C  C346  1  0.057300  0.479100  0.703100  1.0  -0.1312
  C  C347  1  0.927900  0.808700  0.252300  1.0  0.6849
  C  C348  1  0.885630  0.828170  0.270950  1.0  -0.1741
  C  C349  1  0.864370  0.806830  0.306750  1.0  -0.0583
  C  C350  1  0.781600  0.724200  0.443400  1.0  -0.1517
  C  C351  1  0.760500  0.703100  0.479100  1.0  -0.1264
  C  C352  1  0.808700  0.927900  0.011100  1.0  0.6848
  C  C353  1  0.828170  0.885630  0.015250  1.0  -0.1741
  C  C354  1  0.806830  0.864370  0.022050  1.0  -0.0582
  C  C355  1  0.724200  0.781600  0.050800  1.0  -0.1515
  C  C356  1  0.703100  0.760500  0.057300  1.0  -0.1249
  C  C357  1  0.252300  0.927900  0.808700  1.0  0.6848
  C  C358  1  0.270950  0.885630  0.828170  1.0  -0.1733
  C  C359  1  0.306750  0.864370  0.806830  1.0  -0.0578
  C  C360  1  0.443400  0.781600  0.724200  1.0  -0.1548
  C  C361  1  0.479100  0.760500  0.703100  1.0  -0.1296
  C  C362  1  0.011100  0.808700  0.927900  1.0  0.6849
  C  C363  1  0.015250  0.828170  0.885630  1.0  -0.1747
  C  C364  1  0.022050  0.806830  0.864370  1.0  -0.0595
  C  C365  1  0.050800  0.724200  0.781600  1.0  -0.1517
  C  C366  1  0.057300  0.703100  0.760500  1.0  -0.1305
  C  C367  1  0.927900  0.252300  0.011100  1.0  0.6843
  C  C368  1  0.885630  0.270950  0.015250  1.0  -0.174
  C  C369  1  0.864370  0.306750  0.022050  1.0  -0.0586
  C  C370  1  0.781600  0.443400  0.050800  1.0  -0.1531
  C  C371  1  0.760500  0.479100  0.057300  1.0  -0.1287
  C  C372  1  0.808700  0.011100  0.252300  1.0  0.6851
  C  C373  1  0.828170  0.015250  0.270950  1.0  -0.1747
  C  C374  1  0.806830  0.022050  0.306750  1.0  -0.057
  C  C375  1  0.724200  0.050800  0.443400  1.0  -0.1505
  C  C376  1  0.703100  0.057300  0.479100  1.0  -0.1274
  C  C377  1  0.252300  0.808700  0.011100  1.0  0.6839
  C  C378  1  0.270950  0.828170  0.015250  1.0  -0.1744
  C  C379  1  0.306750  0.806830  0.022050  1.0  -0.0571
  C  C380  1  0.443400  0.724200  0.050800  1.0  -0.1495
  C  C381  1  0.479100  0.703100  0.057300  1.0  -0.1296
  C  C382  1  0.011100  0.927900  0.252300  1.0  0.6849
  C  C383  1  0.015250  0.885630  0.270950  1.0  -0.1746
  C  C384  1  0.022050  0.864370  0.306750  1.0  -0.0601
  C  C385  1  0.050800  0.781600  0.443400  1.0  -0.154
  C  C386  1  0.057300  0.760500  0.479100  1.0  -0.129
  C  C387  1  0.927900  0.011100  0.808700  1.0  0.6849
  C  C388  1  0.885630  0.015250  0.828170  1.0  -0.174
  C  C389  1  0.864370  0.022050  0.806830  1.0  -0.0594
  C  C390  1  0.781600  0.050800  0.724200  1.0  -0.1519
  C  C391  1  0.760500  0.057300  0.703100  1.0  -0.1291
  C  C392  1  0.808700  0.252300  0.927900  1.0  0.6835
  C  C393  1  0.828170  0.270950  0.885630  1.0  -0.1745
  C  C394  1  0.806830  0.306750  0.864370  1.0  -0.0585
  C  C395  1  0.724200  0.443400  0.781600  1.0  -0.1511
  C  C396  1  0.703100  0.479100  0.760500  1.0  -0.1311
  C  C397  1  0.988900  0.747700  0.072100  1.0  0.6853
  C  C398  1  0.984750  0.729050  0.114370  1.0  -0.1737
  C  C399  1  0.977950  0.693250  0.135630  1.0  -0.0597
  C  C400  1  0.949200  0.556600  0.218400  1.0  -0.1536
  C  C401  1  0.942700  0.520900  0.239500  1.0  -0.1286
  C  C402  1  0.747700  0.988900  0.191300  1.0  0.685
  C  C403  1  0.729050  0.984750  0.171830  1.0  -0.1739
  C  C404  1  0.693250  0.977950  0.193170  1.0  -0.0592
  C  C405  1  0.556600  0.949200  0.275800  1.0  -0.153
  C  C406  1  0.520900  0.942700  0.296900  1.0  -0.128
  C  C407  1  0.191300  0.072100  0.747700  1.0  0.6841
  C  C408  1  0.171830  0.114370  0.729050  1.0  -0.1746
  C  C409  1  0.193170  0.135630  0.693250  1.0  -0.057
  C  C410  1  0.275800  0.218400  0.556600  1.0  -0.1536
  C  C411  1  0.296900  0.239500  0.520900  1.0  -0.1292
  C  C412  1  0.072100  0.191300  0.988900  1.0  0.6848
  C  C413  1  0.114370  0.171830  0.984750  1.0  -0.1742
  C  C414  1  0.135630  0.193170  0.977950  1.0  -0.0584
  C  C415  1  0.218400  0.275800  0.949200  1.0  -0.1518
  C  C416  1  0.239500  0.296900  0.942700  1.0  -0.1305
  C  C417  1  0.072100  0.747700  0.191300  1.0  0.6849
  C  C418  1  0.114370  0.729050  0.171830  1.0  -0.1744
  C  C419  1  0.135630  0.693250  0.193170  1.0  -0.0592
  C  C420  1  0.218400  0.556600  0.275800  1.0  -0.1535
  C  C421  1  0.239500  0.520900  0.296900  1.0  -0.1258
  C  C422  1  0.191300  0.988900  0.072100  1.0  0.6858
  C  C423  1  0.171830  0.984750  0.114370  1.0  -0.1741
  C  C424  1  0.193170  0.977950  0.135630  1.0  -0.056
  C  C425  1  0.275800  0.949200  0.218400  1.0  -0.153
  C  C426  1  0.296900  0.942700  0.239500  1.0  -0.1278
  C  C427  1  0.747700  0.072100  0.988900  1.0  0.6845
  C  C428  1  0.729050  0.114370  0.984750  1.0  -0.1738
  C  C429  1  0.693250  0.135630  0.977950  1.0  -0.0588
  C  C430  1  0.556600  0.218400  0.949200  1.0  -0.1519
  C  C431  1  0.520900  0.239500  0.942700  1.0  -0.1248
  C  C432  1  0.988900  0.191300  0.747700  1.0  0.6848
  C  C433  1  0.984750  0.171830  0.729050  1.0  -0.1738
  C  C434  1  0.977950  0.193170  0.693250  1.0  -0.0586
  C  C435  1  0.949200  0.275800  0.556600  1.0  -0.1504
  C  C436  1  0.942700  0.296900  0.520900  1.0  -0.1314
  C  C437  1  0.191300  0.747700  0.988900  1.0  0.6838
  C  C438  1  0.171830  0.729050  0.984750  1.0  -0.1743
  C  C439  1  0.193170  0.693250  0.977950  1.0  -0.0562
  C  C440  1  0.275800  0.556600  0.949200  1.0  -0.1522
  C  C441  1  0.296900  0.520900  0.942700  1.0  -0.1284
  C  C442  1  0.072100  0.988900  0.747700  1.0  0.6855
  C  C443  1  0.114370  0.984750  0.729050  1.0  -0.1744
  C  C444  1  0.135630  0.977950  0.693250  1.0  -0.0601
  C  C445  1  0.218400  0.949200  0.556600  1.0  -0.1521
  C  C446  1  0.239500  0.942700  0.520900  1.0  -0.1242
  C  C447  1  0.988900  0.072100  0.191300  1.0  0.6843
  C  C448  1  0.984750  0.114370  0.171830  1.0  -0.1743
  C  C449  1  0.977950  0.135630  0.193170  1.0  -0.0615
  C  C450  1  0.949200  0.218400  0.275800  1.0  -0.1547
  C  C451  1  0.942700  0.239500  0.296900  1.0  -0.1287
  C  C452  1  0.747700  0.191300  0.072100  1.0  0.6841
  C  C453  1  0.729050  0.171830  0.114370  1.0  -0.1739
  C  C454  1  0.693250  0.193170  0.135630  1.0  -0.0578
  C  C455  1  0.556600  0.275800  0.218400  1.0  -0.1531
  C  C456  1  0.520900  0.296900  0.239500  1.0  -0.1302
  C  C457  1  0.746200  0.987400  0.133200  1.0  -0.0117
  C  C458  1  0.675780  0.974020  0.175100  1.0  0.0731
  C  C459  1  0.639100  0.967100  0.196900  1.0  0.0645
  C  C460  1  0.610900  0.959300  0.214900  1.0  0.1078
  C  C461  1  0.574500  0.952500  0.236500  1.0  0.0088
  C  C462  1  0.502900  0.939300  0.278900  1.0  0.2894
  C  C463  1  0.466100  0.932500  0.300700  1.0  -0.1237
  C  C464  1  0.435600  0.926800  0.318800  1.0  -0.0753
  C  C465  1  0.395900  0.927500  0.338300  1.0  0.0286
  C  C466  1  0.987400  0.746200  0.133200  1.0  -0.0127
  C  C467  1  0.974020  0.675780  0.175100  1.0  0.0747
  C  C468  1  0.967100  0.639100  0.196900  1.0  0.0623
  C  C469  1  0.959300  0.610900  0.214900  1.0  0.1065
  C  C470  1  0.952500  0.574500  0.236500  1.0  0.0097
  C  C471  1  0.939300  0.502900  0.278900  1.0  0.2899
  C  C472  1  0.932500  0.466100  0.300700  1.0  -0.1239
  C  C473  1  0.926800  0.435600  0.318800  1.0  -0.0768
  C  C474  1  0.927500  0.395900  0.338300  1.0  0.0308
  C  C475  1  0.133200  0.133200  0.746200  1.0  -0.014
  C  C476  1  0.175100  0.175100  0.675780  1.0  0.0728
  C  C477  1  0.196900  0.196900  0.639100  1.0  0.0633
  C  C478  1  0.214900  0.214900  0.610900  1.0  0.1054
  C  C479  1  0.236500  0.236500  0.574500  1.0  0.0176
  C  C480  1  0.278900  0.278900  0.502900  1.0  0.2904
  C  C481  1  0.300700  0.300700  0.466100  1.0  -0.1159
  C  C482  1  0.318800  0.318800  0.435600  1.0  -0.0771
  C  C483  1  0.338300  0.338300  0.395900  1.0  0.0223
  C  C484  1  0.133200  0.133200  0.987400  1.0  -0.0145
  C  C485  1  0.175100  0.175100  0.974020  1.0  0.0741
  C  C486  1  0.196900  0.196900  0.967100  1.0  0.0643
  C  C487  1  0.214900  0.214900  0.959300  1.0  0.1047
  C  C488  1  0.236500  0.236500  0.952500  1.0  0.0167
  C  C489  1  0.278900  0.278900  0.939300  1.0  0.2895
  C  C490  1  0.300700  0.300700  0.932500  1.0  -0.124
  C  C491  1  0.318800  0.318800  0.926800  1.0  -0.0789
  C  C492  1  0.338300  0.338300  0.927500  1.0  0.0271
  C  C493  1  0.746200  0.133200  0.133200  1.0  -0.0126
  C  C494  1  0.675780  0.175100  0.175100  1.0  0.0728
  C  C495  1  0.639100  0.196900  0.196900  1.0  0.0635
  C  C496  1  0.610900  0.214900  0.214900  1.0  0.1059
  C  C497  1  0.574500  0.236500  0.236500  1.0  0.0091
  C  C498  1  0.502900  0.278900  0.278900  1.0  0.289
  C  C499  1  0.466100  0.300700  0.300700  1.0  -0.1175
  C  C500  1  0.435600  0.318800  0.318800  1.0  -0.0743
  C  C501  1  0.395900  0.338300  0.338300  1.0  0.0258
  C  C502  1  0.987400  0.133200  0.133200  1.0  -0.0142
  C  C503  1  0.974020  0.175100  0.175100  1.0  0.0752
  C  C504  1  0.967100  0.196900  0.196900  1.0  0.0647
  C  C505  1  0.959300  0.214900  0.214900  1.0  0.1053
  C  C506  1  0.952500  0.236500  0.236500  1.0  0.0087
  C  C507  1  0.939300  0.278900  0.278900  1.0  0.291
  C  C508  1  0.932500  0.300700  0.300700  1.0  -0.1234
  C  C509  1  0.926800  0.318800  0.318800  1.0  -0.0773
  C  C510  1  0.927500  0.338300  0.338300  1.0  0.0285
  C  C511  1  0.133200  0.746200  0.987400  1.0  -0.0151
  C  C512  1  0.175100  0.675780  0.974020  1.0  0.0728
  C  C513  1  0.196900  0.639100  0.967100  1.0  0.0647
  C  C514  1  0.214900  0.610900  0.959300  1.0  0.1064
  C  C515  1  0.236500  0.574500  0.952500  1.0  0.0096
  C  C516  1  0.278900  0.502900  0.939300  1.0  0.2889
  C  C517  1  0.300700  0.466100  0.932500  1.0  -0.1234
  C  C518  1  0.318800  0.435600  0.926800  1.0  -0.0759
  C  C519  1  0.338300  0.395900  0.927500  1.0  0.0298
  C  C520  1  0.133200  0.987400  0.746200  1.0  -0.0142
  C  C521  1  0.175100  0.974020  0.675780  1.0  0.0748
  C  C522  1  0.196900  0.967100  0.639100  1.0  0.0614
  C  C523  1  0.214900  0.959300  0.610900  1.0  0.1044
  C  C524  1  0.236500  0.952500  0.574500  1.0  0.0084
  C  C525  1  0.278900  0.939300  0.502900  1.0  0.2912
  C  C526  1  0.300700  0.932500  0.466100  1.0  -0.1262
  C  C527  1  0.318800  0.926800  0.435600  1.0  -0.0762
  C  C528  1  0.338300  0.927500  0.395900  1.0  0.0271
  C  C529  1  0.746200  0.133200  0.987400  1.0  -0.0126
  C  C530  1  0.675780  0.175100  0.974020  1.0  0.0721
  C  C531  1  0.639100  0.196900  0.967100  1.0  0.0629
  C  C532  1  0.610900  0.214900  0.959300  1.0  0.1068
  C  C533  1  0.574500  0.236500  0.952500  1.0  0.01
  C  C534  1  0.502900  0.278900  0.939300  1.0  0.2887
  C  C535  1  0.466100  0.300700  0.932500  1.0  -0.127
  C  C536  1  0.435600  0.318800  0.926800  1.0  -0.0739
  C  C537  1  0.395900  0.338300  0.927500  1.0  0.0298
  C  C538  1  0.987400  0.133200  0.746200  1.0  -0.0139
  C  C539  1  0.974020  0.175100  0.675780  1.0  0.0755
  C  C540  1  0.967100  0.196900  0.639100  1.0  0.0629
  C  C541  1  0.959300  0.214900  0.610900  1.0  0.1069
  C  C542  1  0.952500  0.236500  0.574500  1.0  0.009
  C  C543  1  0.939300  0.278900  0.502900  1.0  0.2918
  C  C544  1  0.932500  0.300700  0.466100  1.0  -0.1257
  C  C545  1  0.926800  0.318800  0.435600  1.0  -0.0746
  C  C546  1  0.927500  0.338300  0.395900  1.0  0.0275
  C  C547  1  0.133200  0.987400  0.133200  1.0  -0.0144
  C  C548  1  0.175100  0.974020  0.175100  1.0  0.0742
  C  C549  1  0.196900  0.967100  0.196900  1.0  0.0632
  C  C550  1  0.214900  0.959300  0.214900  1.0  0.1027
  C  C551  1  0.236500  0.952500  0.236500  1.0  0.0082
  C  C552  1  0.278900  0.939300  0.278900  1.0  0.2897
  C  C553  1  0.300700  0.932500  0.300700  1.0  -0.1237
  C  C554  1  0.318800  0.926800  0.318800  1.0  -0.079
  C  C555  1  0.338300  0.927500  0.338300  1.0  0.0277
  C  C556  1  0.133200  0.746200  0.133200  1.0  -0.0142
  C  C557  1  0.175100  0.675780  0.175100  1.0  0.074
  C  C558  1  0.196900  0.639100  0.196900  1.0  0.0653
  C  C559  1  0.214900  0.610900  0.214900  1.0  0.1058
  C  C560  1  0.236500  0.574500  0.236500  1.0  0.0097
  C  C561  1  0.278900  0.502900  0.278900  1.0  0.2903
  C  C562  1  0.300700  0.466100  0.300700  1.0  -0.1141
  C  C563  1  0.318800  0.435600  0.318800  1.0  -0.0763
  C  C564  1  0.338300  0.395900  0.338300  1.0  0.0269
  C  C565  1  0.012600  0.253800  0.866800  1.0  -0.0126
  C  C566  1  0.025980  0.324220  0.824900  1.0  0.0739
  C  C567  1  0.032900  0.360900  0.803100  1.0  0.0645
  C  C568  1  0.040700  0.389100  0.785100  1.0  0.1039
  C  C569  1  0.047500  0.425500  0.763500  1.0  0.0193
  C  C570  1  0.060700  0.497100  0.721100  1.0  0.2873
  C  C571  1  0.067500  0.533900  0.699300  1.0  -0.1156
  C  C572  1  0.073200  0.564400  0.681200  1.0  -0.0773
  C  C573  1  0.072500  0.604100  0.661700  1.0  0.0243
  C  C574  1  0.253800  0.012600  0.866800  1.0  -0.0136
  C  C575  1  0.324220  0.025980  0.824900  1.0  0.073
  C  C576  1  0.360900  0.032900  0.803100  1.0  0.0654
  C  C577  1  0.389100  0.040700  0.785100  1.0  0.1051
  C  C578  1  0.425500  0.047500  0.763500  1.0  0.0177
  C  C579  1  0.497100  0.060700  0.721100  1.0  0.288
  C  C580  1  0.533900  0.067500  0.699300  1.0  -0.1146
  C  C581  1  0.564400  0.073200  0.681200  1.0  -0.0759
  C  C582  1  0.604100  0.072500  0.661700  1.0  0.025
  C  C583  1  0.866800  0.866800  0.253800  1.0  -0.014
  C  C584  1  0.824900  0.824900  0.324220  1.0  0.074
  C  C585  1  0.803100  0.803100  0.360900  1.0  0.0641
  C  C586  1  0.785100  0.785100  0.389100  1.0  0.1057
  C  C587  1  0.763500  0.763500  0.425500  1.0  0.0087
  C  C588  1  0.721100  0.721100  0.497100  1.0  0.2891
  C  C589  1  0.699300  0.699300  0.533900  1.0  -0.126
  C  C590  1  0.681200  0.681200  0.564400  1.0  -0.0777
  C  C591  1  0.661700  0.661700  0.604100  1.0  0.029
  C  C592  1  0.866800  0.866800  0.012600  1.0  -0.0139
  C  C593  1  0.824900  0.824900  0.025980  1.0  0.0726
  C  C594  1  0.803100  0.803100  0.032900  1.0  0.063
  C  C595  1  0.785100  0.785100  0.040700  1.0  0.1064
  C  C596  1  0.763500  0.763500  0.047500  1.0  0.0086
  C  C597  1  0.721100  0.721100  0.060700  1.0  0.2888
  C  C598  1  0.699300  0.699300  0.067500  1.0  -0.1269
  C  C599  1  0.681200  0.681200  0.073200  1.0  -0.0756
  C  C600  1  0.661700  0.661700  0.072500  1.0  0.027
  C  C601  1  0.866800  0.253800  0.866800  1.0  -0.0121
  C  C602  1  0.824900  0.324220  0.824900  1.0  0.0718
  C  C603  1  0.803100  0.360900  0.803100  1.0  0.0639
  C  C604  1  0.785100  0.389100  0.785100  1.0  0.1072
  C  C605  1  0.763500  0.425500  0.763500  1.0  0.0108
  C  C606  1  0.721100  0.497100  0.721100  1.0  0.2878
  C  C607  1  0.699300  0.533900  0.699300  1.0  -0.1237
  C  C608  1  0.681200  0.564400  0.681200  1.0  -0.0747
  C  C609  1  0.661700  0.604100  0.661700  1.0  0.029
  C  C610  1  0.866800  0.012600  0.866800  1.0  -0.0134
  C  C611  1  0.824900  0.025980  0.824900  1.0  0.0741
  C  C612  1  0.803100  0.032900  0.803100  1.0  0.0603
  C  C613  1  0.785100  0.040700  0.785100  1.0  0.107
  C  C614  1  0.763500  0.047500  0.763500  1.0  0.0089
  C  C615  1  0.721100  0.060700  0.721100  1.0  0.2905
  C  C616  1  0.699300  0.067500  0.699300  1.0  -0.1263
  C  C617  1  0.681200  0.073200  0.681200  1.0  -0.0748
  C  C618  1  0.661700  0.072500  0.661700  1.0  0.0252
  C  C619  1  0.253800  0.866800  0.012600  1.0  -0.0126
  C  C620  1  0.324220  0.824900  0.025980  1.0  0.0733
  C  C621  1  0.360900  0.803100  0.032900  1.0  0.0644
  C  C622  1  0.389100  0.785100  0.040700  1.0  0.1038
  C  C623  1  0.425500  0.763500  0.047500  1.0  0.009
  C  C624  1  0.497100  0.721100  0.060700  1.0  0.2885
  C  C625  1  0.533900  0.699300  0.067500  1.0  -0.1159
  C  C626  1  0.564400  0.681200  0.073200  1.0  -0.0762
  C  C627  1  0.604100  0.661700  0.072500  1.0  0.025
  C  C628  1  0.012600  0.866800  0.253800  1.0  -0.0142
  C  C629  1  0.025980  0.824900  0.324220  1.0  0.0752
  C  C630  1  0.032900  0.803100  0.360900  1.0  0.0642
  C  C631  1  0.040700  0.785100  0.389100  1.0  0.1056
  C  C632  1  0.047500  0.763500  0.425500  1.0  0.0091
  C  C633  1  0.060700  0.721100  0.497100  1.0  0.2889
  C  C634  1  0.067500  0.699300  0.533900  1.0  -0.1149
  C  C635  1  0.073200  0.681200  0.564400  1.0  -0.077
  C  C636  1  0.072500  0.661700  0.604100  1.0  0.0263
  C  C637  1  0.866800  0.253800  0.012600  1.0  -0.0121
  C  C638  1  0.824900  0.324220  0.025980  1.0  0.0723
  C  C639  1  0.803100  0.360900  0.032900  1.0  0.0644
  C  C640  1  0.785100  0.389100  0.040700  1.0  0.1063
  C  C641  1  0.763500  0.425500  0.047500  1.0  0.0097
  C  C642  1  0.721100  0.497100  0.060700  1.0  0.2868
  C  C643  1  0.699300  0.533900  0.067500  1.0  -0.1149
  C  C644  1  0.681200  0.564400  0.073200  1.0  -0.0752
  C  C645  1  0.661700  0.604100  0.072500  1.0  0.0249
  C  C646  1  0.866800  0.012600  0.253800  1.0  -0.0137
  C  C647  1  0.824900  0.025980  0.324220  1.0  0.0736
  C  C648  1  0.803100  0.032900  0.360900  1.0  0.0618
  C  C649  1  0.785100  0.040700  0.389100  1.0  0.1052
  C  C650  1  0.763500  0.047500  0.425500  1.0  0.0089
  C  C651  1  0.721100  0.060700  0.497100  1.0  0.2883
  C  C652  1  0.699300  0.067500  0.533900  1.0  -0.1154
  C  C653  1  0.681200  0.073200  0.564400  1.0  -0.0775
  C  C654  1  0.661700  0.072500  0.604100  1.0  0.0248
  C  C655  1  0.012600  0.866800  0.866800  1.0  -0.0143
  C  C656  1  0.025980  0.824900  0.824900  1.0  0.0749
  C  C657  1  0.032900  0.803100  0.803100  1.0  0.0626
  C  C658  1  0.040700  0.785100  0.785100  1.0  0.1077
  C  C659  1  0.047500  0.763500  0.763500  1.0  0.009
  C  C660  1  0.060700  0.721100  0.721100  1.0  0.291
  C  C661  1  0.067500  0.699300  0.699300  1.0  -0.1263
  C  C662  1  0.073200  0.681200  0.681200  1.0  -0.0741
  C  C663  1  0.072500  0.661700  0.661700  1.0  0.0258
  C  C664  1  0.253800  0.866800  0.866800  1.0  -0.0126
  C  C665  1  0.324220  0.824900  0.824900  1.0  0.0724
  C  C666  1  0.360900  0.803100  0.803100  1.0  0.0637
  C  C667  1  0.389100  0.785100  0.785100  1.0  0.1045
  C  C668  1  0.425500  0.763500  0.763500  1.0  0.009
  C  C669  1  0.497100  0.721100  0.721100  1.0  0.2888
  C  C670  1  0.533900  0.699300  0.699300  1.0  -0.1247
  C  C671  1  0.564400  0.681200  0.681200  1.0  -0.0759
  C  C672  1  0.604100  0.661700  0.661700  1.0  0.0289
  C  C673  1  0.377700  0.924500  0.377700  1.0  -0.0837
  C  C674  1  0.924500  0.377700  0.320100  1.0  -0.0837
  C  C675  1  0.377700  0.320100  0.377700  1.0  -0.0835
  C  C676  1  0.320100  0.377700  0.924500  1.0  -0.0834
  C  C677  1  0.377700  0.377700  0.320100  1.0  -0.0833
  C  C678  1  0.924500  0.320100  0.377700  1.0  -0.084
  C  C679  1  0.377700  0.377700  0.924500  1.0  -0.0846
  C  C680  1  0.320100  0.924500  0.377700  1.0  -0.084
  C  C681  1  0.377700  0.320100  0.924500  1.0  -0.0819
  C  C682  1  0.924500  0.377700  0.377700  1.0  -0.0824
  C  C683  1  0.377700  0.924500  0.320100  1.0  -0.0841
  C  C684  1  0.320100  0.377700  0.377700  1.0  -0.0842
  C  C685  1  0.075500  0.622300  0.622300  1.0  -0.0793
  C  C686  1  0.622300  0.075500  0.679900  1.0  -0.0853
  C  C687  1  0.679900  0.622300  0.622300  1.0  -0.0838
  C  C688  1  0.622300  0.679900  0.075500  1.0  -0.0855
  C  C689  1  0.622300  0.622300  0.679900  1.0  -0.0821
  C  C690  1  0.679900  0.075500  0.622300  1.0  -0.0826
  C  C691  1  0.622300  0.622300  0.075500  1.0  -0.0794
  C  C692  1  0.075500  0.679900  0.622300  1.0  -0.083
  C  C693  1  0.679900  0.622300  0.075500  1.0  -0.0843
  C  C694  1  0.622300  0.075500  0.622300  1.0  -0.0852
  C  C695  1  0.075500  0.622300  0.679900  1.0  -0.0815
  C  C696  1  0.622300  0.679900  0.622300  1.0  -0.0831
  O  O697  1  0.781130  0.991070  0.055330  1.0  -0.5828
  O  O698  1  0.728200  0.990000  0.055800  1.0  -0.587
  O  O699  1  0.991070  0.781130  0.172470  1.0  -0.5808
  O  O700  1  0.990000  0.728200  0.226000  1.0  -0.5883
  O  O701  1  0.055330  0.172470  0.781130  1.0  -0.5813
  O  O702  1  0.055800  0.226000  0.728200  1.0  -0.5868
  O  O703  1  0.172470  0.055330  0.991070  1.0  -0.5819
  O  O704  1  0.226000  0.055800  0.990000  1.0  -0.5868
  O  O705  1  0.781130  0.055330  0.172470  1.0  -0.5814
  O  O706  1  0.728200  0.055800  0.226000  1.0  -0.5868
  O  O707  1  0.991070  0.172470  0.055330  1.0  -0.5838
  O  O708  1  0.990000  0.226000  0.055800  1.0  -0.5863
  O  O709  1  0.055330  0.781130  0.991070  1.0  -0.5815
  O  O710  1  0.055800  0.728200  0.990000  1.0  -0.5869
  O  O711  1  0.172470  0.991070  0.781130  1.0  -0.5818
  O  O712  1  0.226000  0.990000  0.728200  1.0  -0.5871
  O  O713  1  0.781130  0.172470  0.991070  1.0  -0.5835
  O  O714  1  0.728200  0.226000  0.990000  1.0  -0.5882
  O  O715  1  0.991070  0.055330  0.781130  1.0  -0.5806
  O  O716  1  0.990000  0.055800  0.728200  1.0  -0.586
  O  O717  1  0.055330  0.991070  0.172470  1.0  -0.5821
  O  O718  1  0.055800  0.990000  0.226000  1.0  -0.5878
  O  O719  1  0.172470  0.781130  0.055330  1.0  -0.5826
  O  O720  1  0.226000  0.728200  0.055800  1.0  -0.5891
  O  O721  1  0.008930  0.218870  0.944670  1.0  -0.5819
  O  O722  1  0.010000  0.271800  0.944200  1.0  -0.5877
  O  O723  1  0.218870  0.008930  0.827530  1.0  -0.5825
  O  O724  1  0.271800  0.010000  0.774000  1.0  -0.5864
  O  O725  1  0.827530  0.944670  0.218870  1.0  -0.5821
  O  O726  1  0.774000  0.944200  0.271800  1.0  -0.5874
  O  O727  1  0.944670  0.827530  0.008930  1.0  -0.5808
  O  O728  1  0.944200  0.774000  0.010000  1.0  -0.5886
  O  O729  1  0.944670  0.218870  0.827530  1.0  -0.5836
  O  O730  1  0.944200  0.271800  0.774000  1.0  -0.586
  O  O731  1  0.827530  0.008930  0.944670  1.0  -0.5817
  O  O732  1  0.774000  0.010000  0.944200  1.0  -0.588
  O  O733  1  0.218870  0.944670  0.008930  1.0  -0.5827
  O  O734  1  0.271800  0.944200  0.010000  1.0  -0.587
  O  O735  1  0.008930  0.827530  0.218870  1.0  -0.5817
  O  O736  1  0.010000  0.774000  0.271800  1.0  -0.5876
  O  O737  1  0.827530  0.218870  0.008930  1.0  -0.5833
  O  O738  1  0.774000  0.271800  0.010000  1.0  -0.5892
  O  O739  1  0.944670  0.008930  0.218870  1.0  -0.5815
  O  O740  1  0.944200  0.010000  0.271800  1.0  -0.5877
  O  O741  1  0.008930  0.944670  0.827530  1.0  -0.5818
  O  O742  1  0.010000  0.944200  0.774000  1.0  -0.5862
  O  O743  1  0.218870  0.827530  0.944670  1.0  -0.5825
  O  O744  1  0.271800  0.774000  0.944200  1.0  -0.5892
  O  O745  1  0.218870  0.008930  0.944670  1.0  -0.5819
  O  O746  1  0.271800  0.010000  0.944200  1.0  -0.5865
  O  O747  1  0.008930  0.218870  0.827530  1.0  -0.5819
  O  O748  1  0.010000  0.271800  0.774000  1.0  -0.5878
  O  O749  1  0.944670  0.827530  0.218870  1.0  -0.5811
  O  O750  1  0.944200  0.774000  0.271800  1.0  -0.5885
  O  O751  1  0.827530  0.944670  0.008930  1.0  -0.5819
  O  O752  1  0.774000  0.944200  0.010000  1.0  -0.5872
  O  O753  1  0.218870  0.944670  0.827530  1.0  -0.5824
  O  O754  1  0.271800  0.944200  0.774000  1.0  -0.5871
  O  O755  1  0.008930  0.827530  0.944670  1.0  -0.5818
  O  O756  1  0.010000  0.774000  0.944200  1.0  -0.5874
  O  O757  1  0.944670  0.218870  0.008930  1.0  -0.5838
  O  O758  1  0.944200  0.271800  0.010000  1.0  -0.5858
  O  O759  1  0.827530  0.008930  0.218870  1.0  -0.5812
  O  O760  1  0.774000  0.010000  0.271800  1.0  -0.5881
  O  O761  1  0.218870  0.827530  0.008930  1.0  -0.5821
  O  O762  1  0.271800  0.774000  0.010000  1.0  -0.5892
  O  O763  1  0.008930  0.944670  0.218870  1.0  -0.582
  O  O764  1  0.010000  0.944200  0.271800  1.0  -0.5848
  O  O765  1  0.944670  0.008930  0.827530  1.0  -0.5821
  O  O766  1  0.944200  0.010000  0.774000  1.0  -0.5885
  O  O767  1  0.827530  0.218870  0.944670  1.0  -0.5839
  O  O768  1  0.774000  0.271800  0.944200  1.0  -0.5889
  O  O769  1  0.991070  0.781130  0.055330  1.0  -0.5808
  O  O770  1  0.990000  0.728200  0.055800  1.0  -0.5889
  O  O771  1  0.781130  0.991070  0.172470  1.0  -0.5827
  O  O772  1  0.728200  0.990000  0.226000  1.0  -0.587
  O  O773  1  0.172470  0.055330  0.781130  1.0  -0.582
  O  O774  1  0.226000  0.055800  0.728200  1.0  -0.5864
  O  O775  1  0.055330  0.172470  0.991070  1.0  -0.5817
  O  O776  1  0.055800  0.226000  0.990000  1.0  -0.5871
  O  O777  1  0.055330  0.781130  0.172470  1.0  -0.5813
  O  O778  1  0.055800  0.728200  0.226000  1.0  -0.5859
  O  O779  1  0.172470  0.991070  0.055330  1.0  -0.582
  O  O780  1  0.226000  0.990000  0.055800  1.0  -0.5879
  O  O781  1  0.781130  0.055330  0.991070  1.0  -0.5816
  O  O782  1  0.728200  0.055800  0.990000  1.0  -0.5875
  O  O783  1  0.991070  0.172470  0.781130  1.0  -0.5835
  O  O784  1  0.990000  0.226000  0.728200  1.0  -0.5867
  O  O785  1  0.172470  0.781130  0.991070  1.0  -0.5826
  O  O786  1  0.226000  0.728200  0.990000  1.0  -0.5889
  O  O787  1  0.055330  0.991070  0.781130  1.0  -0.5817
  O  O788  1  0.055800  0.990000  0.728200  1.0  -0.5893
  O  O789  1  0.991070  0.055330  0.172470  1.0  -0.5803
  O  O790  1  0.990000  0.055800  0.226000  1.0  -0.5843
  O  O791  1  0.781130  0.172470  0.055330  1.0  -0.5834
  O  O792  1  0.728200  0.226000  0.055800  1.0  -0.5885
