# generated using pymatgen
data_CuH8(C9O2)2
_symmetry_space_group_name_H-M   'P 1'
_cell_length_a   37.29140000
_cell_length_b   37.29140000
_cell_length_c   37.29140000
_cell_angle_alpha   60.00000000
_cell_angle_beta   60.00000000
_cell_angle_gamma   60.00000000
_symmetry_Int_Tables_number   1
_chemical_formula_structural   CuH8(C9O2)2
_chemical_formula_sum   'Cu24 H192 C432 O96'
_cell_volume   36670.01319551
_cell_formula_units_Z   24
loop_
 _symmetry_equiv_pos_site_id
 _symmetry_equiv_pos_as_xyz
  1  'x, y, z'
loop_
 _atom_site_type_symbol
 _atom_site_label
 _atom_site_symmetry_multiplicity
 _atom_site_fract_x
 _atom_site_fract_y
 _atom_site_fract_z
 _atom_site_occupancy
 _atom_site_charge
  Cu  Cu1  1  0.717040  0.500000  0.500050  1.0  0.8826
  Cu  Cu2  1  0.774280  0.499850  0.499870  1.0  0.9046
  Cu  Cu3  1  0.500090  0.717150  0.282740  1.0  0.8766
  Cu  Cu4  1  0.500210  0.774060  0.226300  1.0  0.9182
  Cu  Cu5  1  0.499970  0.282740  0.717340  1.0  0.8699
  Cu  Cu6  1  0.500360  0.225710  0.774030  1.0  0.9204
  Cu  Cu7  1  0.282830  0.500010  0.500000  1.0  0.8717
  Cu  Cu8  1  0.225920  0.499850  0.499780  1.0  0.9103
  Cu  Cu9  1  0.717580  0.499960  0.282520  1.0  0.8893
  Cu  Cu10  1  0.775020  0.499990  0.224750  1.0  0.8978
  Cu  Cu11  1  0.500140  0.282900  0.499960  1.0  0.8761
  Cu  Cu12  1  0.499700  0.225500  0.500170  1.0  0.9186
  Cu  Cu13  1  0.500030  0.717140  0.499910  1.0  0.8628
  Cu  Cu14  1  0.499820  0.774610  0.500120  1.0  0.9156
  Cu  Cu15  1  0.283010  0.500060  0.717040  1.0  0.8804
  Cu  Cu16  1  0.225440  0.499700  0.774500  1.0  0.913
  Cu  Cu17  1  0.717020  0.282950  0.499940  1.0  0.8694
  Cu  Cu18  1  0.774860  0.225600  0.499710  1.0  0.9066
  Cu  Cu19  1  0.499960  0.499990  0.717610  1.0  0.8781
  Cu  Cu20  1  0.499950  0.499980  0.775700  1.0  0.9103
  Cu  Cu21  1  0.499890  0.500060  0.282410  1.0  0.8662
  Cu  Cu22  1  0.499910  0.500040  0.224350  1.0  0.9145
  Cu  Cu23  1  0.282790  0.717100  0.500080  1.0  0.8714
  Cu  Cu24  1  0.225560  0.774880  0.499840  1.0  0.921
  H  H25  1  0.854260  0.365990  0.528530  1.0  0.0871
  H  H26  1  0.985920  0.185220  0.528320  1.0  0.0909
  H  H27  1  0.057410  0.145860  0.533420  1.0  0.1058
  H  H28  1  0.366040  0.854040  0.251410  1.0  0.0897
  H  H29  1  0.185270  0.985860  0.300540  1.0  0.092
  H  H30  1  0.145890  0.057360  0.263310  1.0  0.1026
  H  H31  1  0.528190  0.251340  0.854320  1.0  0.0899
  H  H32  1  0.528380  0.300530  0.985940  1.0  0.0939
  H  H33  1  0.533430  0.263290  0.057430  1.0  0.1057
  H  H34  1  0.251090  0.528700  0.366010  1.0  0.088
  H  H35  1  0.300520  0.528340  0.185200  1.0  0.0922
  H  H36  1  0.263300  0.533440  0.145830  1.0  0.1027
  H  H37  1  0.853970  0.528350  0.251550  1.0  0.0857
  H  H38  1  0.985870  0.528360  0.300510  1.0  0.0897
  H  H39  1  0.057330  0.533490  0.263260  1.0  0.1013
  H  H40  1  0.366050  0.251290  0.528190  1.0  0.086
  H  H41  1  0.185110  0.300510  0.528350  1.0  0.0941
  H  H42  1  0.145840  0.263240  0.533440  1.0  0.1098
  H  H43  1  0.528700  0.854230  0.365800  1.0  0.0838
  H  H44  1  0.528370  0.985980  0.185190  1.0  0.0892
  H  H45  1  0.533460  0.057440  0.145840  1.0  0.1009
  H  H46  1  0.251180  0.365970  0.854650  1.0  0.087
  H  H47  1  0.300540  0.185130  0.985970  1.0  0.0921
  H  H48  1  0.263300  0.145830  0.057460  1.0  0.1023
  H  H49  1  0.854110  0.251110  0.365960  1.0  0.0892
  H  H50  1  0.985950  0.300490  0.185190  1.0  0.0905
  H  H51  1  0.057450  0.263270  0.145860  1.0  0.0996
  H  H52  1  0.366050  0.528340  0.854260  1.0  0.0865
  H  H53  1  0.185140  0.528360  0.985930  1.0  0.0884
  H  H54  1  0.145830  0.533470  0.057390  1.0  0.1
  H  H55  1  0.528280  0.366110  0.251410  1.0  0.0851
  H  H56  1  0.528360  0.185140  0.300570  1.0  0.0923
  H  H57  1  0.533460  0.145860  0.263290  1.0  0.1042
  H  H58  1  0.251060  0.854210  0.528780  1.0  0.0886
  H  H59  1  0.300530  0.985930  0.528360  1.0  0.0935
  H  H60  1  0.263290  0.057420  0.533430  1.0  0.1046
  H  H61  1  0.634110  0.145870  0.471240  1.0  0.0859
  H  H62  1  0.814830  0.014080  0.471620  1.0  0.0882
  H  H63  1  0.854150  0.942620  0.466520  1.0  0.1018
  H  H64  1  0.145800  0.634130  0.748920  1.0  0.0878
  H  H65  1  0.014170  0.814760  0.699450  1.0  0.0904
  H  H66  1  0.942670  0.854110  0.736670  1.0  0.1028
  H  H67  1  0.748610  0.471590  0.146050  1.0  0.0884
  H  H68  1  0.699470  0.471630  0.014140  1.0  0.0899
  H  H69  1  0.736690  0.466530  0.942660  1.0  0.1009
  H  H70  1  0.471760  0.748700  0.633970  1.0  0.0899
  H  H71  1  0.471620  0.699470  0.814850  1.0  0.0903
  H  H72  1  0.466570  0.736700  0.854160  1.0  0.0999
  H  H73  1  0.471250  0.145940  0.748780  1.0  0.0878
  H  H74  1  0.471620  0.014050  0.699510  1.0  0.0873
  H  H75  1  0.466530  0.942580  0.736760  1.0  0.1024
  H  H76  1  0.748610  0.634020  0.471810  1.0  0.0867
  H  H77  1  0.699480  0.814830  0.471620  1.0  0.0911
  H  H78  1  0.736700  0.854160  0.466550  1.0  0.109
  H  H79  1  0.145630  0.471760  0.634000  1.0  0.0851
  H  H80  1  0.014070  0.471580  0.814820  1.0  0.0895
  H  H81  1  0.942570  0.466560  0.854150  1.0  0.1028
  H  H82  1  0.633820  0.748660  0.145690  1.0  0.0888
  H  H83  1  0.814740  0.699510  0.014110  1.0  0.0912
  H  H84  1  0.854140  0.736690  0.942580  1.0  0.1057
  H  H85  1  0.748630  0.145570  0.634060  1.0  0.0881
  H  H86  1  0.699540  0.014040  0.814840  1.0  0.0925
  H  H87  1  0.736760  0.942530  0.854140  1.0  0.1009
  H  H88  1  0.471500  0.634000  0.145660  1.0  0.0854
  H  H89  1  0.471640  0.814830  0.014040  1.0  0.0895
  H  H90  1  0.466540  0.854160  0.942590  1.0  0.1045
  H  H91  1  0.634050  0.471470  0.748790  1.0  0.0871
  H  H92  1  0.814870  0.471610  0.699480  1.0  0.0886
  H  H93  1  0.854150  0.466560  0.736730  1.0  0.107
  H  H94  1  0.145470  0.748730  0.471680  1.0  0.0885
  H  H95  1  0.014080  0.699500  0.471580  1.0  0.0899
  H  H96  1  0.942570  0.736720  0.466570  1.0  0.1045
  H  H97  1  0.145600  0.634000  0.471720  1.0  0.0842
  H  H98  1  0.014090  0.814850  0.471580  1.0  0.0885
  H  H99  1  0.942580  0.854160  0.466570  1.0  0.1049
  H  H100  1  0.633990  0.145630  0.748810  1.0  0.0869
  H  H101  1  0.814880  0.014040  0.699470  1.0  0.0886
  H  H102  1  0.854180  0.942530  0.736670  1.0  0.1045
  H  H103  1  0.471630  0.748550  0.145790  1.0  0.0906
  H  H104  1  0.471640  0.699470  0.014010  1.0  0.093
  H  H105  1  0.466520  0.736730  0.942580  1.0  0.1012
  H  H106  1  0.748590  0.471790  0.633990  1.0  0.0838
  H  H107  1  0.699480  0.471600  0.814830  1.0  0.0896
  H  H108  1  0.736710  0.466550  0.854150  1.0  0.1031
  H  H109  1  0.145450  0.471690  0.748810  1.0  0.0825
  H  H110  1  0.013980  0.471590  0.699490  1.0  0.0884
  H  H111  1  0.942500  0.466590  0.736740  1.0  0.1012
  H  H112  1  0.634170  0.748840  0.471290  1.0  0.0886
  H  H113  1  0.814840  0.699490  0.471620  1.0  0.0917
  H  H114  1  0.854160  0.736730  0.466540  1.0  0.1056
  H  H115  1  0.471890  0.145310  0.634090  1.0  0.0875
  H  H116  1  0.471640  0.014020  0.814890  1.0  0.0882
  H  H117  1  0.466580  0.942540  0.854180  1.0  0.1026
  H  H118  1  0.749020  0.634420  0.145440  1.0  0.086
  H  H119  1  0.699460  0.814970  0.013930  1.0  0.0925
  H  H120  1  0.736780  0.854180  0.942470  1.0  0.1018
  H  H121  1  0.145580  0.748540  0.633910  1.0  0.0908
  H  H122  1  0.014100  0.699430  0.814840  1.0  0.0913
  H  H123  1  0.942620  0.736700  0.854130  1.0  0.1055
  H  H124  1  0.634130  0.471510  0.145620  1.0  0.0852
  H  H125  1  0.814890  0.471630  0.014050  1.0  0.0911
  H  H126  1  0.854140  0.466530  0.942610  1.0  0.1046
  H  H127  1  0.471410  0.634110  0.748830  1.0  0.0895
  H  H128  1  0.471610  0.814870  0.699490  1.0  0.0884
  H  H129  1  0.466550  0.854140  0.736750  1.0  0.1037
  H  H130  1  0.748640  0.145490  0.471840  1.0  0.0901
  H  H131  1  0.699460  0.014090  0.471620  1.0  0.0898
  H  H132  1  0.736700  0.942610  0.466530  1.0  0.103
  H  H133  1  0.366020  0.854460  0.528160  1.0  0.0863
  H  H134  1  0.185150  0.985960  0.528360  1.0  0.0894
  H  H135  1  0.145850  0.057440  0.533420  1.0  0.1008
  H  H136  1  0.854880  0.365780  0.251210  1.0  0.0896
  H  H137  1  0.986030  0.185070  0.300530  1.0  0.0915
  H  H138  1  0.057500  0.145820  0.263260  1.0  0.1025
  H  H139  1  0.251240  0.528690  0.854150  1.0  0.0823
  H  H140  1  0.300520  0.528360  0.985910  1.0  0.0924
  H  H141  1  0.263270  0.533490  0.057360  1.0  0.1013
  H  H142  1  0.528750  0.251160  0.365870  1.0  0.0879
  H  H143  1  0.528360  0.300540  0.185220  1.0  0.096
  H  H144  1  0.533470  0.263300  0.145880  1.0  0.1017
  H  H145  1  0.528270  0.854380  0.251250  1.0  0.0883
  H  H146  1  0.528360  0.986050  0.300520  1.0  0.0898
  H  H147  1  0.533430  0.057500  0.263280  1.0  0.1014
  H  H148  1  0.251150  0.365980  0.528720  1.0  0.0846
  H  H149  1  0.300520  0.185210  0.528350  1.0  0.0922
  H  H150  1  0.263320  0.145840  0.533410  1.0  0.1032
  H  H151  1  0.854260  0.528590  0.365960  1.0  0.0876
  H  H152  1  0.985880  0.528340  0.185170  1.0  0.0906
  H  H153  1  0.057370  0.533420  0.145840  1.0  0.103
  H  H154  1  0.365920  0.251290  0.854190  1.0  0.0848
  H  H155  1  0.185240  0.300510  0.985890  1.0  0.0944
  H  H156  1  0.145860  0.263320  0.057400  1.0  0.1044
  H  H157  1  0.251170  0.854290  0.365880  1.0  0.0893
  H  H158  1  0.300580  0.985960  0.185130  1.0  0.092
  H  H159  1  0.263280  0.057430  0.145850  1.0  0.1023
  H  H160  1  0.528580  0.365850  0.854360  1.0  0.0874
  H  H161  1  0.528380  0.185090  0.986010  1.0  0.09
  H  H162  1  0.533450  0.145860  0.057460  1.0  0.1054
  H  H163  1  0.365820  0.528440  0.251240  1.0  0.0858
  H  H164  1  0.185110  0.528340  0.300510  1.0  0.0913
  H  H165  1  0.145820  0.533480  0.263230  1.0  0.1009
  H  H166  1  0.854270  0.251160  0.528630  1.0  0.0884
  H  H167  1  0.985990  0.300540  0.528320  1.0  0.0937
  H  H168  1  0.057450  0.263270  0.533440  1.0  0.1032
  H  H169  1  0.745420  0.371320  0.511800  1.0  0.0988
  H  H170  1  0.371270  0.745210  0.371600  1.0  0.0968
  H  H171  1  0.511290  0.371700  0.745620  1.0  0.0989
  H  H172  1  0.371530  0.511730  0.371240  1.0  0.0968
  H  H173  1  0.745230  0.511720  0.371740  1.0  0.0986
  H  H174  1  0.371560  0.371410  0.511450  1.0  0.1019
  H  H175  1  0.511580  0.745470  0.371530  1.0  0.1019
  H  H176  1  0.371320  0.371740  0.745660  1.0  0.0927
  H  H177  1  0.745790  0.371720  0.371140  1.0  0.0931
  H  H178  1  0.371490  0.511680  0.745330  1.0  0.0959
  H  H179  1  0.511690  0.371380  0.371580  1.0  0.0967
  H  H180  1  0.371400  0.745560  0.511500  1.0  0.095
  H  H181  1  0.628530  0.254480  0.488540  1.0  0.0972
  H  H182  1  0.254480  0.628390  0.628560  1.0  0.0933
  H  H183  1  0.628120  0.488470  0.254670  1.0  0.0952
  H  H184  1  0.488730  0.628380  0.628570  1.0  0.0971
  H  H185  1  0.488570  0.254460  0.628340  1.0  0.0995
  H  H186  1  0.628410  0.628570  0.488530  1.0  0.0964
  H  H187  1  0.254230  0.489000  0.628500  1.0  0.0925
  H  H188  1  0.628990  0.628170  0.254350  1.0  0.1002
  H  H189  1  0.628440  0.254330  0.628370  1.0  0.0972
  H  H190  1  0.488550  0.628300  0.254520  1.0  0.0949
  H  H191  1  0.628340  0.488730  0.628490  1.0  0.0966
  H  H192  1  0.254270  0.628480  0.488920  1.0  0.0951
  H  H193  1  0.111570  0.111590  0.552120  1.0  0.0834
  H  H194  1  0.111630  0.111550  0.224710  1.0  0.0819
  H  H195  1  0.552070  0.224760  0.111620  1.0  0.0819
  H  H196  1  0.224720  0.552060  0.111590  1.0  0.0906
  H  H197  1  0.111580  0.552000  0.224730  1.0  0.0852
  H  H198  1  0.111600  0.224690  0.552100  1.0  0.0799
  H  H199  1  0.552050  0.111620  0.111630  1.0  0.0826
  H  H200  1  0.224720  0.111570  0.111570  1.0  0.0782
  H  H201  1  0.111610  0.224730  0.111560  1.0  0.0786
  H  H202  1  0.111560  0.552060  0.111590  1.0  0.0794
  H  H203  1  0.552090  0.111620  0.224720  1.0  0.0811
  H  H204  1  0.224720  0.111570  0.552120  1.0  0.0875
  H  H205  1  0.888380  0.888400  0.447990  1.0  0.083
  H  H206  1  0.888490  0.888400  0.775210  1.0  0.081
  H  H207  1  0.775220  0.447990  0.888420  1.0  0.0928
  H  H208  1  0.447950  0.775250  0.888400  1.0  0.083
  H  H209  1  0.447960  0.888380  0.775280  1.0  0.0888
  H  H210  1  0.775250  0.888410  0.447960  1.0  0.0912
  H  H211  1  0.888370  0.447980  0.888410  1.0  0.0831
  H  H212  1  0.888450  0.775260  0.888390  1.0  0.083
  H  H213  1  0.775360  0.888390  0.888340  1.0  0.0822
  H  H214  1  0.447890  0.888400  0.888430  1.0  0.0762
  H  H215  1  0.888360  0.447920  0.775320  1.0  0.0798
  H  H216  1  0.888390  0.775280  0.447950  1.0  0.0849
  C  C217  1  0.777330  0.420410  0.513820  1.0  0.6628
  C  C218  1  0.796940  0.373630  0.520650  1.0  -0.0971
  C  C219  1  0.837400  0.350010  0.527380  1.0  -0.151
  C  C220  1  0.001850  0.201590  0.530190  1.0  0.0647
  C  C221  1  0.043260  0.178840  0.533960  1.0  0.0033
  C  C222  1  0.420560  0.777300  0.288380  1.0  0.6595
  C  C223  1  0.373740  0.796830  0.308890  1.0  -0.1085
  C  C224  1  0.350070  0.837230  0.285360  1.0  -0.1435
  C  C225  1  0.201640  0.001800  0.266370  1.0  0.064
  C  C226  1  0.178870  0.043210  0.243950  1.0  0.0043
  C  C227  1  0.513640  0.288520  0.777310  1.0  0.6597
  C  C228  1  0.520540  0.308880  0.796880  1.0  -0.1033
  C  C229  1  0.527130  0.285300  0.837400  1.0  -0.1489
  C  C230  1  0.530220  0.266370  0.001840  1.0  0.073
  C  C231  1  0.533970  0.243940  0.043250  1.0  -0.0016
  C  C232  1  0.288510  0.513630  0.420460  1.0  0.6628
  C  C233  1  0.308810  0.520540  0.373680  1.0  -0.1035
  C  C234  1  0.285150  0.527370  0.350080  1.0  -0.1406
  C  C235  1  0.266370  0.530180  0.201570  1.0  0.0682
  C  C236  1  0.243930  0.533960  0.178820  1.0  -0.0004
  C  C237  1  0.776990  0.513760  0.288670  1.0  0.6552
  C  C238  1  0.796600  0.520730  0.308990  1.0  -0.1063
  C  C239  1  0.837120  0.527310  0.285460  1.0  -0.1462
  C  C240  1  0.001760  0.530230  0.266340  1.0  0.0742
  C  C241  1  0.043170  0.534010  0.243910  1.0  -0.0004
  C  C242  1  0.420520  0.288280  0.513680  1.0  0.6572
  C  C243  1  0.373740  0.308710  0.520520  1.0  -0.1007
  C  C244  1  0.350080  0.285260  0.527100  1.0  -0.147
  C  C245  1  0.201530  0.266360  0.530210  1.0  0.0661
  C  C246  1  0.178830  0.243900  0.533970  1.0  -0.0013
  C  C247  1  0.513680  0.777520  0.420490  1.0  0.6605
  C  C248  1  0.520630  0.796980  0.373670  1.0  -0.1058
  C  C249  1  0.527460  0.837370  0.349920  1.0  -0.1441
  C  C250  1  0.530200  0.001890  0.201610  1.0  0.0709
  C  C251  1  0.533990  0.043290  0.178840  1.0  0.0065
  C  C252  1  0.288300  0.420590  0.777460  1.0  0.651
  C  C253  1  0.308690  0.373760  0.797070  1.0  -0.1054
  C  C254  1  0.285210  0.350140  0.837620  1.0  -0.1429
  C  C255  1  0.266380  0.201520  0.001890  1.0  0.0664
  C  C256  1  0.243930  0.178800  0.043290  1.0  -0.001
  C  C257  1  0.777470  0.288510  0.420330  1.0  0.6559
  C  C258  1  0.797100  0.308930  0.373560  1.0  -0.107
  C  C259  1  0.837420  0.285190  0.349990  1.0  -0.1514
  C  C260  1  0.001880  0.266330  0.201580  1.0  0.0698
  C  C261  1  0.043280  0.243910  0.178840  1.0  -0.0007
  C  C262  1  0.420620  0.513590  0.777370  1.0  0.6516
  C  C263  1  0.373780  0.520570  0.796830  1.0  -0.0996
  C  C264  1  0.350130  0.527240  0.837310  1.0  -0.1474
  C  C265  1  0.201570  0.530180  0.001830  1.0  0.0709
  C  C266  1  0.178830  0.533980  0.043230  1.0  -0.0018
  C  C267  1  0.513520  0.420670  0.288480  1.0  0.6475
  C  C268  1  0.520580  0.373770  0.308870  1.0  -0.1105
  C  C269  1  0.527250  0.350140  0.285330  1.0  -0.1382
  C  C270  1  0.530200  0.201560  0.266410  1.0  0.061
  C  C271  1  0.533980  0.178840  0.243950  1.0  0.0029
  C  C272  1  0.288330  0.777460  0.513710  1.0  0.6565
  C  C273  1  0.308760  0.797010  0.520530  1.0  -0.1058
  C  C274  1  0.285160  0.837410  0.527380  1.0  -0.1494
  C  C275  1  0.266370  0.001850  0.530200  1.0  0.0662
  C  C276  1  0.243930  0.043250  0.533980  1.0  -0.0007
  C  C277  1  0.579380  0.222470  0.486430  1.0  0.6515
  C  C278  1  0.626270  0.203030  0.479460  1.0  -0.1055
  C  C279  1  0.649980  0.162640  0.472640  1.0  -0.1514
  C  C280  1  0.798410  0.998160  0.469810  1.0  0.0691
  C  C281  1  0.821150  0.956770  0.466010  1.0  0.0018
  C  C282  1  0.222590  0.579330  0.711610  1.0  0.6481
  C  C283  1  0.203030  0.626190  0.691230  1.0  -0.1006
  C  C284  1  0.162640  0.649890  0.714820  1.0  -0.1472
  C  C285  1  0.998220  0.798380  0.733600  1.0  0.0746
  C  C286  1  0.956820  0.821130  0.756030  1.0  0.0047
  C  C287  1  0.711160  0.486410  0.223000  1.0  0.6612
  C  C288  1  0.690910  0.479430  0.203390  1.0  -0.1056
  C  C289  1  0.714610  0.472730  0.162880  1.0  -0.1468
  C  C290  1  0.733620  0.469790  0.998220  1.0  0.0845
  C  C291  1  0.756050  0.466010  0.956810  1.0  0.0062
  C  C292  1  0.486470  0.711590  0.579400  1.0  0.655
  C  C293  1  0.479620  0.691180  0.626250  1.0  -0.1017
  C  C294  1  0.472910  0.714730  0.649890  1.0  -0.1452
  C  C295  1  0.469790  0.733630  0.798450  1.0  0.0851
  C  C296  1  0.466020  0.756060  0.821180  1.0  0.0043
  C  C297  1  0.486430  0.222580  0.711540  1.0  0.6609
  C  C298  1  0.479660  0.202980  0.691070  1.0  -0.1049
  C  C299  1  0.472710  0.162650  0.714700  1.0  -0.1524
  C  C300  1  0.469790  0.998150  0.733670  1.0  0.0744
  C  C301  1  0.466010  0.956740  0.756110  1.0  -0.0024
  C  C302  1  0.711590  0.579300  0.486580  1.0  0.65
  C  C303  1  0.691200  0.626230  0.479510  1.0  -0.1013
  C  C304  1  0.714670  0.649880  0.472870  1.0  -0.1455
  C  C305  1  0.733630  0.798440  0.469800  1.0  0.0669
  C  C306  1  0.756070  0.821190  0.466000  1.0  -0.0075
  C  C307  1  0.222560  0.486440  0.579370  1.0  0.6461
  C  C308  1  0.202990  0.479600  0.626280  1.0  -0.1307
  C  C309  1  0.162520  0.472940  0.649900  1.0  -0.1482
  C  C310  1  0.998140  0.469750  0.798420  1.0  0.0676
  C  C311  1  0.956730  0.465990  0.821180  1.0  -0.0084
  C  C312  1  0.579540  0.711320  0.222650  1.0  0.6473
  C  C313  1  0.626460  0.691060  0.203160  1.0  -0.1031
  C  C314  1  0.649890  0.714690  0.162590  1.0  -0.1492
  C  C315  1  0.798380  0.733660  0.998140  1.0  0.0632
  C  C316  1  0.821160  0.756060  0.956740  1.0  0.0025
  C  C317  1  0.711710  0.222450  0.579230  1.0  0.6507
  C  C318  1  0.691300  0.202970  0.626160  1.0  -0.103
  C  C319  1  0.714710  0.162540  0.649920  1.0  -0.1447
  C  C320  1  0.733690  0.998120  0.798420  1.0  0.0648
  C  C321  1  0.756130  0.956720  0.821160  1.0  -0.0044
  C  C322  1  0.486340  0.579370  0.222660  1.0  0.6571
  C  C323  1  0.479420  0.626210  0.203140  1.0  -0.1131
  C  C324  1  0.472790  0.649830  0.162600  1.0  -0.1448
  C  C325  1  0.469810  0.798450  0.998110  1.0  0.0708
  C  C326  1  0.466030  0.821170  0.956720  1.0  -0.002
  C  C327  1  0.579340  0.486380  0.711660  1.0  0.6448
  C  C328  1  0.626180  0.479540  0.691210  1.0  -0.1054
  C  C329  1  0.649850  0.472830  0.714730  1.0  -0.1459
  C  C330  1  0.798460  0.469780  0.733630  1.0  0.0723
  C  C331  1  0.821180  0.466000  0.756090  1.0  -0.0058
  C  C332  1  0.222410  0.711700  0.486590  1.0  0.6507
  C  C333  1  0.202890  0.691290  0.479650  1.0  -0.1026
  C  C334  1  0.162460  0.714760  0.472880  1.0  -0.1493
  C  C335  1  0.998130  0.733650  0.469760  1.0  0.0683
  C  C336  1  0.956740  0.756100  0.465980  1.0  -0.0047
  C  C337  1  0.222590  0.579370  0.486400  1.0  0.6469
  C  C338  1  0.203010  0.626260  0.479550  1.0  -0.1013
  C  C339  1  0.162500  0.649870  0.472960  1.0  -0.1447
  C  C340  1  0.998150  0.798450  0.469760  1.0  0.0676
  C  C341  1  0.956750  0.821190  0.465980  1.0  -0.0066
  C  C342  1  0.579540  0.222530  0.711580  1.0  0.6627
  C  C343  1  0.626290  0.203000  0.691140  1.0  -0.1043
  C  C344  1  0.649870  0.162490  0.714730  1.0  -0.1482
  C  C345  1  0.798500  0.998110  0.733610  1.0  0.0637
  C  C346  1  0.821220  0.956710  0.756050  1.0  -0.0043
  C  C347  1  0.486550  0.711670  0.222610  1.0  0.6369
  C  C348  1  0.479500  0.691200  0.203150  1.0  -0.1364
  C  C349  1  0.472700  0.714650  0.162750  1.0  -0.1467
  C  C350  1  0.469800  0.733630  0.998130  1.0  0.071
  C  C351  1  0.466030  0.756070  0.956730  1.0  0.0024
  C  C352  1  0.711580  0.486600  0.579290  1.0  0.6492
  C  C353  1  0.691160  0.479560  0.626210  1.0  -0.1024
  C  C354  1  0.714660  0.472840  0.649880  1.0  -0.1452
  C  C355  1  0.733630  0.469780  0.798420  1.0  0.0668
  C  C356  1  0.756070  0.466000  0.821170  1.0  -0.003
  C  C357  1  0.222470  0.486410  0.711690  1.0  0.6582
  C  C358  1  0.202870  0.479680  0.691260  1.0  -0.1051
  C  C359  1  0.162400  0.472960  0.714780  1.0  -0.1463
  C  C360  1  0.998080  0.469760  0.733630  1.0  0.0716
  C  C361  1  0.956680  0.466000  0.756100  1.0  -0.005
  C  C362  1  0.579410  0.711730  0.486350  1.0  0.6467
  C  C363  1  0.626270  0.691260  0.479440  1.0  -0.1048
  C  C364  1  0.649960  0.714790  0.472640  1.0  -0.1515
  C  C365  1  0.798450  0.733640  0.469800  1.0  0.0848
  C  C366  1  0.821180  0.756090  0.466000  1.0  0.0013
  C  C367  1  0.486350  0.222500  0.579400  1.0  0.6515
  C  C368  1  0.479410  0.203000  0.626240  1.0  -0.1083
  C  C369  1  0.472890  0.162430  0.649910  1.0  -0.1442
  C  C370  1  0.469800  0.998110  0.798490  1.0  0.0757
  C  C371  1  0.466030  0.956710  0.821210  1.0  0.0282
  C  C372  1  0.712230  0.579360  0.221800  1.0  0.6467
  C  C373  1  0.691560  0.626190  0.202630  1.0  -0.1091
  C  C374  1  0.714970  0.650110  0.162380  1.0  -0.1431
  C  C375  1  0.733620  0.798520  0.998050  1.0  0.0718
  C  C376  1  0.756110  0.821200  0.956660  1.0  0.0004
  C  C377  1  0.222600  0.711610  0.579370  1.0  0.652
  C  C378  1  0.203110  0.691190  0.626260  1.0  -0.1075
  C  C379  1  0.162570  0.714640  0.649870  1.0  -0.145
  C  C380  1  0.998190  0.733590  0.798430  1.0  0.0687
  C  C381  1  0.956800  0.756050  0.821150  1.0  -0.0034
  C  C382  1  0.579330  0.486430  0.222310  1.0  0.6454
  C  C383  1  0.626160  0.479460  0.203020  1.0  -0.1129
  C  C384  1  0.649940  0.472760  0.162580  1.0  -0.1513
  C  C385  1  0.798440  0.469790  0.998190  1.0  0.0784
  C  C386  1  0.821150  0.466010  0.956780  1.0  0.0006
  C  C387  1  0.486340  0.579420  0.711900  1.0  0.643
  C  C388  1  0.479500  0.626260  0.691330  1.0  -0.1019
  C  C389  1  0.472710  0.649970  0.714810  1.0  -0.1499
  C  C390  1  0.469780  0.798440  0.733650  1.0  0.0786
  C  C391  1  0.466010  0.821160  0.756100  1.0  -0.0058
  C  C392  1  0.711640  0.222610  0.486450  1.0  0.6506
  C  C393  1  0.691320  0.203080  0.479430  1.0  -0.103
  C  C394  1  0.714730  0.162520  0.472870  1.0  -0.1469
  C  C395  1  0.733610  0.998140  0.469820  1.0  0.0585
  C  C396  1  0.756060  0.956760  0.466010  1.0  -0.0018
  C  C397  1  0.420550  0.777480  0.513600  1.0  0.6557
  C  C398  1  0.373710  0.797030  0.520480  1.0  -0.1059
  C  C399  1  0.350060  0.837510  0.527130  1.0  -0.147
  C  C400  1  0.201560  0.001870  0.530200  1.0  0.0603
  C  C401  1  0.178830  0.043260  0.533980  1.0  0.0017
  C  C402  1  0.778030  0.420510  0.287720  1.0  0.653
  C  C403  1  0.797350  0.373690  0.308390  1.0  -0.1064
  C  C404  1  0.837840  0.349910  0.285140  1.0  -0.143
  C  C405  1  0.001930  0.201490  0.266370  1.0  0.065
  C  C406  1  0.043320  0.178790  0.243910  1.0  0.007
  C  C407  1  0.288340  0.513580  0.777440  1.0  0.651
  C  C408  1  0.308760  0.520590  0.796900  1.0  -0.1033
  C  C409  1  0.285270  0.527390  0.837310  1.0  -0.1484
  C  C410  1  0.266370  0.530180  0.001820  1.0  0.0757
  C  C411  1  0.243920  0.533990  0.043220  1.0  0.0005
  C  C412  1  0.513590  0.288380  0.420630  1.0  0.6556
  C  C413  1  0.520520  0.308790  0.373770  1.0  -0.1011
  C  C414  1  0.527370  0.285210  0.350080  1.0  -0.1548
  C  C415  1  0.530200  0.266380  0.201620  1.0  0.0638
  C  C416  1  0.533980  0.243950  0.178870  1.0  0.0014
  C  C417  1  0.513780  0.777370  0.288520  1.0  0.661
  C  C418  1  0.520630  0.796900  0.308840  1.0  -0.1007
  C  C419  1  0.527150  0.837500  0.285250  1.0  -0.1421
  C  C420  1  0.530190  0.001950  0.266390  1.0  0.0647
  C  C421  1  0.533970  0.043340  0.243920  1.0  0.0006
  C  C422  1  0.288520  0.420510  0.513530  1.0  0.6616
  C  C423  1  0.308870  0.373710  0.520410  1.0  -0.1054
  C  C424  1  0.285220  0.350050  0.527350  1.0  -0.147
  C  C425  1  0.266360  0.201580  0.530200  1.0  0.0626
  C  C426  1  0.243950  0.178830  0.533960  1.0  0.0031
  C  C427  1  0.777270  0.513780  0.420560  1.0  0.6605
  C  C428  1  0.796850  0.520580  0.373830  1.0  -0.1003
  C  C429  1  0.837340  0.527300  0.350150  1.0  -0.1488
  C  C430  1  0.001800  0.530220  0.201530  1.0  0.0689
  C  C431  1  0.043210  0.533970  0.178810  1.0  -0.0002
  C  C432  1  0.420700  0.288360  0.777470  1.0  0.6432
  C  C433  1  0.373760  0.308820  0.797030  1.0  -0.1382
  C  C434  1  0.350050  0.285290  0.837360  1.0  -0.1477
  C  C435  1  0.201600  0.266340  0.001850  1.0  0.0692
  C  C436  1  0.178840  0.243920  0.043250  1.0  -0.0081
  C  C437  1  0.288250  0.777440  0.420540  1.0  0.6553
  C  C438  1  0.308700  0.796870  0.373740  1.0  -0.1045
  C  C439  1  0.285210  0.837360  0.350040  1.0  -0.1481
  C  C440  1  0.266420  0.001850  0.201540  1.0  0.064
  C  C441  1  0.243950  0.043250  0.178840  1.0  0.0013
  C  C442  1  0.513550  0.420600  0.777750  1.0  0.6456
  C  C443  1  0.520440  0.373780  0.797090  1.0  -0.1067
  C  C444  1  0.527260  0.350020  0.837480  1.0  -0.1463
  C  C445  1  0.530220  0.201540  0.001870  1.0  0.0726
  C  C446  1  0.533980  0.178840  0.043280  1.0  0.0019
  C  C447  1  0.420480  0.513740  0.288030  1.0  0.645
  C  C448  1  0.373630  0.520680  0.308600  1.0  -0.1108
  C  C449  1  0.349910  0.527350  0.285210  1.0  -0.1466
  C  C450  1  0.201550  0.530190  0.266360  1.0  0.0931
  C  C451  1  0.178820  0.533970  0.243900  1.0  0.0087
  C  C452  1  0.777410  0.288360  0.513770  1.0  0.6537
  C  C453  1  0.796970  0.308770  0.520610  1.0  -0.1051
  C  C454  1  0.837420  0.285210  0.527340  1.0  -0.1455
  C  C455  1  0.001870  0.266380  0.530190  1.0  0.0675
  C  C456  1  0.043280  0.243930  0.533960  1.0  0.0014
  C  C457  1  0.776510  0.352840  0.517770  1.0  -0.0655
  C  C458  1  0.857120  0.306090  0.530700  1.0  0.0927
  C  C459  1  0.900260  0.284020  0.531720  1.0  -0.0269
  C  C460  1  0.937200  0.265990  0.530860  1.0  -0.1073
  C  C461  1  0.980960  0.244620  0.529820  1.0  0.0485
  C  C462  1  0.064200  0.198740  0.538310  1.0  0.0069
  C  C463  1  0.107910  0.173500  0.545070  1.0  0.0453
  C  C464  1  0.352840  0.776340  0.352990  1.0  -0.0667
  C  C465  1  0.306150  0.857010  0.306140  1.0  0.1013
  C  C466  1  0.284150  0.900180  0.283980  1.0  -0.0264
  C  C467  1  0.266130  0.937140  0.265900  1.0  -0.103
  C  C468  1  0.244690  0.980920  0.244570  1.0  0.047
  C  C469  1  0.198760  0.064160  0.198750  1.0  0.007
  C  C470  1  0.173530  0.107890  0.173510  1.0  0.0452
  C  C471  1  0.517580  0.353040  0.776540  1.0  -0.0687
  C  C472  1  0.530390  0.306160  0.857200  1.0  0.094
  C  C473  1  0.531550  0.284020  0.900280  1.0  -0.0032
  C  C474  1  0.530850  0.265930  0.937180  1.0  -0.1037
  C  C475  1  0.529890  0.244570  0.980940  1.0  0.0457
  C  C476  1  0.538320  0.198760  0.064200  1.0  0.0091
  C  C477  1  0.545050  0.173550  0.107920  1.0  0.0431
  C  C478  1  0.352900  0.517800  0.352760  1.0  -0.0674
  C  C479  1  0.306010  0.530660  0.306170  1.0  0.1045
  C  C480  1  0.283930  0.531700  0.284090  1.0  -0.0453
  C  C481  1  0.265920  0.530870  0.265980  1.0  -0.1148
  C  C482  1  0.244580  0.529830  0.244590  1.0  0.0426
  C  C483  1  0.198730  0.538310  0.198720  1.0  0.0132
  C  C484  1  0.173500  0.545050  0.173490  1.0  0.0432
  C  C485  1  0.776280  0.517790  0.353110  1.0  -0.0726
  C  C486  1  0.857010  0.530560  0.306250  1.0  0.0947
  C  C487  1  0.900170  0.531600  0.284030  1.0  -0.001
  C  C488  1  0.937110  0.530820  0.265910  1.0  -0.1079
  C  C489  1  0.980870  0.529850  0.244550  1.0  0.0457
  C  C490  1  0.064140  0.538320  0.198730  1.0  0.0176
  C  C491  1  0.107890  0.545030  0.173510  1.0  0.0447
  C  C492  1  0.352980  0.352850  0.517590  1.0  -0.0559
  C  C493  1  0.306130  0.306160  0.530520  1.0  0.0933
  C  C494  1  0.284000  0.284080  0.531640  1.0  -0.0272
  C  C495  1  0.265930  0.266010  0.530870  1.0  -0.1021
  C  C496  1  0.244560  0.244610  0.529860  1.0  0.046
  C  C497  1  0.198750  0.198710  0.538320  1.0  0.0121
  C  C498  1  0.173520  0.173480  0.545080  1.0  0.0428
  C  C499  1  0.517740  0.776470  0.352940  1.0  -0.0681
  C  C500  1  0.530550  0.857190  0.306080  1.0  0.1113
  C  C501  1  0.531630  0.900310  0.284020  1.0  -0.026
  C  C502  1  0.530850  0.937240  0.266050  1.0  -0.0988
  C  C503  1  0.529830  0.981020  0.244650  1.0  0.0415
  C  C504  1  0.538320  0.064240  0.198740  1.0  0.0104
  C  C505  1  0.545050  0.107960  0.173520  1.0  0.0459
  C  C506  1  0.352860  0.352990  0.776630  1.0  -0.0724
  C  C507  1  0.306170  0.306210  0.857230  1.0  0.09
  C  C508  1  0.284070  0.284010  0.900320  1.0  -0.0185
  C  C509  1  0.266020  0.265860  0.937220  1.0  -0.0908
  C  C510  1  0.244630  0.244530  0.980970  1.0  0.0376
  C  C511  1  0.198740  0.198720  0.064200  1.0  0.009
  C  C512  1  0.173520  0.173500  0.107910  1.0  0.0479
  C  C513  1  0.776810  0.353070  0.352630  1.0  -0.074
  C  C514  1  0.857320  0.306000  0.306140  1.0  0.1059
  C  C515  1  0.900390  0.283830  0.284120  1.0  -0.0408
  C  C516  1  0.937300  0.265820  0.266010  1.0  -0.112
  C  C517  1  0.981030  0.244520  0.244610  1.0  0.0402
  C  C518  1  0.064230  0.198720  0.198730  1.0  0.0105
  C  C519  1  0.107930  0.173500  0.173490  1.0  0.0419
  C  C520  1  0.352920  0.517800  0.776360  1.0  -0.0683
  C  C521  1  0.306210  0.530570  0.857050  1.0  0.1013
  C  C522  1  0.284090  0.531660  0.900180  1.0  -0.0221
  C  C523  1  0.265980  0.530870  0.937120  1.0  -0.1178
  C  C524  1  0.244600  0.529830  0.980910  1.0  0.0393
  C  C525  1  0.198730  0.538330  0.064160  1.0  0.0116
  C  C526  1  0.173500  0.545050  0.107890  1.0  0.0449
  C  C527  1  0.517780  0.352880  0.352970  1.0  -0.0694
  C  C528  1  0.530600  0.306190  0.306160  1.0  0.0987
  C  C529  1  0.531640  0.284120  0.284040  1.0  -0.0002
  C  C530  1  0.530840  0.266010  0.266010  1.0  -0.0997
  C  C531  1  0.529840  0.244600  0.244650  1.0  0.0371
  C  C532  1  0.538320  0.198770  0.198770  1.0  0.013
  C  C533  1  0.545050  0.173550  0.173530  1.0  0.0496
  C  C534  1  0.352900  0.776590  0.517610  1.0  -0.0687
  C  C535  1  0.306110  0.857180  0.530520  1.0  0.0941
  C  C536  1  0.284000  0.900280  0.531640  1.0  -0.0254
  C  C537  1  0.265940  0.937200  0.530860  1.0  -0.1034
  C  C538  1  0.244590  0.980960  0.529840  1.0  0.0503
  C  C539  1  0.198740  0.064180  0.538330  1.0  0.0052
  C  C540  1  0.173510  0.107890  0.545080  1.0  0.0448
  C  C541  1  0.647160  0.223550  0.482250  1.0  -0.0689
  C  C542  1  0.693810  0.142820  0.469570  1.0  0.0975
  C  C543  1  0.715910  0.099730  0.468400  1.0  -0.039
  C  C544  1  0.734000  0.062830  0.469110  1.0  -0.1158
  C  C545  1  0.755380  0.019060  0.470150  1.0  0.0415
  C  C546  1  0.801250  0.935830  0.461650  1.0  0.0095
  C  C547  1  0.826470  0.892100  0.454960  1.0  0.047
  C  C548  1  0.223530  0.647040  0.647110  1.0  -0.0715
  C  C549  1  0.142850  0.693770  0.693810  1.0  0.0866
  C  C550  1  0.099770  0.715920  0.715900  1.0  -0.041
  C  C551  1  0.062870  0.734000  0.733990  1.0  -0.1125
  C  C552  1  0.019110  0.755360  0.755390  1.0  0.0428
  C  C553  1  0.935890  0.801240  0.801230  1.0  0.0102
  C  C554  1  0.892160  0.826460  0.826440  1.0  0.0443
  C  C555  1  0.646820  0.482260  0.223690  1.0  -0.0656
  C  C556  1  0.693830  0.469540  0.142960  1.0  0.0909
  C  C557  1  0.716010  0.468420  0.099840  1.0  -0.0306
  C  C558  1  0.734040  0.469150  0.062920  1.0  -0.1093
  C  C559  1  0.755400  0.470130  0.019140  1.0  0.0417
  C  C560  1  0.801240  0.461670  0.935860  1.0  0.0192
  C  C561  1  0.826440  0.454960  0.892120  1.0  0.045
  C  C562  1  0.482490  0.647020  0.647130  1.0  -0.0683
  C  C563  1  0.469580  0.693840  0.693820  1.0  0.0909
  C  C564  1  0.468400  0.715950  0.715960  1.0  -0.0375
  C  C565  1  0.469120  0.734030  0.734060  1.0  -0.1005
  C  C566  1  0.470130  0.755410  0.755430  1.0  0.0392
  C  C567  1  0.461670  0.801250  0.801280  1.0  0.0053
  C  C568  1  0.454960  0.826470  0.826500  1.0  0.046
  C  C569  1  0.482430  0.223420  0.646960  1.0  -0.0731
  C  C570  1  0.469550  0.142810  0.693830  1.0  0.101
  C  C571  1  0.468390  0.099710  0.716050  1.0  -0.0375
  C  C572  1  0.469130  0.062790  0.734150  1.0  -0.1199
  C  C573  1  0.470150  0.019040  0.755470  1.0  0.0439
  C  C574  1  0.461670  0.935790  0.801290  1.0  0.0018
  C  C575  1  0.454950  0.892070  0.826500  1.0  0.0451
  C  C576  1  0.647070  0.647120  0.482280  1.0  -0.0673
  C  C577  1  0.693800  0.693810  0.469560  1.0  0.0929
  C  C578  1  0.715950  0.715930  0.468420  1.0  -0.0327
  C  C579  1  0.734050  0.734020  0.469140  1.0  -0.1181
  C  C580  1  0.755410  0.755400  0.470160  1.0  0.0349
  C  C581  1  0.801260  0.801280  0.461650  1.0  0.0073
  C  C582  1  0.826470  0.826490  0.454970  1.0  0.0519
  C  C583  1  0.223320  0.482630  0.647120  1.0  -0.0659
  C  C584  1  0.142690  0.469770  0.693790  1.0  0.0856
  C  C585  1  0.099620  0.468520  0.715880  1.0  -0.0327
  C  C586  1  0.062750  0.469160  0.733950  1.0  -0.1165
  C  C587  1  0.019020  0.470100  0.755380  1.0  0.0356
  C  C588  1  0.935780  0.461650  0.801290  1.0  0.0105
  C  C589  1  0.892050  0.454970  0.826510  1.0  0.0455
  C  C590  1  0.647460  0.646890  0.223410  1.0  -0.0706
  C  C591  1  0.693820  0.693950  0.142760  1.0  0.1032
  C  C592  1  0.715830  0.716130  0.099660  1.0  -0.0273
  C  C593  1  0.733930  0.734180  0.062750  1.0  -0.084
  C  C594  1  0.755350  0.755500  0.019000  1.0  0.0398
  C  C595  1  0.801300  0.801260  0.935780  1.0  0.0135
  C  C596  1  0.826550  0.826460  0.892050  1.0  0.0405
  C  C597  1  0.647110  0.223420  0.646970  1.0  -0.0665
  C  C598  1  0.693750  0.142740  0.693800  1.0  0.0888
  C  C599  1  0.715920  0.099660  0.715930  1.0  -0.0363
  C  C600  1  0.734100  0.062770  0.733970  1.0  -0.113
  C  C601  1  0.755480  0.019020  0.755370  1.0  0.0385
  C  C602  1  0.801330  0.935790  0.801240  1.0  0.0123
  C  C603  1  0.826560  0.892060  0.826430  1.0  0.0432
  C  C604  1  0.482270  0.647030  0.223610  1.0  -0.0682
  C  C605  1  0.469520  0.693740  0.142900  1.0  0.0919
  C  C606  1  0.468380  0.715910  0.099750  1.0  -0.0272
  C  C607  1  0.469110  0.734070  0.062820  1.0  -0.0849
  C  C608  1  0.470130  0.755430  0.019040  1.0  0.0447
  C  C609  1  0.461680  0.801250  0.935800  1.0  0.0071
  C  C610  1  0.454940  0.826480  0.892090  1.0  0.0447
  C  C611  1  0.647000  0.482420  0.647070  1.0  -0.07
  C  C612  1  0.693740  0.469660  0.693770  1.0  0.0896
  C  C613  1  0.715920  0.468470  0.715900  1.0  -0.0184
  C  C614  1  0.734060  0.469140  0.733980  1.0  -0.1146
  C  C615  1  0.755430  0.470130  0.755380  1.0  0.0377
  C  C616  1  0.801250  0.461660  0.801280  1.0  0.0055
  C  C617  1  0.826440  0.454970  0.826510  1.0  0.044
  C  C618  1  0.223380  0.647120  0.482530  1.0  -0.0666
  C  C619  1  0.142700  0.693750  0.469770  1.0  0.0923
  C  C620  1  0.099640  0.715870  0.468540  1.0  -0.02
  C  C621  1  0.062760  0.734000  0.469170  1.0  -0.1116
  C  C622  1  0.019040  0.755420  0.470120  1.0  0.0384
  C  C623  1  0.935820  0.801290  0.461630  1.0  0.0111
  C  C624  1  0.892070  0.826490  0.454980  1.0  0.0425
  C  C625  1  0.129470  0.129460  0.547330  1.0  -0.1359
  C  C626  1  0.129500  0.129460  0.193710  1.0  -0.1435
  C  C627  1  0.547290  0.193770  0.129500  1.0  -0.1328
  C  C628  1  0.193710  0.547300  0.129460  1.0  -0.0708
  C  C629  1  0.129470  0.547260  0.193730  1.0  -0.1346
  C  C630  1  0.129480  0.193700  0.547320  1.0  -0.1281
  C  C631  1  0.547290  0.129520  0.129490  1.0  -0.1301
  C  C632  1  0.193750  0.129470  0.129480  1.0  -0.1353
  C  C633  1  0.129490  0.193730  0.129460  1.0  -0.1449
  C  C634  1  0.129460  0.547280  0.129470  1.0  -0.1362
  C  C635  1  0.547290  0.129520  0.193740  1.0  -0.1361
  C  C636  1  0.193730  0.129450  0.547330  1.0  -0.0774
  C  C637  1  0.870490  0.870520  0.452750  1.0  -0.1321
  C  C638  1  0.870600  0.870500  0.806210  1.0  -0.1432
  C  C639  1  0.806220  0.452740  0.870540  1.0  -0.1329
  C  C640  1  0.452710  0.806250  0.870520  1.0  -0.1364
  C  C641  1  0.452730  0.870500  0.806270  1.0  -0.129
  C  C642  1  0.806240  0.870520  0.452730  1.0  -0.133
  C  C643  1  0.870480  0.452740  0.870540  1.0  -0.1331
  C  C644  1  0.870580  0.806240  0.870480  1.0  -0.1452
  C  C645  1  0.806340  0.870490  0.870460  1.0  -0.1415
  C  C646  1  0.452700  0.870510  0.870530  1.0  -0.1344
  C  C647  1  0.870470  0.452730  0.806300  1.0  -0.1336
  C  C648  1  0.870490  0.806270  0.452740  1.0  -0.1363
  O  O649  1  0.739210  0.441180  0.510190  1.0  -0.5939
  O  O650  1  0.798780  0.440490  0.510590  1.0  -0.6038
  O  O651  1  0.441340  0.739190  0.309240  1.0  -0.606
  O  O652  1  0.440760  0.798680  0.250110  1.0  -0.6183
  O  O653  1  0.510020  0.309490  0.739210  1.0  -0.5909
  O  O654  1  0.510380  0.250220  0.798720  1.0  -0.6213
  O  O655  1  0.309390  0.510140  0.441240  1.0  -0.5928
  O  O656  1  0.250230  0.510330  0.440520  1.0  -0.624
  O  O657  1  0.738910  0.510090  0.309700  1.0  -0.5942
  O  O658  1  0.798490  0.510330  0.250400  1.0  -0.6249
  O  O659  1  0.441320  0.309220  0.510090  1.0  -0.6018
  O  O660  1  0.440520  0.250030  0.510330  1.0  -0.6091
  O  O661  1  0.510120  0.739400  0.441160  1.0  -0.5965
  O  O662  1  0.510400  0.798940  0.440670  1.0  -0.6248
  O  O663  1  0.309340  0.441340  0.739360  1.0  -0.61
  O  O664  1  0.249990  0.440670  0.798950  1.0  -0.6059
  O  O665  1  0.739290  0.309410  0.441110  1.0  -0.5999
  O  O666  1  0.799030  0.250200  0.440350  1.0  -0.6329
  O  O667  1  0.441390  0.510070  0.739220  1.0  -0.5936
  O  O668  1  0.440610  0.510270  0.798990  1.0  -0.6337
  O  O669  1  0.509930  0.441470  0.309380  1.0  -0.5954
  O  O670  1  0.510190  0.440660  0.250180  1.0  -0.6314
  O  O671  1  0.309230  0.739290  0.510190  1.0  -0.5981
  O  O672  1  0.250050  0.799050  0.510410  1.0  -0.6133
  O  O673  1  0.558810  0.260630  0.489860  1.0  -0.5971
  O  O674  1  0.559090  0.201090  0.489770  1.0  -0.6225
  O  O675  1  0.260830  0.558730  0.690680  1.0  -0.5914
  O  O676  1  0.201130  0.559100  0.749900  1.0  -0.6222
  O  O677  1  0.690320  0.489870  0.261200  1.0  -0.5855
  O  O678  1  0.749450  0.489700  0.201410  1.0  -0.6332
  O  O679  1  0.489940  0.690660  0.558680  1.0  -0.5981
  O  O680  1  0.489870  0.749840  0.559260  1.0  -0.6153
  O  O681  1  0.489800  0.260790  0.690670  1.0  -0.5955
  O  O682  1  0.489790  0.201160  0.749820  1.0  -0.6328
  O  O683  1  0.690640  0.558660  0.490000  1.0  -0.5941
  O  O684  1  0.749850  0.559010  0.490060  1.0  -0.6163
  O  O685  1  0.260690  0.489940  0.558720  1.0  -0.5952
  O  O686  1  0.201180  0.489800  0.559060  1.0  -0.6179
  O  O687  1  0.558760  0.690440  0.260740  1.0  -0.5922
  O  O688  1  0.559320  0.749560  0.201240  1.0  -0.6171
  O  O689  1  0.690680  0.260620  0.558640  1.0  -0.5924
  O  O690  1  0.750040  0.201050  0.558980  1.0  -0.6259
  O  O691  1  0.489860  0.558610  0.260810  1.0  -0.5947
  O  O692  1  0.489650  0.559360  0.201060  1.0  -0.6341
  O  O693  1  0.558570  0.489900  0.690760  1.0  -0.5912
  O  O694  1  0.559310  0.489670  0.749990  1.0  -0.6352
  O  O695  1  0.260570  0.690680  0.490060  1.0  -0.5927
  O  O696  1  0.201020  0.750030  0.489910  1.0  -0.6265
  O  O697  1  0.260690  0.558720  0.489950  1.0  -0.5919
  O  O698  1  0.201220  0.559080  0.489740  1.0  -0.6249
  O  O699  1  0.558700  0.260690  0.690760  1.0  -0.5998
  O  O700  1  0.559540  0.200920  0.749870  1.0  -0.6134
  O  O701  1  0.490030  0.690630  0.260740  1.0  -0.5898
  O  O702  1  0.489940  0.749990  0.201320  1.0  -0.6189
  O  O703  1  0.690630  0.489960  0.558670  1.0  -0.5943
  O  O704  1  0.749850  0.490070  0.559000  1.0  -0.6214
  O  O705  1  0.260630  0.489980  0.690740  1.0  -0.6037
  O  O706  1  0.200950  0.489610  0.750010  1.0  -0.6139
  O  O707  1  0.558730  0.690800  0.489790  1.0  -0.5976
  O  O708  1  0.559260  0.750080  0.489600  1.0  -0.6208
  O  O709  1  0.490090  0.260590  0.558650  1.0  -0.6099
  O  O710  1  0.489620  0.200980  0.559320  1.0  -0.609
  O  O711  1  0.691510  0.558610  0.260050  1.0  -0.6057
  O  O712  1  0.750510  0.559340  0.200140  1.0  -0.6112
  O  O713  1  0.260730  0.690610  0.558730  1.0  -0.5914
  O  O714  1  0.201140  0.749910  0.559130  1.0  -0.62
  O  O715  1  0.558530  0.489970  0.260440  1.0  -0.5895
  O  O716  1  0.559320  0.489750  0.200670  1.0  -0.6293
  O  O717  1  0.489860  0.558660  0.691010  1.0  -0.5862
  O  O718  1  0.489650  0.559380  0.750240  1.0  -0.6296
  O  O719  1  0.690620  0.260810  0.489850  1.0  -0.5915
  O  O720  1  0.749920  0.201180  0.489860  1.0  -0.6241
  O  O721  1  0.441270  0.739320  0.510050  1.0  -0.5955
  O  O722  1  0.440670  0.799030  0.510180  1.0  -0.6099
  O  O723  1  0.740000  0.441260  0.308740  1.0  -0.5993
  O  O724  1  0.799530  0.440620  0.249360  1.0  -0.6239
  O  O725  1  0.309350  0.510190  0.739260  1.0  -0.5935
  O  O726  1  0.250070  0.510120  0.798880  1.0  -0.6253
  O  O727  1  0.510290  0.309300  0.441270  1.0  -0.603
  O  O728  1  0.510150  0.250100  0.440800  1.0  -0.6247
  O  O729  1  0.510230  0.739200  0.309360  1.0  -0.5932
  O  O730  1  0.510450  0.798980  0.250300  1.0  -0.6142
  O  O731  1  0.309390  0.441260  0.510110  1.0  -0.593
  O  O732  1  0.250240  0.440590  0.510230  1.0  -0.6159
  O  O733  1  0.739150  0.510150  0.441330  1.0  -0.6045
  O  O734  1  0.798750  0.510570  0.440600  1.0  -0.6124
  O  O735  1  0.441300  0.309370  0.739340  1.0  -0.592
  O  O736  1  0.441050  0.249990  0.798810  1.0  -0.6197
  O  O737  1  0.309160  0.739290  0.441360  1.0  -0.6049
  O  O738  1  0.249980  0.799050  0.440550  1.0  -0.6115
  O  O739  1  0.510040  0.441380  0.739620  1.0  -0.5991
  O  O740  1  0.510240  0.440590  0.799400  1.0  -0.6288
  O  O741  1  0.441250  0.510200  0.308920  1.0  -0.597
  O  O742  1  0.440520  0.510340  0.249730  1.0  -0.6301
  O  O743  1  0.739280  0.309320  0.510130  1.0  -0.6101
  O  O744  1  0.798990  0.250080  0.510460  1.0  -0.6165
