# generated using pymatgen
data_CuH95(C25N)4
_symmetry_space_group_name_H-M   'P 1'
_cell_length_a   30.43800000
_cell_length_b   44.98500000
_cell_length_c   30.39920000
_cell_angle_alpha   90.00000000
_cell_angle_beta   90.00000000
_cell_angle_gamma   90.00000000
_symmetry_Int_Tables_number   1
_chemical_formula_structural   CuH95(C25N)4
_chemical_formula_sum   'Cu16 H1520 C1600 N64'
_cell_volume   41624.20886926
_cell_formula_units_Z   16
loop_
 _symmetry_equiv_pos_site_id
 _symmetry_equiv_pos_as_xyz
  1  'x, y, z'
loop_
 _atom_site_type_symbol
 _atom_site_label
 _atom_site_symmetry_multiplicity
 _atom_site_fract_x
 _atom_site_fract_y
 _atom_site_fract_z
 _atom_site_occupancy
 _atom_site_charge
  Cu  Cu1  1  0.498700  0.250120  0.616460  1.0  0.648
  Cu  Cu2  1  0.498700  0.750120  0.116460  1.0  0.648
  Cu  Cu3  1  0.998700  0.250120  0.116460  1.0  0.648
  Cu  Cu4  1  0.998700  0.750120  0.616460  1.0  0.648
  Cu  Cu5  1  0.751300  0.500120  0.866460  1.0  0.6479
  Cu  Cu6  1  0.751300  0.000120  0.366460  1.0  0.6479
  Cu  Cu7  1  0.251300  0.500120  0.366460  1.0  0.6479
  Cu  Cu8  1  0.251300  0.000120  0.866460  1.0  0.6479
  Cu  Cu9  1  0.501300  0.749880  0.616460  1.0  0.648
  Cu  Cu10  1  0.501300  0.249880  0.116460  1.0  0.648
  Cu  Cu11  1  0.001300  0.749880  0.116460  1.0  0.648
  Cu  Cu12  1  0.001300  0.249880  0.616460  1.0  0.648
  Cu  Cu13  1  0.748700  0.999880  0.866460  1.0  0.6481
  Cu  Cu14  1  0.748700  0.499880  0.366460  1.0  0.6481
  Cu  Cu15  1  0.248700  0.999880  0.366460  1.0  0.6481
  Cu  Cu16  1  0.248700  0.499880  0.866460  1.0  0.6481
  H  H17  1  0.375800  0.390600  0.461000  1.0  0.1079
  H  H18  1  0.270000  0.380100  0.539000  1.0  0.0914
  H  H19  1  0.181400  0.471300  0.593100  1.0  0.0869
  H  H20  1  0.114700  0.412400  0.517100  1.0  0.1166
  H  H21  1  0.148900  0.378200  0.477600  1.0  0.1016
  H  H22  1  0.189600  0.389300  0.448500  1.0  0.1027
  H  H23  1  0.197800  0.368400  0.490200  1.0  0.1207
  H  H24  1  0.261700  0.475400  0.587900  1.0  0.1147
  H  H25  1  0.285300  0.444700  0.576100  1.0  0.121
  H  H26  1  0.281600  0.470300  0.539800  1.0  0.1008
  H  H27  1  0.074900  0.444800  0.560000  1.0  0.116
  H  H28  1  0.097500  0.452100  0.606400  1.0  0.1254
  H  H29  1  0.094500  0.477200  0.569200  1.0  0.1239
  H  H30  1  0.394200  0.415600  0.315100  1.0  0.0949
  H  H31  1  0.401300  0.493300  0.376100  1.0  0.076
  H  H32  1  0.378100  0.500900  0.447200  1.0  0.1114
  H  H33  1  0.331400  0.485800  0.456800  1.0  0.1084
  H  H34  1  0.375100  0.472200  0.478100  1.0  0.1185
  H  H35  1  0.416300  0.457000  0.274500  1.0  0.1157
  H  H36  1  0.396000  0.488500  0.288100  1.0  0.1032
  H  H37  1  0.444400  0.479600  0.303900  1.0  0.0918
  H  H38  1  0.328200  0.379000  0.396500  1.0  0.108
  H  H39  1  0.326200  0.381300  0.344000  1.0  0.1121
  H  H40  1  0.370400  0.370700  0.367600  1.0  0.1249
  H  H41  1  0.398200  0.350800  0.482400  1.0  0.1357
  H  H42  1  0.359600  0.319300  0.738500  1.0  0.0994
  H  H43  1  0.256900  0.280800  0.683500  1.0  0.0878
  H  H44  1  0.242600  0.282900  0.607500  1.0  0.0847
  H  H45  1  0.262700  0.310900  0.582000  1.0  0.0965
  H  H46  1  0.285900  0.279100  0.578200  1.0  0.1047
  H  H47  1  0.413200  0.343500  0.699000  1.0  0.0995
  H  H48  1  0.424700  0.328600  0.652600  1.0  0.098
  H  H49  1  0.396800  0.358800  0.654300  1.0  0.1089
  H  H50  1  0.261400  0.279700  0.761000  1.0  0.1225
  H  H51  1  0.311100  0.276500  0.777500  1.0  0.1159
  H  H52  1  0.285900  0.307500  0.782900  1.0  0.1288
  H  H53  1  0.487800  0.262400  0.441600  1.0  0.1084
  H  H54  1  0.557800  0.312200  0.527900  1.0  0.0915
  H  H55  1  0.381300  0.289500  0.473400  1.0  0.1098
  H  H56  1  0.406200  0.284500  0.427600  1.0  0.1242
  H  H57  1  0.402000  0.257700  0.462100  1.0  0.1084
  H  H58  1  0.562400  0.257000  0.438400  1.0  0.1071
  H  H59  1  0.589500  0.286700  0.448700  1.0  0.115
  H  H60  1  0.587600  0.260600  0.484400  1.0  0.1142
  H  H61  1  0.462600  0.346000  0.576100  1.0  0.0903
  H  H62  1  0.505700  0.329900  0.594900  1.0  0.1078
  H  H63  1  0.510300  0.357000  0.561000  1.0  0.1122
  H  H64  1  0.633600  0.149900  0.517800  1.0  0.1099
  H  H65  1  0.538300  0.146800  0.424800  1.0  0.1119
  H  H66  1  0.437800  0.222600  0.373100  1.0  0.1251
  H  H67  1  0.379000  0.180500  0.473100  1.0  0.0703
  H  H68  1  0.476900  0.155100  0.522400  1.0  0.0821
  H  H69  1  0.430600  0.167700  0.539000  1.0  0.0826
  H  H70  1  0.432200  0.139500  0.507000  1.0  0.104
  H  H71  1  0.514500  0.219900  0.362600  1.0  0.1023
  H  H72  1  0.540300  0.223400  0.408100  1.0  0.1219
  H  H73  1  0.539100  0.191900  0.383700  1.0  0.103
  H  H74  1  0.372900  0.223100  0.367400  1.0  0.1008
  H  H75  1  0.347700  0.193500  0.382000  1.0  0.1274
  H  H76  1  0.342300  0.223200  0.410300  1.0  0.1281
  H  H77  1  0.535400  0.158400  0.643100  1.0  0.1082
  H  H78  1  0.520100  0.169500  0.595500  1.0  0.1107
  H  H79  1  0.552700  0.141700  0.599900  1.0  0.131
  H  H80  1  0.589200  0.186500  0.677100  1.0  0.0963
  H  H81  1  0.674100  0.234400  0.614500  1.0  0.1443
  H  H82  1  0.691200  0.227100  0.536100  1.0  0.117
  H  H83  1  0.672100  0.198200  0.512200  1.0  0.1143
  H  H84  1  0.644300  0.228300  0.512500  1.0  0.1113
  H  H85  1  0.655100  0.207700  0.715800  1.0  0.0945
  H  H86  1  0.698700  0.209900  0.686500  1.0  0.1093
  H  H87  1  0.668100  0.238500  0.692900  1.0  0.0875
  H  H88  1  0.583500  0.122000  0.389400  1.0  0.0711
  H  H89  1  0.651800  0.108500  0.498900  1.0  0.1273
  H  H90  1  0.739200  0.012800  0.530300  1.0  0.0894
  H  H91  1  0.805500  0.085500  0.511100  1.0  0.0911
  H  H92  1  0.723000  0.122800  0.449200  1.0  0.0884
  H  H93  1  0.754800  0.130900  0.489400  1.0  0.1209
  H  H94  1  0.775000  0.118800  0.444200  1.0  0.0961
  H  H95  1  0.677400  0.999300  0.492200  1.0  0.122
  H  H96  1  0.644100  0.026800  0.495700  1.0  0.1246
  H  H97  1  0.662700  0.016800  0.448700  1.0  0.1133
  H  H98  1  0.818900  0.010800  0.546000  1.0  0.1073
  H  H99  1  0.848800  0.033100  0.518000  1.0  0.1093
  H  H100  1  0.831300  0.042800  0.565500  1.0  0.1098
  H  H101  1  0.603700  0.091300  0.234200  1.0  0.1057
  H  H102  1  0.538300  0.028200  0.303400  1.0  0.1068
  H  H103  1  0.638100  0.131300  0.276300  1.0  0.1138
  H  H104  1  0.675700  0.112500  0.300300  1.0  0.1103
  H  H105  1  0.639300  0.129400  0.328900  1.0  0.0869
  H  H106  1  0.555800  0.052500  0.398400  1.0  0.188
  H  H107  1  0.546200  0.021200  0.375300  1.0  0.0852
  H  H108  1  0.593700  0.028000  0.395400  1.0  0.0927
  H  H109  1  0.527100  0.032200  0.222100  1.0  0.1198
  H  H110  1  0.530700  0.065900  0.205500  1.0  0.1208
  H  H111  1  0.570400  0.043300  0.197100  1.0  0.1253
  H  H112  1  0.375800  0.890600  0.961000  1.0  0.1079
  H  H113  1  0.270000  0.880100  0.039000  1.0  0.0914
  H  H114  1  0.181400  0.971300  0.093100  1.0  0.0869
  H  H115  1  0.114700  0.912400  0.017100  1.0  0.1166
  H  H116  1  0.148900  0.878200  0.977600  1.0  0.1016
  H  H117  1  0.189600  0.889300  0.948500  1.0  0.1027
  H  H118  1  0.197800  0.868400  0.990200  1.0  0.1207
  H  H119  1  0.261700  0.975400  0.087900  1.0  0.1147
  H  H120  1  0.285300  0.944700  0.076100  1.0  0.121
  H  H121  1  0.281600  0.970300  0.039800  1.0  0.1008
  H  H122  1  0.074900  0.944800  0.060000  1.0  0.116
  H  H123  1  0.097500  0.952100  0.106400  1.0  0.1254
  H  H124  1  0.094500  0.977200  0.069200  1.0  0.1239
  H  H125  1  0.394200  0.915600  0.815100  1.0  0.0949
  H  H126  1  0.401300  0.993300  0.876100  1.0  0.076
  H  H127  1  0.378100  0.000900  0.947200  1.0  0.1114
  H  H128  1  0.331400  0.985800  0.956800  1.0  0.1084
  H  H129  1  0.375100  0.972200  0.978100  1.0  0.1185
  H  H130  1  0.416300  0.957000  0.774500  1.0  0.1157
  H  H131  1  0.396000  0.988500  0.788100  1.0  0.1032
  H  H132  1  0.444400  0.979600  0.803900  1.0  0.0918
  H  H133  1  0.328200  0.879000  0.896500  1.0  0.108
  H  H134  1  0.326200  0.881300  0.844000  1.0  0.1121
  H  H135  1  0.370400  0.870700  0.867600  1.0  0.1249
  H  H136  1  0.398200  0.850800  0.982400  1.0  0.1357
  H  H137  1  0.359600  0.819300  0.238500  1.0  0.0994
  H  H138  1  0.256900  0.780800  0.183500  1.0  0.0878
  H  H139  1  0.242600  0.782900  0.107500  1.0  0.0847
  H  H140  1  0.262700  0.810900  0.082000  1.0  0.0965
  H  H141  1  0.285900  0.779100  0.078200  1.0  0.1047
  H  H142  1  0.413200  0.843500  0.199000  1.0  0.0995
  H  H143  1  0.424700  0.828600  0.152600  1.0  0.098
  H  H144  1  0.396800  0.858800  0.154300  1.0  0.1089
  H  H145  1  0.261400  0.779700  0.261000  1.0  0.1225
  H  H146  1  0.311100  0.776500  0.277500  1.0  0.1159
  H  H147  1  0.285900  0.807500  0.282900  1.0  0.1288
  H  H148  1  0.487800  0.762400  0.941600  1.0  0.1084
  H  H149  1  0.557800  0.812200  0.027900  1.0  0.0915
  H  H150  1  0.381300  0.789500  0.973400  1.0  0.1098
  H  H151  1  0.406200  0.784500  0.927600  1.0  0.1242
  H  H152  1  0.402000  0.757700  0.962100  1.0  0.1084
  H  H153  1  0.562400  0.757000  0.938400  1.0  0.1071
  H  H154  1  0.589500  0.786700  0.948700  1.0  0.115
  H  H155  1  0.587600  0.760600  0.984400  1.0  0.1142
  H  H156  1  0.462600  0.846000  0.076100  1.0  0.0903
  H  H157  1  0.505700  0.829900  0.094900  1.0  0.1078
  H  H158  1  0.510300  0.857000  0.061000  1.0  0.1122
  H  H159  1  0.633600  0.649900  0.017800  1.0  0.1099
  H  H160  1  0.538300  0.646800  0.924800  1.0  0.1119
  H  H161  1  0.437800  0.722600  0.873100  1.0  0.1251
  H  H162  1  0.379000  0.680500  0.973100  1.0  0.0703
  H  H163  1  0.476900  0.655100  0.022400  1.0  0.0821
  H  H164  1  0.430600  0.667700  0.039000  1.0  0.0826
  H  H165  1  0.432200  0.639500  0.007000  1.0  0.104
  H  H166  1  0.514500  0.719900  0.862600  1.0  0.1023
  H  H167  1  0.540300  0.723400  0.908100  1.0  0.1219
  H  H168  1  0.539100  0.691900  0.883700  1.0  0.103
  H  H169  1  0.372900  0.723100  0.867400  1.0  0.1008
  H  H170  1  0.347700  0.693500  0.882000  1.0  0.1274
  H  H171  1  0.342300  0.723200  0.910300  1.0  0.1281
  H  H172  1  0.535400  0.658400  0.143100  1.0  0.1082
  H  H173  1  0.520100  0.669500  0.095500  1.0  0.1107
  H  H174  1  0.552700  0.641700  0.099900  1.0  0.131
  H  H175  1  0.589200  0.686500  0.177100  1.0  0.0963
  H  H176  1  0.674100  0.734400  0.114500  1.0  0.1443
  H  H177  1  0.691200  0.727100  0.036100  1.0  0.117
  H  H178  1  0.672100  0.698200  0.012200  1.0  0.1143
  H  H179  1  0.644300  0.728300  0.012500  1.0  0.1113
  H  H180  1  0.655100  0.707700  0.215800  1.0  0.0945
  H  H181  1  0.698700  0.709900  0.186500  1.0  0.1093
  H  H182  1  0.668100  0.738500  0.192900  1.0  0.0875
  H  H183  1  0.583500  0.622000  0.889400  1.0  0.0711
  H  H184  1  0.651800  0.608500  0.998900  1.0  0.1273
  H  H185  1  0.739200  0.512800  0.030300  1.0  0.0892
  H  H186  1  0.805500  0.585500  0.011100  1.0  0.0911
  H  H187  1  0.723000  0.622800  0.949200  1.0  0.0884
  H  H188  1  0.754800  0.630900  0.989400  1.0  0.1209
  H  H189  1  0.775000  0.618800  0.944200  1.0  0.0961
  H  H190  1  0.677400  0.499300  0.992200  1.0  0.122
  H  H191  1  0.644100  0.526800  0.995700  1.0  0.1246
  H  H192  1  0.662700  0.516800  0.948700  1.0  0.1133
  H  H193  1  0.818900  0.510800  0.046000  1.0  0.1073
  H  H194  1  0.848800  0.533100  0.018000  1.0  0.1093
  H  H195  1  0.831300  0.542800  0.065500  1.0  0.1098
  H  H196  1  0.603700  0.591300  0.734200  1.0  0.1057
  H  H197  1  0.538300  0.528200  0.803400  1.0  0.1068
  H  H198  1  0.638100  0.631300  0.776300  1.0  0.1138
  H  H199  1  0.675700  0.612500  0.800300  1.0  0.1103
  H  H200  1  0.639300  0.629400  0.828900  1.0  0.0869
  H  H201  1  0.555800  0.552500  0.898400  1.0  0.188
  H  H202  1  0.546200  0.521200  0.875300  1.0  0.0852
  H  H203  1  0.593700  0.528000  0.895400  1.0  0.0927
  H  H204  1  0.527100  0.532200  0.722100  1.0  0.1198
  H  H205  1  0.530700  0.565900  0.705500  1.0  0.1208
  H  H206  1  0.570400  0.543300  0.697100  1.0  0.1253
  H  H207  1  0.875800  0.390600  0.961000  1.0  0.1079
  H  H208  1  0.770000  0.380100  0.039000  1.0  0.0914
  H  H209  1  0.681400  0.471300  0.093100  1.0  0.0869
  H  H210  1  0.614700  0.412400  0.017100  1.0  0.1166
  H  H211  1  0.648900  0.378200  0.977600  1.0  0.1016
  H  H212  1  0.689600  0.389300  0.948500  1.0  0.1027
  H  H213  1  0.697800  0.368400  0.990200  1.0  0.1207
  H  H214  1  0.761700  0.475400  0.087900  1.0  0.1147
  H  H215  1  0.785300  0.444700  0.076100  1.0  0.121
  H  H216  1  0.781600  0.470300  0.039800  1.0  0.1008
  H  H217  1  0.574900  0.444800  0.060000  1.0  0.116
  H  H218  1  0.597500  0.452100  0.106400  1.0  0.1254
  H  H219  1  0.594500  0.477200  0.069200  1.0  0.1239
  H  H220  1  0.894200  0.415600  0.815100  1.0  0.0949
  H  H221  1  0.901300  0.493300  0.876100  1.0  0.076
  H  H222  1  0.878100  0.500900  0.947200  1.0  0.1114
  H  H223  1  0.831400  0.485800  0.956800  1.0  0.1084
  H  H224  1  0.875100  0.472200  0.978100  1.0  0.1185
  H  H225  1  0.916300  0.457000  0.774500  1.0  0.1157
  H  H226  1  0.896000  0.488500  0.788100  1.0  0.1032
  H  H227  1  0.944400  0.479600  0.803900  1.0  0.0918
  H  H228  1  0.828200  0.379000  0.896500  1.0  0.108
  H  H229  1  0.826200  0.381300  0.844000  1.0  0.1121
  H  H230  1  0.870400  0.370700  0.867600  1.0  0.1249
  H  H231  1  0.898200  0.350800  0.982400  1.0  0.1357
  H  H232  1  0.859600  0.319300  0.238500  1.0  0.0994
  H  H233  1  0.756900  0.280800  0.183500  1.0  0.0878
  H  H234  1  0.742600  0.282900  0.107500  1.0  0.0847
  H  H235  1  0.762700  0.310900  0.082000  1.0  0.0965
  H  H236  1  0.785900  0.279100  0.078200  1.0  0.1047
  H  H237  1  0.913200  0.343500  0.199000  1.0  0.0995
  H  H238  1  0.924700  0.328600  0.152600  1.0  0.098
  H  H239  1  0.896800  0.358800  0.154300  1.0  0.1089
  H  H240  1  0.761400  0.279700  0.261000  1.0  0.1225
  H  H241  1  0.811100  0.276500  0.277500  1.0  0.1159
  H  H242  1  0.785900  0.307500  0.282900  1.0  0.1288
  H  H243  1  0.987800  0.262400  0.941600  1.0  0.1084
  H  H244  1  0.057800  0.312200  0.027900  1.0  0.0915
  H  H245  1  0.881300  0.289500  0.973400  1.0  0.1098
  H  H246  1  0.906200  0.284500  0.927600  1.0  0.1242
  H  H247  1  0.902000  0.257700  0.962100  1.0  0.1084
  H  H248  1  0.062400  0.257000  0.938400  1.0  0.1071
  H  H249  1  0.089500  0.286700  0.948700  1.0  0.115
  H  H250  1  0.087600  0.260600  0.984400  1.0  0.1142
  H  H251  1  0.962600  0.346000  0.076100  1.0  0.0903
  H  H252  1  0.005700  0.329900  0.094900  1.0  0.1078
  H  H253  1  0.010300  0.357000  0.061000  1.0  0.1129
  H  H254  1  0.133600  0.149900  0.017800  1.0  0.1099
  H  H255  1  0.038300  0.146800  0.924800  1.0  0.112
  H  H256  1  0.937800  0.222600  0.873100  1.0  0.1251
  H  H257  1  0.879000  0.180500  0.973100  1.0  0.0703
  H  H258  1  0.976900  0.155100  0.022400  1.0  0.0821
  H  H259  1  0.930600  0.167700  0.039000  1.0  0.0826
  H  H260  1  0.932200  0.139500  0.007000  1.0  0.104
  H  H261  1  0.014500  0.219900  0.862600  1.0  0.1023
  H  H262  1  0.040300  0.223400  0.908100  1.0  0.1219
  H  H263  1  0.039100  0.191900  0.883700  1.0  0.103
  H  H264  1  0.872900  0.223100  0.867400  1.0  0.1008
  H  H265  1  0.847700  0.193500  0.882000  1.0  0.1274
  H  H266  1  0.842300  0.223200  0.910300  1.0  0.1281
  H  H267  1  0.035400  0.158400  0.143100  1.0  0.1082
  H  H268  1  0.020100  0.169500  0.095500  1.0  0.1107
  H  H269  1  0.052700  0.141700  0.099900  1.0  0.131
  H  H270  1  0.089200  0.186500  0.177100  1.0  0.0963
  H  H271  1  0.174100  0.234400  0.114500  1.0  0.1443
  H  H272  1  0.191200  0.227100  0.036100  1.0  0.117
  H  H273  1  0.172100  0.198200  0.012200  1.0  0.1143
  H  H274  1  0.144300  0.228300  0.012500  1.0  0.1113
  H  H275  1  0.155100  0.207700  0.215800  1.0  0.0945
  H  H276  1  0.198700  0.209900  0.186500  1.0  0.1093
  H  H277  1  0.168100  0.238500  0.192900  1.0  0.0875
  H  H278  1  0.083500  0.122000  0.889400  1.0  0.0711
  H  H279  1  0.151800  0.108500  0.998900  1.0  0.1273
  H  H280  1  0.239200  0.012800  0.030300  1.0  0.0894
  H  H281  1  0.305500  0.085500  0.011100  1.0  0.0911
  H  H282  1  0.223000  0.122800  0.949200  1.0  0.0884
  H  H283  1  0.254800  0.130900  0.989400  1.0  0.1209
  H  H284  1  0.275000  0.118800  0.944200  1.0  0.0961
  H  H285  1  0.177400  0.999300  0.992200  1.0  0.122
  H  H286  1  0.144100  0.026800  0.995700  1.0  0.1246
  H  H287  1  0.162700  0.016800  0.948700  1.0  0.1133
  H  H288  1  0.318900  0.010800  0.046000  1.0  0.1073
  H  H289  1  0.348800  0.033100  0.018000  1.0  0.1093
  H  H290  1  0.331300  0.042800  0.065500  1.0  0.1098
  H  H291  1  0.103700  0.091300  0.734200  1.0  0.1057
  H  H292  1  0.038300  0.028200  0.803400  1.0  0.1068
  H  H293  1  0.138100  0.131300  0.776300  1.0  0.1138
  H  H294  1  0.175700  0.112500  0.800300  1.0  0.1103
  H  H295  1  0.139300  0.129400  0.828900  1.0  0.0869
  H  H296  1  0.055800  0.052500  0.898400  1.0  0.188
  H  H297  1  0.046200  0.021200  0.875300  1.0  0.0852
  H  H298  1  0.093700  0.028000  0.895400  1.0  0.0927
  H  H299  1  0.027100  0.032200  0.722100  1.0  0.1198
  H  H300  1  0.030700  0.065900  0.705500  1.0  0.1208
  H  H301  1  0.070400  0.043300  0.697100  1.0  0.1253
  H  H302  1  0.875800  0.890600  0.461000  1.0  0.1079
  H  H303  1  0.770000  0.880100  0.539000  1.0  0.0914
  H  H304  1  0.681400  0.971300  0.593100  1.0  0.0869
  H  H305  1  0.614700  0.912400  0.517100  1.0  0.1166
  H  H306  1  0.648900  0.878200  0.477600  1.0  0.1016
  H  H307  1  0.689600  0.889300  0.448500  1.0  0.1027
  H  H308  1  0.697800  0.868400  0.490200  1.0  0.1207
  H  H309  1  0.761700  0.975400  0.587900  1.0  0.1147
  H  H310  1  0.785300  0.944700  0.576100  1.0  0.121
  H  H311  1  0.781600  0.970300  0.539800  1.0  0.1008
  H  H312  1  0.574900  0.944800  0.560000  1.0  0.116
  H  H313  1  0.597500  0.952100  0.606400  1.0  0.1254
  H  H314  1  0.594500  0.977200  0.569200  1.0  0.1239
  H  H315  1  0.894200  0.915600  0.315100  1.0  0.0949
  H  H316  1  0.901300  0.993300  0.376100  1.0  0.076
  H  H317  1  0.878100  0.000900  0.447200  1.0  0.1114
  H  H318  1  0.831400  0.985800  0.456800  1.0  0.1084
  H  H319  1  0.875100  0.972200  0.478100  1.0  0.1185
  H  H320  1  0.916300  0.957000  0.274500  1.0  0.1157
  H  H321  1  0.896000  0.988500  0.288100  1.0  0.1032
  H  H322  1  0.944400  0.979600  0.303900  1.0  0.0918
  H  H323  1  0.828200  0.879000  0.396500  1.0  0.108
  H  H324  1  0.826200  0.881300  0.344000  1.0  0.1121
  H  H325  1  0.870400  0.870700  0.367600  1.0  0.1249
  H  H326  1  0.898200  0.850800  0.482400  1.0  0.1357
  H  H327  1  0.859600  0.819300  0.738500  1.0  0.0994
  H  H328  1  0.756900  0.780800  0.683500  1.0  0.0878
  H  H329  1  0.742600  0.782900  0.607500  1.0  0.0847
  H  H330  1  0.762700  0.810900  0.582000  1.0  0.0965
  H  H331  1  0.785900  0.779100  0.578200  1.0  0.1047
  H  H332  1  0.913200  0.843500  0.699000  1.0  0.0995
  H  H333  1  0.924700  0.828600  0.652600  1.0  0.098
  H  H334  1  0.896800  0.858800  0.654300  1.0  0.1089
  H  H335  1  0.761400  0.779700  0.761000  1.0  0.1225
  H  H336  1  0.811100  0.776500  0.777500  1.0  0.1159
  H  H337  1  0.785900  0.807500  0.782900  1.0  0.1288
  H  H338  1  0.987800  0.762400  0.441600  1.0  0.1084
  H  H339  1  0.057800  0.812200  0.527900  1.0  0.0915
  H  H340  1  0.881300  0.789500  0.473400  1.0  0.1098
  H  H341  1  0.906200  0.784500  0.427600  1.0  0.1242
  H  H342  1  0.902000  0.757700  0.462100  1.0  0.1084
  H  H343  1  0.062400  0.757000  0.438400  1.0  0.1071
  H  H344  1  0.089500  0.786700  0.448700  1.0  0.115
  H  H345  1  0.087600  0.760600  0.484400  1.0  0.1142
  H  H346  1  0.962600  0.846000  0.576100  1.0  0.0903
  H  H347  1  0.005700  0.829900  0.594900  1.0  0.1078
  H  H348  1  0.010300  0.857000  0.561000  1.0  0.1129
  H  H349  1  0.133600  0.649900  0.517800  1.0  0.1099
  H  H350  1  0.038300  0.646800  0.424800  1.0  0.112
  H  H351  1  0.937800  0.722600  0.373100  1.0  0.1251
  H  H352  1  0.879000  0.680500  0.473100  1.0  0.0703
  H  H353  1  0.976900  0.655100  0.522400  1.0  0.0821
  H  H354  1  0.930600  0.667700  0.539000  1.0  0.0826
  H  H355  1  0.932200  0.639500  0.507000  1.0  0.104
  H  H356  1  0.014500  0.719900  0.362600  1.0  0.1023
  H  H357  1  0.040300  0.723400  0.408100  1.0  0.1219
  H  H358  1  0.039100  0.691900  0.383700  1.0  0.103
  H  H359  1  0.872900  0.723100  0.367400  1.0  0.1008
  H  H360  1  0.847700  0.693500  0.382000  1.0  0.1274
  H  H361  1  0.842300  0.723200  0.410300  1.0  0.1281
  H  H362  1  0.035400  0.658400  0.643100  1.0  0.1082
  H  H363  1  0.020100  0.669500  0.595500  1.0  0.1107
  H  H364  1  0.052700  0.641700  0.599900  1.0  0.131
  H  H365  1  0.089200  0.686500  0.677100  1.0  0.0963
  H  H366  1  0.174100  0.734400  0.614500  1.0  0.1443
  H  H367  1  0.191200  0.727100  0.536100  1.0  0.117
  H  H368  1  0.172100  0.698200  0.512200  1.0  0.1143
  H  H369  1  0.144300  0.728300  0.512500  1.0  0.1113
  H  H370  1  0.155100  0.707700  0.715800  1.0  0.0945
  H  H371  1  0.198700  0.709900  0.686500  1.0  0.1093
  H  H372  1  0.168100  0.738500  0.692900  1.0  0.0875
  H  H373  1  0.083500  0.622000  0.389400  1.0  0.0711
  H  H374  1  0.151800  0.608500  0.498900  1.0  0.1273
  H  H375  1  0.239200  0.512800  0.530300  1.0  0.0894
  H  H376  1  0.305500  0.585500  0.511100  1.0  0.0911
  H  H377  1  0.223000  0.622800  0.449200  1.0  0.0884
  H  H378  1  0.254800  0.630900  0.489400  1.0  0.1209
  H  H379  1  0.275000  0.618800  0.444200  1.0  0.0961
  H  H380  1  0.177400  0.499300  0.492200  1.0  0.122
  H  H381  1  0.144100  0.526800  0.495700  1.0  0.1246
  H  H382  1  0.162700  0.516800  0.448700  1.0  0.1133
  H  H383  1  0.318900  0.510800  0.546000  1.0  0.1073
  H  H384  1  0.348800  0.533100  0.518000  1.0  0.1093
  H  H385  1  0.331300  0.542800  0.565500  1.0  0.1098
  H  H386  1  0.103700  0.591300  0.234200  1.0  0.1057
  H  H387  1  0.038300  0.528200  0.303400  1.0  0.1068
  H  H388  1  0.138100  0.631300  0.276300  1.0  0.1138
  H  H389  1  0.175700  0.612500  0.300300  1.0  0.1103
  H  H390  1  0.139300  0.629400  0.328900  1.0  0.0869
  H  H391  1  0.055800  0.552500  0.398400  1.0  0.188
  H  H392  1  0.046200  0.521200  0.375300  1.0  0.0852
  H  H393  1  0.093700  0.528000  0.395400  1.0  0.0927
  H  H394  1  0.027100  0.532200  0.222100  1.0  0.1198
  H  H395  1  0.030700  0.565900  0.205500  1.0  0.1208
  H  H396  1  0.070400  0.543300  0.197100  1.0  0.1253
  H  H397  1  0.874200  0.640600  0.711000  1.0  0.1059
  H  H398  1  0.980000  0.630100  0.789000  1.0  0.0916
  H  H399  1  0.068600  0.721300  0.843100  1.0  0.0867
  H  H400  1  0.135300  0.662400  0.767100  1.0  0.1168
  H  H401  1  0.101100  0.628200  0.727600  1.0  0.1021
  H  H402  1  0.060400  0.639300  0.698500  1.0  0.1035
  H  H403  1  0.052200  0.618400  0.740200  1.0  0.1206
  H  H404  1  0.988300  0.725400  0.837900  1.0  0.1151
  H  H405  1  0.964700  0.694700  0.826100  1.0  0.1216
  H  H406  1  0.968400  0.720300  0.789800  1.0  0.1005
  H  H407  1  0.175100  0.694800  0.810000  1.0  0.1163
  H  H408  1  0.152500  0.702100  0.856400  1.0  0.1243
  H  H409  1  0.155500  0.727200  0.819200  1.0  0.1244
  H  H410  1  0.855800  0.665600  0.565100  1.0  0.0951
  H  H411  1  0.848700  0.743300  0.626100  1.0  0.0775
  H  H412  1  0.871900  0.750900  0.697200  1.0  0.1108
  H  H413  1  0.918600  0.735800  0.706800  1.0  0.1079
  H  H414  1  0.874900  0.722200  0.728100  1.0  0.1198
  H  H415  1  0.833700  0.707000  0.524500  1.0  0.1177
  H  H416  1  0.854000  0.738500  0.538100  1.0  0.1026
  H  H417  1  0.805600  0.729600  0.553900  1.0  0.092
  H  H418  1  0.921800  0.629000  0.646500  1.0  0.1078
  H  H419  1  0.923800  0.631300  0.594000  1.0  0.1121
  H  H420  1  0.879600  0.620700  0.617600  1.0  0.1242
  H  H421  1  0.851800  0.600800  0.732400  1.0  0.1354
  H  H422  1  0.890400  0.569300  0.988500  1.0  0.0981
  H  H423  1  0.993100  0.530800  0.933500  1.0  0.0899
  H  H424  1  0.007400  0.532900  0.857500  1.0  0.0832
  H  H425  1  0.987300  0.560900  0.832000  1.0  0.0961
  H  H426  1  0.964100  0.529100  0.828200  1.0  0.1047
  H  H427  1  0.836800  0.593500  0.949000  1.0  0.1002
  H  H428  1  0.825300  0.578600  0.902600  1.0  0.0982
  H  H429  1  0.853200  0.608800  0.904300  1.0  0.1092
  H  H430  1  0.988600  0.529700  0.011000  1.0  0.1217
  H  H431  1  0.938900  0.526500  0.027500  1.0  0.1155
  H  H432  1  0.964100  0.557500  0.032900  1.0  0.1288
  H  H433  1  0.762200  0.512400  0.691600  1.0  0.1081
  H  H434  1  0.692200  0.562200  0.777900  1.0  0.0919
  H  H435  1  0.868700  0.539500  0.723400  1.0  0.1101
  H  H436  1  0.843800  0.534500  0.677600  1.0  0.1251
  H  H437  1  0.848000  0.507700  0.712100  1.0  0.1087
  H  H438  1  0.687600  0.507000  0.688400  1.0  0.1074
  H  H439  1  0.660500  0.536700  0.698700  1.0  0.1152
  H  H440  1  0.662400  0.510600  0.734400  1.0  0.1142
  H  H441  1  0.787400  0.596000  0.826100  1.0  0.0916
  H  H442  1  0.744300  0.579900  0.844900  1.0  0.1097
  H  H443  1  0.739700  0.607000  0.811000  1.0  0.115
  H  H444  1  0.616400  0.399900  0.767800  1.0  0.1107
  H  H445  1  0.711700  0.396800  0.674800  1.0  0.113
  H  H446  1  0.812200  0.472600  0.623100  1.0  0.1256
  H  H447  1  0.871000  0.430500  0.723100  1.0  0.0699
  H  H448  1  0.773100  0.405100  0.772400  1.0  0.0798
  H  H449  1  0.819400  0.417700  0.789000  1.0  0.0813
  H  H450  1  0.817800  0.389500  0.757000  1.0  0.1033
  H  H451  1  0.735500  0.469900  0.612600  1.0  0.1027
  H  H452  1  0.709700  0.473400  0.658100  1.0  0.1226
  H  H453  1  0.710900  0.441900  0.633700  1.0  0.1036
  H  H454  1  0.877100  0.473100  0.617400  1.0  0.1016
  H  H455  1  0.902300  0.443500  0.632000  1.0  0.1281
  H  H456  1  0.907700  0.473200  0.660300  1.0  0.1285
  H  H457  1  0.714600  0.408400  0.893100  1.0  0.1079
  H  H458  1  0.729900  0.419500  0.845500  1.0  0.1123
  H  H459  1  0.697300  0.391700  0.849900  1.0  0.131
  H  H460  1  0.660800  0.436500  0.927100  1.0  0.0966
  H  H461  1  0.575900  0.484400  0.864500  1.0  0.1433
  H  H462  1  0.558800  0.477100  0.786100  1.0  0.1146
  H  H463  1  0.577900  0.448200  0.762200  1.0  0.1137
  H  H464  1  0.605700  0.478300  0.762500  1.0  0.1111
  H  H465  1  0.594900  0.457700  0.965800  1.0  0.0953
  H  H466  1  0.551300  0.459900  0.936500  1.0  0.1116
  H  H467  1  0.581900  0.488500  0.942900  1.0  0.0879
  H  H468  1  0.666500  0.372000  0.639400  1.0  0.0719
  H  H469  1  0.598200  0.358500  0.748900  1.0  0.1271
  H  H470  1  0.510800  0.262800  0.780300  1.0  0.0893
  H  H471  1  0.444500  0.335500  0.761100  1.0  0.091
  H  H472  1  0.527000  0.372800  0.699200  1.0  0.0885
  H  H473  1  0.495200  0.380900  0.739400  1.0  0.1213
  H  H474  1  0.475000  0.368800  0.694200  1.0  0.0967
  H  H475  1  0.572600  0.249300  0.742200  1.0  0.1224
  H  H476  1  0.605900  0.276800  0.745700  1.0  0.1232
  H  H477  1  0.587300  0.266800  0.698700  1.0  0.1132
  H  H478  1  0.431100  0.260800  0.796000  1.0  0.1082
  H  H479  1  0.401200  0.283100  0.768000  1.0  0.1084
  H  H480  1  0.418700  0.292800  0.815500  1.0  0.1098
  H  H481  1  0.646300  0.341300  0.484200  1.0  0.1059
  H  H482  1  0.711700  0.278200  0.553400  1.0  0.1088
  H  H483  1  0.611900  0.381300  0.526300  1.0  0.1114
  H  H484  1  0.574300  0.362500  0.550300  1.0  0.1129
  H  H485  1  0.610700  0.379400  0.578900  1.0  0.0866
  H  H486  1  0.694200  0.302500  0.648400  1.0  0.1876
  H  H487  1  0.703800  0.271200  0.625300  1.0  0.0853
  H  H488  1  0.656300  0.278000  0.645400  1.0  0.0917
  H  H489  1  0.722900  0.282200  0.472100  1.0  0.1209
  H  H490  1  0.719300  0.315900  0.455500  1.0  0.121
  H  H491  1  0.679600  0.293300  0.447100  1.0  0.1252
  H  H492  1  0.874200  0.140600  0.211000  1.0  0.1059
  H  H493  1  0.980000  0.130100  0.289000  1.0  0.0916
  H  H494  1  0.068600  0.221300  0.343100  1.0  0.0867
  H  H495  1  0.135300  0.162400  0.267100  1.0  0.1168
  H  H496  1  0.101100  0.128200  0.227600  1.0  0.1021
  H  H497  1  0.060400  0.139300  0.198500  1.0  0.1035
  H  H498  1  0.052200  0.118400  0.240200  1.0  0.1206
  H  H499  1  0.988300  0.225400  0.337900  1.0  0.1151
  H  H500  1  0.964700  0.194700  0.326100  1.0  0.1216
  H  H501  1  0.968400  0.220300  0.289800  1.0  0.1005
  H  H502  1  0.175100  0.194800  0.310000  1.0  0.1163
  H  H503  1  0.152500  0.202100  0.356400  1.0  0.1243
  H  H504  1  0.155500  0.227200  0.319200  1.0  0.1244
  H  H505  1  0.855800  0.165600  0.065100  1.0  0.0951
  H  H506  1  0.848700  0.243300  0.126100  1.0  0.0775
  H  H507  1  0.871900  0.250900  0.197200  1.0  0.1108
  H  H508  1  0.918600  0.235800  0.206800  1.0  0.1079
  H  H509  1  0.874900  0.222200  0.228100  1.0  0.1198
  H  H510  1  0.833700  0.207000  0.024500  1.0  0.1177
  H  H511  1  0.854000  0.238500  0.038100  1.0  0.1026
  H  H512  1  0.805600  0.229600  0.053900  1.0  0.092
  H  H513  1  0.921800  0.129000  0.146500  1.0  0.1078
  H  H514  1  0.923800  0.131300  0.094000  1.0  0.1121
  H  H515  1  0.879600  0.120700  0.117600  1.0  0.1242
  H  H516  1  0.851800  0.100800  0.232400  1.0  0.1354
  H  H517  1  0.890400  0.069300  0.488500  1.0  0.0981
  H  H518  1  0.993100  0.030800  0.433500  1.0  0.0899
  H  H519  1  0.007400  0.032900  0.357500  1.0  0.0832
  H  H520  1  0.987300  0.060900  0.332000  1.0  0.0961
  H  H521  1  0.964100  0.029100  0.328200  1.0  0.1047
  H  H522  1  0.836800  0.093500  0.449000  1.0  0.1002
  H  H523  1  0.825300  0.078600  0.402600  1.0  0.0982
  H  H524  1  0.853200  0.108800  0.404300  1.0  0.1092
  H  H525  1  0.988600  0.029700  0.511000  1.0  0.1217
  H  H526  1  0.938900  0.026500  0.527500  1.0  0.1157
  H  H527  1  0.964100  0.057500  0.532900  1.0  0.1288
  H  H528  1  0.762200  0.012400  0.191600  1.0  0.1081
  H  H529  1  0.692200  0.062200  0.277900  1.0  0.0919
  H  H530  1  0.868700  0.039500  0.223400  1.0  0.1101
  H  H531  1  0.843800  0.034500  0.177600  1.0  0.1251
  H  H532  1  0.848000  0.007700  0.212100  1.0  0.1087
  H  H533  1  0.687600  0.007000  0.188400  1.0  0.1074
  H  H534  1  0.660500  0.036700  0.198700  1.0  0.1152
  H  H535  1  0.662400  0.010600  0.234400  1.0  0.1142
  H  H536  1  0.787400  0.096000  0.326100  1.0  0.0916
  H  H537  1  0.744300  0.079900  0.344900  1.0  0.1097
  H  H538  1  0.739700  0.107000  0.311000  1.0  0.115
  H  H539  1  0.616400  0.899900  0.267800  1.0  0.1107
  H  H540  1  0.711700  0.896800  0.174800  1.0  0.113
  H  H541  1  0.812200  0.972600  0.123100  1.0  0.1256
  H  H542  1  0.871000  0.930500  0.223100  1.0  0.0699
  H  H543  1  0.773100  0.905100  0.272400  1.0  0.0798
  H  H544  1  0.819400  0.917700  0.289000  1.0  0.0813
  H  H545  1  0.817800  0.889500  0.257000  1.0  0.1033
  H  H546  1  0.735500  0.969900  0.112600  1.0  0.1027
  H  H547  1  0.709700  0.973400  0.158100  1.0  0.1226
  H  H548  1  0.710900  0.941900  0.133700  1.0  0.1036
  H  H549  1  0.877100  0.973100  0.117400  1.0  0.1016
  H  H550  1  0.902300  0.943500  0.132000  1.0  0.1281
  H  H551  1  0.907700  0.973200  0.160300  1.0  0.1285
  H  H552  1  0.714600  0.908400  0.393100  1.0  0.1079
  H  H553  1  0.729900  0.919500  0.345500  1.0  0.1123
  H  H554  1  0.697300  0.891700  0.349900  1.0  0.131
  H  H555  1  0.660800  0.936500  0.427100  1.0  0.0966
  H  H556  1  0.575900  0.984400  0.364500  1.0  0.1433
  H  H557  1  0.558800  0.977100  0.286100  1.0  0.1146
  H  H558  1  0.577900  0.948200  0.262200  1.0  0.1137
  H  H559  1  0.605700  0.978300  0.262500  1.0  0.1111
  H  H560  1  0.594900  0.957700  0.465800  1.0  0.0953
  H  H561  1  0.551300  0.959900  0.436500  1.0  0.1116
  H  H562  1  0.581900  0.988500  0.442900  1.0  0.0879
  H  H563  1  0.666500  0.872000  0.139400  1.0  0.0719
  H  H564  1  0.598200  0.858500  0.248900  1.0  0.1271
  H  H565  1  0.510800  0.762800  0.280300  1.0  0.0893
  H  H566  1  0.444500  0.835500  0.261100  1.0  0.091
  H  H567  1  0.527000  0.872800  0.199200  1.0  0.0885
  H  H568  1  0.495200  0.880900  0.239400  1.0  0.1213
  H  H569  1  0.475000  0.868800  0.194200  1.0  0.0967
  H  H570  1  0.572600  0.749300  0.242200  1.0  0.1224
  H  H571  1  0.605900  0.776800  0.245700  1.0  0.1232
  H  H572  1  0.587300  0.766800  0.198700  1.0  0.1132
  H  H573  1  0.431100  0.760800  0.296000  1.0  0.1082
  H  H574  1  0.401200  0.783100  0.268000  1.0  0.1084
  H  H575  1  0.418700  0.792800  0.315500  1.0  0.1098
  H  H576  1  0.646300  0.841300  0.984200  1.0  0.1059
  H  H577  1  0.711700  0.778200  0.053400  1.0  0.1108
  H  H578  1  0.611900  0.881300  0.026300  1.0  0.1114
  H  H579  1  0.574300  0.862500  0.050300  1.0  0.1129
  H  H580  1  0.610700  0.879400  0.078900  1.0  0.0866
  H  H581  1  0.694200  0.802500  0.148400  1.0  0.1876
  H  H582  1  0.703800  0.771200  0.125300  1.0  0.0853
  H  H583  1  0.656300  0.778000  0.145400  1.0  0.0917
  H  H584  1  0.722900  0.782200  0.972100  1.0  0.1209
  H  H585  1  0.719300  0.815900  0.955500  1.0  0.121
  H  H586  1  0.679600  0.793300  0.947100  1.0  0.1252
  H  H587  1  0.374200  0.640600  0.211000  1.0  0.1059
  H  H588  1  0.480000  0.630100  0.289000  1.0  0.0916
  H  H589  1  0.568600  0.721300  0.343100  1.0  0.0867
  H  H590  1  0.635300  0.662400  0.267100  1.0  0.1168
  H  H591  1  0.601100  0.628200  0.227600  1.0  0.1021
  H  H592  1  0.560400  0.639300  0.198500  1.0  0.1035
  H  H593  1  0.552200  0.618400  0.240200  1.0  0.1206
  H  H594  1  0.488300  0.725400  0.337900  1.0  0.1151
  H  H595  1  0.464700  0.694700  0.326100  1.0  0.1216
  H  H596  1  0.468400  0.720300  0.289800  1.0  0.1005
  H  H597  1  0.675100  0.694800  0.310000  1.0  0.1163
  H  H598  1  0.652500  0.702100  0.356400  1.0  0.1243
  H  H599  1  0.655500  0.727200  0.319200  1.0  0.1244
  H  H600  1  0.355800  0.665600  0.065100  1.0  0.0951
  H  H601  1  0.348700  0.743300  0.126100  1.0  0.0775
  H  H602  1  0.371900  0.750900  0.197200  1.0  0.1108
  H  H603  1  0.418600  0.735800  0.206800  1.0  0.1079
  H  H604  1  0.374900  0.722200  0.228100  1.0  0.1198
  H  H605  1  0.333700  0.707000  0.024500  1.0  0.1177
  H  H606  1  0.354000  0.738500  0.038100  1.0  0.1026
  H  H607  1  0.305600  0.729600  0.053900  1.0  0.092
  H  H608  1  0.421800  0.629000  0.146500  1.0  0.1078
  H  H609  1  0.423800  0.631300  0.094000  1.0  0.1121
  H  H610  1  0.379600  0.620700  0.117600  1.0  0.1242
  H  H611  1  0.351800  0.600800  0.232400  1.0  0.1354
  H  H612  1  0.390400  0.569300  0.488500  1.0  0.0981
  H  H613  1  0.493100  0.530800  0.433500  1.0  0.0899
  H  H614  1  0.507400  0.532900  0.357500  1.0  0.0832
  H  H615  1  0.487300  0.560900  0.332000  1.0  0.0961
  H  H616  1  0.464100  0.529100  0.328200  1.0  0.1047
  H  H617  1  0.336800  0.593500  0.449000  1.0  0.1002
  H  H618  1  0.325300  0.578600  0.402600  1.0  0.0982
  H  H619  1  0.353200  0.608800  0.404300  1.0  0.1092
  H  H620  1  0.488600  0.529700  0.511000  1.0  0.1217
  H  H621  1  0.438900  0.526500  0.527500  1.0  0.1157
  H  H622  1  0.464100  0.557500  0.532900  1.0  0.1288
  H  H623  1  0.262200  0.512400  0.191600  1.0  0.1081
  H  H624  1  0.192200  0.562200  0.277900  1.0  0.0919
  H  H625  1  0.368700  0.539500  0.223400  1.0  0.1101
  H  H626  1  0.343800  0.534500  0.177600  1.0  0.1251
  H  H627  1  0.348000  0.507700  0.212100  1.0  0.1087
  H  H628  1  0.187600  0.507000  0.188400  1.0  0.1074
  H  H629  1  0.160500  0.536700  0.198700  1.0  0.1152
  H  H630  1  0.162400  0.510600  0.234400  1.0  0.1142
  H  H631  1  0.287400  0.596000  0.326100  1.0  0.0916
  H  H632  1  0.244300  0.579900  0.344900  1.0  0.1097
  H  H633  1  0.239700  0.607000  0.311000  1.0  0.115
  H  H634  1  0.116400  0.399900  0.267800  1.0  0.1107
  H  H635  1  0.211700  0.396800  0.174800  1.0  0.113
  H  H636  1  0.312200  0.472600  0.123100  1.0  0.1256
  H  H637  1  0.371000  0.430500  0.223100  1.0  0.0699
  H  H638  1  0.273100  0.405100  0.272400  1.0  0.0798
  H  H639  1  0.319400  0.417700  0.289000  1.0  0.0813
  H  H640  1  0.317800  0.389500  0.257000  1.0  0.1033
  H  H641  1  0.235500  0.469900  0.112600  1.0  0.1027
  H  H642  1  0.209700  0.473400  0.158100  1.0  0.1226
  H  H643  1  0.210900  0.441900  0.133700  1.0  0.1036
  H  H644  1  0.377100  0.473100  0.117400  1.0  0.1016
  H  H645  1  0.402300  0.443500  0.132000  1.0  0.1281
  H  H646  1  0.407700  0.473200  0.160300  1.0  0.1285
  H  H647  1  0.214600  0.408400  0.393100  1.0  0.1079
  H  H648  1  0.229900  0.419500  0.345500  1.0  0.1123
  H  H649  1  0.197300  0.391700  0.349900  1.0  0.131
  H  H650  1  0.160800  0.436500  0.427100  1.0  0.0966
  H  H651  1  0.075900  0.484400  0.364500  1.0  0.1433
  H  H652  1  0.058800  0.477100  0.286100  1.0  0.1146
  H  H653  1  0.077900  0.448200  0.262200  1.0  0.1137
  H  H654  1  0.105700  0.478300  0.262500  1.0  0.1111
  H  H655  1  0.094900  0.457700  0.465800  1.0  0.0953
  H  H656  1  0.051300  0.459900  0.436500  1.0  0.1116
  H  H657  1  0.081900  0.488500  0.442900  1.0  0.0879
  H  H658  1  0.166500  0.372000  0.139400  1.0  0.0719
  H  H659  1  0.098200  0.358500  0.248900  1.0  0.1271
  H  H660  1  0.010800  0.262800  0.280300  1.0  0.0893
  H  H661  1  0.944500  0.335500  0.261100  1.0  0.091
  H  H662  1  0.027000  0.372800  0.199200  1.0  0.0885
  H  H663  1  0.995200  0.380900  0.239400  1.0  0.1213
  H  H664  1  0.975000  0.368800  0.194200  1.0  0.0967
  H  H665  1  0.072600  0.249300  0.242200  1.0  0.1224
  H  H666  1  0.105900  0.276800  0.245700  1.0  0.1232
  H  H667  1  0.087300  0.266800  0.198700  1.0  0.1132
  H  H668  1  0.931100  0.260800  0.296000  1.0  0.1082
  H  H669  1  0.901200  0.283100  0.268000  1.0  0.1084
  H  H670  1  0.918700  0.292800  0.315500  1.0  0.1098
  H  H671  1  0.146300  0.341300  0.984200  1.0  0.1059
  H  H672  1  0.211700  0.278200  0.053400  1.0  0.1108
  H  H673  1  0.111900  0.381300  0.026300  1.0  0.1114
  H  H674  1  0.074300  0.362500  0.050300  1.0  0.1127
  H  H675  1  0.110700  0.379400  0.078900  1.0  0.0866
  H  H676  1  0.194200  0.302500  0.148400  1.0  0.1876
  H  H677  1  0.203800  0.271200  0.125300  1.0  0.0853
  H  H678  1  0.156300  0.278000  0.145400  1.0  0.0917
  H  H679  1  0.222900  0.282200  0.972100  1.0  0.1209
  H  H680  1  0.219300  0.315900  0.955500  1.0  0.121
  H  H681  1  0.179600  0.293300  0.947100  1.0  0.1252
  H  H682  1  0.374200  0.140600  0.711000  1.0  0.1059
  H  H683  1  0.480000  0.130100  0.789000  1.0  0.0916
  H  H684  1  0.568600  0.221300  0.843100  1.0  0.0867
  H  H685  1  0.635300  0.162400  0.767100  1.0  0.1168
  H  H686  1  0.601100  0.128200  0.727600  1.0  0.1021
  H  H687  1  0.560400  0.139300  0.698500  1.0  0.1035
  H  H688  1  0.552200  0.118400  0.740200  1.0  0.1206
  H  H689  1  0.488300  0.225400  0.837900  1.0  0.1151
  H  H690  1  0.464700  0.194700  0.826100  1.0  0.1216
  H  H691  1  0.468400  0.220300  0.789800  1.0  0.1005
  H  H692  1  0.675100  0.194800  0.810000  1.0  0.1163
  H  H693  1  0.652500  0.202100  0.856400  1.0  0.1243
  H  H694  1  0.655500  0.227200  0.819200  1.0  0.1244
  H  H695  1  0.355800  0.165600  0.565100  1.0  0.0951
  H  H696  1  0.348700  0.243300  0.626100  1.0  0.0775
  H  H697  1  0.371900  0.250900  0.697200  1.0  0.1108
  H  H698  1  0.418600  0.235800  0.706800  1.0  0.1079
  H  H699  1  0.374900  0.222200  0.728100  1.0  0.1198
  H  H700  1  0.333700  0.207000  0.524500  1.0  0.1177
  H  H701  1  0.354000  0.238500  0.538100  1.0  0.1026
  H  H702  1  0.305600  0.229600  0.553900  1.0  0.092
  H  H703  1  0.421800  0.129000  0.646500  1.0  0.1078
  H  H704  1  0.423800  0.131300  0.594000  1.0  0.1121
  H  H705  1  0.379600  0.120700  0.617600  1.0  0.1242
  H  H706  1  0.351800  0.100800  0.732400  1.0  0.1354
  H  H707  1  0.390400  0.069300  0.988500  1.0  0.0981
  H  H708  1  0.493100  0.030800  0.933500  1.0  0.0899
  H  H709  1  0.507400  0.032900  0.857500  1.0  0.0832
  H  H710  1  0.487300  0.060900  0.832000  1.0  0.0961
  H  H711  1  0.464100  0.029100  0.828200  1.0  0.1047
  H  H712  1  0.336800  0.093500  0.949000  1.0  0.1002
  H  H713  1  0.325300  0.078600  0.902600  1.0  0.0982
  H  H714  1  0.353200  0.108800  0.904300  1.0  0.1092
  H  H715  1  0.488600  0.029700  0.011000  1.0  0.1217
  H  H716  1  0.438900  0.026500  0.027500  1.0  0.1155
  H  H717  1  0.464100  0.057500  0.032900  1.0  0.1288
  H  H718  1  0.262200  0.012400  0.691600  1.0  0.1081
  H  H719  1  0.192200  0.062200  0.777900  1.0  0.0919
  H  H720  1  0.368700  0.039500  0.723400  1.0  0.1101
  H  H721  1  0.343800  0.034500  0.677600  1.0  0.1251
  H  H722  1  0.348000  0.007700  0.712100  1.0  0.1087
  H  H723  1  0.187600  0.007000  0.688400  1.0  0.1074
  H  H724  1  0.160500  0.036700  0.698700  1.0  0.1152
  H  H725  1  0.162400  0.010600  0.734400  1.0  0.1142
  H  H726  1  0.287400  0.096000  0.826100  1.0  0.0916
  H  H727  1  0.244300  0.079900  0.844900  1.0  0.1097
  H  H728  1  0.239700  0.107000  0.811000  1.0  0.115
  H  H729  1  0.116400  0.899900  0.767800  1.0  0.1107
  H  H730  1  0.211700  0.896800  0.674800  1.0  0.113
  H  H731  1  0.312200  0.972600  0.623100  1.0  0.1256
  H  H732  1  0.371000  0.930500  0.723100  1.0  0.0699
  H  H733  1  0.273100  0.905100  0.772400  1.0  0.0798
  H  H734  1  0.319400  0.917700  0.789000  1.0  0.0813
  H  H735  1  0.317800  0.889500  0.757000  1.0  0.1033
  H  H736  1  0.235500  0.969900  0.612600  1.0  0.1027
  H  H737  1  0.209700  0.973400  0.658100  1.0  0.1226
  H  H738  1  0.210900  0.941900  0.633700  1.0  0.1036
  H  H739  1  0.377100  0.973100  0.617400  1.0  0.1016
  H  H740  1  0.402300  0.943500  0.632000  1.0  0.1281
  H  H741  1  0.407700  0.973200  0.660300  1.0  0.1285
  H  H742  1  0.214600  0.908400  0.893100  1.0  0.1079
  H  H743  1  0.229900  0.919500  0.845500  1.0  0.1123
  H  H744  1  0.197300  0.891700  0.849900  1.0  0.131
  H  H745  1  0.160800  0.936500  0.927100  1.0  0.0966
  H  H746  1  0.075900  0.984400  0.864500  1.0  0.1433
  H  H747  1  0.058800  0.977100  0.786100  1.0  0.1146
  H  H748  1  0.077900  0.948200  0.762200  1.0  0.1137
  H  H749  1  0.105700  0.978300  0.762500  1.0  0.1111
  H  H750  1  0.094900  0.957700  0.965800  1.0  0.0953
  H  H751  1  0.051300  0.959900  0.936500  1.0  0.1116
  H  H752  1  0.081900  0.988500  0.942900  1.0  0.0879
  H  H753  1  0.166500  0.872000  0.639400  1.0  0.0719
  H  H754  1  0.098200  0.858500  0.748900  1.0  0.1271
  H  H755  1  0.010800  0.762800  0.780300  1.0  0.0893
  H  H756  1  0.944500  0.835500  0.761100  1.0  0.091
  H  H757  1  0.027000  0.872800  0.699200  1.0  0.0885
  H  H758  1  0.995200  0.880900  0.739400  1.0  0.1213
  H  H759  1  0.975000  0.868800  0.694200  1.0  0.0967
  H  H760  1  0.072600  0.749300  0.742200  1.0  0.1224
  H  H761  1  0.105900  0.776800  0.745700  1.0  0.1232
  H  H762  1  0.087300  0.766800  0.698700  1.0  0.1132
  H  H763  1  0.931100  0.760800  0.796000  1.0  0.1082
  H  H764  1  0.901200  0.783100  0.768000  1.0  0.1084
  H  H765  1  0.918700  0.792800  0.815500  1.0  0.1098
  H  H766  1  0.146300  0.841300  0.484200  1.0  0.1059
  H  H767  1  0.211700  0.778200  0.553400  1.0  0.1088
  H  H768  1  0.111900  0.881300  0.526300  1.0  0.1114
  H  H769  1  0.074300  0.862500  0.550300  1.0  0.1127
  H  H770  1  0.110700  0.879400  0.578900  1.0  0.0866
  H  H771  1  0.194200  0.802500  0.648400  1.0  0.1876
  H  H772  1  0.203800  0.771200  0.625300  1.0  0.0853
  H  H773  1  0.156300  0.778000  0.645400  1.0  0.0917
  H  H774  1  0.222900  0.782200  0.472100  1.0  0.1209
  H  H775  1  0.219300  0.815900  0.455500  1.0  0.121
  H  H776  1  0.179600  0.793300  0.447100  1.0  0.1252
  H  H777  1  0.624200  0.609400  0.461000  1.0  0.1072
  H  H778  1  0.730000  0.619900  0.539000  1.0  0.0914
  H  H779  1  0.818600  0.528700  0.593100  1.0  0.0872
  H  H780  1  0.885300  0.587600  0.517100  1.0  0.1167
  H  H781  1  0.851100  0.621800  0.477600  1.0  0.1019
  H  H782  1  0.810400  0.610700  0.448500  1.0  0.1051
  H  H783  1  0.802200  0.631600  0.490200  1.0  0.1201
  H  H784  1  0.738300  0.524600  0.587900  1.0  0.1145
  H  H785  1  0.714700  0.555300  0.576100  1.0  0.1211
  H  H786  1  0.718400  0.529700  0.539800  1.0  0.1014
  H  H787  1  0.925100  0.555200  0.560000  1.0  0.1164
  H  H788  1  0.902500  0.547900  0.606400  1.0  0.1243
  H  H789  1  0.905500  0.522800  0.569200  1.0  0.1231
  H  H790  1  0.605800  0.584400  0.315100  1.0  0.0952
  H  H791  1  0.598700  0.506700  0.376100  1.0  0.0774
  H  H792  1  0.621900  0.499100  0.447200  1.0  0.1108
  H  H793  1  0.668600  0.514200  0.456800  1.0  0.1082
  H  H794  1  0.624900  0.527800  0.478100  1.0  0.1191
  H  H795  1  0.583700  0.543000  0.274500  1.0  0.1098
  H  H796  1  0.604000  0.511500  0.288100  1.0  0.1017
  H  H797  1  0.555600  0.520400  0.303900  1.0  0.0917
  H  H798  1  0.671800  0.621000  0.396500  1.0  0.1071
  H  H799  1  0.673800  0.618700  0.344000  1.0  0.1115
  H  H800  1  0.629600  0.629300  0.367600  1.0  0.1242
  H  H801  1  0.601800  0.649200  0.482400  1.0  0.136
  H  H802  1  0.640400  0.680700  0.738500  1.0  0.0979
  H  H803  1  0.743100  0.719200  0.683500  1.0  0.0921
  H  H804  1  0.757400  0.717100  0.607500  1.0  0.0835
  H  H805  1  0.737300  0.689100  0.582000  1.0  0.0956
  H  H806  1  0.714100  0.720900  0.578200  1.0  0.1051
  H  H807  1  0.586800  0.656500  0.699000  1.0  0.1008
  H  H808  1  0.575300  0.671400  0.652600  1.0  0.0979
  H  H809  1  0.603200  0.641200  0.654300  1.0  0.1086
  H  H810  1  0.738600  0.720300  0.761000  1.0  0.1211
  H  H811  1  0.688900  0.723500  0.777500  1.0  0.1152
  H  H812  1  0.714100  0.692500  0.782900  1.0  0.1287
  H  H813  1  0.512200  0.737600  0.441600  1.0  0.1076
  H  H814  1  0.442200  0.687800  0.527900  1.0  0.092
  H  H815  1  0.618700  0.710500  0.473400  1.0  0.11
  H  H816  1  0.593800  0.715500  0.427600  1.0  0.1258
  H  H817  1  0.598000  0.742300  0.462100  1.0  0.1084
  H  H818  1  0.437600  0.743000  0.438400  1.0  0.108
  H  H819  1  0.410500  0.713300  0.448700  1.0  0.1143
  H  H820  1  0.412400  0.739400  0.484400  1.0  0.114
  H  H821  1  0.537400  0.654000  0.576100  1.0  0.0915
  H  H822  1  0.494300  0.670100  0.594900  1.0  0.1101
  H  H823  1  0.489700  0.643000  0.561000  1.0  0.1146
  H  H824  1  0.366400  0.850100  0.517800  1.0  0.1107
  H  H825  1  0.461700  0.853200  0.424800  1.0  0.1114
  H  H826  1  0.562200  0.777400  0.373100  1.0  0.1252
  H  H827  1  0.621000  0.819500  0.473100  1.0  0.07
  H  H828  1  0.523100  0.844900  0.522400  1.0  0.0792
  H  H829  1  0.569400  0.832300  0.539000  1.0  0.082
  H  H830  1  0.567800  0.860500  0.507000  1.0  0.1055
  H  H831  1  0.485500  0.780100  0.362600  1.0  0.1028
  H  H832  1  0.459700  0.776600  0.408100  1.0  0.1214
  H  H833  1  0.460900  0.808100  0.383700  1.0  0.1034
  H  H834  1  0.627100  0.776900  0.367400  1.0  0.1013
  H  H835  1  0.652300  0.806500  0.382000  1.0  0.1285
  H  H836  1  0.657700  0.776800  0.410300  1.0  0.1286
  H  H837  1  0.464600  0.841600  0.643100  1.0  0.1071
  H  H838  1  0.479900  0.830500  0.595500  1.0  0.1125
  H  H839  1  0.447300  0.858300  0.599900  1.0  0.1299
  H  H840  1  0.410800  0.813500  0.677100  1.0  0.0966
  H  H841  1  0.325900  0.765600  0.614500  1.0  0.1438
  H  H842  1  0.308800  0.772900  0.536100  1.0  0.1148
  H  H843  1  0.327900  0.801800  0.512200  1.0  0.1142
  H  H844  1  0.355700  0.771700  0.512500  1.0  0.1112
  H  H845  1  0.344900  0.792300  0.715800  1.0  0.0945
  H  H846  1  0.301300  0.790100  0.686500  1.0  0.1115
  H  H847  1  0.331900  0.761500  0.692900  1.0  0.0876
  H  H848  1  0.416500  0.878000  0.389400  1.0  0.072
  H  H849  1  0.348200  0.891500  0.498900  1.0  0.1267
  H  H850  1  0.260800  0.987200  0.530300  1.0  0.0893
  H  H851  1  0.194500  0.914500  0.511100  1.0  0.0909
  H  H852  1  0.277000  0.877200  0.449200  1.0  0.0886
  H  H853  1  0.245200  0.869100  0.489400  1.0  0.1208
  H  H854  1  0.225000  0.881200  0.444200  1.0  0.0964
  H  H855  1  0.322600  0.000700  0.492200  1.0  0.122
  H  H856  1  0.355900  0.973200  0.495700  1.0  0.1237
  H  H857  1  0.337300  0.983200  0.448700  1.0  0.1127
  H  H858  1  0.181100  0.989200  0.546000  1.0  0.1086
  H  H859  1  0.151200  0.966900  0.518000  1.0  0.1084
  H  H860  1  0.168700  0.957200  0.565500  1.0  0.1127
  H  H861  1  0.396300  0.908700  0.234200  1.0  0.1063
  H  H862  1  0.461700  0.971800  0.303400  1.0  0.1114
  H  H863  1  0.361900  0.868700  0.276300  1.0  0.1104
  H  H864  1  0.324300  0.887500  0.300300  1.0  0.1122
  H  H865  1  0.360700  0.870600  0.328900  1.0  0.0871
  H  H866  1  0.444200  0.947500  0.398400  1.0  0.1882
  H  H867  1  0.453800  0.978800  0.375300  1.0  0.086
  H  H868  1  0.406300  0.972000  0.395400  1.0  0.0914
  H  H869  1  0.472900  0.967800  0.222100  1.0  0.1202
  H  H870  1  0.469300  0.934100  0.205500  1.0  0.1227
  H  H871  1  0.429600  0.956700  0.197100  1.0  0.1262
  H  H872  1  0.624200  0.109400  0.961000  1.0  0.1072
  H  H873  1  0.730000  0.119900  0.039000  1.0  0.0914
  H  H874  1  0.818600  0.028700  0.093100  1.0  0.0872
  H  H875  1  0.885300  0.087600  0.017100  1.0  0.1167
  H  H876  1  0.851100  0.121800  0.977600  1.0  0.1019
  H  H877  1  0.810400  0.110700  0.948500  1.0  0.1051
  H  H878  1  0.802200  0.131600  0.990200  1.0  0.1201
  H  H879  1  0.738300  0.024600  0.087900  1.0  0.1145
  H  H880  1  0.714700  0.055300  0.076100  1.0  0.1211
  H  H881  1  0.718400  0.029700  0.039800  1.0  0.1014
  H  H882  1  0.925100  0.055200  0.060000  1.0  0.1164
  H  H883  1  0.902500  0.047900  0.106400  1.0  0.1243
  H  H884  1  0.905500  0.022800  0.069200  1.0  0.1231
  H  H885  1  0.605800  0.084400  0.815100  1.0  0.0952
  H  H886  1  0.598700  0.006700  0.876100  1.0  0.0774
  H  H887  1  0.621900  0.999100  0.947200  1.0  0.1108
  H  H888  1  0.668600  0.014200  0.956800  1.0  0.1082
  H  H889  1  0.624900  0.027800  0.978100  1.0  0.1191
  H  H890  1  0.583700  0.043000  0.774500  1.0  0.1098
  H  H891  1  0.604000  0.011500  0.788100  1.0  0.1017
  H  H892  1  0.555600  0.020400  0.803900  1.0  0.0917
  H  H893  1  0.671800  0.121000  0.896500  1.0  0.1071
  H  H894  1  0.673800  0.118700  0.844000  1.0  0.1115
  H  H895  1  0.629600  0.129300  0.867600  1.0  0.1242
  H  H896  1  0.601800  0.149200  0.982400  1.0  0.136
  H  H897  1  0.640400  0.180700  0.238500  1.0  0.0979
  H  H898  1  0.743100  0.219200  0.183500  1.0  0.0921
  H  H899  1  0.757400  0.217100  0.107500  1.0  0.0835
  H  H900  1  0.737300  0.189100  0.082000  1.0  0.0956
  H  H901  1  0.714100  0.220900  0.078200  1.0  0.1051
  H  H902  1  0.586800  0.156500  0.199000  1.0  0.1008
  H  H903  1  0.575300  0.171400  0.152600  1.0  0.0979
  H  H904  1  0.603200  0.141200  0.154300  1.0  0.1086
  H  H905  1  0.738600  0.220300  0.261000  1.0  0.1211
  H  H906  1  0.688900  0.223500  0.277500  1.0  0.1152
  H  H907  1  0.714100  0.192500  0.282900  1.0  0.1287
  H  H908  1  0.512200  0.237600  0.941600  1.0  0.1076
  H  H909  1  0.442200  0.187800  0.027900  1.0  0.092
  H  H910  1  0.618700  0.210500  0.973400  1.0  0.11
  H  H911  1  0.593800  0.215500  0.927600  1.0  0.1258
  H  H912  1  0.598000  0.242300  0.962100  1.0  0.1084
  H  H913  1  0.437600  0.243000  0.938400  1.0  0.108
  H  H914  1  0.410500  0.213300  0.948700  1.0  0.1143
  H  H915  1  0.412400  0.239400  0.984400  1.0  0.114
  H  H916  1  0.537400  0.154000  0.076100  1.0  0.0915
  H  H917  1  0.494300  0.170100  0.094900  1.0  0.1101
  H  H918  1  0.489700  0.143000  0.061000  1.0  0.1146
  H  H919  1  0.366400  0.350100  0.017800  1.0  0.1107
  H  H920  1  0.461700  0.353200  0.924800  1.0  0.1114
  H  H921  1  0.562200  0.277400  0.873100  1.0  0.1252
  H  H922  1  0.621000  0.319500  0.973100  1.0  0.07
  H  H923  1  0.523100  0.344900  0.022400  1.0  0.0792
  H  H924  1  0.569400  0.332300  0.039000  1.0  0.082
  H  H925  1  0.567800  0.360500  0.007000  1.0  0.1055
  H  H926  1  0.485500  0.280100  0.862600  1.0  0.1028
  H  H927  1  0.459700  0.276600  0.908100  1.0  0.1214
  H  H928  1  0.460900  0.308100  0.883700  1.0  0.1034
  H  H929  1  0.627100  0.276900  0.867400  1.0  0.1013
  H  H930  1  0.652300  0.306500  0.882000  1.0  0.1285
  H  H931  1  0.657700  0.276800  0.910300  1.0  0.1286
  H  H932  1  0.464600  0.341600  0.143100  1.0  0.1071
  H  H933  1  0.479900  0.330500  0.095500  1.0  0.1125
  H  H934  1  0.447300  0.358300  0.099900  1.0  0.1299
  H  H935  1  0.410800  0.313500  0.177100  1.0  0.0966
  H  H936  1  0.325900  0.265600  0.114500  1.0  0.1438
  H  H937  1  0.308800  0.272900  0.036100  1.0  0.1148
  H  H938  1  0.327900  0.301800  0.012200  1.0  0.1142
  H  H939  1  0.355700  0.271700  0.012500  1.0  0.1112
  H  H940  1  0.344900  0.292300  0.215800  1.0  0.0945
  H  H941  1  0.301300  0.290100  0.186500  1.0  0.1115
  H  H942  1  0.331900  0.261500  0.192900  1.0  0.0876
  H  H943  1  0.416500  0.378000  0.889400  1.0  0.072
  H  H944  1  0.348200  0.391500  0.998900  1.0  0.1267
  H  H945  1  0.260800  0.487200  0.030300  1.0  0.0893
  H  H946  1  0.194500  0.414500  0.011100  1.0  0.0909
  H  H947  1  0.277000  0.377200  0.949200  1.0  0.0886
  H  H948  1  0.245200  0.369100  0.989400  1.0  0.1208
  H  H949  1  0.225000  0.381200  0.944200  1.0  0.0963
  H  H950  1  0.322600  0.500700  0.992200  1.0  0.122
  H  H951  1  0.355900  0.473200  0.995700  1.0  0.1237
  H  H952  1  0.337300  0.483200  0.948700  1.0  0.1127
  H  H953  1  0.181100  0.489200  0.046000  1.0  0.1086
  H  H954  1  0.151200  0.466900  0.018000  1.0  0.1084
  H  H955  1  0.168700  0.457200  0.065500  1.0  0.1127
  H  H956  1  0.396300  0.408700  0.734200  1.0  0.1063
  H  H957  1  0.461700  0.471800  0.803400  1.0  0.1114
  H  H958  1  0.361900  0.368700  0.776300  1.0  0.1104
  H  H959  1  0.324300  0.387500  0.800300  1.0  0.1122
  H  H960  1  0.360700  0.370600  0.828900  1.0  0.0871
  H  H961  1  0.444200  0.447500  0.898400  1.0  0.1882
  H  H962  1  0.453800  0.478800  0.875300  1.0  0.086
  H  H963  1  0.406300  0.472000  0.895400  1.0  0.0914
  H  H964  1  0.472900  0.467800  0.722100  1.0  0.1202
  H  H965  1  0.469300  0.434100  0.705500  1.0  0.1227
  H  H966  1  0.429600  0.456700  0.697100  1.0  0.1262
  H  H967  1  0.124200  0.609400  0.961000  1.0  0.1072
  H  H968  1  0.230000  0.619900  0.039000  1.0  0.0914
  H  H969  1  0.318600  0.528700  0.093100  1.0  0.0872
  H  H970  1  0.385300  0.587600  0.017100  1.0  0.1167
  H  H971  1  0.351100  0.621800  0.977600  1.0  0.1019
  H  H972  1  0.310400  0.610700  0.948500  1.0  0.1051
  H  H973  1  0.302200  0.631600  0.990200  1.0  0.1201
  H  H974  1  0.238300  0.524600  0.087900  1.0  0.1145
  H  H975  1  0.214700  0.555300  0.076100  1.0  0.1211
  H  H976  1  0.218400  0.529700  0.039800  1.0  0.1014
  H  H977  1  0.425100  0.555200  0.060000  1.0  0.1164
  H  H978  1  0.402500  0.547900  0.106400  1.0  0.1243
  H  H979  1  0.405500  0.522800  0.069200  1.0  0.1231
  H  H980  1  0.105800  0.584400  0.815100  1.0  0.0952
  H  H981  1  0.098700  0.506700  0.876100  1.0  0.0774
  H  H982  1  0.121900  0.499100  0.947200  1.0  0.1108
  H  H983  1  0.168600  0.514200  0.956800  1.0  0.1082
  H  H984  1  0.124900  0.527800  0.978100  1.0  0.1191
  H  H985  1  0.083700  0.543000  0.774500  1.0  0.1098
  H  H986  1  0.104000  0.511500  0.788100  1.0  0.1017
  H  H987  1  0.055600  0.520400  0.803900  1.0  0.0917
  H  H988  1  0.171800  0.621000  0.896500  1.0  0.1071
  H  H989  1  0.173800  0.618700  0.844000  1.0  0.1115
  H  H990  1  0.129600  0.629300  0.867600  1.0  0.1242
  H  H991  1  0.101800  0.649200  0.982400  1.0  0.136
  H  H992  1  0.140400  0.680700  0.238500  1.0  0.0979
  H  H993  1  0.243100  0.719200  0.183500  1.0  0.0921
  H  H994  1  0.257400  0.717100  0.107500  1.0  0.0835
  H  H995  1  0.237300  0.689100  0.082000  1.0  0.0956
  H  H996  1  0.214100  0.720900  0.078200  1.0  0.1051
  H  H997  1  0.086800  0.656500  0.199000  1.0  0.1008
  H  H998  1  0.075300  0.671400  0.152600  1.0  0.0979
  H  H999  1  0.103200  0.641200  0.154300  1.0  0.1086
  H  H1000  1  0.238600  0.720300  0.261000  1.0  0.1211
  H  H1001  1  0.188900  0.723500  0.277500  1.0  0.1152
  H  H1002  1  0.214100  0.692500  0.282900  1.0  0.1287
  H  H1003  1  0.012200  0.737600  0.941600  1.0  0.1076
  H  H1004  1  0.942200  0.687800  0.027900  1.0  0.092
  H  H1005  1  0.118700  0.710500  0.973400  1.0  0.11
  H  H1006  1  0.093800  0.715500  0.927600  1.0  0.1258
  H  H1007  1  0.098000  0.742300  0.962100  1.0  0.1084
  H  H1008  1  0.937600  0.743000  0.938400  1.0  0.108
  H  H1009  1  0.910500  0.713300  0.948700  1.0  0.1137
  H  H1010  1  0.912400  0.739400  0.984400  1.0  0.114
  H  H1011  1  0.037400  0.654000  0.076100  1.0  0.0915
  H  H1012  1  0.994300  0.670100  0.094900  1.0  0.1101
  H  H1013  1  0.989700  0.643000  0.061000  1.0  0.1148
  H  H1014  1  0.866400  0.850100  0.017800  1.0  0.1107
  H  H1015  1  0.961700  0.853200  0.924800  1.0  0.1114
  H  H1016  1  0.062200  0.777400  0.873100  1.0  0.1256
  H  H1017  1  0.121000  0.819500  0.973100  1.0  0.07
  H  H1018  1  0.023100  0.844900  0.022400  1.0  0.0792
  H  H1019  1  0.069400  0.832300  0.039000  1.0  0.082
  H  H1020  1  0.067800  0.860500  0.007000  1.0  0.1055
  H  H1021  1  0.985500  0.780100  0.862600  1.0  0.1028
  H  H1022  1  0.959700  0.776600  0.908100  1.0  0.1214
  H  H1023  1  0.960900  0.808100  0.883700  1.0  0.1038
  H  H1024  1  0.127100  0.776900  0.867400  1.0  0.1013
  H  H1025  1  0.152300  0.806500  0.882000  1.0  0.1285
  H  H1026  1  0.157700  0.776800  0.910300  1.0  0.1286
  H  H1027  1  0.964600  0.841600  0.143100  1.0  0.1071
  H  H1028  1  0.979900  0.830500  0.095500  1.0  0.1125
  H  H1029  1  0.947300  0.858300  0.099900  1.0  0.1299
  H  H1030  1  0.910800  0.813500  0.177100  1.0  0.0966
  H  H1031  1  0.825900  0.765600  0.114500  1.0  0.1438
  H  H1032  1  0.808800  0.772900  0.036100  1.0  0.1148
  H  H1033  1  0.827900  0.801800  0.012200  1.0  0.1142
  H  H1034  1  0.855700  0.771700  0.012500  1.0  0.1112
  H  H1035  1  0.844900  0.792300  0.215800  1.0  0.0945
  H  H1036  1  0.801300  0.790100  0.186500  1.0  0.1115
  H  H1037  1  0.831900  0.761500  0.192900  1.0  0.0876
  H  H1038  1  0.916500  0.878000  0.889400  1.0  0.072
  H  H1039  1  0.848200  0.891500  0.998900  1.0  0.1267
  H  H1040  1  0.760800  0.987200  0.030300  1.0  0.0893
  H  H1041  1  0.694500  0.914500  0.011100  1.0  0.0909
  H  H1042  1  0.777000  0.877200  0.949200  1.0  0.0886
  H  H1043  1  0.745200  0.869100  0.989400  1.0  0.1208
  H  H1044  1  0.725000  0.881200  0.944200  1.0  0.0963
  H  H1045  1  0.822600  0.000700  0.992200  1.0  0.122
  H  H1046  1  0.855900  0.973200  0.995700  1.0  0.1237
  H  H1047  1  0.837300  0.983200  0.948700  1.0  0.1127
  H  H1048  1  0.681100  0.989200  0.046000  1.0  0.1086
  H  H1049  1  0.651200  0.966900  0.018000  1.0  0.1084
  H  H1050  1  0.668700  0.957200  0.065500  1.0  0.1127
  H  H1051  1  0.896300  0.908700  0.734200  1.0  0.1063
  H  H1052  1  0.961700  0.971800  0.803400  1.0  0.1114
  H  H1053  1  0.861900  0.868700  0.776300  1.0  0.1104
  H  H1054  1  0.824300  0.887500  0.800300  1.0  0.1122
  H  H1055  1  0.860700  0.870600  0.828900  1.0  0.0871
  H  H1056  1  0.944200  0.947500  0.898400  1.0  0.1882
  H  H1057  1  0.953800  0.978800  0.875300  1.0  0.086
  H  H1058  1  0.906300  0.972000  0.895400  1.0  0.0914
  H  H1059  1  0.972900  0.967800  0.722100  1.0  0.1202
  H  H1060  1  0.969300  0.934100  0.705500  1.0  0.1227
  H  H1061  1  0.929600  0.956700  0.697100  1.0  0.1262
  H  H1062  1  0.124200  0.109400  0.461000  1.0  0.1072
  H  H1063  1  0.230000  0.119900  0.539000  1.0  0.0914
  H  H1064  1  0.318600  0.028700  0.593100  1.0  0.0872
  H  H1065  1  0.385300  0.087600  0.517100  1.0  0.1167
  H  H1066  1  0.351100  0.121800  0.477600  1.0  0.1019
  H  H1067  1  0.310400  0.110700  0.448500  1.0  0.1051
  H  H1068  1  0.302200  0.131600  0.490200  1.0  0.1201
  H  H1069  1  0.238300  0.024600  0.587900  1.0  0.1145
  H  H1070  1  0.214700  0.055300  0.576100  1.0  0.1211
  H  H1071  1  0.218400  0.029700  0.539800  1.0  0.1014
  H  H1072  1  0.425100  0.055200  0.560000  1.0  0.1164
  H  H1073  1  0.402500  0.047900  0.606400  1.0  0.1243
  H  H1074  1  0.405500  0.022800  0.569200  1.0  0.1231
  H  H1075  1  0.105800  0.084400  0.315100  1.0  0.0952
  H  H1076  1  0.098700  0.006700  0.376100  1.0  0.0774
  H  H1077  1  0.121900  0.999100  0.447200  1.0  0.1108
  H  H1078  1  0.168600  0.014200  0.456800  1.0  0.1082
  H  H1079  1  0.124900  0.027800  0.478100  1.0  0.1191
  H  H1080  1  0.083700  0.043000  0.274500  1.0  0.1098
  H  H1081  1  0.104000  0.011500  0.288100  1.0  0.1017
  H  H1082  1  0.055600  0.020400  0.303900  1.0  0.0917
  H  H1083  1  0.171800  0.121000  0.396500  1.0  0.1071
  H  H1084  1  0.173800  0.118700  0.344000  1.0  0.1115
  H  H1085  1  0.129600  0.129300  0.367600  1.0  0.1242
  H  H1086  1  0.101800  0.149200  0.482400  1.0  0.136
  H  H1087  1  0.140400  0.180700  0.738500  1.0  0.0979
  H  H1088  1  0.243100  0.219200  0.683500  1.0  0.0921
  H  H1089  1  0.257400  0.217100  0.607500  1.0  0.0835
  H  H1090  1  0.237300  0.189100  0.582000  1.0  0.0956
  H  H1091  1  0.214100  0.220900  0.578200  1.0  0.1051
  H  H1092  1  0.086800  0.156500  0.699000  1.0  0.1008
  H  H1093  1  0.075300  0.171400  0.652600  1.0  0.0979
  H  H1094  1  0.103200  0.141200  0.654300  1.0  0.1086
  H  H1095  1  0.238600  0.220300  0.761000  1.0  0.1211
  H  H1096  1  0.188900  0.223500  0.777500  1.0  0.1152
  H  H1097  1  0.214100  0.192500  0.782900  1.0  0.1287
  H  H1098  1  0.012200  0.237600  0.441600  1.0  0.1076
  H  H1099  1  0.942200  0.187800  0.527900  1.0  0.092
  H  H1100  1  0.118700  0.210500  0.473400  1.0  0.11
  H  H1101  1  0.093800  0.215500  0.427600  1.0  0.1258
  H  H1102  1  0.098000  0.242300  0.462100  1.0  0.1084
  H  H1103  1  0.937600  0.243000  0.438400  1.0  0.108
  H  H1104  1  0.910500  0.213300  0.448700  1.0  0.1137
  H  H1105  1  0.912400  0.239400  0.484400  1.0  0.114
  H  H1106  1  0.037400  0.154000  0.576100  1.0  0.0915
  H  H1107  1  0.994300  0.170100  0.594900  1.0  0.1101
  H  H1108  1  0.989700  0.143000  0.561000  1.0  0.1148
  H  H1109  1  0.866400  0.350100  0.517800  1.0  0.1107
  H  H1110  1  0.961700  0.353200  0.424800  1.0  0.1114
  H  H1111  1  0.062200  0.277400  0.373100  1.0  0.1256
  H  H1112  1  0.121000  0.319500  0.473100  1.0  0.07
  H  H1113  1  0.023100  0.344900  0.522400  1.0  0.0792
  H  H1114  1  0.069400  0.332300  0.539000  1.0  0.082
  H  H1115  1  0.067800  0.360500  0.507000  1.0  0.1055
  H  H1116  1  0.985500  0.280100  0.362600  1.0  0.1028
  H  H1117  1  0.959700  0.276600  0.408100  1.0  0.1214
  H  H1118  1  0.960900  0.308100  0.383700  1.0  0.1038
  H  H1119  1  0.127100  0.276900  0.367400  1.0  0.1013
  H  H1120  1  0.152300  0.306500  0.382000  1.0  0.1285
  H  H1121  1  0.157700  0.276800  0.410300  1.0  0.1286
  H  H1122  1  0.964600  0.341600  0.643100  1.0  0.1071
  H  H1123  1  0.979900  0.330500  0.595500  1.0  0.1125
  H  H1124  1  0.947300  0.358300  0.599900  1.0  0.1299
  H  H1125  1  0.910800  0.313500  0.677100  1.0  0.0966
  H  H1126  1  0.825900  0.265600  0.614500  1.0  0.1438
  H  H1127  1  0.808800  0.272900  0.536100  1.0  0.1148
  H  H1128  1  0.827900  0.301800  0.512200  1.0  0.1142
  H  H1129  1  0.855700  0.271700  0.512500  1.0  0.1112
  H  H1130  1  0.844900  0.292300  0.715800  1.0  0.0945
  H  H1131  1  0.801300  0.290100  0.686500  1.0  0.1115
  H  H1132  1  0.831900  0.261500  0.692900  1.0  0.0876
  H  H1133  1  0.916500  0.378000  0.389400  1.0  0.072
  H  H1134  1  0.848200  0.391500  0.498900  1.0  0.1267
  H  H1135  1  0.760800  0.487200  0.530300  1.0  0.0893
  H  H1136  1  0.694500  0.414500  0.511100  1.0  0.0909
  H  H1137  1  0.777000  0.377200  0.449200  1.0  0.0886
  H  H1138  1  0.745200  0.369100  0.489400  1.0  0.1208
  H  H1139  1  0.725000  0.381200  0.444200  1.0  0.0964
  H  H1140  1  0.822600  0.500700  0.492200  1.0  0.122
  H  H1141  1  0.855900  0.473200  0.495700  1.0  0.1237
  H  H1142  1  0.837300  0.483200  0.448700  1.0  0.1127
  H  H1143  1  0.681100  0.489200  0.546000  1.0  0.1086
  H  H1144  1  0.651200  0.466900  0.518000  1.0  0.1084
  H  H1145  1  0.668700  0.457200  0.565500  1.0  0.1127
  H  H1146  1  0.896300  0.408700  0.234200  1.0  0.1063
  H  H1147  1  0.961700  0.471800  0.303400  1.0  0.1114
  H  H1148  1  0.861900  0.368700  0.276300  1.0  0.1104
  H  H1149  1  0.824300  0.387500  0.300300  1.0  0.1122
  H  H1150  1  0.860700  0.370600  0.328900  1.0  0.0871
  H  H1151  1  0.944200  0.447500  0.398400  1.0  0.1882
  H  H1152  1  0.953800  0.478800  0.375300  1.0  0.086
  H  H1153  1  0.906300  0.472000  0.395400  1.0  0.0914
  H  H1154  1  0.972900  0.467800  0.222100  1.0  0.1202
  H  H1155  1  0.969300  0.434100  0.205500  1.0  0.1227
  H  H1156  1  0.929600  0.456700  0.197100  1.0  0.1262
  H  H1157  1  0.625800  0.859400  0.711000  1.0  0.1078
  H  H1158  1  0.520000  0.869900  0.789000  1.0  0.0913
  H  H1159  1  0.431400  0.778700  0.843100  1.0  0.0873
  H  H1160  1  0.364700  0.837600  0.767100  1.0  0.1168
  H  H1161  1  0.398900  0.871800  0.727600  1.0  0.1014
  H  H1162  1  0.439600  0.860700  0.698500  1.0  0.1045
  H  H1163  1  0.447800  0.881600  0.740200  1.0  0.1201
  H  H1164  1  0.511700  0.774600  0.837900  1.0  0.114
  H  H1165  1  0.535300  0.805300  0.826100  1.0  0.1205
  H  H1166  1  0.531600  0.779700  0.789800  1.0  0.1012
  H  H1167  1  0.324900  0.805200  0.810000  1.0  0.1164
  H  H1168  1  0.347500  0.797900  0.856400  1.0  0.1253
  H  H1169  1  0.344500  0.772800  0.819200  1.0  0.122
  H  H1170  1  0.644200  0.834400  0.565100  1.0  0.0948
  H  H1171  1  0.651300  0.756700  0.626100  1.0  0.0774
  H  H1172  1  0.628100  0.749100  0.697200  1.0  0.1113
  H  H1173  1  0.581400  0.764200  0.706800  1.0  0.1085
  H  H1174  1  0.625100  0.777800  0.728100  1.0  0.1184
  H  H1175  1  0.666300  0.793000  0.524500  1.0  0.1101
  H  H1176  1  0.646000  0.761500  0.538100  1.0  0.102
  H  H1177  1  0.694400  0.770400  0.553900  1.0  0.0915
  H  H1178  1  0.578200  0.871000  0.646500  1.0  0.1075
  H  H1179  1  0.576200  0.868700  0.594000  1.0  0.1114
  H  H1180  1  0.620400  0.879300  0.617600  1.0  0.1251
  H  H1181  1  0.648200  0.899200  0.732400  1.0  0.1363
  H  H1182  1  0.609600  0.930700  0.988500  1.0  0.0994
  H  H1183  1  0.506900  0.969200  0.933500  1.0  0.0892
  H  H1184  1  0.492600  0.967100  0.857500  1.0  0.0845
  H  H1185  1  0.512700  0.939100  0.832000  1.0  0.0959
  H  H1186  1  0.535900  0.970900  0.828200  1.0  0.1049
  H  H1187  1  0.663200  0.906500  0.949000  1.0  0.1002
  H  H1188  1  0.674700  0.921400  0.902600  1.0  0.0974
  H  H1189  1  0.646800  0.891200  0.904300  1.0  0.1079
  H  H1190  1  0.511400  0.970300  0.011000  1.0  0.1227
  H  H1191  1  0.561100  0.973500  0.027500  1.0  0.1156
  H  H1192  1  0.535900  0.942500  0.032900  1.0  0.1293
  H  H1193  1  0.737800  0.987600  0.691600  1.0  0.1078
  H  H1194  1  0.807800  0.937800  0.777900  1.0  0.0917
  H  H1195  1  0.631300  0.960500  0.723400  1.0  0.1099
  H  H1196  1  0.656200  0.965500  0.677600  1.0  0.1243
  H  H1197  1  0.652000  0.992300  0.712100  1.0  0.1087
  H  H1198  1  0.812400  0.993000  0.688400  1.0  0.1069
  H  H1199  1  0.839500  0.963300  0.698700  1.0  0.115
  H  H1200  1  0.837600  0.989400  0.734400  1.0  0.1138
  H  H1201  1  0.712600  0.904000  0.826100  1.0  0.0906
  H  H1202  1  0.755700  0.920100  0.844900  1.0  0.1081
  H  H1203  1  0.760300  0.893000  0.811000  1.0  0.1135
  H  H1204  1  0.883600  0.100100  0.767800  1.0  0.1097
  H  H1205  1  0.788300  0.103200  0.674800  1.0  0.1117
  H  H1206  1  0.687800  0.027400  0.623100  1.0  0.124
  H  H1207  1  0.629000  0.069500  0.723100  1.0  0.0704
  H  H1208  1  0.726900  0.094900  0.772400  1.0  0.0815
  H  H1209  1  0.680600  0.082300  0.789000  1.0  0.0828
  H  H1210  1  0.682200  0.110500  0.757000  1.0  0.1053
  H  H1211  1  0.764500  0.030100  0.612600  1.0  0.102
  H  H1212  1  0.790300  0.026600  0.658100  1.0  0.1215
  H  H1213  1  0.789100  0.058100  0.633700  1.0  0.1022
  H  H1214  1  0.622900  0.026900  0.617400  1.0  0.1001
  H  H1215  1  0.597700  0.056500  0.632000  1.0  0.1282
  H  H1216  1  0.592300  0.026800  0.660300  1.0  0.1286
  H  H1217  1  0.785400  0.091600  0.893100  1.0  0.1077
  H  H1218  1  0.770100  0.080500  0.845500  1.0  0.1111
  H  H1219  1  0.802700  0.108300  0.849900  1.0  0.1302
  H  H1220  1  0.839200  0.063500  0.927100  1.0  0.0965
  H  H1221  1  0.924100  0.015600  0.864500  1.0  0.1446
  H  H1222  1  0.941200  0.022900  0.786100  1.0  0.1173
  H  H1223  1  0.922100  0.051800  0.762200  1.0  0.1143
  H  H1224  1  0.894300  0.021700  0.762500  1.0  0.1116
  H  H1225  1  0.905100  0.042300  0.965800  1.0  0.0944
  H  H1226  1  0.948700  0.040100  0.936500  1.0  0.1102
  H  H1227  1  0.918100  0.011500  0.942900  1.0  0.088
  H  H1228  1  0.833500  0.128000  0.639400  1.0  0.0715
  H  H1229  1  0.901800  0.141500  0.748900  1.0  0.1248
  H  H1230  1  0.989200  0.237200  0.780300  1.0  0.0889
  H  H1231  1  0.055500  0.164500  0.761100  1.0  0.091
  H  H1232  1  0.973000  0.127200  0.699200  1.0  0.0885
  H  H1233  1  0.004800  0.119100  0.739400  1.0  0.1208
  H  H1234  1  0.025000  0.131200  0.694200  1.0  0.096
  H  H1235  1  0.927400  0.250700  0.742200  1.0  0.122
  H  H1236  1  0.894100  0.223200  0.745700  1.0  0.1251
  H  H1237  1  0.912700  0.233200  0.698700  1.0  0.113
  H  H1238  1  0.068900  0.239200  0.796000  1.0  0.1068
  H  H1239  1  0.098800  0.216900  0.768000  1.0  0.1092
  H  H1240  1  0.081300  0.207200  0.815500  1.0  0.111
  H  H1241  1  0.853700  0.158700  0.484200  1.0  0.1061
  H  H1242  1  0.788300  0.221800  0.553400  1.0  0.1114
  H  H1243  1  0.888100  0.118700  0.526300  1.0  0.1129
  H  H1244  1  0.925700  0.137500  0.550300  1.0  0.1093
  H  H1245  1  0.889300  0.120600  0.578900  1.0  0.0873
  H  H1246  1  0.805800  0.197500  0.648400  1.0  0.1893
  H  H1247  1  0.796200  0.228800  0.625300  1.0  0.0857
  H  H1248  1  0.843700  0.222000  0.645400  1.0  0.0923
  H  H1249  1  0.777100  0.217800  0.472100  1.0  0.1202
  H  H1250  1  0.780700  0.184100  0.455500  1.0  0.121
  H  H1251  1  0.820400  0.206700  0.447100  1.0  0.1253
  H  H1252  1  0.625800  0.359400  0.211000  1.0  0.1078
  H  H1253  1  0.520000  0.369900  0.289000  1.0  0.0913
  H  H1254  1  0.431400  0.278700  0.343100  1.0  0.0873
  H  H1255  1  0.364700  0.337600  0.267100  1.0  0.1168
  H  H1256  1  0.398900  0.371800  0.227600  1.0  0.1014
  H  H1257  1  0.439600  0.360700  0.198500  1.0  0.1045
  H  H1258  1  0.447800  0.381600  0.240200  1.0  0.1201
  H  H1259  1  0.511700  0.274600  0.337900  1.0  0.114
  H  H1260  1  0.535300  0.305300  0.326100  1.0  0.1205
  H  H1261  1  0.531600  0.279700  0.289800  1.0  0.1012
  H  H1262  1  0.324900  0.305200  0.310000  1.0  0.1164
  H  H1263  1  0.347500  0.297900  0.356400  1.0  0.1253
  H  H1264  1  0.344500  0.272800  0.319200  1.0  0.122
  H  H1265  1  0.644200  0.334400  0.065100  1.0  0.0948
  H  H1266  1  0.651300  0.256700  0.126100  1.0  0.0774
  H  H1267  1  0.628100  0.249100  0.197200  1.0  0.1113
  H  H1268  1  0.581400  0.264200  0.206800  1.0  0.1085
  H  H1269  1  0.625100  0.277800  0.228100  1.0  0.1184
  H  H1270  1  0.666300  0.293000  0.024500  1.0  0.1101
  H  H1271  1  0.646000  0.261500  0.038100  1.0  0.102
  H  H1272  1  0.694400  0.270400  0.053900  1.0  0.0915
  H  H1273  1  0.578200  0.371000  0.146500  1.0  0.1075
  H  H1274  1  0.576200  0.368700  0.094000  1.0  0.1114
  H  H1275  1  0.620400  0.379300  0.117600  1.0  0.1251
  H  H1276  1  0.648200  0.399200  0.232400  1.0  0.1363
  H  H1277  1  0.609600  0.430700  0.488500  1.0  0.0994
  H  H1278  1  0.506900  0.469200  0.433500  1.0  0.0892
  H  H1279  1  0.492600  0.467100  0.357500  1.0  0.0845
  H  H1280  1  0.512700  0.439100  0.332000  1.0  0.0959
  H  H1281  1  0.535900  0.470900  0.328200  1.0  0.1049
  H  H1282  1  0.663200  0.406500  0.449000  1.0  0.1002
  H  H1283  1  0.674700  0.421400  0.402600  1.0  0.0974
  H  H1284  1  0.646800  0.391200  0.404300  1.0  0.1079
  H  H1285  1  0.511400  0.470300  0.511000  1.0  0.1227
  H  H1286  1  0.561100  0.473500  0.527500  1.0  0.1156
  H  H1287  1  0.535900  0.442500  0.532900  1.0  0.1293
  H  H1288  1  0.737800  0.487600  0.191600  1.0  0.1078
  H  H1289  1  0.807800  0.437800  0.277900  1.0  0.0917
  H  H1290  1  0.631300  0.460500  0.223400  1.0  0.1099
  H  H1291  1  0.656200  0.465500  0.177600  1.0  0.1243
  H  H1292  1  0.652000  0.492300  0.212100  1.0  0.1087
  H  H1293  1  0.812400  0.493000  0.188400  1.0  0.1069
  H  H1294  1  0.839500  0.463300  0.198700  1.0  0.115
  H  H1295  1  0.837600  0.489400  0.234400  1.0  0.1138
  H  H1296  1  0.712600  0.404000  0.326100  1.0  0.0906
  H  H1297  1  0.755700  0.420100  0.344900  1.0  0.1081
  H  H1298  1  0.760300  0.393000  0.311000  1.0  0.1135
  H  H1299  1  0.883600  0.600100  0.267800  1.0  0.1097
  H  H1300  1  0.788300  0.603200  0.174800  1.0  0.1117
  H  H1301  1  0.687800  0.527400  0.123100  1.0  0.124
  H  H1302  1  0.629000  0.569500  0.223100  1.0  0.0704
  H  H1303  1  0.726900  0.594900  0.272400  1.0  0.0815
  H  H1304  1  0.680600  0.582300  0.289000  1.0  0.0828
  H  H1305  1  0.682200  0.610500  0.257000  1.0  0.1053
  H  H1306  1  0.764500  0.530100  0.112600  1.0  0.102
  H  H1307  1  0.790300  0.526600  0.158100  1.0  0.1215
  H  H1308  1  0.789100  0.558100  0.133700  1.0  0.1022
  H  H1309  1  0.622900  0.526900  0.117400  1.0  0.1001
  H  H1310  1  0.597700  0.556500  0.132000  1.0  0.1282
  H  H1311  1  0.592300  0.526800  0.160300  1.0  0.1286
  H  H1312  1  0.785400  0.591600  0.393100  1.0  0.1077
  H  H1313  1  0.770100  0.580500  0.345500  1.0  0.1111
  H  H1314  1  0.802700  0.608300  0.349900  1.0  0.1302
  H  H1315  1  0.839200  0.563500  0.427100  1.0  0.0965
  H  H1316  1  0.924100  0.515600  0.364500  1.0  0.1446
  H  H1317  1  0.941200  0.522900  0.286100  1.0  0.1173
  H  H1318  1  0.922100  0.551800  0.262200  1.0  0.1143
  H  H1319  1  0.894300  0.521700  0.262500  1.0  0.1116
  H  H1320  1  0.905100  0.542300  0.465800  1.0  0.0944
  H  H1321  1  0.948700  0.540100  0.436500  1.0  0.1102
  H  H1322  1  0.918100  0.511500  0.442900  1.0  0.088
  H  H1323  1  0.833500  0.628000  0.139400  1.0  0.0715
  H  H1324  1  0.901800  0.641500  0.248900  1.0  0.1248
  H  H1325  1  0.989200  0.737200  0.280300  1.0  0.0889
  H  H1326  1  0.055500  0.664500  0.261100  1.0  0.091
  H  H1327  1  0.973000  0.627200  0.199200  1.0  0.0885
  H  H1328  1  0.004800  0.619100  0.239400  1.0  0.1208
  H  H1329  1  0.025000  0.631200  0.194200  1.0  0.096
  H  H1330  1  0.927400  0.750700  0.242200  1.0  0.122
  H  H1331  1  0.894100  0.723200  0.245700  1.0  0.1251
  H  H1332  1  0.912700  0.733200  0.198700  1.0  0.113
  H  H1333  1  0.068900  0.739200  0.296000  1.0  0.1068
  H  H1334  1  0.098800  0.716900  0.268000  1.0  0.1092
  H  H1335  1  0.081300  0.707200  0.315500  1.0  0.111
  H  H1336  1  0.853700  0.658700  0.984200  1.0  0.1061
  H  H1337  1  0.788300  0.721800  0.053400  1.0  0.1119
  H  H1338  1  0.888100  0.618700  0.026300  1.0  0.1129
  H  H1339  1  0.925700  0.637500  0.050300  1.0  0.1093
  H  H1340  1  0.889300  0.620600  0.078900  1.0  0.0873
  H  H1341  1  0.805800  0.697500  0.148400  1.0  0.1893
  H  H1342  1  0.796200  0.728800  0.125300  1.0  0.0857
  H  H1343  1  0.843700  0.722000  0.145400  1.0  0.0923
  H  H1344  1  0.777100  0.717800  0.972100  1.0  0.1202
  H  H1345  1  0.780700  0.684100  0.955500  1.0  0.1207
  H  H1346  1  0.820400  0.706700  0.947100  1.0  0.1253
  H  H1347  1  0.125800  0.859400  0.211000  1.0  0.1078
  H  H1348  1  0.020000  0.869900  0.289000  1.0  0.0913
  H  H1349  1  0.931400  0.778700  0.343100  1.0  0.0873
  H  H1350  1  0.864700  0.837600  0.267100  1.0  0.1168
  H  H1351  1  0.898900  0.871800  0.227600  1.0  0.1014
  H  H1352  1  0.939600  0.860700  0.198500  1.0  0.1045
  H  H1353  1  0.947800  0.881600  0.240200  1.0  0.1201
  H  H1354  1  0.011700  0.774600  0.337900  1.0  0.114
  H  H1355  1  0.035300  0.805300  0.326100  1.0  0.1205
  H  H1356  1  0.031600  0.779700  0.289800  1.0  0.1006
  H  H1357  1  0.824900  0.805200  0.310000  1.0  0.1164
  H  H1358  1  0.847500  0.797900  0.356400  1.0  0.1253
  H  H1359  1  0.844500  0.772800  0.319200  1.0  0.122
  H  H1360  1  0.144200  0.834400  0.065100  1.0  0.0948
  H  H1361  1  0.151300  0.756700  0.126100  1.0  0.0774
  H  H1362  1  0.128100  0.749100  0.197200  1.0  0.1113
  H  H1363  1  0.081400  0.764200  0.206800  1.0  0.1085
  H  H1364  1  0.125100  0.777800  0.228100  1.0  0.1184
  H  H1365  1  0.166300  0.793000  0.024500  1.0  0.1101
  H  H1366  1  0.146000  0.761500  0.038100  1.0  0.102
  H  H1367  1  0.194400  0.770400  0.053900  1.0  0.0915
  H  H1368  1  0.078200  0.871000  0.146500  1.0  0.1075
  H  H1369  1  0.076200  0.868700  0.094000  1.0  0.1114
  H  H1370  1  0.120400  0.879300  0.117600  1.0  0.1251
  H  H1371  1  0.148200  0.899200  0.232400  1.0  0.1363
  H  H1372  1  0.109600  0.930700  0.488500  1.0  0.0994
  H  H1373  1  0.006900  0.969200  0.433500  1.0  0.0892
  H  H1374  1  0.992600  0.967100  0.357500  1.0  0.0845
  H  H1375  1  0.012700  0.939100  0.332000  1.0  0.0959
  H  H1376  1  0.035900  0.970900  0.328200  1.0  0.1049
  H  H1377  1  0.163200  0.906500  0.449000  1.0  0.1002
  H  H1378  1  0.174700  0.921400  0.402600  1.0  0.0974
  H  H1379  1  0.146800  0.891200  0.404300  1.0  0.1079
  H  H1380  1  0.011400  0.970300  0.511000  1.0  0.1227
  H  H1381  1  0.061100  0.973500  0.527500  1.0  0.1156
  H  H1382  1  0.035900  0.942500  0.532900  1.0  0.1293
  H  H1383  1  0.237800  0.987600  0.191600  1.0  0.1078
  H  H1384  1  0.307800  0.937800  0.277900  1.0  0.0917
  H  H1385  1  0.131300  0.960500  0.223400  1.0  0.1099
  H  H1386  1  0.156200  0.965500  0.177600  1.0  0.1243
  H  H1387  1  0.152000  0.992300  0.212100  1.0  0.1087
  H  H1388  1  0.312400  0.993000  0.188400  1.0  0.1069
  H  H1389  1  0.339500  0.963300  0.198700  1.0  0.115
  H  H1390  1  0.337600  0.989400  0.234400  1.0  0.1138
  H  H1391  1  0.212600  0.904000  0.326100  1.0  0.0906
  H  H1392  1  0.255700  0.920100  0.344900  1.0  0.1081
  H  H1393  1  0.260300  0.893000  0.311000  1.0  0.1135
  H  H1394  1  0.383600  0.100100  0.267800  1.0  0.1097
  H  H1395  1  0.288300  0.103200  0.174800  1.0  0.1117
  H  H1396  1  0.187800  0.027400  0.123100  1.0  0.124
  H  H1397  1  0.129000  0.069500  0.223100  1.0  0.0704
  H  H1398  1  0.226900  0.094900  0.272400  1.0  0.0815
  H  H1399  1  0.180600  0.082300  0.289000  1.0  0.0828
  H  H1400  1  0.182200  0.110500  0.257000  1.0  0.1053
  H  H1401  1  0.264500  0.030100  0.112600  1.0  0.102
  H  H1402  1  0.290300  0.026600  0.158100  1.0  0.1215
  H  H1403  1  0.289100  0.058100  0.133700  1.0  0.1022
  H  H1404  1  0.122900  0.026900  0.117400  1.0  0.1001
  H  H1405  1  0.097700  0.056500  0.132000  1.0  0.1282
  H  H1406  1  0.092300  0.026800  0.160300  1.0  0.1286
  H  H1407  1  0.285400  0.091600  0.393100  1.0  0.1077
  H  H1408  1  0.270100  0.080500  0.345500  1.0  0.1111
  H  H1409  1  0.302700  0.108300  0.349900  1.0  0.1302
  H  H1410  1  0.339200  0.063500  0.427100  1.0  0.0965
  H  H1411  1  0.424100  0.015600  0.364500  1.0  0.1446
  H  H1412  1  0.441200  0.022900  0.286100  1.0  0.1173
  H  H1413  1  0.422100  0.051800  0.262200  1.0  0.1143
  H  H1414  1  0.394300  0.021700  0.262500  1.0  0.1116
  H  H1415  1  0.405100  0.042300  0.465800  1.0  0.0944
  H  H1416  1  0.448700  0.040100  0.436500  1.0  0.1102
  H  H1417  1  0.418100  0.011500  0.442900  1.0  0.088
  H  H1418  1  0.333500  0.128000  0.139400  1.0  0.0715
  H  H1419  1  0.401800  0.141500  0.248900  1.0  0.1248
  H  H1420  1  0.489200  0.237200  0.280300  1.0  0.0889
  H  H1421  1  0.555500  0.164500  0.261100  1.0  0.091
  H  H1422  1  0.473000  0.127200  0.199200  1.0  0.0885
  H  H1423  1  0.504800  0.119100  0.239400  1.0  0.1208
  H  H1424  1  0.525000  0.131200  0.194200  1.0  0.096
  H  H1425  1  0.427400  0.250700  0.242200  1.0  0.122
  H  H1426  1  0.394100  0.223200  0.245700  1.0  0.1251
  H  H1427  1  0.412700  0.233200  0.198700  1.0  0.113
  H  H1428  1  0.568900  0.239200  0.296000  1.0  0.1068
  H  H1429  1  0.598800  0.216900  0.268000  1.0  0.1092
  H  H1430  1  0.581300  0.207200  0.315500  1.0  0.111
  H  H1431  1  0.353700  0.158700  0.984200  1.0  0.1061
  H  H1432  1  0.288300  0.221800  0.053400  1.0  0.1119
  H  H1433  1  0.388100  0.118700  0.026300  1.0  0.1129
  H  H1434  1  0.425700  0.137500  0.050300  1.0  0.1093
  H  H1435  1  0.389300  0.120600  0.078900  1.0  0.0873
  H  H1436  1  0.305800  0.197500  0.148400  1.0  0.1893
  H  H1437  1  0.296200  0.228800  0.125300  1.0  0.0857
  H  H1438  1  0.343700  0.222000  0.145400  1.0  0.0923
  H  H1439  1  0.277100  0.217800  0.972100  1.0  0.1202
  H  H1440  1  0.280700  0.184100  0.955500  1.0  0.1207
  H  H1441  1  0.320400  0.206700  0.947100  1.0  0.1253
  H  H1442  1  0.125800  0.359400  0.711000  1.0  0.1078
  H  H1443  1  0.020000  0.369900  0.789000  1.0  0.0913
  H  H1444  1  0.931400  0.278700  0.843100  1.0  0.0873
  H  H1445  1  0.864700  0.337600  0.767100  1.0  0.1168
  H  H1446  1  0.898900  0.371800  0.727600  1.0  0.1014
  H  H1447  1  0.939600  0.360700  0.698500  1.0  0.1045
  H  H1448  1  0.947800  0.381600  0.740200  1.0  0.1201
  H  H1449  1  0.011700  0.274600  0.837900  1.0  0.114
  H  H1450  1  0.035300  0.305300  0.826100  1.0  0.1205
  H  H1451  1  0.031600  0.279700  0.789800  1.0  0.1006
  H  H1452  1  0.824900  0.305200  0.810000  1.0  0.1164
  H  H1453  1  0.847500  0.297900  0.856400  1.0  0.1253
  H  H1454  1  0.844500  0.272800  0.819200  1.0  0.122
  H  H1455  1  0.144200  0.334400  0.565100  1.0  0.0948
  H  H1456  1  0.151300  0.256700  0.626100  1.0  0.0774
  H  H1457  1  0.128100  0.249100  0.697200  1.0  0.1113
  H  H1458  1  0.081400  0.264200  0.706800  1.0  0.1085
  H  H1459  1  0.125100  0.277800  0.728100  1.0  0.1184
  H  H1460  1  0.166300  0.293000  0.524500  1.0  0.1101
  H  H1461  1  0.146000  0.261500  0.538100  1.0  0.102
  H  H1462  1  0.194400  0.270400  0.553900  1.0  0.0915
  H  H1463  1  0.078200  0.371000  0.646500  1.0  0.1075
  H  H1464  1  0.076200  0.368700  0.594000  1.0  0.1114
  H  H1465  1  0.120400  0.379300  0.617600  1.0  0.1251
  H  H1466  1  0.148200  0.399200  0.732400  1.0  0.1363
  H  H1467  1  0.109600  0.430700  0.988500  1.0  0.0994
  H  H1468  1  0.006900  0.469200  0.933500  1.0  0.0892
  H  H1469  1  0.992600  0.467100  0.857500  1.0  0.0845
  H  H1470  1  0.012700  0.439100  0.832000  1.0  0.0959
  H  H1471  1  0.035900  0.470900  0.828200  1.0  0.1049
  H  H1472  1  0.163200  0.406500  0.949000  1.0  0.1002
  H  H1473  1  0.174700  0.421400  0.902600  1.0  0.0974
  H  H1474  1  0.146800  0.391200  0.904300  1.0  0.1079
  H  H1475  1  0.011400  0.470300  0.011000  1.0  0.1227
  H  H1476  1  0.061100  0.473500  0.027500  1.0  0.1156
  H  H1477  1  0.035900  0.442500  0.032900  1.0  0.1293
  H  H1478  1  0.237800  0.487600  0.691600  1.0  0.1078
  H  H1479  1  0.307800  0.437800  0.777900  1.0  0.0917
  H  H1480  1  0.131300  0.460500  0.723400  1.0  0.1099
  H  H1481  1  0.156200  0.465500  0.677600  1.0  0.1243
  H  H1482  1  0.152000  0.492300  0.712100  1.0  0.1087
  H  H1483  1  0.312400  0.493000  0.688400  1.0  0.1069
  H  H1484  1  0.339500  0.463300  0.698700  1.0  0.115
  H  H1485  1  0.337600  0.489400  0.734400  1.0  0.1138
  H  H1486  1  0.212600  0.404000  0.826100  1.0  0.0906
  H  H1487  1  0.255700  0.420100  0.844900  1.0  0.1081
  H  H1488  1  0.260300  0.393000  0.811000  1.0  0.1135
  H  H1489  1  0.383600  0.600100  0.767800  1.0  0.1097
  H  H1490  1  0.288300  0.603200  0.674800  1.0  0.1117
  H  H1491  1  0.187800  0.527400  0.623100  1.0  0.124
  H  H1492  1  0.129000  0.569500  0.723100  1.0  0.0704
  H  H1493  1  0.226900  0.594900  0.772400  1.0  0.0815
  H  H1494  1  0.180600  0.582300  0.789000  1.0  0.0828
  H  H1495  1  0.182200  0.610500  0.757000  1.0  0.1053
  H  H1496  1  0.264500  0.530100  0.612600  1.0  0.102
  H  H1497  1  0.290300  0.526600  0.658100  1.0  0.1215
  H  H1498  1  0.289100  0.558100  0.633700  1.0  0.1022
  H  H1499  1  0.122900  0.526900  0.617400  1.0  0.1001
  H  H1500  1  0.097700  0.556500  0.632000  1.0  0.1282
  H  H1501  1  0.092300  0.526800  0.660300  1.0  0.1286
  H  H1502  1  0.285400  0.591600  0.893100  1.0  0.1077
  H  H1503  1  0.270100  0.580500  0.845500  1.0  0.1111
  H  H1504  1  0.302700  0.608300  0.849900  1.0  0.1302
  H  H1505  1  0.339200  0.563500  0.927100  1.0  0.0965
  H  H1506  1  0.424100  0.515600  0.864500  1.0  0.1446
  H  H1507  1  0.441200  0.522900  0.786100  1.0  0.1173
  H  H1508  1  0.422100  0.551800  0.762200  1.0  0.1143
  H  H1509  1  0.394300  0.521700  0.762500  1.0  0.1116
  H  H1510  1  0.405100  0.542300  0.965800  1.0  0.0944
  H  H1511  1  0.448700  0.540100  0.936500  1.0  0.1102
  H  H1512  1  0.418100  0.511500  0.942900  1.0  0.088
  H  H1513  1  0.333500  0.628000  0.639400  1.0  0.0715
  H  H1514  1  0.401800  0.641500  0.748900  1.0  0.1248
  H  H1515  1  0.489200  0.737200  0.780300  1.0  0.0889
  H  H1516  1  0.555500  0.664500  0.761100  1.0  0.091
  H  H1517  1  0.473000  0.627200  0.699200  1.0  0.0885
  H  H1518  1  0.504800  0.619100  0.739400  1.0  0.1208
  H  H1519  1  0.525000  0.631200  0.694200  1.0  0.096
  H  H1520  1  0.427400  0.750700  0.742200  1.0  0.122
  H  H1521  1  0.394100  0.723200  0.745700  1.0  0.1251
  H  H1522  1  0.412700  0.733200  0.698700  1.0  0.113
  H  H1523  1  0.568900  0.739200  0.796000  1.0  0.1068
  H  H1524  1  0.598800  0.716900  0.768000  1.0  0.1092
  H  H1525  1  0.581300  0.707200  0.815500  1.0  0.111
  H  H1526  1  0.353700  0.658700  0.484200  1.0  0.1061
  H  H1527  1  0.288300  0.721800  0.553400  1.0  0.1114
  H  H1528  1  0.388100  0.618700  0.526300  1.0  0.1129
  H  H1529  1  0.425700  0.637500  0.550300  1.0  0.1093
  H  H1530  1  0.389300  0.620600  0.578900  1.0  0.0873
  H  H1531  1  0.305800  0.697500  0.648400  1.0  0.1893
  H  H1532  1  0.296200  0.728800  0.625300  1.0  0.0857
  H  H1533  1  0.343700  0.722000  0.645400  1.0  0.0923
  H  H1534  1  0.277100  0.717800  0.472100  1.0  0.1202
  H  H1535  1  0.280700  0.684100  0.455500  1.0  0.121
  H  H1536  1  0.320400  0.706700  0.447100  1.0  0.1253
  C  C1537  1  0.257600  0.471000  0.415400  1.0  0.079
  C  C1538  1  0.286100  0.428900  0.463000  1.0  0.099
  C  C1539  1  0.328700  0.419700  0.449100  1.0  0.0383
  C  C1540  1  0.347400  0.397000  0.470100  1.0  -0.1324
  C  C1541  1  0.327400  0.382400  0.504100  1.0  -0.0075
  C  C1542  1  0.284700  0.391100  0.516700  1.0  -0.1059
  C  C1543  1  0.264100  0.414500  0.498000  1.0  -0.0023
  C  C1544  1  0.221300  0.425800  0.515500  1.0  0.0154
  C  C1545  1  0.223400  0.448100  0.549600  1.0  0.0027
  C  C1546  1  0.181400  0.457200  0.569900  1.0  -0.09
  C  C1547  1  0.143700  0.445800  0.556000  1.0  -0.0053
  C  C1548  1  0.141600  0.421500  0.525300  1.0  -0.1118
  C  C1549  1  0.184300  0.411900  0.507500  1.0  0.0272
  C  C1550  1  0.179800  0.384500  0.478400  1.0  -0.4058
  C  C1551  1  0.266800  0.460700  0.564700  1.0  -0.4321
  C  C1552  1  0.098400  0.455900  0.574600  1.0  -0.4335
  C  C1553  1  0.350800  0.434500  0.410200  1.0  0.0
  C  C1554  1  0.360400  0.415900  0.372400  1.0  0.0423
  C  C1555  1  0.384900  0.428100  0.338500  1.0  -0.1462
  C  C1556  1  0.396600  0.458900  0.337300  1.0  0.1212
  C  C1557  1  0.390500  0.473600  0.374400  1.0  -0.1095
  C  C1558  1  0.368700  0.461800  0.411700  1.0  0.0834
  C  C1559  1  0.362800  0.482000  0.452100  1.0  -0.3994
  C  C1560  1  0.414800  0.472100  0.297700  1.0  -0.3962
  C  C1561  1  0.344900  0.383900  0.369900  1.0  -0.4257
  C  C1562  1  0.349100  0.357000  0.527600  1.0  -0.0699
  C  C1563  1  0.387600  0.344300  0.510100  1.0  -0.1332
  C  C1564  1  0.409900  0.322700  0.533000  1.0  0.0187
  C  C1565  1  0.393500  0.311600  0.572100  1.0  0.1174
  C  C1566  1  0.354600  0.323100  0.590800  1.0  -0.0398
  C  C1567  1  0.334700  0.346000  0.568200  1.0  0.0684
  C  C1568  1  0.337600  0.313200  0.634200  1.0  -0.0347
  C  C1569  1  0.358600  0.321100  0.671300  1.0  -0.0446
  C  C1570  1  0.343100  0.313900  0.713200  1.0  -0.1456
  C  C1571  1  0.306600  0.300000  0.717200  1.0  0.0196
  C  C1572  1  0.283200  0.291900  0.679700  1.0  -0.1087
  C  C1573  1  0.296500  0.299400  0.635200  1.0  0.1551
  C  C1574  1  0.269800  0.292600  0.597800  1.0  -0.3867
  C  C1575  1  0.402500  0.339800  0.669100  1.0  -0.3888
  C  C1576  1  0.289600  0.290000  0.764100  1.0  -0.3972
  C  C1577  1  0.450000  0.288900  0.480700  1.0  0.0184
  C  C1578  1  0.488800  0.276700  0.464600  1.0  -0.1306
  C  C1579  1  0.528900  0.285300  0.482200  1.0  0.0417
  C  C1580  1  0.530400  0.306200  0.515800  1.0  -0.1649
  C  C1581  1  0.491600  0.318500  0.531900  1.0  0.0587
  C  C1582  1  0.451500  0.309800  0.514400  1.0  -0.0286
  C  C1583  1  0.405800  0.279300  0.458900  1.0  -0.3884
  C  C1584  1  0.571000  0.271100  0.461500  1.0  -0.3657
  C  C1585  1  0.492700  0.339600  0.569100  1.0  -0.4214
  C  C1586  1  0.445500  0.273800  0.605800  1.0  0.0319
  C  C1587  1  0.512000  0.227400  0.563500  1.0  0.0014
  C  C1588  1  0.544300  0.188300  0.512000  1.0  0.1485
  C  C1589  1  0.585000  0.178900  0.530200  1.0  0.0122
  C  C1590  1  0.606200  0.156800  0.506900  1.0  -0.1404
  C  C1591  1  0.590200  0.144100  0.468700  1.0  -0.0155
  C  C1592  1  0.550100  0.154900  0.451100  1.0  -0.1748
  C  C1593  1  0.528400  0.177500  0.472900  1.0  0.009
  C  C1594  1  0.484900  0.188000  0.454100  1.0  -0.0058
  C  C1595  1  0.480800  0.201900  0.415100  1.0  0.0747
  C  C1596  1  0.439600  0.210800  0.399000  1.0  -0.2123
  C  C1597  1  0.401800  0.202500  0.420500  1.0  0.0475
  C  C1598  1  0.405200  0.186300  0.458400  1.0  -0.1791
  C  C1599  1  0.444100  0.178300  0.475900  1.0  0.0648
  C  C1600  1  0.446100  0.158500  0.514300  1.0  -0.3623
  C  C1601  1  0.522400  0.210000  0.390200  1.0  -0.3892
  C  C1602  1  0.362700  0.211400  0.392600  1.0  -0.3997
  C  C1603  1  0.604700  0.190400  0.572900  1.0  0.0062
  C  C1604  1  0.584200  0.182200  0.610400  1.0  0.1017
  C  C1605  1  0.544500  0.161000  0.612400  1.0  -0.3557
  C  C1606  1  0.603100  0.191500  0.650100  1.0  -0.1897
  C  C1607  1  0.643400  0.208500  0.651100  1.0  0.2627
  C  C1608  1  0.654800  0.217800  0.614700  1.0  -0.0978
  C  C1609  1  0.642100  0.206200  0.572800  1.0  0.1268
  C  C1610  1  0.664500  0.215800  0.529400  1.0  -0.368
  C  C1611  1  0.668300  0.216800  0.689700  1.0  -0.3959
  C  C1612  1  0.613300  0.120000  0.445200  1.0  0.0489
  C  C1613  1  0.605600  0.111400  0.405100  1.0  -0.0917
  C  C1614  1  0.626200  0.088800  0.383100  1.0  -0.0198
  C  C1615  1  0.660400  0.073500  0.405000  1.0  0.1625
  C  C1616  1  0.671600  0.081800  0.447800  1.0  0.006
  C  C1617  1  0.646500  0.104100  0.468800  1.0  -0.1045
  C  C1618  1  0.708100  0.068600  0.472100  1.0  -0.0149
  C  C1619  1  0.707900  0.039700  0.485500  1.0  0.0801
  C  C1620  1  0.742800  0.030400  0.513300  1.0  -0.2093
  C  C1621  1  0.780900  0.045500  0.516500  1.0  0.0249
  C  C1622  1  0.780700  0.073600  0.504000  1.0  -0.1029
  C  C1623  1  0.746600  0.086700  0.481000  1.0  0.0661
  C  C1624  1  0.750100  0.117400  0.464600  1.0  -0.4149
  C  C1625  1  0.669700  0.018800  0.480100  1.0  -0.4072
  C  C1626  1  0.824200  0.031700  0.538700  1.0  -0.3546
  C  C1627  1  0.607100  0.078200  0.339800  1.0  -0.0185
  C  C1628  1  0.616700  0.091900  0.300000  1.0  0.0765
  C  C1629  1  0.597100  0.081900  0.261400  1.0  -0.1599
  C  C1630  1  0.567900  0.058200  0.262700  1.0  0.0489
  C  C1631  1  0.558300  0.044500  0.302500  1.0  -0.2245
  C  C1632  1  0.577900  0.054500  0.341000  1.0  0.0814
  C  C1633  1  0.644800  0.118500  0.301500  1.0  -0.3909
  C  C1634  1  0.567400  0.037600  0.380900  1.0  -0.2764
  C  C1635  1  0.547100  0.049100  0.217600  1.0  -0.3804
  C  C1636  1  0.705000  0.029700  0.377400  1.0  0.0809
  C  C1637  1  0.257600  0.971000  0.915400  1.0  0.079
  C  C1638  1  0.286100  0.928900  0.963000  1.0  0.0996
  C  C1639  1  0.328700  0.919700  0.949100  1.0  0.0383
  C  C1640  1  0.347400  0.897000  0.970100  1.0  -0.1324
  C  C1641  1  0.327400  0.882400  0.004100  1.0  -0.0075
  C  C1642  1  0.284700  0.891100  0.016700  1.0  -0.1059
  C  C1643  1  0.264100  0.914500  0.998000  1.0  -0.0023
  C  C1644  1  0.221300  0.925800  0.015500  1.0  0.0154
  C  C1645  1  0.223400  0.948100  0.049600  1.0  0.0027
  C  C1646  1  0.181400  0.957200  0.069900  1.0  -0.09
  C  C1647  1  0.143700  0.945800  0.056000  1.0  -0.0053
  C  C1648  1  0.141600  0.921500  0.025300  1.0  -0.1118
  C  C1649  1  0.184300  0.911900  0.007500  1.0  0.0272
  C  C1650  1  0.179800  0.884500  0.978400  1.0  -0.4058
  C  C1651  1  0.266800  0.960700  0.064700  1.0  -0.4321
  C  C1652  1  0.098400  0.955900  0.074600  1.0  -0.4335
  C  C1653  1  0.350800  0.934500  0.910200  1.0  0.0
  C  C1654  1  0.360400  0.915900  0.872400  1.0  0.0423
  C  C1655  1  0.384900  0.928100  0.838500  1.0  -0.1462
  C  C1656  1  0.396600  0.958900  0.837300  1.0  0.1212
  C  C1657  1  0.390500  0.973600  0.874400  1.0  -0.1095
  C  C1658  1  0.368700  0.961800  0.911700  1.0  0.0834
  C  C1659  1  0.362800  0.982000  0.952100  1.0  -0.3994
  C  C1660  1  0.414800  0.972100  0.797700  1.0  -0.3962
  C  C1661  1  0.344900  0.883900  0.869900  1.0  -0.4257
  C  C1662  1  0.349100  0.857000  0.027600  1.0  -0.0699
  C  C1663  1  0.387600  0.844300  0.010100  1.0  -0.1332
  C  C1664  1  0.409900  0.822700  0.033000  1.0  0.0187
  C  C1665  1  0.393500  0.811600  0.072100  1.0  0.1174
  C  C1666  1  0.354600  0.823100  0.090800  1.0  -0.0398
  C  C1667  1  0.334700  0.846000  0.068200  1.0  0.0684
  C  C1668  1  0.337600  0.813200  0.134200  1.0  -0.0347
  C  C1669  1  0.358600  0.821100  0.171300  1.0  -0.0446
  C  C1670  1  0.343100  0.813900  0.213200  1.0  -0.1456
  C  C1671  1  0.306600  0.800000  0.217200  1.0  0.0196
  C  C1672  1  0.283200  0.791900  0.179700  1.0  -0.1087
  C  C1673  1  0.296500  0.799400  0.135200  1.0  0.1551
  C  C1674  1  0.269800  0.792600  0.097800  1.0  -0.3867
  C  C1675  1  0.402500  0.839800  0.169100  1.0  -0.3888
  C  C1676  1  0.289600  0.790000  0.264100  1.0  -0.3972
  C  C1677  1  0.450000  0.788900  0.980700  1.0  0.0184
  C  C1678  1  0.488800  0.776700  0.964600  1.0  -0.1306
  C  C1679  1  0.528900  0.785300  0.982200  1.0  0.0417
  C  C1680  1  0.530400  0.806200  0.015800  1.0  -0.1649
  C  C1681  1  0.491600  0.818500  0.031900  1.0  0.0587
  C  C1682  1  0.451500  0.809800  0.014400  1.0  -0.0286
  C  C1683  1  0.405800  0.779300  0.958900  1.0  -0.3886
  C  C1684  1  0.571000  0.771100  0.961500  1.0  -0.3644
  C  C1685  1  0.492700  0.839600  0.069100  1.0  -0.4214
  C  C1686  1  0.445500  0.773800  0.105800  1.0  0.0319
  C  C1687  1  0.512000  0.727400  0.063500  1.0  0.0014
  C  C1688  1  0.544300  0.688300  0.012000  1.0  0.1485
  C  C1689  1  0.585000  0.678900  0.030200  1.0  0.0122
  C  C1690  1  0.606200  0.656800  0.006900  1.0  -0.1404
  C  C1691  1  0.590200  0.644100  0.968700  1.0  -0.0155
  C  C1692  1  0.550100  0.654900  0.951100  1.0  -0.1747
  C  C1693  1  0.528400  0.677500  0.972900  1.0  0.009
  C  C1694  1  0.484900  0.688000  0.954100  1.0  -0.0058
  C  C1695  1  0.480800  0.701900  0.915100  1.0  0.0747
  C  C1696  1  0.439600  0.710800  0.899000  1.0  -0.2123
  C  C1697  1  0.401800  0.702500  0.920500  1.0  0.0475
  C  C1698  1  0.405200  0.686300  0.958400  1.0  -0.1791
  C  C1699  1  0.444100  0.678300  0.975900  1.0  0.0648
  C  C1700  1  0.446100  0.658500  0.014300  1.0  -0.3623
  C  C1701  1  0.522400  0.710000  0.890200  1.0  -0.3892
  C  C1702  1  0.362700  0.711400  0.892600  1.0  -0.3997
  C  C1703  1  0.604700  0.690400  0.072900  1.0  0.0062
  C  C1704  1  0.584200  0.682200  0.110400  1.0  0.1017
  C  C1705  1  0.544500  0.661000  0.112400  1.0  -0.3557
  C  C1706  1  0.603100  0.691500  0.150100  1.0  -0.1897
  C  C1707  1  0.643400  0.708500  0.151100  1.0  0.2627
  C  C1708  1  0.654800  0.717800  0.114700  1.0  -0.0978
  C  C1709  1  0.642100  0.706200  0.072800  1.0  0.1268
  C  C1710  1  0.664500  0.715800  0.029400  1.0  -0.368
  C  C1711  1  0.668300  0.716800  0.189700  1.0  -0.3959
  C  C1712  1  0.613300  0.620000  0.945200  1.0  0.0489
  C  C1713  1  0.605600  0.611400  0.905100  1.0  -0.0917
  C  C1714  1  0.626200  0.588800  0.883100  1.0  -0.0198
  C  C1715  1  0.660400  0.573500  0.905000  1.0  0.1625
  C  C1716  1  0.671600  0.581800  0.947800  1.0  0.006
  C  C1717  1  0.646500  0.604100  0.968800  1.0  -0.1045
  C  C1718  1  0.708100  0.568600  0.972100  1.0  -0.0149
  C  C1719  1  0.707900  0.539700  0.985500  1.0  0.0801
  C  C1720  1  0.742800  0.530400  0.013300  1.0  -0.2093
  C  C1721  1  0.780900  0.545500  0.016500  1.0  0.0249
  C  C1722  1  0.780700  0.573600  0.004000  1.0  -0.1029
  C  C1723  1  0.746600  0.586700  0.981000  1.0  0.0661
  C  C1724  1  0.750100  0.617400  0.964600  1.0  -0.4149
  C  C1725  1  0.669700  0.518800  0.980100  1.0  -0.4072
  C  C1726  1  0.824200  0.531700  0.038700  1.0  -0.3546
  C  C1727  1  0.607100  0.578200  0.839800  1.0  -0.0185
  C  C1728  1  0.616700  0.591900  0.800000  1.0  0.0765
  C  C1729  1  0.597100  0.581900  0.761400  1.0  -0.1599
  C  C1730  1  0.567900  0.558200  0.762700  1.0  0.0489
  C  C1731  1  0.558300  0.544500  0.802500  1.0  -0.2245
  C  C1732  1  0.577900  0.554500  0.841000  1.0  0.0814
  C  C1733  1  0.644800  0.618500  0.801500  1.0  -0.3909
  C  C1734  1  0.567400  0.537600  0.880900  1.0  -0.2764
  C  C1735  1  0.547100  0.549100  0.717600  1.0  -0.3804
  C  C1736  1  0.705000  0.529700  0.877400  1.0  0.0809
  C  C1737  1  0.757600  0.471000  0.915400  1.0  0.079
  C  C1738  1  0.786100  0.428900  0.963000  1.0  0.0996
  C  C1739  1  0.828700  0.419700  0.949100  1.0  0.0383
  C  C1740  1  0.847400  0.397000  0.970100  1.0  -0.1324
  C  C1741  1  0.827400  0.382400  0.004100  1.0  -0.0075
  C  C1742  1  0.784700  0.391100  0.016700  1.0  -0.1059
  C  C1743  1  0.764100  0.414500  0.998000  1.0  -0.0023
  C  C1744  1  0.721300  0.425800  0.015500  1.0  0.0154
  C  C1745  1  0.723400  0.448100  0.049600  1.0  0.0027
  C  C1746  1  0.681400  0.457200  0.069900  1.0  -0.09
  C  C1747  1  0.643700  0.445800  0.056000  1.0  -0.0053
  C  C1748  1  0.641600  0.421500  0.025300  1.0  -0.1118
  C  C1749  1  0.684300  0.411900  0.007500  1.0  0.0272
  C  C1750  1  0.679800  0.384500  0.978400  1.0  -0.4058
  C  C1751  1  0.766800  0.460700  0.064700  1.0  -0.4321
  C  C1752  1  0.598400  0.455900  0.074600  1.0  -0.4335
  C  C1753  1  0.850800  0.434500  0.910200  1.0  0.0
  C  C1754  1  0.860400  0.415900  0.872400  1.0  0.0423
  C  C1755  1  0.884900  0.428100  0.838500  1.0  -0.1462
  C  C1756  1  0.896600  0.458900  0.837300  1.0  0.1212
  C  C1757  1  0.890500  0.473600  0.874400  1.0  -0.1095
  C  C1758  1  0.868700  0.461800  0.911700  1.0  0.0834
  C  C1759  1  0.862800  0.482000  0.952100  1.0  -0.3994
  C  C1760  1  0.914800  0.472100  0.797700  1.0  -0.3962
  C  C1761  1  0.844900  0.383900  0.869900  1.0  -0.4257
  C  C1762  1  0.849100  0.357000  0.027600  1.0  -0.0699
  C  C1763  1  0.887600  0.344300  0.010100  1.0  -0.1332
  C  C1764  1  0.909900  0.322700  0.033000  1.0  0.0187
  C  C1765  1  0.893500  0.311600  0.072100  1.0  0.1174
  C  C1766  1  0.854600  0.323100  0.090800  1.0  -0.0398
  C  C1767  1  0.834700  0.346000  0.068200  1.0  0.0684
  C  C1768  1  0.837600  0.313200  0.134200  1.0  -0.0347
  C  C1769  1  0.858600  0.321100  0.171300  1.0  -0.0446
  C  C1770  1  0.843100  0.313900  0.213200  1.0  -0.1456
  C  C1771  1  0.806600  0.300000  0.217200  1.0  0.0196
  C  C1772  1  0.783200  0.291900  0.179700  1.0  -0.1087
  C  C1773  1  0.796500  0.299400  0.135200  1.0  0.1551
  C  C1774  1  0.769800  0.292600  0.097800  1.0  -0.3867
  C  C1775  1  0.902500  0.339800  0.169100  1.0  -0.3888
  C  C1776  1  0.789600  0.290000  0.264100  1.0  -0.3972
  C  C1777  1  0.950000  0.288900  0.980700  1.0  0.0184
  C  C1778  1  0.988800  0.276700  0.964600  1.0  -0.1306
  C  C1779  1  0.028900  0.285300  0.982200  1.0  0.0417
  C  C1780  1  0.030400  0.306200  0.015800  1.0  -0.1649
  C  C1781  1  0.991600  0.318500  0.031900  1.0  0.0587
  C  C1782  1  0.951500  0.309800  0.014400  1.0  -0.0286
  C  C1783  1  0.905800  0.279300  0.958900  1.0  -0.3886
  C  C1784  1  0.071000  0.271100  0.961500  1.0  -0.3644
  C  C1785  1  0.992700  0.339600  0.069100  1.0  -0.4214
  C  C1786  1  0.945500  0.273800  0.105800  1.0  0.0313
  C  C1787  1  0.012000  0.227400  0.063500  1.0  0.0014
  C  C1788  1  0.044300  0.188300  0.012000  1.0  0.1485
  C  C1789  1  0.085000  0.178900  0.030200  1.0  0.0122
  C  C1790  1  0.106200  0.156800  0.006900  1.0  -0.1404
  C  C1791  1  0.090200  0.144100  0.968700  1.0  -0.0155
  C  C1792  1  0.050100  0.154900  0.951100  1.0  -0.1747
  C  C1793  1  0.028400  0.177500  0.972900  1.0  0.009
  C  C1794  1  0.984900  0.188000  0.954100  1.0  -0.0058
  C  C1795  1  0.980800  0.201900  0.915100  1.0  0.0747
  C  C1796  1  0.939600  0.210800  0.899000  1.0  -0.2123
  C  C1797  1  0.901800  0.202500  0.920500  1.0  0.0475
  C  C1798  1  0.905200  0.186300  0.958400  1.0  -0.1791
  C  C1799  1  0.944100  0.178300  0.975900  1.0  0.0648
  C  C1800  1  0.946100  0.158500  0.014300  1.0  -0.3623
  C  C1801  1  0.022400  0.210000  0.890200  1.0  -0.3892
  C  C1802  1  0.862700  0.211400  0.892600  1.0  -0.3997
  C  C1803  1  0.104700  0.190400  0.072900  1.0  0.0062
  C  C1804  1  0.084200  0.182200  0.110400  1.0  0.1017
  C  C1805  1  0.044500  0.161000  0.112400  1.0  -0.3557
  C  C1806  1  0.103100  0.191500  0.150100  1.0  -0.1897
  C  C1807  1  0.143400  0.208500  0.151100  1.0  0.2627
  C  C1808  1  0.154800  0.217800  0.114700  1.0  -0.0978
  C  C1809  1  0.142100  0.206200  0.072800  1.0  0.1268
  C  C1810  1  0.164500  0.215800  0.029400  1.0  -0.368
  C  C1811  1  0.168300  0.216800  0.189700  1.0  -0.3959
  C  C1812  1  0.113300  0.120000  0.945200  1.0  0.0489
  C  C1813  1  0.105600  0.111400  0.905100  1.0  -0.0917
  C  C1814  1  0.126200  0.088800  0.883100  1.0  -0.0198
  C  C1815  1  0.160400  0.073500  0.905000  1.0  0.1625
  C  C1816  1  0.171600  0.081800  0.947800  1.0  0.006
  C  C1817  1  0.146500  0.104100  0.968800  1.0  -0.1045
  C  C1818  1  0.208100  0.068600  0.972100  1.0  -0.0149
  C  C1819  1  0.207900  0.039700  0.985500  1.0  0.0801
  C  C1820  1  0.242800  0.030400  0.013300  1.0  -0.2093
  C  C1821  1  0.280900  0.045500  0.016500  1.0  0.0249
  C  C1822  1  0.280700  0.073600  0.004000  1.0  -0.1029
  C  C1823  1  0.246600  0.086700  0.981000  1.0  0.0661
  C  C1824  1  0.250100  0.117400  0.964600  1.0  -0.4149
  C  C1825  1  0.169700  0.018800  0.980100  1.0  -0.4072
  C  C1826  1  0.324200  0.031700  0.038700  1.0  -0.3546
  C  C1827  1  0.107100  0.078200  0.839800  1.0  -0.0185
  C  C1828  1  0.116700  0.091900  0.800000  1.0  0.0765
  C  C1829  1  0.097100  0.081900  0.761400  1.0  -0.1599
  C  C1830  1  0.067900  0.058200  0.762700  1.0  0.0489
  C  C1831  1  0.058300  0.044500  0.802500  1.0  -0.2245
  C  C1832  1  0.077900  0.054500  0.841000  1.0  0.0814
  C  C1833  1  0.144800  0.118500  0.801500  1.0  -0.3909
  C  C1834  1  0.067400  0.037600  0.880900  1.0  -0.2764
  C  C1835  1  0.047100  0.049100  0.717600  1.0  -0.3804
  C  C1836  1  0.205000  0.029700  0.877400  1.0  0.0809
  C  C1837  1  0.757600  0.971000  0.415400  1.0  0.079
  C  C1838  1  0.786100  0.928900  0.463000  1.0  0.099
  C  C1839  1  0.828700  0.919700  0.449100  1.0  0.0383
  C  C1840  1  0.847400  0.897000  0.470100  1.0  -0.1324
  C  C1841  1  0.827400  0.882400  0.504100  1.0  -0.0075
  C  C1842  1  0.784700  0.891100  0.516700  1.0  -0.1059
  C  C1843  1  0.764100  0.914500  0.498000  1.0  -0.0023
  C  C1844  1  0.721300  0.925800  0.515500  1.0  0.0154
  C  C1845  1  0.723400  0.948100  0.549600  1.0  0.0027
  C  C1846  1  0.681400  0.957200  0.569900  1.0  -0.09
  C  C1847  1  0.643700  0.945800  0.556000  1.0  -0.0053
  C  C1848  1  0.641600  0.921500  0.525300  1.0  -0.1118
  C  C1849  1  0.684300  0.911900  0.507500  1.0  0.0272
  C  C1850  1  0.679800  0.884500  0.478400  1.0  -0.4058
  C  C1851  1  0.766800  0.960700  0.564700  1.0  -0.4321
  C  C1852  1  0.598400  0.955900  0.574600  1.0  -0.4335
  C  C1853  1  0.850800  0.934500  0.410200  1.0  0.0
  C  C1854  1  0.860400  0.915900  0.372400  1.0  0.0423
  C  C1855  1  0.884900  0.928100  0.338500  1.0  -0.1462
  C  C1856  1  0.896600  0.958900  0.337300  1.0  0.1212
  C  C1857  1  0.890500  0.973600  0.374400  1.0  -0.1095
  C  C1858  1  0.868700  0.961800  0.411700  1.0  0.0834
  C  C1859  1  0.862800  0.982000  0.452100  1.0  -0.3994
  C  C1860  1  0.914800  0.972100  0.297700  1.0  -0.3962
  C  C1861  1  0.844900  0.883900  0.369900  1.0  -0.4257
  C  C1862  1  0.849100  0.857000  0.527600  1.0  -0.0699
  C  C1863  1  0.887600  0.844300  0.510100  1.0  -0.1332
  C  C1864  1  0.909900  0.822700  0.533000  1.0  0.0187
  C  C1865  1  0.893500  0.811600  0.572100  1.0  0.1174
  C  C1866  1  0.854600  0.823100  0.590800  1.0  -0.0398
  C  C1867  1  0.834700  0.846000  0.568200  1.0  0.0684
  C  C1868  1  0.837600  0.813200  0.634200  1.0  -0.0347
  C  C1869  1  0.858600  0.821100  0.671300  1.0  -0.0446
  C  C1870  1  0.843100  0.813900  0.713200  1.0  -0.1456
  C  C1871  1  0.806600  0.800000  0.717200  1.0  0.0196
  C  C1872  1  0.783200  0.791900  0.679700  1.0  -0.1087
  C  C1873  1  0.796500  0.799400  0.635200  1.0  0.1551
  C  C1874  1  0.769800  0.792600  0.597800  1.0  -0.3867
  C  C1875  1  0.902500  0.839800  0.669100  1.0  -0.3888
  C  C1876  1  0.789600  0.790000  0.764100  1.0  -0.3972
  C  C1877  1  0.950000  0.788900  0.480700  1.0  0.0184
  C  C1878  1  0.988800  0.776700  0.464600  1.0  -0.1306
  C  C1879  1  0.028900  0.785300  0.482200  1.0  0.0417
  C  C1880  1  0.030400  0.806200  0.515800  1.0  -0.1649
  C  C1881  1  0.991600  0.818500  0.531900  1.0  0.0587
  C  C1882  1  0.951500  0.809800  0.514400  1.0  -0.0286
  C  C1883  1  0.905800  0.779300  0.458900  1.0  -0.3884
  C  C1884  1  0.071000  0.771100  0.461500  1.0  -0.3653
  C  C1885  1  0.992700  0.839600  0.569100  1.0  -0.4214
  C  C1886  1  0.945500  0.773800  0.605800  1.0  0.0313
  C  C1887  1  0.012000  0.727400  0.563500  1.0  0.0014
  C  C1888  1  0.044300  0.688300  0.512000  1.0  0.1485
  C  C1889  1  0.085000  0.678900  0.530200  1.0  0.0122
  C  C1890  1  0.106200  0.656800  0.506900  1.0  -0.1404
  C  C1891  1  0.090200  0.644100  0.468700  1.0  -0.0155
  C  C1892  1  0.050100  0.654900  0.451100  1.0  -0.1747
  C  C1893  1  0.028400  0.677500  0.472900  1.0  0.009
  C  C1894  1  0.984900  0.688000  0.454100  1.0  -0.0058
  C  C1895  1  0.980800  0.701900  0.415100  1.0  0.0747
  C  C1896  1  0.939600  0.710800  0.399000  1.0  -0.2123
  C  C1897  1  0.901800  0.702500  0.420500  1.0  0.0475
  C  C1898  1  0.905200  0.686300  0.458400  1.0  -0.1791
  C  C1899  1  0.944100  0.678300  0.475900  1.0  0.0648
  C  C1900  1  0.946100  0.658500  0.514300  1.0  -0.3623
  C  C1901  1  0.022400  0.710000  0.390200  1.0  -0.3892
  C  C1902  1  0.862700  0.711400  0.392600  1.0  -0.3997
  C  C1903  1  0.104700  0.690400  0.572900  1.0  0.0062
  C  C1904  1  0.084200  0.682200  0.610400  1.0  0.1017
  C  C1905  1  0.044500  0.661000  0.612400  1.0  -0.3557
  C  C1906  1  0.103100  0.691500  0.650100  1.0  -0.1897
  C  C1907  1  0.143400  0.708500  0.651100  1.0  0.2627
  C  C1908  1  0.154800  0.717800  0.614700  1.0  -0.0978
  C  C1909  1  0.142100  0.706200  0.572800  1.0  0.1268
  C  C1910  1  0.164500  0.715800  0.529400  1.0  -0.368
  C  C1911  1  0.168300  0.716800  0.689700  1.0  -0.3959
  C  C1912  1  0.113300  0.620000  0.445200  1.0  0.0489
  C  C1913  1  0.105600  0.611400  0.405100  1.0  -0.0917
  C  C1914  1  0.126200  0.588800  0.383100  1.0  -0.0198
  C  C1915  1  0.160400  0.573500  0.405000  1.0  0.1625
  C  C1916  1  0.171600  0.581800  0.447800  1.0  0.006
  C  C1917  1  0.146500  0.604100  0.468800  1.0  -0.1045
  C  C1918  1  0.208100  0.568600  0.472100  1.0  -0.0149
  C  C1919  1  0.207900  0.539700  0.485500  1.0  0.0801
  C  C1920  1  0.242800  0.530400  0.513300  1.0  -0.2093
  C  C1921  1  0.280900  0.545500  0.516500  1.0  0.0249
  C  C1922  1  0.280700  0.573600  0.504000  1.0  -0.1029
  C  C1923  1  0.246600  0.586700  0.481000  1.0  0.0661
  C  C1924  1  0.250100  0.617400  0.464600  1.0  -0.4149
  C  C1925  1  0.169700  0.518800  0.480100  1.0  -0.407
  C  C1926  1  0.324200  0.531700  0.538700  1.0  -0.3546
  C  C1927  1  0.107100  0.578200  0.339800  1.0  -0.0185
  C  C1928  1  0.116700  0.591900  0.300000  1.0  0.0765
  C  C1929  1  0.097100  0.581900  0.261400  1.0  -0.1599
  C  C1930  1  0.067900  0.558200  0.262700  1.0  0.0489
  C  C1931  1  0.058300  0.544500  0.302500  1.0  -0.2245
  C  C1932  1  0.077900  0.554500  0.341000  1.0  0.0814
  C  C1933  1  0.144800  0.618500  0.301500  1.0  -0.3909
  C  C1934  1  0.067400  0.537600  0.380900  1.0  -0.2764
  C  C1935  1  0.047100  0.549100  0.217600  1.0  -0.3804
  C  C1936  1  0.205000  0.529700  0.377400  1.0  0.0809
  C  C1937  1  0.992400  0.721000  0.665400  1.0  0.0782
  C  C1938  1  0.963900  0.678900  0.713000  1.0  0.0973
  C  C1939  1  0.921300  0.669700  0.699100  1.0  0.0386
  C  C1940  1  0.902600  0.647000  0.720100  1.0  -0.1328
  C  C1941  1  0.922600  0.632400  0.754100  1.0  -0.0087
  C  C1942  1  0.965300  0.641100  0.766700  1.0  -0.1076
  C  C1943  1  0.985900  0.664500  0.748000  1.0  -0.0032
  C  C1944  1  0.028700  0.675800  0.765500  1.0  0.0155
  C  C1945  1  0.026600  0.698100  0.799600  1.0  0.0032
  C  C1946  1  0.068600  0.707200  0.819900  1.0  -0.0884
  C  C1947  1  0.106300  0.695800  0.806000  1.0  -0.0056
  C  C1948  1  0.108400  0.671500  0.775300  1.0  -0.1126
  C  C1949  1  0.065700  0.661900  0.757500  1.0  0.0264
  C  C1950  1  0.070200  0.634500  0.728400  1.0  -0.4037
  C  C1951  1  0.983200  0.710700  0.814700  1.0  -0.4304
  C  C1952  1  0.151600  0.705900  0.824600  1.0  -0.4345
  C  C1953  1  0.899200  0.684500  0.660200  1.0  -0.0007
  C  C1954  1  0.889600  0.665900  0.622400  1.0  0.0422
  C  C1955  1  0.865100  0.678100  0.588500  1.0  -0.1473
  C  C1956  1  0.853400  0.708900  0.587300  1.0  0.1223
  C  C1957  1  0.859500  0.723600  0.624400  1.0  -0.1197
  C  C1958  1  0.881300  0.711800  0.661700  1.0  0.083
  C  C1959  1  0.887200  0.732000  0.702100  1.0  -0.3993
  C  C1960  1  0.835200  0.722100  0.547700  1.0  -0.3968
  C  C1961  1  0.905100  0.633900  0.619900  1.0  -0.4258
  C  C1962  1  0.900900  0.607000  0.777600  1.0  -0.0704
  C  C1963  1  0.862400  0.594300  0.760100  1.0  -0.1347
  C  C1964  1  0.840100  0.572700  0.783000  1.0  0.0181
  C  C1965  1  0.856500  0.561600  0.822100  1.0  0.1171
  C  C1966  1  0.895400  0.573100  0.840800  1.0  -0.0397
  C  C1967  1  0.915300  0.596000  0.818200  1.0  0.0653
  C  C1968  1  0.912400  0.563200  0.884200  1.0  -0.0346
  C  C1969  1  0.891400  0.571100  0.921300  1.0  -0.0447
  C  C1970  1  0.906900  0.563900  0.963200  1.0  -0.1502
  C  C1971  1  0.943400  0.550000  0.967200  1.0  0.0213
  C  C1972  1  0.966800  0.541900  0.929700  1.0  -0.1089
  C  C1973  1  0.953500  0.549400  0.885200  1.0  0.1539
  C  C1974  1  0.980200  0.542600  0.847800  1.0  -0.3887
  C  C1975  1  0.847500  0.589800  0.919100  1.0  -0.3883
  C  C1976  1  0.960400  0.540000  0.014100  1.0  -0.3971
  C  C1977  1  0.800000  0.538900  0.730700  1.0  0.0184
  C  C1978  1  0.761200  0.526700  0.714600  1.0  -0.1306
  C  C1979  1  0.721100  0.535300  0.732200  1.0  0.0416
  C  C1980  1  0.719600  0.556200  0.765800  1.0  -0.1656
  C  C1981  1  0.758400  0.568500  0.781900  1.0  0.0594
  C  C1982  1  0.798500  0.559800  0.764400  1.0  -0.0287
  C  C1983  1  0.844200  0.529300  0.708900  1.0  -0.3903
  C  C1984  1  0.679000  0.521100  0.711500  1.0  -0.3648
  C  C1985  1  0.757300  0.589600  0.819100  1.0  -0.4221
  C  C1986  1  0.804500  0.523800  0.855800  1.0  0.0284
  C  C1987  1  0.738000  0.477400  0.813500  1.0  0.0012
  C  C1988  1  0.705700  0.438300  0.762000  1.0  0.1491
  C  C1989  1  0.665000  0.428900  0.780200  1.0  0.0115
  C  C1990  1  0.643800  0.406800  0.756900  1.0  -0.1404
  C  C1991  1  0.659800  0.394100  0.718700  1.0  -0.0161
  C  C1992  1  0.699900  0.404900  0.701100  1.0  -0.1738
  C  C1993  1  0.721600  0.427500  0.722900  1.0  0.0099
  C  C1994  1  0.765100  0.438000  0.704100  1.0  -0.0058
  C  C1995  1  0.769200  0.451900  0.665100  1.0  0.0757
  C  C1996  1  0.810400  0.460800  0.649000  1.0  -0.2129
  C  C1997  1  0.848200  0.452500  0.670500  1.0  0.04
  C  C1998  1  0.844800  0.436300  0.708400  1.0  -0.1795
  C  C1999  1  0.805900  0.428300  0.725900  1.0  0.0646
  C  C2000  1  0.803900  0.408500  0.764300  1.0  -0.3619
  C  C2001  1  0.727600  0.460000  0.640200  1.0  -0.3884
  C  C2002  1  0.887300  0.461400  0.642600  1.0  -0.3985
  C  C2003  1  0.645300  0.440400  0.822900  1.0  0.0055
  C  C2004  1  0.665800  0.432200  0.860400  1.0  0.1005
  C  C2005  1  0.705500  0.411000  0.862400  1.0  -0.3582
  C  C2006  1  0.646900  0.441500  0.900100  1.0  -0.1849
  C  C2007  1  0.606600  0.458500  0.901100  1.0  0.2626
  C  C2008  1  0.595200  0.467800  0.864700  1.0  -0.098
  C  C2009  1  0.607900  0.456200  0.822800  1.0  0.1269
  C  C2010  1  0.585500  0.465800  0.779400  1.0  -0.3662
  C  C2011  1  0.581700  0.466800  0.939700  1.0  -0.3944
  C  C2012  1  0.636700  0.370000  0.695200  1.0  0.0477
  C  C2013  1  0.644400  0.361400  0.655100  1.0  -0.0902
  C  C2014  1  0.623800  0.338800  0.633100  1.0  -0.0201
  C  C2015  1  0.589600  0.323500  0.655000  1.0  0.1632
  C  C2016  1  0.578400  0.331800  0.697800  1.0  0.0057
  C  C2017  1  0.603500  0.354100  0.718800  1.0  -0.1055
  C  C2018  1  0.541900  0.318600  0.722100  1.0  -0.0141
  C  C2019  1  0.542100  0.289700  0.735500  1.0  0.0797
  C  C2020  1  0.507200  0.280400  0.763300  1.0  -0.2106
  C  C2021  1  0.469100  0.295500  0.766500  1.0  0.0239
  C  C2022  1  0.469300  0.323600  0.754000  1.0  -0.1109
  C  C2023  1  0.503400  0.336700  0.731000  1.0  0.0658
  C  C2024  1  0.499900  0.367400  0.714600  1.0  -0.415
  C  C2025  1  0.580300  0.268800  0.730100  1.0  -0.4075
  C  C2026  1  0.425800  0.281700  0.788700  1.0  -0.3549
  C  C2027  1  0.642900  0.328200  0.589800  1.0  -0.0186
  C  C2028  1  0.633300  0.341900  0.550000  1.0  0.0764
  C  C2029  1  0.652900  0.331900  0.511400  1.0  -0.1593
  C  C2030  1  0.682100  0.308200  0.512700  1.0  0.0488
  C  C2031  1  0.691700  0.294500  0.552500  1.0  -0.2239
  C  C2032  1  0.672100  0.304500  0.591000  1.0  0.082
  C  C2033  1  0.605200  0.368500  0.551500  1.0  -0.3904
  C  C2034  1  0.682600  0.287600  0.630900  1.0  -0.2732
  C  C2035  1  0.702900  0.299100  0.467600  1.0  -0.3816
  C  C2036  1  0.545000  0.279700  0.627400  1.0  0.0809
  C  C2037  1  0.992400  0.221000  0.165400  1.0  0.0782
  C  C2038  1  0.963900  0.178900  0.213000  1.0  0.0973
  C  C2039  1  0.921300  0.169700  0.199100  1.0  0.0386
  C  C2040  1  0.902600  0.147000  0.220100  1.0  -0.1328
  C  C2041  1  0.922600  0.132400  0.254100  1.0  -0.0087
  C  C2042  1  0.965300  0.141100  0.266700  1.0  -0.1076
  C  C2043  1  0.985900  0.164500  0.248000  1.0  -0.0032
  C  C2044  1  0.028700  0.175800  0.265500  1.0  0.0155
  C  C2045  1  0.026600  0.198100  0.299600  1.0  0.0032
  C  C2046  1  0.068600  0.207200  0.319900  1.0  -0.0884
  C  C2047  1  0.106300  0.195800  0.306000  1.0  -0.0056
  C  C2048  1  0.108400  0.171500  0.275300  1.0  -0.1126
  C  C2049  1  0.065700  0.161900  0.257500  1.0  0.0264
  C  C2050  1  0.070200  0.134500  0.228400  1.0  -0.4037
  C  C2051  1  0.983200  0.210700  0.314700  1.0  -0.4304
  C  C2052  1  0.151600  0.205900  0.324600  1.0  -0.4345
  C  C2053  1  0.899200  0.184500  0.160200  1.0  -0.0007
  C  C2054  1  0.889600  0.165900  0.122400  1.0  0.0422
  C  C2055  1  0.865100  0.178100  0.088500  1.0  -0.1473
  C  C2056  1  0.853400  0.208900  0.087300  1.0  0.1223
  C  C2057  1  0.859500  0.223600  0.124400  1.0  -0.1197
  C  C2058  1  0.881300  0.211800  0.161700  1.0  0.083
  C  C2059  1  0.887200  0.232000  0.202100  1.0  -0.3993
  C  C2060  1  0.835200  0.222100  0.047700  1.0  -0.3968
  C  C2061  1  0.905100  0.133900  0.119900  1.0  -0.4258
  C  C2062  1  0.900900  0.107000  0.277600  1.0  -0.0704
  C  C2063  1  0.862400  0.094300  0.260100  1.0  -0.1347
  C  C2064  1  0.840100  0.072700  0.283000  1.0  0.0181
  C  C2065  1  0.856500  0.061600  0.322100  1.0  0.1171
  C  C2066  1  0.895400  0.073100  0.340800  1.0  -0.0397
  C  C2067  1  0.915300  0.096000  0.318200  1.0  0.0653
  C  C2068  1  0.912400  0.063200  0.384200  1.0  -0.0346
  C  C2069  1  0.891400  0.071100  0.421300  1.0  -0.0447
  C  C2070  1  0.906900  0.063900  0.463200  1.0  -0.1502
  C  C2071  1  0.943400  0.050000  0.467200  1.0  0.0213
  C  C2072  1  0.966800  0.041900  0.429700  1.0  -0.1089
  C  C2073  1  0.953500  0.049400  0.385200  1.0  0.1539
  C  C2074  1  0.980200  0.042600  0.347800  1.0  -0.3887
  C  C2075  1  0.847500  0.089800  0.419100  1.0  -0.3883
  C  C2076  1  0.960400  0.040000  0.514100  1.0  -0.3971
  C  C2077  1  0.800000  0.038900  0.230700  1.0  0.0184
  C  C2078  1  0.761200  0.026700  0.214600  1.0  -0.1306
  C  C2079  1  0.721100  0.035300  0.232200  1.0  0.0416
  C  C2080  1  0.719600  0.056200  0.265800  1.0  -0.1656
  C  C2081  1  0.758400  0.068500  0.281900  1.0  0.0594
  C  C2082  1  0.798500  0.059800  0.264400  1.0  -0.0287
  C  C2083  1  0.844200  0.029300  0.208900  1.0  -0.3903
  C  C2084  1  0.679000  0.021100  0.211500  1.0  -0.3648
  C  C2085  1  0.757300  0.089600  0.319100  1.0  -0.4221
  C  C2086  1  0.804500  0.023800  0.355800  1.0  0.0284
  C  C2087  1  0.738000  0.977400  0.313500  1.0  0.0012
  C  C2088  1  0.705700  0.938300  0.262000  1.0  0.1491
  C  C2089  1  0.665000  0.928900  0.280200  1.0  0.0115
  C  C2090  1  0.643800  0.906800  0.256900  1.0  -0.1404
  C  C2091  1  0.659800  0.894100  0.218700  1.0  -0.0161
  C  C2092  1  0.699900  0.904900  0.201100  1.0  -0.1738
  C  C2093  1  0.721600  0.927500  0.222900  1.0  0.0099
  C  C2094  1  0.765100  0.938000  0.204100  1.0  -0.0058
  C  C2095  1  0.769200  0.951900  0.165100  1.0  0.0757
  C  C2096  1  0.810400  0.960800  0.149000  1.0  -0.2129
  C  C2097  1  0.848200  0.952500  0.170500  1.0  0.04
  C  C2098  1  0.844800  0.936300  0.208400  1.0  -0.1795
  C  C2099  1  0.805900  0.928300  0.225900  1.0  0.0646
  C  C2100  1  0.803900  0.908500  0.264300  1.0  -0.3619
  C  C2101  1  0.727600  0.960000  0.140200  1.0  -0.3884
  C  C2102  1  0.887300  0.961400  0.142600  1.0  -0.3985
  C  C2103  1  0.645300  0.940400  0.322900  1.0  0.0055
  C  C2104  1  0.665800  0.932200  0.360400  1.0  0.1005
  C  C2105  1  0.705500  0.911000  0.362400  1.0  -0.3582
  C  C2106  1  0.646900  0.941500  0.400100  1.0  -0.1849
  C  C2107  1  0.606600  0.958500  0.401100  1.0  0.2626
  C  C2108  1  0.595200  0.967800  0.364700  1.0  -0.098
  C  C2109  1  0.607900  0.956200  0.322800  1.0  0.1269
  C  C2110  1  0.585500  0.965800  0.279400  1.0  -0.3662
  C  C2111  1  0.581700  0.966800  0.439700  1.0  -0.3944
  C  C2112  1  0.636700  0.870000  0.195200  1.0  0.0477
  C  C2113  1  0.644400  0.861400  0.155100  1.0  -0.0902
  C  C2114  1  0.623800  0.838800  0.133100  1.0  -0.0201
  C  C2115  1  0.589600  0.823500  0.155000  1.0  0.1632
  C  C2116  1  0.578400  0.831800  0.197800  1.0  0.0057
  C  C2117  1  0.603500  0.854100  0.218800  1.0  -0.1055
  C  C2118  1  0.541900  0.818600  0.222100  1.0  -0.0141
  C  C2119  1  0.542100  0.789700  0.235500  1.0  0.0797
  C  C2120  1  0.507200  0.780400  0.263300  1.0  -0.2106
  C  C2121  1  0.469100  0.795500  0.266500  1.0  0.0239
  C  C2122  1  0.469300  0.823600  0.254000  1.0  -0.1109
  C  C2123  1  0.503400  0.836700  0.231000  1.0  0.0658
  C  C2124  1  0.499900  0.867400  0.214600  1.0  -0.415
  C  C2125  1  0.580300  0.768800  0.230100  1.0  -0.4075
  C  C2126  1  0.425800  0.781700  0.288700  1.0  -0.3549
  C  C2127  1  0.642900  0.828200  0.089800  1.0  -0.0186
  C  C2128  1  0.633300  0.841900  0.050000  1.0  0.0764
  C  C2129  1  0.652900  0.831900  0.011400  1.0  -0.1593
  C  C2130  1  0.682100  0.808200  0.012700  1.0  0.0488
  C  C2131  1  0.691700  0.794500  0.052500  1.0  -0.2239
  C  C2132  1  0.672100  0.804500  0.091000  1.0  0.082
  C  C2133  1  0.605200  0.868500  0.051500  1.0  -0.3904
  C  C2134  1  0.682600  0.787600  0.130900  1.0  -0.2732
  C  C2135  1  0.702900  0.799100  0.967600  1.0  -0.3819
  C  C2136  1  0.545000  0.779700  0.127400  1.0  0.0809
  C  C2137  1  0.492400  0.721000  0.165400  1.0  0.0782
  C  C2138  1  0.463900  0.678900  0.213000  1.0  0.0973
  C  C2139  1  0.421300  0.669700  0.199100  1.0  0.0386
  C  C2140  1  0.402600  0.647000  0.220100  1.0  -0.1328
  C  C2141  1  0.422600  0.632400  0.254100  1.0  -0.0087
  C  C2142  1  0.465300  0.641100  0.266700  1.0  -0.1076
  C  C2143  1  0.485900  0.664500  0.248000  1.0  -0.0032
  C  C2144  1  0.528700  0.675800  0.265500  1.0  0.0155
  C  C2145  1  0.526600  0.698100  0.299600  1.0  0.0032
  C  C2146  1  0.568600  0.707200  0.319900  1.0  -0.0884
  C  C2147  1  0.606300  0.695800  0.306000  1.0  -0.0056
  C  C2148  1  0.608400  0.671500  0.275300  1.0  -0.1126
  C  C2149  1  0.565700  0.661900  0.257500  1.0  0.0264
  C  C2150  1  0.570200  0.634500  0.228400  1.0  -0.4037
  C  C2151  1  0.483200  0.710700  0.314700  1.0  -0.4304
  C  C2152  1  0.651600  0.705900  0.324600  1.0  -0.4345
  C  C2153  1  0.399200  0.684500  0.160200  1.0  -0.0007
  C  C2154  1  0.389600  0.665900  0.122400  1.0  0.0422
  C  C2155  1  0.365100  0.678100  0.088500  1.0  -0.1473
  C  C2156  1  0.353400  0.708900  0.087300  1.0  0.1223
  C  C2157  1  0.359500  0.723600  0.124400  1.0  -0.1197
  C  C2158  1  0.381300  0.711800  0.161700  1.0  0.083
  C  C2159  1  0.387200  0.732000  0.202100  1.0  -0.3993
  C  C2160  1  0.335200  0.722100  0.047700  1.0  -0.3968
  C  C2161  1  0.405100  0.633900  0.119900  1.0  -0.4258
  C  C2162  1  0.400900  0.607000  0.277600  1.0  -0.0704
  C  C2163  1  0.362400  0.594300  0.260100  1.0  -0.1347
  C  C2164  1  0.340100  0.572700  0.283000  1.0  0.0181
  C  C2165  1  0.356500  0.561600  0.322100  1.0  0.1171
  C  C2166  1  0.395400  0.573100  0.340800  1.0  -0.0397
  C  C2167  1  0.415300  0.596000  0.318200  1.0  0.0653
  C  C2168  1  0.412400  0.563200  0.384200  1.0  -0.0346
  C  C2169  1  0.391400  0.571100  0.421300  1.0  -0.0447
  C  C2170  1  0.406900  0.563900  0.463200  1.0  -0.1502
  C  C2171  1  0.443400  0.550000  0.467200  1.0  0.0213
  C  C2172  1  0.466800  0.541900  0.429700  1.0  -0.1089
  C  C2173  1  0.453500  0.549400  0.385200  1.0  0.1537
  C  C2174  1  0.480200  0.542600  0.347800  1.0  -0.3887
  C  C2175  1  0.347500  0.589800  0.419100  1.0  -0.3883
  C  C2176  1  0.460400  0.540000  0.514100  1.0  -0.3971
  C  C2177  1  0.300000  0.538900  0.230700  1.0  0.0184
  C  C2178  1  0.261200  0.526700  0.214600  1.0  -0.1306
  C  C2179  1  0.221100  0.535300  0.232200  1.0  0.0416
  C  C2180  1  0.219600  0.556200  0.265800  1.0  -0.1656
  C  C2181  1  0.258400  0.568500  0.281900  1.0  0.0594
  C  C2182  1  0.298500  0.559800  0.264400  1.0  -0.0287
  C  C2183  1  0.344200  0.529300  0.208900  1.0  -0.3903
  C  C2184  1  0.179000  0.521100  0.211500  1.0  -0.3648
  C  C2185  1  0.257300  0.589600  0.319100  1.0  -0.4221
  C  C2186  1  0.304500  0.523800  0.355800  1.0  0.0284
  C  C2187  1  0.238000  0.477400  0.313500  1.0  0.0012
  C  C2188  1  0.205700  0.438300  0.262000  1.0  0.1491
  C  C2189  1  0.165000  0.428900  0.280200  1.0  0.0115
  C  C2190  1  0.143800  0.406800  0.256900  1.0  -0.1404
  C  C2191  1  0.159800  0.394100  0.218700  1.0  -0.0161
  C  C2192  1  0.199900  0.404900  0.201100  1.0  -0.1738
  C  C2193  1  0.221600  0.427500  0.222900  1.0  0.0099
  C  C2194  1  0.265100  0.438000  0.204100  1.0  -0.0058
  C  C2195  1  0.269200  0.451900  0.165100  1.0  0.0757
  C  C2196  1  0.310400  0.460800  0.149000  1.0  -0.2129
  C  C2197  1  0.348200  0.452500  0.170500  1.0  0.04
  C  C2198  1  0.344800  0.436300  0.208400  1.0  -0.1795
  C  C2199  1  0.305900  0.428300  0.225900  1.0  0.0646
  C  C2200  1  0.303900  0.408500  0.264300  1.0  -0.3619
  C  C2201  1  0.227600  0.460000  0.140200  1.0  -0.3884
  C  C2202  1  0.387300  0.461400  0.142600  1.0  -0.3985
  C  C2203  1  0.145300  0.440400  0.322900  1.0  0.0055
  C  C2204  1  0.165800  0.432200  0.360400  1.0  0.1005
  C  C2205  1  0.205500  0.411000  0.362400  1.0  -0.3582
  C  C2206  1  0.146900  0.441500  0.400100  1.0  -0.1849
  C  C2207  1  0.106600  0.458500  0.401100  1.0  0.2626
  C  C2208  1  0.095200  0.467800  0.364700  1.0  -0.098
  C  C2209  1  0.107900  0.456200  0.322800  1.0  0.1269
  C  C2210  1  0.085500  0.465800  0.279400  1.0  -0.3662
  C  C2211  1  0.081700  0.466800  0.439700  1.0  -0.3944
  C  C2212  1  0.136700  0.370000  0.195200  1.0  0.0477
  C  C2213  1  0.144400  0.361400  0.155100  1.0  -0.0902
  C  C2214  1  0.123800  0.338800  0.133100  1.0  -0.0201
  C  C2215  1  0.089600  0.323500  0.155000  1.0  0.1632
  C  C2216  1  0.078400  0.331800  0.197800  1.0  0.0057
  C  C2217  1  0.103500  0.354100  0.218800  1.0  -0.1055
  C  C2218  1  0.041900  0.318600  0.222100  1.0  -0.0141
  C  C2219  1  0.042100  0.289700  0.235500  1.0  0.0797
  C  C2220  1  0.007200  0.280400  0.263300  1.0  -0.2106
  C  C2221  1  0.969100  0.295500  0.266500  1.0  0.0239
  C  C2222  1  0.969300  0.323600  0.254000  1.0  -0.1113
  C  C2223  1  0.003400  0.336700  0.231000  1.0  0.0658
  C  C2224  1  0.999900  0.367400  0.214600  1.0  -0.415
  C  C2225  1  0.080300  0.268800  0.230100  1.0  -0.4075
  C  C2226  1  0.925800  0.281700  0.288700  1.0  -0.3549
  C  C2227  1  0.142900  0.328200  0.089800  1.0  -0.0186
  C  C2228  1  0.133300  0.341900  0.050000  1.0  0.0764
  C  C2229  1  0.152900  0.331900  0.011400  1.0  -0.1593
  C  C2230  1  0.182100  0.308200  0.012700  1.0  0.0488
  C  C2231  1  0.191700  0.294500  0.052500  1.0  -0.2239
  C  C2232  1  0.172100  0.304500  0.091000  1.0  0.082
  C  C2233  1  0.105200  0.368500  0.051500  1.0  -0.3904
  C  C2234  1  0.182600  0.287600  0.130900  1.0  -0.2732
  C  C2235  1  0.202900  0.299100  0.967600  1.0  -0.3819
  C  C2236  1  0.045000  0.279700  0.127400  1.0  0.0809
  C  C2237  1  0.492400  0.221000  0.665400  1.0  0.0782
  C  C2238  1  0.463900  0.178900  0.713000  1.0  0.0973
  C  C2239  1  0.421300  0.169700  0.699100  1.0  0.0386
  C  C2240  1  0.402600  0.147000  0.720100  1.0  -0.1328
  C  C2241  1  0.422600  0.132400  0.754100  1.0  -0.0087
  C  C2242  1  0.465300  0.141100  0.766700  1.0  -0.1076
  C  C2243  1  0.485900  0.164500  0.748000  1.0  -0.0032
  C  C2244  1  0.528700  0.175800  0.765500  1.0  0.0155
  C  C2245  1  0.526600  0.198100  0.799600  1.0  0.0032
  C  C2246  1  0.568600  0.207200  0.819900  1.0  -0.0884
  C  C2247  1  0.606300  0.195800  0.806000  1.0  -0.0056
  C  C2248  1  0.608400  0.171500  0.775300  1.0  -0.1126
  C  C2249  1  0.565700  0.161900  0.757500  1.0  0.0264
  C  C2250  1  0.570200  0.134500  0.728400  1.0  -0.4037
  C  C2251  1  0.483200  0.210700  0.814700  1.0  -0.4304
  C  C2252  1  0.651600  0.205900  0.824600  1.0  -0.4345
  C  C2253  1  0.399200  0.184500  0.660200  1.0  -0.0007
  C  C2254  1  0.389600  0.165900  0.622400  1.0  0.0422
  C  C2255  1  0.365100  0.178100  0.588500  1.0  -0.1473
  C  C2256  1  0.353400  0.208900  0.587300  1.0  0.1223
  C  C2257  1  0.359500  0.223600  0.624400  1.0  -0.1197
  C  C2258  1  0.381300  0.211800  0.661700  1.0  0.083
  C  C2259  1  0.387200  0.232000  0.702100  1.0  -0.3993
  C  C2260  1  0.335200  0.222100  0.547700  1.0  -0.3968
  C  C2261  1  0.405100  0.133900  0.619900  1.0  -0.4258
  C  C2262  1  0.400900  0.107000  0.777600  1.0  -0.0704
  C  C2263  1  0.362400  0.094300  0.760100  1.0  -0.1347
  C  C2264  1  0.340100  0.072700  0.783000  1.0  0.0181
  C  C2265  1  0.356500  0.061600  0.822100  1.0  0.1171
  C  C2266  1  0.395400  0.073100  0.840800  1.0  -0.0397
  C  C2267  1  0.415300  0.096000  0.818200  1.0  0.0653
  C  C2268  1  0.412400  0.063200  0.884200  1.0  -0.0346
  C  C2269  1  0.391400  0.071100  0.921300  1.0  -0.0447
  C  C2270  1  0.406900  0.063900  0.963200  1.0  -0.1502
  C  C2271  1  0.443400  0.050000  0.967200  1.0  0.0213
  C  C2272  1  0.466800  0.041900  0.929700  1.0  -0.1089
  C  C2273  1  0.453500  0.049400  0.885200  1.0  0.1537
  C  C2274  1  0.480200  0.042600  0.847800  1.0  -0.3887
  C  C2275  1  0.347500  0.089800  0.919100  1.0  -0.3883
  C  C2276  1  0.460400  0.040000  0.014100  1.0  -0.3971
  C  C2277  1  0.300000  0.038900  0.730700  1.0  0.0184
  C  C2278  1  0.261200  0.026700  0.714600  1.0  -0.1306
  C  C2279  1  0.221100  0.035300  0.732200  1.0  0.0416
  C  C2280  1  0.219600  0.056200  0.765800  1.0  -0.1656
  C  C2281  1  0.258400  0.068500  0.781900  1.0  0.0594
  C  C2282  1  0.298500  0.059800  0.764400  1.0  -0.0287
  C  C2283  1  0.344200  0.029300  0.708900  1.0  -0.3903
  C  C2284  1  0.179000  0.021100  0.711500  1.0  -0.3648
  C  C2285  1  0.257300  0.089600  0.819100  1.0  -0.4221
  C  C2286  1  0.304500  0.023800  0.855800  1.0  0.0284
  C  C2287  1  0.238000  0.977400  0.813500  1.0  0.0012
  C  C2288  1  0.205700  0.938300  0.762000  1.0  0.1491
  C  C2289  1  0.165000  0.928900  0.780200  1.0  0.0115
  C  C2290  1  0.143800  0.906800  0.756900  1.0  -0.1404
  C  C2291  1  0.159800  0.894100  0.718700  1.0  -0.0161
  C  C2292  1  0.199900  0.904900  0.701100  1.0  -0.1738
  C  C2293  1  0.221600  0.927500  0.722900  1.0  0.0099
  C  C2294  1  0.265100  0.938000  0.704100  1.0  -0.0058
  C  C2295  1  0.269200  0.951900  0.665100  1.0  0.0757
  C  C2296  1  0.310400  0.960800  0.649000  1.0  -0.2129
  C  C2297  1  0.348200  0.952500  0.670500  1.0  0.04
  C  C2298  1  0.344800  0.936300  0.708400  1.0  -0.1795
  C  C2299  1  0.305900  0.928300  0.725900  1.0  0.0646
  C  C2300  1  0.303900  0.908500  0.764300  1.0  -0.3619
  C  C2301  1  0.227600  0.960000  0.640200  1.0  -0.3884
  C  C2302  1  0.387300  0.961400  0.642600  1.0  -0.3985
  C  C2303  1  0.145300  0.940400  0.822900  1.0  0.0055
  C  C2304  1  0.165800  0.932200  0.860400  1.0  0.1005
  C  C2305  1  0.205500  0.911000  0.862400  1.0  -0.3582
  C  C2306  1  0.146900  0.941500  0.900100  1.0  -0.1849
  C  C2307  1  0.106600  0.958500  0.901100  1.0  0.2626
  C  C2308  1  0.095200  0.967800  0.864700  1.0  -0.098
  C  C2309  1  0.107900  0.956200  0.822800  1.0  0.1269
  C  C2310  1  0.085500  0.965800  0.779400  1.0  -0.3662
  C  C2311  1  0.081700  0.966800  0.939700  1.0  -0.3944
  C  C2312  1  0.136700  0.870000  0.695200  1.0  0.0477
  C  C2313  1  0.144400  0.861400  0.655100  1.0  -0.0902
  C  C2314  1  0.123800  0.838800  0.633100  1.0  -0.0201
  C  C2315  1  0.089600  0.823500  0.655000  1.0  0.1632
  C  C2316  1  0.078400  0.831800  0.697800  1.0  0.0057
  C  C2317  1  0.103500  0.854100  0.718800  1.0  -0.1055
  C  C2318  1  0.041900  0.818600  0.722100  1.0  -0.0141
  C  C2319  1  0.042100  0.789700  0.735500  1.0  0.0797
  C  C2320  1  0.007200  0.780400  0.763300  1.0  -0.2106
  C  C2321  1  0.969100  0.795500  0.766500  1.0  0.0239
  C  C2322  1  0.969300  0.823600  0.754000  1.0  -0.1113
  C  C2323  1  0.003400  0.836700  0.731000  1.0  0.0658
  C  C2324  1  0.999900  0.867400  0.714600  1.0  -0.415
  C  C2325  1  0.080300  0.768800  0.730100  1.0  -0.4075
  C  C2326  1  0.925800  0.781700  0.788700  1.0  -0.3549
  C  C2327  1  0.142900  0.828200  0.589800  1.0  -0.0186
  C  C2328  1  0.133300  0.841900  0.550000  1.0  0.0764
  C  C2329  1  0.152900  0.831900  0.511400  1.0  -0.1593
  C  C2330  1  0.182100  0.808200  0.512700  1.0  0.0488
  C  C2331  1  0.191700  0.794500  0.552500  1.0  -0.2239
  C  C2332  1  0.172100  0.804500  0.591000  1.0  0.082
  C  C2333  1  0.105200  0.868500  0.551500  1.0  -0.3904
  C  C2334  1  0.182600  0.787600  0.630900  1.0  -0.2732
  C  C2335  1  0.202900  0.799100  0.467600  1.0  -0.3816
  C  C2336  1  0.045000  0.779700  0.627400  1.0  0.0809
  C  C2337  1  0.742400  0.529000  0.415400  1.0  0.0794
  C  C2338  1  0.713900  0.571100  0.463000  1.0  0.099
  C  C2339  1  0.671300  0.580300  0.449100  1.0  0.0378
  C  C2340  1  0.652600  0.603000  0.470100  1.0  -0.134
  C  C2341  1  0.672600  0.617600  0.504100  1.0  -0.0092
  C  C2342  1  0.715300  0.608900  0.516700  1.0  -0.1085
  C  C2343  1  0.735900  0.585500  0.498000  1.0  -0.0032
  C  C2344  1  0.778700  0.574200  0.515500  1.0  0.0158
  C  C2345  1  0.776600  0.551900  0.549600  1.0  0.0024
  C  C2346  1  0.818600  0.542800  0.569900  1.0  -0.0939
  C  C2347  1  0.856300  0.554200  0.556000  1.0  0.003
  C  C2348  1  0.858400  0.578500  0.525300  1.0  -0.1122
  C  C2349  1  0.815700  0.588100  0.507500  1.0  0.0258
  C  C2350  1  0.820200  0.615500  0.478400  1.0  -0.4054
  C  C2351  1  0.733200  0.539300  0.564700  1.0  -0.4315
  C  C2352  1  0.901600  0.544100  0.574600  1.0  -0.4343
  C  C2353  1  0.649200  0.565500  0.410200  1.0  -0.0012
  C  C2354  1  0.639600  0.584100  0.372400  1.0  0.0416
  C  C2355  1  0.615100  0.571900  0.338500  1.0  -0.1471
  C  C2356  1  0.603400  0.541100  0.337300  1.0  0.1219
  C  C2357  1  0.609500  0.526400  0.374400  1.0  -0.1211
  C  C2358  1  0.631300  0.538200  0.411700  1.0  0.0836
  C  C2359  1  0.637200  0.518000  0.452100  1.0  -0.3952
  C  C2360  1  0.585200  0.527900  0.297700  1.0  -0.3979
  C  C2361  1  0.655100  0.616100  0.369900  1.0  -0.4248
  C  C2362  1  0.650900  0.643000  0.527600  1.0  -0.0702
  C  C2363  1  0.612400  0.655700  0.510100  1.0  -0.1364
  C  C2364  1  0.590100  0.677300  0.533000  1.0  0.018
  C  C2365  1  0.606500  0.688400  0.572100  1.0  0.1181
  C  C2366  1  0.645400  0.676900  0.590800  1.0  -0.0396
  C  C2367  1  0.665300  0.654000  0.568200  1.0  0.0672
  C  C2368  1  0.662400  0.686800  0.634200  1.0  -0.0355
  C  C2369  1  0.641400  0.678900  0.671300  1.0  -0.0443
  C  C2370  1  0.656900  0.686100  0.713200  1.0  -0.1498
  C  C2371  1  0.693400  0.700000  0.717200  1.0  0.0214
  C  C2372  1  0.716800  0.708100  0.679700  1.0  -0.1059
  C  C2373  1  0.703500  0.700600  0.635200  1.0  0.1542
  C  C2374  1  0.730200  0.707400  0.597800  1.0  -0.3895
  C  C2375  1  0.597500  0.660200  0.669100  1.0  -0.3884
  C  C2376  1  0.710400  0.710000  0.764100  1.0  -0.3969
  C  C2377  1  0.550000  0.711100  0.480700  1.0  0.0184
  C  C2378  1  0.511200  0.723300  0.464600  1.0  -0.1278
  C  C2379  1  0.471100  0.714700  0.482200  1.0  0.0419
  C  C2380  1  0.469600  0.693800  0.515800  1.0  -0.1657
  C  C2381  1  0.508400  0.681500  0.531900  1.0  0.0587
  C  C2382  1  0.548500  0.690200  0.514400  1.0  -0.0294
  C  C2383  1  0.594200  0.720700  0.458900  1.0  -0.3903
  C  C2384  1  0.429000  0.728900  0.461500  1.0  -0.3653
  C  C2385  1  0.507300  0.660400  0.569100  1.0  -0.4232
  C  C2386  1  0.554500  0.726200  0.605800  1.0  0.0264
  C  C2387  1  0.488000  0.772600  0.563500  1.0  0.0033
  C  C2388  1  0.455700  0.811700  0.512000  1.0  0.1483
  C  C2389  1  0.415000  0.821100  0.530200  1.0  0.0113
  C  C2390  1  0.393800  0.843200  0.506900  1.0  -0.1406
  C  C2391  1  0.409800  0.855900  0.468700  1.0  -0.0162
  C  C2392  1  0.449900  0.845100  0.451100  1.0  -0.1737
  C  C2393  1  0.471600  0.822500  0.472900  1.0  0.0097
  C  C2394  1  0.515100  0.812000  0.454100  1.0  -0.0058
  C  C2395  1  0.519200  0.798100  0.415100  1.0  0.076
  C  C2396  1  0.560400  0.789200  0.399000  1.0  -0.2122
  C  C2397  1  0.598200  0.797500  0.420500  1.0  0.0404
  C  C2398  1  0.594800  0.813700  0.458400  1.0  -0.18
  C  C2399  1  0.555900  0.821700  0.475900  1.0  0.0647
  C  C2400  1  0.553900  0.841500  0.514300  1.0  -0.3614
  C  C2401  1  0.477600  0.790000  0.390200  1.0  -0.386
  C  C2402  1  0.637300  0.788600  0.392600  1.0  -0.3985
  C  C2403  1  0.395300  0.809600  0.572900  1.0  0.0062
  C  C2404  1  0.415800  0.817800  0.610400  1.0  0.0998
  C  C2405  1  0.455500  0.839000  0.612400  1.0  -0.3551
  C  C2406  1  0.396900  0.808500  0.650100  1.0  -0.1861
  C  C2407  1  0.356600  0.791500  0.651100  1.0  0.2626
  C  C2408  1  0.345200  0.782200  0.614700  1.0  -0.0972
  C  C2409  1  0.357900  0.793800  0.572800  1.0  0.1264
  C  C2410  1  0.335500  0.784200  0.529400  1.0  -0.365
  C  C2411  1  0.331700  0.783200  0.689700  1.0  -0.3956
  C  C2412  1  0.386700  0.880000  0.445200  1.0  0.0482
  C  C2413  1  0.394400  0.888600  0.405100  1.0  -0.0901
  C  C2414  1  0.373800  0.911200  0.383100  1.0  -0.02
  C  C2415  1  0.339600  0.926500  0.405000  1.0  0.1629
  C  C2416  1  0.328400  0.918200  0.447800  1.0  0.0063
  C  C2417  1  0.353500  0.895900  0.468800  1.0  -0.1057
  C  C2418  1  0.291900  0.931400  0.472100  1.0  -0.0139
  C  C2419  1  0.292100  0.960300  0.485500  1.0  0.0797
  C  C2420  1  0.257200  0.969600  0.513300  1.0  -0.2028
  C  C2421  1  0.219100  0.954500  0.516500  1.0  0.0233
  C  C2422  1  0.219300  0.926400  0.504000  1.0  -0.1139
  C  C2423  1  0.253400  0.913300  0.481000  1.0  0.0656
  C  C2424  1  0.249900  0.882600  0.464600  1.0  -0.4164
  C  C2425  1  0.330300  0.981200  0.480100  1.0  -0.4073
  C  C2426  1  0.175800  0.968300  0.538700  1.0  -0.3563
  C  C2427  1  0.392900  0.921800  0.339800  1.0  -0.0187
  C  C2428  1  0.383300  0.908100  0.300000  1.0  0.0774
  C  C2429  1  0.402900  0.918100  0.261400  1.0  -0.1592
  C  C2430  1  0.432100  0.941800  0.262700  1.0  0.0486
  C  C2431  1  0.441700  0.955500  0.302500  1.0  -0.2242
  C  C2432  1  0.422100  0.945500  0.341000  1.0  0.0823
  C  C2433  1  0.355200  0.881500  0.301500  1.0  -0.3907
  C  C2434  1  0.432600  0.962400  0.380900  1.0  -0.2743
  C  C2435  1  0.452900  0.950900  0.217600  1.0  -0.3831
  C  C2436  1  0.295000  0.970300  0.377400  1.0  0.0809
  C  C2437  1  0.742400  0.029000  0.915400  1.0  0.0794
  C  C2438  1  0.713900  0.071100  0.963000  1.0  0.0975
  C  C2439  1  0.671300  0.080300  0.949100  1.0  0.0378
  C  C2440  1  0.652600  0.103000  0.970100  1.0  -0.134
  C  C2441  1  0.672600  0.117600  0.004100  1.0  -0.0092
  C  C2442  1  0.715300  0.108900  0.016700  1.0  -0.1085
  C  C2443  1  0.735900  0.085500  0.998000  1.0  -0.0032
  C  C2444  1  0.778700  0.074200  0.015500  1.0  0.0158
  C  C2445  1  0.776600  0.051900  0.049600  1.0  0.0024
  C  C2446  1  0.818600  0.042800  0.069900  1.0  -0.0939
  C  C2447  1  0.856300  0.054200  0.056000  1.0  0.003
  C  C2448  1  0.858400  0.078500  0.025300  1.0  -0.1122
  C  C2449  1  0.815700  0.088100  0.007500  1.0  0.0258
  C  C2450  1  0.820200  0.115500  0.978400  1.0  -0.4054
  C  C2451  1  0.733200  0.039300  0.064700  1.0  -0.4315
  C  C2452  1  0.901600  0.044100  0.074600  1.0  -0.4343
  C  C2453  1  0.649200  0.065500  0.910200  1.0  -0.0012
  C  C2454  1  0.639600  0.084100  0.872400  1.0  0.0416
  C  C2455  1  0.615100  0.071900  0.838500  1.0  -0.1471
  C  C2456  1  0.603400  0.041100  0.837300  1.0  0.1219
  C  C2457  1  0.609500  0.026400  0.874400  1.0  -0.1211
  C  C2458  1  0.631300  0.038200  0.911700  1.0  0.0836
  C  C2459  1  0.637200  0.018000  0.952100  1.0  -0.3959
  C  C2460  1  0.585200  0.027900  0.797700  1.0  -0.3979
  C  C2461  1  0.655100  0.116100  0.869900  1.0  -0.4248
  C  C2462  1  0.650900  0.143000  0.027600  1.0  -0.0702
  C  C2463  1  0.612400  0.155700  0.010100  1.0  -0.1364
  C  C2464  1  0.590100  0.177300  0.033000  1.0  0.018
  C  C2465  1  0.606500  0.188400  0.072100  1.0  0.1181
  C  C2466  1  0.645400  0.176900  0.090800  1.0  -0.0396
  C  C2467  1  0.665300  0.154000  0.068200  1.0  0.0672
  C  C2468  1  0.662400  0.186800  0.134200  1.0  -0.0355
  C  C2469  1  0.641400  0.178900  0.171300  1.0  -0.0443
  C  C2470  1  0.656900  0.186100  0.213200  1.0  -0.1498
  C  C2471  1  0.693400  0.200000  0.217200  1.0  0.0214
  C  C2472  1  0.716800  0.208100  0.179700  1.0  -0.1059
  C  C2473  1  0.703500  0.200600  0.135200  1.0  0.1542
  C  C2474  1  0.730200  0.207400  0.097800  1.0  -0.3895
  C  C2475  1  0.597500  0.160200  0.169100  1.0  -0.3884
  C  C2476  1  0.710400  0.210000  0.264100  1.0  -0.3969
  C  C2477  1  0.550000  0.211100  0.980700  1.0  0.0184
  C  C2478  1  0.511200  0.223300  0.964600  1.0  -0.1278
  C  C2479  1  0.471100  0.214700  0.982200  1.0  0.0419
  C  C2480  1  0.469600  0.193800  0.015800  1.0  -0.1657
  C  C2481  1  0.508400  0.181500  0.031900  1.0  0.0587
  C  C2482  1  0.548500  0.190200  0.014400  1.0  -0.0294
  C  C2483  1  0.594200  0.220700  0.958900  1.0  -0.3926
  C  C2484  1  0.429000  0.228900  0.961500  1.0  -0.3659
  C  C2485  1  0.507300  0.160400  0.069100  1.0  -0.4232
  C  C2486  1  0.554500  0.226200  0.105800  1.0  0.0264
  C  C2487  1  0.488000  0.272600  0.063500  1.0  0.0033
  C  C2488  1  0.455700  0.311700  0.012000  1.0  0.1483
  C  C2489  1  0.415000  0.321100  0.030200  1.0  0.0113
  C  C2490  1  0.393800  0.343200  0.006900  1.0  -0.1406
  C  C2491  1  0.409800  0.355900  0.968700  1.0  -0.0162
  C  C2492  1  0.449900  0.345100  0.951100  1.0  -0.1739
  C  C2493  1  0.471600  0.322500  0.972900  1.0  0.0097
  C  C2494  1  0.515100  0.312000  0.954100  1.0  -0.0058
  C  C2495  1  0.519200  0.298100  0.915100  1.0  0.076
  C  C2496  1  0.560400  0.289200  0.899000  1.0  -0.2122
  C  C2497  1  0.598200  0.297500  0.920500  1.0  0.0404
  C  C2498  1  0.594800  0.313700  0.958400  1.0  -0.18
  C  C2499  1  0.555900  0.321700  0.975900  1.0  0.0647
  C  C2500  1  0.553900  0.341500  0.014300  1.0  -0.3614
  C  C2501  1  0.477600  0.290000  0.890200  1.0  -0.386
  C  C2502  1  0.637300  0.288600  0.892600  1.0  -0.3985
  C  C2503  1  0.395300  0.309600  0.072900  1.0  0.0062
  C  C2504  1  0.415800  0.317800  0.110400  1.0  0.0998
  C  C2505  1  0.455500  0.339000  0.112400  1.0  -0.3551
  C  C2506  1  0.396900  0.308500  0.150100  1.0  -0.1861
  C  C2507  1  0.356600  0.291500  0.151100  1.0  0.2626
  C  C2508  1  0.345200  0.282200  0.114700  1.0  -0.0972
  C  C2509  1  0.357900  0.293800  0.072800  1.0  0.1264
  C  C2510  1  0.335500  0.284200  0.029400  1.0  -0.365
  C  C2511  1  0.331700  0.283200  0.189700  1.0  -0.3956
  C  C2512  1  0.386700  0.380000  0.945200  1.0  0.0482
  C  C2513  1  0.394400  0.388600  0.905100  1.0  -0.0901
  C  C2514  1  0.373800  0.411200  0.883100  1.0  -0.02
  C  C2515  1  0.339600  0.426500  0.905000  1.0  0.1629
  C  C2516  1  0.328400  0.418200  0.947800  1.0  0.0063
  C  C2517  1  0.353500  0.395900  0.968800  1.0  -0.1057
  C  C2518  1  0.291900  0.431400  0.972100  1.0  -0.0139
  C  C2519  1  0.292100  0.460300  0.985500  1.0  0.0797
  C  C2520  1  0.257200  0.469600  0.013300  1.0  -0.2018
  C  C2521  1  0.219100  0.454500  0.016500  1.0  0.0233
  C  C2522  1  0.219300  0.426400  0.004000  1.0  -0.1139
  C  C2523  1  0.253400  0.413300  0.981000  1.0  0.0656
  C  C2524  1  0.249900  0.382600  0.964600  1.0  -0.4164
  C  C2525  1  0.330300  0.481200  0.980100  1.0  -0.407
  C  C2526  1  0.175800  0.468300  0.038700  1.0  -0.3563
  C  C2527  1  0.392900  0.421800  0.839800  1.0  -0.0187
  C  C2528  1  0.383300  0.408100  0.800000  1.0  0.0774
  C  C2529  1  0.402900  0.418100  0.761400  1.0  -0.1592
  C  C2530  1  0.432100  0.441800  0.762700  1.0  0.0486
  C  C2531  1  0.441700  0.455500  0.802500  1.0  -0.2242
  C  C2532  1  0.422100  0.445500  0.841000  1.0  0.0823
  C  C2533  1  0.355200  0.381500  0.801500  1.0  -0.3907
  C  C2534  1  0.432600  0.462400  0.880900  1.0  -0.2743
  C  C2535  1  0.452900  0.450900  0.717600  1.0  -0.3831
  C  C2536  1  0.295000  0.470300  0.877400  1.0  0.0809
  C  C2537  1  0.242400  0.529000  0.915400  1.0  0.0794
  C  C2538  1  0.213900  0.571100  0.963000  1.0  0.0975
  C  C2539  1  0.171300  0.580300  0.949100  1.0  0.0378
  C  C2540  1  0.152600  0.603000  0.970100  1.0  -0.134
  C  C2541  1  0.172600  0.617600  0.004100  1.0  -0.0092
  C  C2542  1  0.215300  0.608900  0.016700  1.0  -0.1085
  C  C2543  1  0.235900  0.585500  0.998000  1.0  -0.0032
  C  C2544  1  0.278700  0.574200  0.015500  1.0  0.0158
  C  C2545  1  0.276600  0.551900  0.049600  1.0  0.0024
  C  C2546  1  0.318600  0.542800  0.069900  1.0  -0.0939
  C  C2547  1  0.356300  0.554200  0.056000  1.0  0.003
  C  C2548  1  0.358400  0.578500  0.025300  1.0  -0.1122
  C  C2549  1  0.315700  0.588100  0.007500  1.0  0.0258
  C  C2550  1  0.320200  0.615500  0.978400  1.0  -0.4054
  C  C2551  1  0.233200  0.539300  0.064700  1.0  -0.4315
  C  C2552  1  0.401600  0.544100  0.074600  1.0  -0.4343
  C  C2553  1  0.149200  0.565500  0.910200  1.0  -0.0012
  C  C2554  1  0.139600  0.584100  0.872400  1.0  0.0416
  C  C2555  1  0.115100  0.571900  0.838500  1.0  -0.1471
  C  C2556  1  0.103400  0.541100  0.837300  1.0  0.1219
  C  C2557  1  0.109500  0.526400  0.874400  1.0  -0.1211
  C  C2558  1  0.131300  0.538200  0.911700  1.0  0.0836
  C  C2559  1  0.137200  0.518000  0.952100  1.0  -0.3952
  C  C2560  1  0.085200  0.527900  0.797700  1.0  -0.3979
  C  C2561  1  0.155100  0.616100  0.869900  1.0  -0.4248
  C  C2562  1  0.150900  0.643000  0.027600  1.0  -0.0702
  C  C2563  1  0.112400  0.655700  0.010100  1.0  -0.1364
  C  C2564  1  0.090100  0.677300  0.033000  1.0  0.018
  C  C2565  1  0.106500  0.688400  0.072100  1.0  0.1181
  C  C2566  1  0.145400  0.676900  0.090800  1.0  -0.0396
  C  C2567  1  0.165300  0.654000  0.068200  1.0  0.0672
  C  C2568  1  0.162400  0.686800  0.134200  1.0  -0.0355
  C  C2569  1  0.141400  0.678900  0.171300  1.0  -0.0443
  C  C2570  1  0.156900  0.686100  0.213200  1.0  -0.1498
  C  C2571  1  0.193400  0.700000  0.217200  1.0  0.0214
  C  C2572  1  0.216800  0.708100  0.179700  1.0  -0.1059
  C  C2573  1  0.203500  0.700600  0.135200  1.0  0.1542
  C  C2574  1  0.230200  0.707400  0.097800  1.0  -0.3895
  C  C2575  1  0.097500  0.660200  0.169100  1.0  -0.3884
  C  C2576  1  0.210400  0.710000  0.264100  1.0  -0.3969
  C  C2577  1  0.050000  0.711100  0.980700  1.0  0.0184
  C  C2578  1  0.011200  0.723300  0.964600  1.0  -0.1278
  C  C2579  1  0.971100  0.714700  0.982200  1.0  0.0419
  C  C2580  1  0.969600  0.693800  0.015800  1.0  -0.1657
  C  C2581  1  0.008400  0.681500  0.031900  1.0  0.0587
  C  C2582  1  0.048500  0.690200  0.014400  1.0  -0.0294
  C  C2583  1  0.094200  0.720700  0.958900  1.0  -0.3926
  C  C2584  1  0.929000  0.728900  0.961500  1.0  -0.3652
  C  C2585  1  0.007300  0.660400  0.069100  1.0  -0.4232
  C  C2586  1  0.054500  0.726200  0.105800  1.0  0.0264
  C  C2587  1  0.988000  0.772600  0.063500  1.0  0.0033
  C  C2588  1  0.955700  0.811700  0.012000  1.0  0.1483
  C  C2589  1  0.915000  0.821100  0.030200  1.0  0.0113
  C  C2590  1  0.893800  0.843200  0.006900  1.0  -0.1406
  C  C2591  1  0.909800  0.855900  0.968700  1.0  -0.0162
  C  C2592  1  0.949900  0.845100  0.951100  1.0  -0.1742
  C  C2593  1  0.971600  0.822500  0.972900  1.0  0.0097
  C  C2594  1  0.015100  0.812000  0.954100  1.0  -0.0058
  C  C2595  1  0.019200  0.798100  0.915100  1.0  0.076
  C  C2596  1  0.060400  0.789200  0.899000  1.0  -0.2122
  C  C2597  1  0.098200  0.797500  0.920500  1.0  0.0404
  C  C2598  1  0.094800  0.813700  0.958400  1.0  -0.18
  C  C2599  1  0.055900  0.821700  0.975900  1.0  0.0647
  C  C2600  1  0.053900  0.841500  0.014300  1.0  -0.3614
  C  C2601  1  0.977600  0.790000  0.890200  1.0  -0.3871
  C  C2602  1  0.137300  0.788600  0.892600  1.0  -0.3985
  C  C2603  1  0.895300  0.809600  0.072900  1.0  0.0062
  C  C2604  1  0.915800  0.817800  0.110400  1.0  0.0998
  C  C2605  1  0.955500  0.839000  0.112400  1.0  -0.3551
  C  C2606  1  0.896900  0.808500  0.150100  1.0  -0.1861
  C  C2607  1  0.856600  0.791500  0.151100  1.0  0.2626
  C  C2608  1  0.845200  0.782200  0.114700  1.0  -0.0972
  C  C2609  1  0.857900  0.793800  0.072800  1.0  0.1264
  C  C2610  1  0.835500  0.784200  0.029400  1.0  -0.365
  C  C2611  1  0.831700  0.783200  0.189700  1.0  -0.3956
  C  C2612  1  0.886700  0.880000  0.945200  1.0  0.0482
  C  C2613  1  0.894400  0.888600  0.905100  1.0  -0.0901
  C  C2614  1  0.873800  0.911200  0.883100  1.0  -0.02
  C  C2615  1  0.839600  0.926500  0.905000  1.0  0.1629
  C  C2616  1  0.828400  0.918200  0.947800  1.0  0.0063
  C  C2617  1  0.853500  0.895900  0.968800  1.0  -0.1057
  C  C2618  1  0.791900  0.931400  0.972100  1.0  -0.0139
  C  C2619  1  0.792100  0.960300  0.985500  1.0  0.0797
  C  C2620  1  0.757200  0.969600  0.013300  1.0  -0.2028
  C  C2621  1  0.719100  0.954500  0.016500  1.0  0.0233
  C  C2622  1  0.719300  0.926400  0.004000  1.0  -0.1139
  C  C2623  1  0.753400  0.913300  0.981000  1.0  0.0656
  C  C2624  1  0.749900  0.882600  0.964600  1.0  -0.4164
  C  C2625  1  0.830300  0.981200  0.980100  1.0  -0.4073
  C  C2626  1  0.675800  0.968300  0.038700  1.0  -0.3563
  C  C2627  1  0.892900  0.921800  0.839800  1.0  -0.0187
  C  C2628  1  0.883300  0.908100  0.800000  1.0  0.0774
  C  C2629  1  0.902900  0.918100  0.761400  1.0  -0.1592
  C  C2630  1  0.932100  0.941800  0.762700  1.0  0.0486
  C  C2631  1  0.941700  0.955500  0.802500  1.0  -0.2242
  C  C2632  1  0.922100  0.945500  0.841000  1.0  0.0823
  C  C2633  1  0.855200  0.881500  0.801500  1.0  -0.3907
  C  C2634  1  0.932600  0.962400  0.880900  1.0  -0.2743
  C  C2635  1  0.952900  0.950900  0.717600  1.0  -0.3831
  C  C2636  1  0.795000  0.970300  0.877400  1.0  0.0809
  C  C2637  1  0.242400  0.029000  0.415400  1.0  0.0794
  C  C2638  1  0.213900  0.071100  0.463000  1.0  0.099
  C  C2639  1  0.171300  0.080300  0.449100  1.0  0.0378
  C  C2640  1  0.152600  0.103000  0.470100  1.0  -0.134
  C  C2641  1  0.172600  0.117600  0.504100  1.0  -0.0092
  C  C2642  1  0.215300  0.108900  0.516700  1.0  -0.1085
  C  C2643  1  0.235900  0.085500  0.498000  1.0  -0.0032
  C  C2644  1  0.278700  0.074200  0.515500  1.0  0.0158
  C  C2645  1  0.276600  0.051900  0.549600  1.0  0.0024
  C  C2646  1  0.318600  0.042800  0.569900  1.0  -0.0939
  C  C2647  1  0.356300  0.054200  0.556000  1.0  0.003
  C  C2648  1  0.358400  0.078500  0.525300  1.0  -0.1122
  C  C2649  1  0.315700  0.088100  0.507500  1.0  0.0258
  C  C2650  1  0.320200  0.115500  0.478400  1.0  -0.4054
  C  C2651  1  0.233200  0.039300  0.564700  1.0  -0.4315
  C  C2652  1  0.401600  0.044100  0.574600  1.0  -0.4343
  C  C2653  1  0.149200  0.065500  0.410200  1.0  -0.0012
  C  C2654  1  0.139600  0.084100  0.372400  1.0  0.0416
  C  C2655  1  0.115100  0.071900  0.338500  1.0  -0.1471
  C  C2656  1  0.103400  0.041100  0.337300  1.0  0.1219
  C  C2657  1  0.109500  0.026400  0.374400  1.0  -0.1211
  C  C2658  1  0.131300  0.038200  0.411700  1.0  0.0836
  C  C2659  1  0.137200  0.018000  0.452100  1.0  -0.3959
  C  C2660  1  0.085200  0.027900  0.297700  1.0  -0.3979
  C  C2661  1  0.155100  0.116100  0.369900  1.0  -0.4248
  C  C2662  1  0.150900  0.143000  0.527600  1.0  -0.0702
  C  C2663  1  0.112400  0.155700  0.510100  1.0  -0.1364
  C  C2664  1  0.090100  0.177300  0.533000  1.0  0.018
  C  C2665  1  0.106500  0.188400  0.572100  1.0  0.1181
  C  C2666  1  0.145400  0.176900  0.590800  1.0  -0.0396
  C  C2667  1  0.165300  0.154000  0.568200  1.0  0.0672
  C  C2668  1  0.162400  0.186800  0.634200  1.0  -0.0355
  C  C2669  1  0.141400  0.178900  0.671300  1.0  -0.0443
  C  C2670  1  0.156900  0.186100  0.713200  1.0  -0.1498
  C  C2671  1  0.193400  0.200000  0.717200  1.0  0.0214
  C  C2672  1  0.216800  0.208100  0.679700  1.0  -0.1059
  C  C2673  1  0.203500  0.200600  0.635200  1.0  0.1542
  C  C2674  1  0.230200  0.207400  0.597800  1.0  -0.3895
  C  C2675  1  0.097500  0.160200  0.669100  1.0  -0.3884
  C  C2676  1  0.210400  0.210000  0.764100  1.0  -0.3969
  C  C2677  1  0.050000  0.211100  0.480700  1.0  0.0184
  C  C2678  1  0.011200  0.223300  0.464600  1.0  -0.1278
  C  C2679  1  0.971100  0.214700  0.482200  1.0  0.0419
  C  C2680  1  0.969600  0.193800  0.515800  1.0  -0.1657
  C  C2681  1  0.008400  0.181500  0.531900  1.0  0.0587
  C  C2682  1  0.048500  0.190200  0.514400  1.0  -0.0294
  C  C2683  1  0.094200  0.220700  0.458900  1.0  -0.3903
  C  C2684  1  0.929000  0.228900  0.461500  1.0  -0.3629
  C  C2685  1  0.007300  0.160400  0.569100  1.0  -0.4232
  C  C2686  1  0.054500  0.226200  0.605800  1.0  0.0264
  C  C2687  1  0.988000  0.272600  0.563500  1.0  0.0033
  C  C2688  1  0.955700  0.311700  0.512000  1.0  0.1483
  C  C2689  1  0.915000  0.321100  0.530200  1.0  0.0113
  C  C2690  1  0.893800  0.343200  0.506900  1.0  -0.1406
  C  C2691  1  0.909800  0.355900  0.468700  1.0  -0.0162
  C  C2692  1  0.949900  0.345100  0.451100  1.0  -0.1737
  C  C2693  1  0.971600  0.322500  0.472900  1.0  0.0097
  C  C2694  1  0.015100  0.312000  0.454100  1.0  -0.0058
  C  C2695  1  0.019200  0.298100  0.415100  1.0  0.076
  C  C2696  1  0.060400  0.289200  0.399000  1.0  -0.2122
  C  C2697  1  0.098200  0.297500  0.420500  1.0  0.0404
  C  C2698  1  0.094800  0.313700  0.458400  1.0  -0.18
  C  C2699  1  0.055900  0.321700  0.475900  1.0  0.0647
  C  C2700  1  0.053900  0.341500  0.514300  1.0  -0.3614
  C  C2701  1  0.977600  0.290000  0.390200  1.0  -0.3871
  C  C2702  1  0.137300  0.288600  0.392600  1.0  -0.3985
  C  C2703  1  0.895300  0.309600  0.572900  1.0  0.0062
  C  C2704  1  0.915800  0.317800  0.610400  1.0  0.0998
  C  C2705  1  0.955500  0.339000  0.612400  1.0  -0.3551
  C  C2706  1  0.896900  0.308500  0.650100  1.0  -0.1861
  C  C2707  1  0.856600  0.291500  0.651100  1.0  0.2626
  C  C2708  1  0.845200  0.282200  0.614700  1.0  -0.0972
  C  C2709  1  0.857900  0.293800  0.572800  1.0  0.1264
  C  C2710  1  0.835500  0.284200  0.529400  1.0  -0.365
  C  C2711  1  0.831700  0.283200  0.689700  1.0  -0.3956
  C  C2712  1  0.886700  0.380000  0.445200  1.0  0.0482
  C  C2713  1  0.894400  0.388600  0.405100  1.0  -0.0901
  C  C2714  1  0.873800  0.411200  0.383100  1.0  -0.02
  C  C2715  1  0.839600  0.426500  0.405000  1.0  0.1629
  C  C2716  1  0.828400  0.418200  0.447800  1.0  0.0063
  C  C2717  1  0.853500  0.395900  0.468800  1.0  -0.1057
  C  C2718  1  0.791900  0.431400  0.472100  1.0  -0.0139
  C  C2719  1  0.792100  0.460300  0.485500  1.0  0.0797
  C  C2720  1  0.757200  0.469600  0.513300  1.0  -0.2018
  C  C2721  1  0.719100  0.454500  0.516500  1.0  0.0233
  C  C2722  1  0.719300  0.426400  0.504000  1.0  -0.1139
  C  C2723  1  0.753400  0.413300  0.481000  1.0  0.0656
  C  C2724  1  0.749900  0.382600  0.464600  1.0  -0.4164
  C  C2725  1  0.830300  0.481200  0.480100  1.0  -0.4073
  C  C2726  1  0.675800  0.468300  0.538700  1.0  -0.3563
  C  C2727  1  0.892900  0.421800  0.339800  1.0  -0.0187
  C  C2728  1  0.883300  0.408100  0.300000  1.0  0.0774
  C  C2729  1  0.902900  0.418100  0.261400  1.0  -0.1592
  C  C2730  1  0.932100  0.441800  0.262700  1.0  0.0486
  C  C2731  1  0.941700  0.455500  0.302500  1.0  -0.2242
  C  C2732  1  0.922100  0.445500  0.341000  1.0  0.0823
  C  C2733  1  0.855200  0.381500  0.301500  1.0  -0.3907
  C  C2734  1  0.932600  0.462400  0.380900  1.0  -0.2743
  C  C2735  1  0.952900  0.450900  0.217600  1.0  -0.3831
  C  C2736  1  0.795000  0.470300  0.377400  1.0  0.0809
  C  C2737  1  0.507600  0.779000  0.665400  1.0  0.0797
  C  C2738  1  0.536100  0.821100  0.713000  1.0  0.098
  C  C2739  1  0.578700  0.830300  0.699100  1.0  0.0373
  C  C2740  1  0.597400  0.853000  0.720100  1.0  -0.1331
  C  C2741  1  0.577400  0.867600  0.754100  1.0  -0.0091
  C  C2742  1  0.534700  0.858900  0.766700  1.0  -0.1071
  C  C2743  1  0.514100  0.835500  0.748000  1.0  -0.002
  C  C2744  1  0.471300  0.824200  0.765500  1.0  0.0156
  C  C2745  1  0.473400  0.801900  0.799600  1.0  0.0025
  C  C2746  1  0.431400  0.792800  0.819900  1.0  -0.0927
  C  C2747  1  0.393700  0.804200  0.806000  1.0  0.0029
  C  C2748  1  0.391600  0.828500  0.775300  1.0  -0.1114
  C  C2749  1  0.434300  0.838100  0.757500  1.0  0.0284
  C  C2750  1  0.429800  0.865500  0.728400  1.0  -0.4053
  C  C2751  1  0.516800  0.789300  0.814700  1.0  -0.4327
  C  C2752  1  0.348400  0.794100  0.824600  1.0  -0.4361
  C  C2753  1  0.600800  0.815500  0.660200  1.0  -0.0003
  C  C2754  1  0.610400  0.834100  0.622400  1.0  0.0417
  C  C2755  1  0.634900  0.821900  0.588500  1.0  -0.1462
  C  C2756  1  0.646600  0.791100  0.587300  1.0  0.121
  C  C2757  1  0.640500  0.776400  0.624400  1.0  -0.1189
  C  C2758  1  0.618700  0.788200  0.661700  1.0  0.0839
  C  C2759  1  0.612800  0.768000  0.702100  1.0  -0.4007
  C  C2760  1  0.664800  0.777900  0.547700  1.0  -0.3984
  C  C2761  1  0.594900  0.866100  0.619900  1.0  -0.4247
  C  C2762  1  0.599100  0.893000  0.777600  1.0  -0.07
  C  C2763  1  0.637600  0.905700  0.760100  1.0  -0.135
  C  C2764  1  0.659900  0.927300  0.783000  1.0  0.0184
  C  C2765  1  0.643500  0.938400  0.822100  1.0  0.1184
  C  C2766  1  0.604600  0.926900  0.840800  1.0  -0.0404
  C  C2767  1  0.584700  0.904000  0.818200  1.0  0.0684
  C  C2768  1  0.587600  0.936800  0.884200  1.0  -0.0355
  C  C2769  1  0.608600  0.928900  0.921300  1.0  -0.0446
  C  C2770  1  0.593100  0.936100  0.963200  1.0  -0.1452
  C  C2771  1  0.556600  0.950000  0.967200  1.0  0.0184
  C  C2772  1  0.533200  0.958100  0.929700  1.0  -0.1086
  C  C2773  1  0.546500  0.950600  0.885200  1.0  0.1551
  C  C2774  1  0.519800  0.957400  0.847800  1.0  -0.3866
  C  C2775  1  0.652500  0.910200  0.919100  1.0  -0.3894
  C  C2776  1  0.539600  0.960000  0.014100  1.0  -0.3953
  C  C2777  1  0.700000  0.961100  0.730700  1.0  0.0183
  C  C2778  1  0.738800  0.973300  0.714600  1.0  -0.1271
  C  C2779  1  0.778900  0.964700  0.732200  1.0  0.0418
  C  C2780  1  0.780400  0.943800  0.765800  1.0  -0.165
  C  C2781  1  0.741600  0.931500  0.781900  1.0  0.0578
  C  C2782  1  0.701500  0.940200  0.764400  1.0  -0.0295
  C  C2783  1  0.655800  0.970700  0.708900  1.0  -0.3869
  C  C2784  1  0.821000  0.978900  0.711500  1.0  -0.3663
  C  C2785  1  0.742700  0.910400  0.819100  1.0  -0.4217
  C  C2786  1  0.695500  0.976200  0.855800  1.0  0.0279
  C  C2787  1  0.762000  0.022600  0.813500  1.0  0.003
  C  C2788  1  0.794300  0.061700  0.762000  1.0  0.1478
  C  C2789  1  0.835000  0.071100  0.780200  1.0  0.0119
  C  C2790  1  0.856200  0.093200  0.756900  1.0  -0.1396
  C  C2791  1  0.840200  0.105900  0.718700  1.0  -0.0156
  C  C2792  1  0.800100  0.095100  0.701100  1.0  -0.1742
  C  C2793  1  0.778400  0.072500  0.722900  1.0  0.0094
  C  C2794  1  0.734900  0.062000  0.704100  1.0  -0.0057
  C  C2795  1  0.730800  0.048100  0.665100  1.0  0.075
  C  C2796  1  0.689600  0.039200  0.649000  1.0  -0.212
  C  C2797  1  0.651800  0.047500  0.670500  1.0  0.0481
  C  C2798  1  0.655200  0.063700  0.708400  1.0  -0.1794
  C  C2799  1  0.694100  0.071700  0.725900  1.0  0.0643
  C  C2800  1  0.696100  0.091500  0.764300  1.0  -0.3619
  C  C2801  1  0.772400  0.040000  0.640200  1.0  -0.3905
  C  C2802  1  0.612700  0.038600  0.642600  1.0  -0.3959
  C  C2803  1  0.854700  0.059600  0.822900  1.0  0.0071
  C  C2804  1  0.834200  0.067800  0.860400  1.0  0.1014
  C  C2805  1  0.794500  0.089000  0.862400  1.0  -0.359
  C  C2806  1  0.853100  0.058500  0.900100  1.0  -0.1889
  C  C2807  1  0.893400  0.041500  0.901100  1.0  0.2625
  C  C2808  1  0.904800  0.032200  0.864700  1.0  -0.0969
  C  C2809  1  0.892100  0.043800  0.822800  1.0  0.1263
  C  C2810  1  0.914500  0.034200  0.779400  1.0  -0.3677
  C  C2811  1  0.918300  0.033200  0.939700  1.0  -0.3966
  C  C2812  1  0.863300  0.130000  0.695200  1.0  0.0491
  C  C2813  1  0.855600  0.138600  0.655100  1.0  -0.0918
  C  C2814  1  0.876200  0.161200  0.633100  1.0  -0.0194
  C  C2815  1  0.910400  0.176500  0.655000  1.0  0.1632
  C  C2816  1  0.921600  0.168200  0.697800  1.0  0.0067
  C  C2817  1  0.896500  0.145900  0.718800  1.0  -0.1049
  C  C2818  1  0.958100  0.181400  0.722100  1.0  -0.0147
  C  C2819  1  0.957900  0.210300  0.735500  1.0  0.08
  C  C2820  1  0.992800  0.219600  0.763300  1.0  -0.2024
  C  C2821  1  0.030900  0.204500  0.766500  1.0  0.0243
  C  C2822  1  0.030700  0.176400  0.754000  1.0  -0.1024
  C  C2823  1  0.996600  0.163300  0.731000  1.0  0.0656
  C  C2824  1  0.000100  0.132600  0.714600  1.0  -0.4164
  C  C2825  1  0.919700  0.231200  0.730100  1.0  -0.4064
  C  C2826  1  0.074200  0.218300  0.788700  1.0  -0.3563
  C  C2827  1  0.857100  0.171800  0.589800  1.0  -0.0187
  C  C2828  1  0.866700  0.158100  0.550000  1.0  0.0772
  C  C2829  1  0.847100  0.168100  0.511400  1.0  -0.1604
  C  C2830  1  0.817900  0.191800  0.512700  1.0  0.0487
  C  C2831  1  0.808300  0.205500  0.552500  1.0  -0.2253
  C  C2832  1  0.827900  0.195500  0.591000  1.0  0.0814
  C  C2833  1  0.894800  0.131500  0.551500  1.0  -0.3911
  C  C2834  1  0.817400  0.212400  0.630900  1.0  -0.2768
  C  C2835  1  0.797100  0.200900  0.467600  1.0  -0.381
  C  C2836  1  0.955000  0.220300  0.627400  1.0  0.0802
  C  C2837  1  0.507600  0.279000  0.165400  1.0  0.0797
  C  C2838  1  0.536100  0.321100  0.213000  1.0  0.098
  C  C2839  1  0.578700  0.330300  0.199100  1.0  0.0373
  C  C2840  1  0.597400  0.353000  0.220100  1.0  -0.1331
  C  C2841  1  0.577400  0.367600  0.254100  1.0  -0.0091
  C  C2842  1  0.534700  0.358900  0.266700  1.0  -0.1071
  C  C2843  1  0.514100  0.335500  0.248000  1.0  -0.002
  C  C2844  1  0.471300  0.324200  0.265500  1.0  0.0156
  C  C2845  1  0.473400  0.301900  0.299600  1.0  0.0025
  C  C2846  1  0.431400  0.292800  0.319900  1.0  -0.0927
  C  C2847  1  0.393700  0.304200  0.306000  1.0  0.0029
  C  C2848  1  0.391600  0.328500  0.275300  1.0  -0.1114
  C  C2849  1  0.434300  0.338100  0.257500  1.0  0.0284
  C  C2850  1  0.429800  0.365500  0.228400  1.0  -0.4053
  C  C2851  1  0.516800  0.289300  0.314700  1.0  -0.4327
  C  C2852  1  0.348400  0.294100  0.324600  1.0  -0.4361
  C  C2853  1  0.600800  0.315500  0.160200  1.0  -0.0003
  C  C2854  1  0.610400  0.334100  0.122400  1.0  0.0417
  C  C2855  1  0.634900  0.321900  0.088500  1.0  -0.1462
  C  C2856  1  0.646600  0.291100  0.087300  1.0  0.121
  C  C2857  1  0.640500  0.276400  0.124400  1.0  -0.1189
  C  C2858  1  0.618700  0.288200  0.161700  1.0  0.0839
  C  C2859  1  0.612800  0.268000  0.202100  1.0  -0.4007
  C  C2860  1  0.664800  0.277900  0.047700  1.0  -0.3984
  C  C2861  1  0.594900  0.366100  0.119900  1.0  -0.4247
  C  C2862  1  0.599100  0.393000  0.277600  1.0  -0.07
  C  C2863  1  0.637600  0.405700  0.260100  1.0  -0.135
  C  C2864  1  0.659900  0.427300  0.283000  1.0  0.0184
  C  C2865  1  0.643500  0.438400  0.322100  1.0  0.1184
  C  C2866  1  0.604600  0.426900  0.340800  1.0  -0.0404
  C  C2867  1  0.584700  0.404000  0.318200  1.0  0.0684
  C  C2868  1  0.587600  0.436800  0.384200  1.0  -0.0355
  C  C2869  1  0.608600  0.428900  0.421300  1.0  -0.0446
  C  C2870  1  0.593100  0.436100  0.463200  1.0  -0.1452
  C  C2871  1  0.556600  0.450000  0.467200  1.0  0.0184
  C  C2872  1  0.533200  0.458100  0.429700  1.0  -0.1086
  C  C2873  1  0.546500  0.450600  0.385200  1.0  0.1551
  C  C2874  1  0.519800  0.457400  0.347800  1.0  -0.3866
  C  C2875  1  0.652500  0.410200  0.419100  1.0  -0.3894
  C  C2876  1  0.539600  0.460000  0.514100  1.0  -0.3953
  C  C2877  1  0.700000  0.461100  0.230700  1.0  0.0183
  C  C2878  1  0.738800  0.473300  0.214600  1.0  -0.1271
  C  C2879  1  0.778900  0.464700  0.232200  1.0  0.0418
  C  C2880  1  0.780400  0.443800  0.265800  1.0  -0.165
  C  C2881  1  0.741600  0.431500  0.281900  1.0  0.0578
  C  C2882  1  0.701500  0.440200  0.264400  1.0  -0.0295
  C  C2883  1  0.655800  0.470700  0.208900  1.0  -0.3869
  C  C2884  1  0.821000  0.478900  0.211500  1.0  -0.3663
  C  C2885  1  0.742700  0.410400  0.319100  1.0  -0.4217
  C  C2886  1  0.695500  0.476200  0.355800  1.0  0.0279
  C  C2887  1  0.762000  0.522600  0.313500  1.0  0.003
  C  C2888  1  0.794300  0.561700  0.262000  1.0  0.1478
  C  C2889  1  0.835000  0.571100  0.280200  1.0  0.0119
  C  C2890  1  0.856200  0.593200  0.256900  1.0  -0.1396
  C  C2891  1  0.840200  0.605900  0.218700  1.0  -0.0156
  C  C2892  1  0.800100  0.595100  0.201100  1.0  -0.1742
  C  C2893  1  0.778400  0.572500  0.222900  1.0  0.0094
  C  C2894  1  0.734900  0.562000  0.204100  1.0  -0.0057
  C  C2895  1  0.730800  0.548100  0.165100  1.0  0.075
  C  C2896  1  0.689600  0.539200  0.149000  1.0  -0.212
  C  C2897  1  0.651800  0.547500  0.170500  1.0  0.0481
  C  C2898  1  0.655200  0.563700  0.208400  1.0  -0.1794
  C  C2899  1  0.694100  0.571700  0.225900  1.0  0.0643
  C  C2900  1  0.696100  0.591500  0.264300  1.0  -0.3619
  C  C2901  1  0.772400  0.540000  0.140200  1.0  -0.3905
  C  C2902  1  0.612700  0.538600  0.142600  1.0  -0.3959
  C  C2903  1  0.854700  0.559600  0.322900  1.0  0.0071
  C  C2904  1  0.834200  0.567800  0.360400  1.0  0.1014
  C  C2905  1  0.794500  0.589000  0.362400  1.0  -0.359
  C  C2906  1  0.853100  0.558500  0.400100  1.0  -0.1889
  C  C2907  1  0.893400  0.541500  0.401100  1.0  0.2625
  C  C2908  1  0.904800  0.532200  0.364700  1.0  -0.0969
  C  C2909  1  0.892100  0.543800  0.322800  1.0  0.1263
  C  C2910  1  0.914500  0.534200  0.279400  1.0  -0.3677
  C  C2911  1  0.918300  0.533200  0.439700  1.0  -0.3966
  C  C2912  1  0.863300  0.630000  0.195200  1.0  0.0491
  C  C2913  1  0.855600  0.638600  0.155100  1.0  -0.0918
  C  C2914  1  0.876200  0.661200  0.133100  1.0  -0.0194
  C  C2915  1  0.910400  0.676500  0.155000  1.0  0.1632
  C  C2916  1  0.921600  0.668200  0.197800  1.0  0.0067
  C  C2917  1  0.896500  0.645900  0.218800  1.0  -0.1049
  C  C2918  1  0.958100  0.681400  0.222100  1.0  -0.0147
  C  C2919  1  0.957900  0.710300  0.235500  1.0  0.08
  C  C2920  1  0.992800  0.719600  0.263300  1.0  -0.2024
  C  C2921  1  0.030900  0.704500  0.266500  1.0  0.0243
  C  C2922  1  0.030700  0.676400  0.254000  1.0  -0.1024
  C  C2923  1  0.996600  0.663300  0.231000  1.0  0.0656
  C  C2924  1  0.000100  0.632600  0.214600  1.0  -0.4164
  C  C2925  1  0.919700  0.731200  0.230100  1.0  -0.4064
  C  C2926  1  0.074200  0.718300  0.288700  1.0  -0.3563
  C  C2927  1  0.857100  0.671800  0.089800  1.0  -0.0187
  C  C2928  1  0.866700  0.658100  0.050000  1.0  0.0772
  C  C2929  1  0.847100  0.668100  0.011400  1.0  -0.1604
  C  C2930  1  0.817900  0.691800  0.012700  1.0  0.0487
  C  C2931  1  0.808300  0.705500  0.052500  1.0  -0.2253
  C  C2932  1  0.827900  0.695500  0.091000  1.0  0.0814
  C  C2933  1  0.894800  0.631500  0.051500  1.0  -0.3911
  C  C2934  1  0.817400  0.712400  0.130900  1.0  -0.2768
  C  C2935  1  0.797100  0.700900  0.967600  1.0  -0.3806
  C  C2936  1  0.955000  0.720300  0.127400  1.0  0.0802
  C  C2937  1  0.007600  0.779000  0.165400  1.0  0.0797
  C  C2938  1  0.036100  0.821100  0.213000  1.0  0.0969
  C  C2939  1  0.078700  0.830300  0.199100  1.0  0.0373
  C  C2940  1  0.097400  0.853000  0.220100  1.0  -0.1331
  C  C2941  1  0.077400  0.867600  0.254100  1.0  -0.0091
  C  C2942  1  0.034700  0.858900  0.266700  1.0  -0.1055
  C  C2943  1  0.014100  0.835500  0.248000  1.0  -0.002
  C  C2944  1  0.971300  0.824200  0.265500  1.0  0.0156
  C  C2945  1  0.973400  0.801900  0.299600  1.0  0.0025
  C  C2946  1  0.931400  0.792800  0.319900  1.0  -0.0927
  C  C2947  1  0.893700  0.804200  0.306000  1.0  0.0029
  C  C2948  1  0.891600  0.828500  0.275300  1.0  -0.1114
  C  C2949  1  0.934300  0.838100  0.257500  1.0  0.0284
  C  C2950  1  0.929800  0.865500  0.228400  1.0  -0.4053
  C  C2951  1  0.016800  0.789300  0.314700  1.0  -0.4327
  C  C2952  1  0.848400  0.794100  0.324600  1.0  -0.4361
  C  C2953  1  0.100800  0.815500  0.160200  1.0  -0.0003
  C  C2954  1  0.110400  0.834100  0.122400  1.0  0.0417
  C  C2955  1  0.134900  0.821900  0.088500  1.0  -0.1462
  C  C2956  1  0.146600  0.791100  0.087300  1.0  0.121
  C  C2957  1  0.140500  0.776400  0.124400  1.0  -0.1189
  C  C2958  1  0.118700  0.788200  0.161700  1.0  0.0839
  C  C2959  1  0.112800  0.768000  0.202100  1.0  -0.4007
  C  C2960  1  0.164800  0.777900  0.047700  1.0  -0.3984
  C  C2961  1  0.094900  0.866100  0.119900  1.0  -0.4247
  C  C2962  1  0.099100  0.893000  0.277600  1.0  -0.07
  C  C2963  1  0.137600  0.905700  0.260100  1.0  -0.135
  C  C2964  1  0.159900  0.927300  0.283000  1.0  0.0184
  C  C2965  1  0.143500  0.938400  0.322100  1.0  0.1184
  C  C2966  1  0.104600  0.926900  0.340800  1.0  -0.0404
  C  C2967  1  0.084700  0.904000  0.318200  1.0  0.0684
  C  C2968  1  0.087600  0.936800  0.384200  1.0  -0.0355
  C  C2969  1  0.108600  0.928900  0.421300  1.0  -0.0446
  C  C2970  1  0.093100  0.936100  0.463200  1.0  -0.1452
  C  C2971  1  0.056600  0.950000  0.467200  1.0  0.0184
  C  C2972  1  0.033200  0.958100  0.429700  1.0  -0.1086
  C  C2973  1  0.046500  0.950600  0.385200  1.0  0.1551
  C  C2974  1  0.019800  0.957400  0.347800  1.0  -0.3864
  C  C2975  1  0.152500  0.910200  0.419100  1.0  -0.3894
  C  C2976  1  0.039600  0.960000  0.514100  1.0  -0.3953
  C  C2977  1  0.200000  0.961100  0.230700  1.0  0.0183
  C  C2978  1  0.238800  0.973300  0.214600  1.0  -0.1271
  C  C2979  1  0.278900  0.964700  0.232200  1.0  0.0418
  C  C2980  1  0.280400  0.943800  0.265800  1.0  -0.165
  C  C2981  1  0.241600  0.931500  0.281900  1.0  0.0578
  C  C2982  1  0.201500  0.940200  0.264400  1.0  -0.0295
  C  C2983  1  0.155800  0.970700  0.208900  1.0  -0.3869
  C  C2984  1  0.321000  0.978900  0.211500  1.0  -0.3663
  C  C2985  1  0.242700  0.910400  0.319100  1.0  -0.4217
  C  C2986  1  0.195500  0.976200  0.355800  1.0  0.0279
  C  C2987  1  0.262000  0.022600  0.313500  1.0  0.003
  C  C2988  1  0.294300  0.061700  0.262000  1.0  0.1478
  C  C2989  1  0.335000  0.071100  0.280200  1.0  0.0119
  C  C2990  1  0.356200  0.093200  0.256900  1.0  -0.1396
  C  C2991  1  0.340200  0.105900  0.218700  1.0  -0.0156
  C  C2992  1  0.300100  0.095100  0.201100  1.0  -0.1742
  C  C2993  1  0.278400  0.072500  0.222900  1.0  0.0094
  C  C2994  1  0.234900  0.062000  0.204100  1.0  -0.0057
  C  C2995  1  0.230800  0.048100  0.165100  1.0  0.075
  C  C2996  1  0.189600  0.039200  0.149000  1.0  -0.212
  C  C2997  1  0.151800  0.047500  0.170500  1.0  0.0481
  C  C2998  1  0.155200  0.063700  0.208400  1.0  -0.1794
  C  C2999  1  0.194100  0.071700  0.225900  1.0  0.0643
  C  C3000  1  0.196100  0.091500  0.264300  1.0  -0.3619
  C  C3001  1  0.272400  0.040000  0.140200  1.0  -0.3905
  C  C3002  1  0.112700  0.038600  0.142600  1.0  -0.3959
  C  C3003  1  0.354700  0.059600  0.322900  1.0  0.0071
  C  C3004  1  0.334200  0.067800  0.360400  1.0  0.1014
  C  C3005  1  0.294500  0.089000  0.362400  1.0  -0.359
  C  C3006  1  0.353100  0.058500  0.400100  1.0  -0.1889
  C  C3007  1  0.393400  0.041500  0.401100  1.0  0.2625
  C  C3008  1  0.404800  0.032200  0.364700  1.0  -0.0969
  C  C3009  1  0.392100  0.043800  0.322800  1.0  0.1263
  C  C3010  1  0.414500  0.034200  0.279400  1.0  -0.3677
  C  C3011  1  0.418300  0.033200  0.439700  1.0  -0.3966
  C  C3012  1  0.363300  0.130000  0.195200  1.0  0.0491
  C  C3013  1  0.355600  0.138600  0.155100  1.0  -0.0918
  C  C3014  1  0.376200  0.161200  0.133100  1.0  -0.0194
  C  C3015  1  0.410400  0.176500  0.155000  1.0  0.1632
  C  C3016  1  0.421600  0.168200  0.197800  1.0  0.0067
  C  C3017  1  0.396500  0.145900  0.218800  1.0  -0.1049
  C  C3018  1  0.458100  0.181400  0.222100  1.0  -0.0147
  C  C3019  1  0.457900  0.210300  0.235500  1.0  0.08
  C  C3020  1  0.492800  0.219600  0.263300  1.0  -0.2024
  C  C3021  1  0.530900  0.204500  0.266500  1.0  0.0243
  C  C3022  1  0.530700  0.176400  0.254000  1.0  -0.1024
  C  C3023  1  0.496600  0.163300  0.231000  1.0  0.0656
  C  C3024  1  0.500100  0.132600  0.214600  1.0  -0.4164
  C  C3025  1  0.419700  0.231200  0.230100  1.0  -0.4064
  C  C3026  1  0.574200  0.218300  0.288700  1.0  -0.3563
  C  C3027  1  0.357100  0.171800  0.089800  1.0  -0.0187
  C  C3028  1  0.366700  0.158100  0.050000  1.0  0.0772
  C  C3029  1  0.347100  0.168100  0.011400  1.0  -0.1604
  C  C3030  1  0.317900  0.191800  0.012700  1.0  0.0487
  C  C3031  1  0.308300  0.205500  0.052500  1.0  -0.2253
  C  C3032  1  0.327900  0.195500  0.091000  1.0  0.0814
  C  C3033  1  0.394800  0.131500  0.051500  1.0  -0.3911
  C  C3034  1  0.317400  0.212400  0.130900  1.0  -0.2768
  C  C3035  1  0.297100  0.200900  0.967600  1.0  -0.3806
  C  C3036  1  0.455000  0.220300  0.127400  1.0  0.0802
  C  C3037  1  0.007600  0.279000  0.665400  1.0  0.0797
  C  C3038  1  0.036100  0.321100  0.713000  1.0  0.0969
  C  C3039  1  0.078700  0.330300  0.699100  1.0  0.0373
  C  C3040  1  0.097400  0.353000  0.720100  1.0  -0.1331
  C  C3041  1  0.077400  0.367600  0.754100  1.0  -0.0091
  C  C3042  1  0.034700  0.358900  0.766700  1.0  -0.1055
  C  C3043  1  0.014100  0.335500  0.748000  1.0  -0.002
  C  C3044  1  0.971300  0.324200  0.765500  1.0  0.0156
  C  C3045  1  0.973400  0.301900  0.799600  1.0  0.0025
  C  C3046  1  0.931400  0.292800  0.819900  1.0  -0.0927
  C  C3047  1  0.893700  0.304200  0.806000  1.0  0.0029
  C  C3048  1  0.891600  0.328500  0.775300  1.0  -0.1114
  C  C3049  1  0.934300  0.338100  0.757500  1.0  0.0284
  C  C3050  1  0.929800  0.365500  0.728400  1.0  -0.4053
  C  C3051  1  0.016800  0.289300  0.814700  1.0  -0.4327
  C  C3052  1  0.848400  0.294100  0.824600  1.0  -0.4361
  C  C3053  1  0.100800  0.315500  0.660200  1.0  -0.0003
  C  C3054  1  0.110400  0.334100  0.622400  1.0  0.0417
  C  C3055  1  0.134900  0.321900  0.588500  1.0  -0.1462
  C  C3056  1  0.146600  0.291100  0.587300  1.0  0.121
  C  C3057  1  0.140500  0.276400  0.624400  1.0  -0.1189
  C  C3058  1  0.118700  0.288200  0.661700  1.0  0.0839
  C  C3059  1  0.112800  0.268000  0.702100  1.0  -0.4007
  C  C3060  1  0.164800  0.277900  0.547700  1.0  -0.3984
  C  C3061  1  0.094900  0.366100  0.619900  1.0  -0.4247
  C  C3062  1  0.099100  0.393000  0.777600  1.0  -0.07
  C  C3063  1  0.137600  0.405700  0.760100  1.0  -0.135
  C  C3064  1  0.159900  0.427300  0.783000  1.0  0.0184
  C  C3065  1  0.143500  0.438400  0.822100  1.0  0.1184
  C  C3066  1  0.104600  0.426900  0.840800  1.0  -0.0404
  C  C3067  1  0.084700  0.404000  0.818200  1.0  0.0684
  C  C3068  1  0.087600  0.436800  0.884200  1.0  -0.0355
  C  C3069  1  0.108600  0.428900  0.921300  1.0  -0.0446
  C  C3070  1  0.093100  0.436100  0.963200  1.0  -0.1452
  C  C3071  1  0.056600  0.450000  0.967200  1.0  0.0184
  C  C3072  1  0.033200  0.458100  0.929700  1.0  -0.1086
  C  C3073  1  0.046500  0.450600  0.885200  1.0  0.1551
  C  C3074  1  0.019800  0.457400  0.847800  1.0  -0.3864
  C  C3075  1  0.152500  0.410200  0.919100  1.0  -0.3894
  C  C3076  1  0.039600  0.460000  0.014100  1.0  -0.3953
  C  C3077  1  0.200000  0.461100  0.730700  1.0  0.0183
  C  C3078  1  0.238800  0.473300  0.714600  1.0  -0.1271
  C  C3079  1  0.278900  0.464700  0.732200  1.0  0.0418
  C  C3080  1  0.280400  0.443800  0.765800  1.0  -0.165
  C  C3081  1  0.241600  0.431500  0.781900  1.0  0.0578
  C  C3082  1  0.201500  0.440200  0.764400  1.0  -0.0295
  C  C3083  1  0.155800  0.470700  0.708900  1.0  -0.3869
  C  C3084  1  0.321000  0.478900  0.711500  1.0  -0.3663
  C  C3085  1  0.242700  0.410400  0.819100  1.0  -0.4217
  C  C3086  1  0.195500  0.476200  0.855800  1.0  0.0279
  C  C3087  1  0.262000  0.522600  0.813500  1.0  0.003
  C  C3088  1  0.294300  0.561700  0.762000  1.0  0.1478
  C  C3089  1  0.335000  0.571100  0.780200  1.0  0.0119
  C  C3090  1  0.356200  0.593200  0.756900  1.0  -0.1396
  C  C3091  1  0.340200  0.605900  0.718700  1.0  -0.0156
  C  C3092  1  0.300100  0.595100  0.701100  1.0  -0.1742
  C  C3093  1  0.278400  0.572500  0.722900  1.0  0.0094
  C  C3094  1  0.234900  0.562000  0.704100  1.0  -0.0057
  C  C3095  1  0.230800  0.548100  0.665100  1.0  0.075
  C  C3096  1  0.189600  0.539200  0.649000  1.0  -0.212
  C  C3097  1  0.151800  0.547500  0.670500  1.0  0.0481
  C  C3098  1  0.155200  0.563700  0.708400  1.0  -0.1794
  C  C3099  1  0.194100  0.571700  0.725900  1.0  0.0643
  C  C3100  1  0.196100  0.591500  0.764300  1.0  -0.3619
  C  C3101  1  0.272400  0.540000  0.640200  1.0  -0.3905
  C  C3102  1  0.112700  0.538600  0.642600  1.0  -0.3959
  C  C3103  1  0.354700  0.559600  0.822900  1.0  0.0071
  C  C3104  1  0.334200  0.567800  0.860400  1.0  0.1014
  C  C3105  1  0.294500  0.589000  0.862400  1.0  -0.359
  C  C3106  1  0.353100  0.558500  0.900100  1.0  -0.1889
  C  C3107  1  0.393400  0.541500  0.901100  1.0  0.2625
  C  C3108  1  0.404800  0.532200  0.864700  1.0  -0.0969
  C  C3109  1  0.392100  0.543800  0.822800  1.0  0.1263
  C  C3110  1  0.414500  0.534200  0.779400  1.0  -0.3677
  C  C3111  1  0.418300  0.533200  0.939700  1.0  -0.3966
  C  C3112  1  0.363300  0.630000  0.695200  1.0  0.0491
  C  C3113  1  0.355600  0.638600  0.655100  1.0  -0.0918
  C  C3114  1  0.376200  0.661200  0.633100  1.0  -0.0194
  C  C3115  1  0.410400  0.676500  0.655000  1.0  0.1632
  C  C3116  1  0.421600  0.668200  0.697800  1.0  0.0067
  C  C3117  1  0.396500  0.645900  0.718800  1.0  -0.1049
  C  C3118  1  0.458100  0.681400  0.722100  1.0  -0.0147
  C  C3119  1  0.457900  0.710300  0.735500  1.0  0.08
  C  C3120  1  0.492800  0.719600  0.763300  1.0  -0.2024
  C  C3121  1  0.530900  0.704500  0.766500  1.0  0.0243
  C  C3122  1  0.530700  0.676400  0.754000  1.0  -0.1024
  C  C3123  1  0.496600  0.663300  0.731000  1.0  0.0656
  C  C3124  1  0.500100  0.632600  0.714600  1.0  -0.4164
  C  C3125  1  0.419700  0.731200  0.730100  1.0  -0.4064
  C  C3126  1  0.574200  0.718300  0.788700  1.0  -0.3563
  C  C3127  1  0.357100  0.671800  0.589800  1.0  -0.0187
  C  C3128  1  0.366700  0.658100  0.550000  1.0  0.0772
  C  C3129  1  0.347100  0.668100  0.511400  1.0  -0.1604
  C  C3130  1  0.317900  0.691800  0.512700  1.0  0.0487
  C  C3131  1  0.308300  0.705500  0.552500  1.0  -0.2253
  C  C3132  1  0.327900  0.695500  0.591000  1.0  0.0814
  C  C3133  1  0.394800  0.631500  0.551500  1.0  -0.3911
  C  C3134  1  0.317400  0.712400  0.630900  1.0  -0.2768
  C  C3135  1  0.297100  0.700900  0.467600  1.0  -0.381
  C  C3136  1  0.455000  0.720300  0.627400  1.0  0.0802
  N  N3137  1  0.266400  0.453000  0.438400  1.0  0.0875
  N  N3138  1  0.418100  0.289700  0.594400  1.0  -0.2267
  N  N3139  1  0.522900  0.211200  0.535400  1.0  -0.2466
  N  N3140  1  0.681100  0.049300  0.385700  1.0  -0.1923
  N  N3141  1  0.266400  0.953000  0.938400  1.0  0.0875
  N  N3142  1  0.418100  0.789700  0.094400  1.0  -0.2267
  N  N3143  1  0.522900  0.711200  0.035400  1.0  -0.2465
  N  N3144  1  0.681100  0.549300  0.885700  1.0  -0.1923
  N  N3145  1  0.766400  0.453000  0.938400  1.0  0.0875
  N  N3146  1  0.918100  0.289700  0.094400  1.0  -0.2267
  N  N3147  1  0.022900  0.211200  0.035400  1.0  -0.2465
  N  N3148  1  0.181100  0.049300  0.885700  1.0  -0.1923
  N  N3149  1  0.766400  0.953000  0.438400  1.0  0.0875
  N  N3150  1  0.918100  0.789700  0.594400  1.0  -0.2267
  N  N3151  1  0.022900  0.711200  0.535400  1.0  -0.2466
  N  N3152  1  0.181100  0.549300  0.385700  1.0  -0.1923
  N  N3153  1  0.983600  0.703000  0.688400  1.0  0.082
  N  N3154  1  0.831900  0.539700  0.844400  1.0  -0.2221
  N  N3155  1  0.727100  0.461200  0.785400  1.0  -0.2476
  N  N3156  1  0.568900  0.299300  0.635700  1.0  -0.192
  N  N3157  1  0.983600  0.203000  0.188400  1.0  0.082
  N  N3158  1  0.831900  0.039700  0.344400  1.0  -0.2221
  N  N3159  1  0.727100  0.961200  0.285400  1.0  -0.2476
  N  N3160  1  0.568900  0.799300  0.135700  1.0  -0.192
  N  N3161  1  0.483600  0.703000  0.188400  1.0  0.082
  N  N3162  1  0.331900  0.539700  0.344400  1.0  -0.2221
  N  N3163  1  0.227100  0.461200  0.285400  1.0  -0.2476
  N  N3164  1  0.068900  0.299300  0.135700  1.0  -0.192
  N  N3165  1  0.483600  0.203000  0.688400  1.0  0.082
  N  N3166  1  0.331900  0.039700  0.844400  1.0  -0.2221
  N  N3167  1  0.227100  0.961200  0.785400  1.0  -0.2476
  N  N3168  1  0.068900  0.799300  0.635700  1.0  -0.192
  N  N3169  1  0.733600  0.547000  0.438400  1.0  0.0828
  N  N3170  1  0.581900  0.710300  0.594400  1.0  -0.2206
  N  N3171  1  0.477100  0.788800  0.535400  1.0  -0.25
  N  N3172  1  0.318900  0.950700  0.385700  1.0  -0.1934
  N  N3173  1  0.733600  0.047000  0.938400  1.0  0.0828
  N  N3174  1  0.581900  0.210300  0.094400  1.0  -0.2206
  N  N3175  1  0.477100  0.288800  0.035400  1.0  -0.2514
  N  N3176  1  0.318900  0.450700  0.885700  1.0  -0.1934
  N  N3177  1  0.233600  0.547000  0.938400  1.0  0.0828
  N  N3178  1  0.081900  0.710300  0.094400  1.0  -0.2206
  N  N3179  1  0.977100  0.788800  0.035400  1.0  -0.2514
  N  N3180  1  0.818900  0.950700  0.885700  1.0  -0.1934
  N  N3181  1  0.233600  0.047000  0.438400  1.0  0.0828
  N  N3182  1  0.081900  0.210300  0.594400  1.0  -0.2206
  N  N3183  1  0.977100  0.288800  0.535400  1.0  -0.25
  N  N3184  1  0.818900  0.450700  0.385700  1.0  -0.1934
  N  N3185  1  0.516400  0.797000  0.688400  1.0  0.0833
  N  N3186  1  0.668100  0.960300  0.844400  1.0  -0.223
  N  N3187  1  0.772900  0.038800  0.785400  1.0  -0.246
  N  N3188  1  0.931100  0.200700  0.635700  1.0  -0.1925
  N  N3189  1  0.516400  0.297000  0.188400  1.0  0.0833
  N  N3190  1  0.668100  0.460300  0.344400  1.0  -0.223
  N  N3191  1  0.772900  0.538800  0.285400  1.0  -0.246
  N  N3192  1  0.931100  0.700700  0.135700  1.0  -0.1925
  N  N3193  1  0.016400  0.797000  0.188400  1.0  0.0828
  N  N3194  1  0.168100  0.960300  0.344400  1.0  -0.223
  N  N3195  1  0.272900  0.038800  0.285400  1.0  -0.246
  N  N3196  1  0.431100  0.200700  0.135700  1.0  -0.1925
  N  N3197  1  0.016400  0.297000  0.688400  1.0  0.0828
  N  N3198  1  0.168100  0.460300  0.844400  1.0  -0.223
  N  N3199  1  0.272900  0.538800  0.785400  1.0  -0.246
  N  N3200  1  0.431100  0.700700  0.635700  1.0  -0.1925
