# generated using pymatgen
data_Cd6In3C63O44
_symmetry_space_group_name_H-M   'P 1'
_cell_length_a   50.57110000
_cell_length_b   50.57110000
_cell_length_c   50.57110000
_cell_angle_alpha   90.00000000
_cell_angle_beta   90.00000000
_cell_angle_gamma   90.00000000
_symmetry_Int_Tables_number   1
_chemical_formula_structural   Cd6In3C63O44
_chemical_formula_sum   'Cd192 In96 C2016 O1408'
_cell_volume   129332.35954874
_cell_formula_units_Z   32
loop_
 _symmetry_equiv_pos_site_id
 _symmetry_equiv_pos_as_xyz
  1  'x, y, z'
loop_
 _atom_site_type_symbol
 _atom_site_label
 _atom_site_symmetry_multiplicity
 _atom_site_fract_x
 _atom_site_fract_y
 _atom_site_fract_z
 _atom_site_occupancy
 _atom_site_charge
  Cd  Cd1  1  0.677900  0.072100  0.022350  1.0  1.0642
  Cd  Cd2  1  0.677900  0.572100  0.522350  1.0  1.0642
  Cd  Cd3  1  0.072100  0.177900  0.522350  1.0  1.0655
  Cd  Cd4  1  0.572100  0.177900  0.022350  1.0  1.0655
  Cd  Cd5  1  0.572100  0.677900  0.522350  1.0  1.0655
  Cd  Cd6  1  0.572100  0.572100  0.727650  1.0  1.0661
  Cd  Cd7  1  0.572100  0.072100  0.227650  1.0  1.0661
  Cd  Cd8  1  0.072100  0.572100  0.227650  1.0  1.0661
  Cd  Cd9  1  0.072100  0.072100  0.727650  1.0  1.0661
  Cd  Cd10  1  0.177900  0.677900  0.227650  1.0  1.0661
  Cd  Cd11  1  0.177900  0.177900  0.727650  1.0  1.0661
  Cd  Cd12  1  0.022350  0.677900  0.072100  1.0  1.0722
  Cd  Cd13  1  0.022350  0.177900  0.572100  1.0  1.0722
  Cd  Cd14  1  0.522350  0.677900  0.572100  1.0  1.0722
  Cd  Cd15  1  0.522350  0.072100  0.177900  1.0  1.0727
  Cd  Cd16  1  0.522350  0.572100  0.677900  1.0  1.0727
  Cd  Cd17  1  0.727650  0.572100  0.572100  1.0  1.0722
  Cd  Cd18  1  0.727650  0.072100  0.072100  1.0  1.0722
  Cd  Cd19  1  0.227650  0.572100  0.072100  1.0  1.0722
  Cd  Cd20  1  0.227650  0.072100  0.572100  1.0  1.0722
  Cd  Cd21  1  0.227650  0.177900  0.677900  1.0  1.0733
  Cd  Cd22  1  0.727650  0.177900  0.177900  1.0  1.0733
  Cd  Cd23  1  0.072100  0.022350  0.677900  1.0  1.0723
  Cd  Cd24  1  0.572100  0.022350  0.177900  1.0  1.0723
  Cd  Cd25  1  0.572100  0.522350  0.677900  1.0  1.0723
  Cd  Cd26  1  0.177900  0.522350  0.072100  1.0  1.0716
  Cd  Cd27  1  0.177900  0.022350  0.572100  1.0  1.0716
  Cd  Cd28  1  0.677900  0.522350  0.572100  1.0  1.0716
  Cd  Cd29  1  0.572100  0.727650  0.572100  1.0  1.0719
  Cd  Cd30  1  0.572100  0.227650  0.072100  1.0  1.0719
  Cd  Cd31  1  0.072100  0.727650  0.072100  1.0  1.0719
  Cd  Cd32  1  0.072100  0.227650  0.572100  1.0  1.0719
  Cd  Cd33  1  0.677900  0.227650  0.177900  1.0  1.0734
  Cd  Cd34  1  0.677900  0.727650  0.677900  1.0  1.0734
  Cd  Cd35  1  0.177900  0.727650  0.177900  1.0  1.0734
  Cd  Cd36  1  0.822100  0.927900  0.477650  1.0  1.066
  Cd  Cd37  1  0.822100  0.427900  0.977650  1.0  1.066
  Cd  Cd38  1  0.927900  0.322100  0.977650  1.0  1.0662
  Cd  Cd39  1  0.427900  0.322100  0.477650  1.0  1.0662
  Cd  Cd40  1  0.322100  0.822100  0.772350  1.0  1.063
  Cd  Cd41  1  0.322100  0.322100  0.272350  1.0  1.063
  Cd  Cd42  1  0.427900  0.427900  0.272350  1.0  1.0667
  Cd  Cd43  1  0.427900  0.927900  0.772350  1.0  1.0667
  Cd  Cd44  1  0.927900  0.427900  0.772350  1.0  1.0667
  Cd  Cd45  1  0.927900  0.927900  0.272350  1.0  1.0667
  Cd  Cd46  1  0.427900  0.272350  0.427900  1.0  1.0728
  Cd  Cd47  1  0.427900  0.772350  0.927900  1.0  1.0728
  Cd  Cd48  1  0.927900  0.272350  0.927900  1.0  1.0728
  Cd  Cd49  1  0.927900  0.772350  0.427900  1.0  1.0728
  Cd  Cd50  1  0.822100  0.772350  0.322100  1.0  1.0708
  Cd  Cd51  1  0.822100  0.272350  0.822100  1.0  1.0708
  Cd  Cd52  1  0.322100  0.272350  0.322100  1.0  1.0708
  Cd  Cd53  1  0.322100  0.977650  0.927900  1.0  1.0728
  Cd  Cd54  1  0.322100  0.477650  0.427900  1.0  1.0728
  Cd  Cd55  1  0.927900  0.477650  0.822100  1.0  1.0725
  Cd  Cd56  1  0.427900  0.477650  0.322100  1.0  1.0725
  Cd  Cd57  1  0.772350  0.322100  0.822100  1.0  1.0721
  Cd  Cd58  1  0.272350  0.322100  0.322100  1.0  1.0721
  Cd  Cd59  1  0.272350  0.427900  0.427900  1.0  1.0725
  Cd  Cd60  1  0.272350  0.927900  0.927900  1.0  1.0725
  Cd  Cd61  1  0.772350  0.427900  0.927900  1.0  1.0725
  Cd  Cd62  1  0.772350  0.927900  0.427900  1.0  1.0725
  Cd  Cd63  1  0.477650  0.822100  0.927900  1.0  1.0735
  Cd  Cd64  1  0.477650  0.322100  0.427900  1.0  1.0735
  Cd  Cd65  1  0.977650  0.927900  0.322100  1.0  1.0721
  Cd  Cd66  1  0.977650  0.427900  0.822100  1.0  1.0721
  Cd  Cd67  1  0.322100  0.927900  0.977650  1.0  1.066
  Cd  Cd68  1  0.322100  0.427900  0.477650  1.0  1.066
  Cd  Cd69  1  0.927900  0.822100  0.477650  1.0  1.0662
  Cd  Cd70  1  0.427900  0.822100  0.977650  1.0  1.0662
  Cd  Cd71  1  0.822100  0.322100  0.772350  1.0  1.063
  Cd  Cd72  1  0.822100  0.822100  0.272350  1.0  1.063
  Cd  Cd73  1  0.977650  0.322100  0.927900  1.0  1.0735
  Cd  Cd74  1  0.977650  0.822100  0.427900  1.0  1.0735
  Cd  Cd75  1  0.477650  0.927900  0.822100  1.0  1.0721
  Cd  Cd76  1  0.477650  0.427900  0.322100  1.0  1.0721
  Cd  Cd77  1  0.772350  0.822100  0.322100  1.0  1.0721
  Cd  Cd78  1  0.272350  0.822100  0.822100  1.0  1.0721
  Cd  Cd79  1  0.927900  0.977650  0.322100  1.0  1.0725
  Cd  Cd80  1  0.427900  0.977650  0.822100  1.0  1.0725
  Cd  Cd81  1  0.822100  0.477650  0.927900  1.0  1.0728
  Cd  Cd82  1  0.822100  0.977650  0.427900  1.0  1.0728
  Cd  Cd83  1  0.322100  0.772350  0.822100  1.0  1.0708
  Cd  Cd84  1  0.177900  0.072100  0.522350  1.0  1.0642
  Cd  Cd85  1  0.177900  0.572100  0.022350  1.0  1.0642
  Cd  Cd86  1  0.072100  0.677900  0.022350  1.0  1.0655
  Cd  Cd87  1  0.677900  0.177900  0.227650  1.0  1.0661
  Cd  Cd88  1  0.677900  0.677900  0.727650  1.0  1.0661
  Cd  Cd89  1  0.177900  0.227650  0.677900  1.0  1.0734
  Cd  Cd90  1  0.677900  0.022350  0.072100  1.0  1.0716
  Cd  Cd91  1  0.072100  0.522350  0.177900  1.0  1.0723
  Cd  Cd92  1  0.227650  0.677900  0.177900  1.0  1.0733
  Cd  Cd93  1  0.727650  0.677900  0.677900  1.0  1.0733
  Cd  Cd94  1  0.522350  0.177900  0.072100  1.0  1.0722
  Cd  Cd95  1  0.022350  0.072100  0.677900  1.0  1.0727
  Cd  Cd96  1  0.022350  0.572100  0.177900  1.0  1.0727
  Cd  Cd97  1  0.055760  0.055760  0.106670  1.0  0.8672
  Cd  Cd98  1  0.055760  0.555760  0.606670  1.0  0.8672
  Cd  Cd99  1  0.555760  0.055760  0.606670  1.0  0.8672
  Cd  Cd100  1  0.555760  0.555760  0.106670  1.0  0.8672
  Cd  Cd101  1  0.694240  0.194240  0.606670  1.0  0.8652
  Cd  Cd102  1  0.694240  0.694240  0.106670  1.0  0.8652
  Cd  Cd103  1  0.194240  0.555760  0.643330  1.0  0.8677
  Cd  Cd104  1  0.194240  0.055760  0.143330  1.0  0.8677
  Cd  Cd105  1  0.555760  0.694240  0.143330  1.0  0.8699
  Cd  Cd106  1  0.055760  0.694240  0.643330  1.0  0.8699
  Cd  Cd107  1  0.106670  0.055760  0.055760  1.0  0.8726
  Cd  Cd108  1  0.106670  0.555760  0.555760  1.0  0.8726
  Cd  Cd109  1  0.606670  0.055760  0.555760  1.0  0.8726
  Cd  Cd110  1  0.606670  0.555760  0.055760  1.0  0.8726
  Cd  Cd111  1  0.606670  0.694240  0.194240  1.0  0.8714
  Cd  Cd112  1  0.106670  0.694240  0.694240  1.0  0.8714
  Cd  Cd113  1  0.643330  0.194240  0.555760  1.0  0.8686
  Cd  Cd114  1  0.643330  0.694240  0.055760  1.0  0.8686
  Cd  Cd115  1  0.143330  0.555760  0.694240  1.0  0.8681
  Cd  Cd116  1  0.143330  0.055760  0.194240  1.0  0.8681
  Cd  Cd117  1  0.055760  0.106670  0.055760  1.0  0.8704
  Cd  Cd118  1  0.055760  0.606670  0.555760  1.0  0.8704
  Cd  Cd119  1  0.555760  0.106670  0.555760  1.0  0.8704
  Cd  Cd120  1  0.555760  0.606670  0.055760  1.0  0.8704
  Cd  Cd121  1  0.194240  0.606670  0.694240  1.0  0.8675
  Cd  Cd122  1  0.194240  0.106670  0.194240  1.0  0.8675
  Cd  Cd123  1  0.555760  0.643330  0.194240  1.0  0.8705
  Cd  Cd124  1  0.055760  0.643330  0.694240  1.0  0.8705
  Cd  Cd125  1  0.694240  0.143330  0.555760  1.0  0.8694
  Cd  Cd126  1  0.694240  0.643330  0.055760  1.0  0.8694
  Cd  Cd127  1  0.805760  0.305760  0.393330  1.0  0.8689
  Cd  Cd128  1  0.805760  0.805760  0.893330  1.0  0.8689
  Cd  Cd129  1  0.944240  0.944240  0.893330  1.0  0.8684
  Cd  Cd130  1  0.944240  0.444240  0.393330  1.0  0.8684
  Cd  Cd131  1  0.444240  0.944240  0.393330  1.0  0.8684
  Cd  Cd132  1  0.444240  0.444240  0.893330  1.0  0.8684
  Cd  Cd133  1  0.305760  0.444240  0.856670  1.0  0.8675
  Cd  Cd134  1  0.305760  0.944240  0.356670  1.0  0.8675
  Cd  Cd135  1  0.444240  0.805760  0.356670  1.0  0.8651
  Cd  Cd136  1  0.944240  0.805760  0.856670  1.0  0.8651
  Cd  Cd137  1  0.805760  0.356670  0.444240  1.0  0.8695
  Cd  Cd138  1  0.805760  0.856670  0.944240  1.0  0.8695
  Cd  Cd139  1  0.444240  0.856670  0.305760  1.0  0.8685
  Cd  Cd140  1  0.944240  0.856670  0.805760  1.0  0.8685
  Cd  Cd141  1  0.944240  0.893330  0.944240  1.0  0.8685
  Cd  Cd142  1  0.944240  0.393330  0.444240  1.0  0.8685
  Cd  Cd143  1  0.444240  0.893330  0.444240  1.0  0.8685
  Cd  Cd144  1  0.444240  0.393330  0.944240  1.0  0.8685
  Cd  Cd145  1  0.305760  0.393330  0.805760  1.0  0.8715
  Cd  Cd146  1  0.305760  0.893330  0.305760  1.0  0.8715
  Cd  Cd147  1  0.856670  0.305760  0.444240  1.0  0.8717
  Cd  Cd148  1  0.856670  0.805760  0.944240  1.0  0.8717
  Cd  Cd149  1  0.356670  0.444240  0.805760  1.0  0.8724
  Cd  Cd150  1  0.356670  0.944240  0.305760  1.0  0.8724
  Cd  Cd151  1  0.393330  0.805760  0.305760  1.0  0.8691
  Cd  Cd152  1  0.893330  0.805760  0.805760  1.0  0.8691
  Cd  Cd153  1  0.893330  0.944240  0.944240  1.0  0.8677
  Cd  Cd154  1  0.893330  0.444240  0.444240  1.0  0.8677
  Cd  Cd155  1  0.393330  0.944240  0.444240  1.0  0.8677
  Cd  Cd156  1  0.393330  0.444240  0.944240  1.0  0.8677
  Cd  Cd157  1  0.305760  0.805760  0.393330  1.0  0.8689
  Cd  Cd158  1  0.305760  0.305760  0.893330  1.0  0.8689
  Cd  Cd159  1  0.805760  0.444240  0.356670  1.0  0.8675
  Cd  Cd160  1  0.805760  0.944240  0.856670  1.0  0.8675
  Cd  Cd161  1  0.444240  0.305760  0.856670  1.0  0.8651
  Cd  Cd162  1  0.944240  0.305760  0.356670  1.0  0.8651
  Cd  Cd163  1  0.393330  0.305760  0.805760  1.0  0.8691
  Cd  Cd164  1  0.893330  0.305760  0.305760  1.0  0.8691
  Cd  Cd165  1  0.356670  0.805760  0.444240  1.0  0.8717
  Cd  Cd166  1  0.356670  0.305760  0.944240  1.0  0.8717
  Cd  Cd167  1  0.856670  0.444240  0.305760  1.0  0.8724
  Cd  Cd168  1  0.856670  0.944240  0.805760  1.0  0.8724
  Cd  Cd169  1  0.805760  0.393330  0.305760  1.0  0.8715
  Cd  Cd170  1  0.805760  0.893330  0.805760  1.0  0.8715
  Cd  Cd171  1  0.444240  0.356670  0.805760  1.0  0.8685
  Cd  Cd172  1  0.944240  0.356670  0.305760  1.0  0.8685
  Cd  Cd173  1  0.305760  0.856670  0.444240  1.0  0.8695
  Cd  Cd174  1  0.305760  0.356670  0.944240  1.0  0.8695
  Cd  Cd175  1  0.194240  0.694240  0.606670  1.0  0.8652
  Cd  Cd176  1  0.194240  0.194240  0.106670  1.0  0.8652
  Cd  Cd177  1  0.694240  0.555760  0.143330  1.0  0.8677
  Cd  Cd178  1  0.694240  0.055760  0.643330  1.0  0.8677
  Cd  Cd179  1  0.555760  0.194240  0.643330  1.0  0.8699
  Cd  Cd180  1  0.055760  0.194240  0.143330  1.0  0.8699
  Cd  Cd181  1  0.194240  0.643330  0.555760  1.0  0.8694
  Cd  Cd182  1  0.194240  0.143330  0.055760  1.0  0.8694
  Cd  Cd183  1  0.555760  0.143330  0.694240  1.0  0.8705
  Cd  Cd184  1  0.055760  0.143330  0.194240  1.0  0.8705
  Cd  Cd185  1  0.694240  0.606670  0.194240  1.0  0.8675
  Cd  Cd186  1  0.694240  0.106670  0.694240  1.0  0.8675
  Cd  Cd187  1  0.143330  0.694240  0.555760  1.0  0.8686
  Cd  Cd188  1  0.143330  0.194240  0.055760  1.0  0.8686
  Cd  Cd189  1  0.643330  0.555760  0.194240  1.0  0.8681
  Cd  Cd190  1  0.643330  0.055760  0.694240  1.0  0.8681
  Cd  Cd191  1  0.606670  0.194240  0.694240  1.0  0.8714
  Cd  Cd192  1  0.106670  0.194240  0.194240  1.0  0.8714
  In  In193  1  0.879720  0.120280  0.000000  1.0  1.4702
  In  In194  1  0.879720  0.620280  0.500000  1.0  1.4702
  In  In195  1  0.379720  0.120280  0.500000  1.0  1.4702
  In  In196  1  0.379720  0.620280  0.000000  1.0  1.4702
  In  In197  1  0.870280  0.129720  0.500000  1.0  1.4685
  In  In198  1  0.870280  0.629720  0.000000  1.0  1.4685
  In  In199  1  0.370280  0.129720  0.000000  1.0  1.4685
  In  In200  1  0.370280  0.629720  0.500000  1.0  1.4685
  In  In201  1  0.370280  0.620280  0.750000  1.0  1.4686
  In  In202  1  0.370280  0.120280  0.250000  1.0  1.4686
  In  In203  1  0.870280  0.620280  0.250000  1.0  1.4686
  In  In204  1  0.870280  0.120280  0.750000  1.0  1.4686
  In  In205  1  0.379720  0.629720  0.250000  1.0  1.4701
  In  In206  1  0.379720  0.129720  0.750000  1.0  1.4701
  In  In207  1  0.879720  0.629720  0.750000  1.0  1.4701
  In  In208  1  0.879720  0.129720  0.250000  1.0  1.4701
  In  In209  1  0.000000  0.879720  0.120280  1.0  1.4706
  In  In210  1  0.000000  0.379720  0.620280  1.0  1.4706
  In  In211  1  0.500000  0.879720  0.620280  1.0  1.4706
  In  In212  1  0.500000  0.379720  0.120280  1.0  1.4706
  In  In213  1  0.500000  0.870280  0.129720  1.0  1.4705
  In  In214  1  0.500000  0.370280  0.629720  1.0  1.4705
  In  In215  1  0.000000  0.870280  0.629720  1.0  1.4705
  In  In216  1  0.000000  0.370280  0.129720  1.0  1.4705
  In  In217  1  0.750000  0.370280  0.620280  1.0  1.4707
  In  In218  1  0.750000  0.870280  0.120280  1.0  1.4707
  In  In219  1  0.250000  0.370280  0.120280  1.0  1.4707
  In  In220  1  0.250000  0.870280  0.620280  1.0  1.4707
  In  In221  1  0.250000  0.379720  0.629720  1.0  1.4705
  In  In222  1  0.250000  0.879720  0.129720  1.0  1.4705
  In  In223  1  0.750000  0.379720  0.129720  1.0  1.4705
  In  In224  1  0.750000  0.879720  0.629720  1.0  1.4705
  In  In225  1  0.120280  0.000000  0.879720  1.0  1.4688
  In  In226  1  0.120280  0.500000  0.379720  1.0  1.4688
  In  In227  1  0.620280  0.000000  0.379720  1.0  1.4688
  In  In228  1  0.620280  0.500000  0.879720  1.0  1.4688
  In  In229  1  0.129720  0.500000  0.870280  1.0  1.4705
  In  In230  1  0.129720  0.000000  0.370280  1.0  1.4705
  In  In231  1  0.629720  0.500000  0.370280  1.0  1.4705
  In  In232  1  0.629720  0.000000  0.870280  1.0  1.4705
  In  In233  1  0.620280  0.750000  0.370280  1.0  1.4689
  In  In234  1  0.620280  0.250000  0.870280  1.0  1.4689
  In  In235  1  0.120280  0.750000  0.870280  1.0  1.4689
  In  In236  1  0.120280  0.250000  0.370280  1.0  1.4689
  In  In237  1  0.629720  0.250000  0.379720  1.0  1.4705
  In  In238  1  0.629720  0.750000  0.879720  1.0  1.4705
  In  In239  1  0.129720  0.250000  0.879720  1.0  1.4705
  In  In240  1  0.129720  0.750000  0.379720  1.0  1.4705
  In  In241  1  0.120280  0.879720  0.000000  1.0  1.4685
  In  In242  1  0.120280  0.379720  0.500000  1.0  1.4685
  In  In243  1  0.620280  0.879720  0.500000  1.0  1.4685
  In  In244  1  0.620280  0.379720  0.000000  1.0  1.4685
  In  In245  1  0.129720  0.870280  0.500000  1.0  1.4702
  In  In246  1  0.129720  0.370280  0.000000  1.0  1.4702
  In  In247  1  0.629720  0.870280  0.000000  1.0  1.4702
  In  In248  1  0.629720  0.370280  0.500000  1.0  1.4702
  In  In249  1  0.629720  0.379720  0.250000  1.0  1.4701
  In  In250  1  0.629720  0.879720  0.750000  1.0  1.4701
  In  In251  1  0.129720  0.379720  0.750000  1.0  1.4701
  In  In252  1  0.129720  0.879720  0.250000  1.0  1.4701
  In  In253  1  0.620280  0.370280  0.750000  1.0  1.4686
  In  In254  1  0.620280  0.870280  0.250000  1.0  1.4686
  In  In255  1  0.120280  0.370280  0.250000  1.0  1.4686
  In  In256  1  0.120280  0.870280  0.750000  1.0  1.4686
  In  In257  1  0.000000  0.120280  0.879720  1.0  1.4705
  In  In258  1  0.000000  0.620280  0.379720  1.0  1.4705
  In  In259  1  0.500000  0.120280  0.379720  1.0  1.4705
  In  In260  1  0.500000  0.620280  0.879720  1.0  1.4705
  In  In261  1  0.500000  0.129720  0.870280  1.0  1.4706
  In  In262  1  0.500000  0.629720  0.370280  1.0  1.4706
  In  In263  1  0.000000  0.129720  0.370280  1.0  1.4706
  In  In264  1  0.000000  0.629720  0.870280  1.0  1.4706
  In  In265  1  0.250000  0.629720  0.379720  1.0  1.4705
  In  In266  1  0.250000  0.129720  0.879720  1.0  1.4705
  In  In267  1  0.750000  0.629720  0.879720  1.0  1.4705
  In  In268  1  0.750000  0.129720  0.379720  1.0  1.4705
  In  In269  1  0.750000  0.620280  0.370280  1.0  1.4707
  In  In270  1  0.750000  0.120280  0.870280  1.0  1.4707
  In  In271  1  0.250000  0.620280  0.870280  1.0  1.4707
  In  In272  1  0.250000  0.120280  0.370280  1.0  1.4707
  In  In273  1  0.879720  0.000000  0.120280  1.0  1.4705
  In  In274  1  0.879720  0.500000  0.620280  1.0  1.4705
  In  In275  1  0.379720  0.000000  0.620280  1.0  1.4705
  In  In276  1  0.379720  0.500000  0.120280  1.0  1.4705
  In  In277  1  0.870280  0.500000  0.129720  1.0  1.4688
  In  In278  1  0.870280  0.000000  0.629720  1.0  1.4688
  In  In279  1  0.370280  0.500000  0.629720  1.0  1.4688
  In  In280  1  0.370280  0.000000  0.129720  1.0  1.4688
  In  In281  1  0.379720  0.250000  0.629720  1.0  1.4705
  In  In282  1  0.379720  0.750000  0.129720  1.0  1.4705
  In  In283  1  0.879720  0.250000  0.129720  1.0  1.4705
  In  In284  1  0.879720  0.750000  0.629720  1.0  1.4705
  In  In285  1  0.370280  0.750000  0.620280  1.0  1.4689
  In  In286  1  0.370280  0.250000  0.120280  1.0  1.4689
  In  In287  1  0.870280  0.750000  0.120280  1.0  1.4689
  In  In288  1  0.870280  0.250000  0.620280  1.0  1.4689
  C  C289  1  0.917000  0.102700  0.035300  1.0  0.7119
  C  C290  1  0.933600  0.087000  0.053400  1.0  -0.0929
  C  C291  1  0.961300  0.087900  0.055800  1.0  0.0844
  C  C292  1  0.829900  0.114700  0.989800  1.0  0.7026
  C  C293  1  0.801400  0.110100  0.981800  1.0  0.0024
  C  C294  1  0.783800  0.098100  0.000100  1.0  0.0228
  C  C295  1  0.917000  0.602700  0.535300  1.0  0.7119
  C  C296  1  0.933600  0.587000  0.553400  1.0  -0.0929
  C  C297  1  0.961300  0.587900  0.555800  1.0  0.0844
  C  C298  1  0.829900  0.614700  0.489800  1.0  0.7026
  C  C299  1  0.801400  0.610100  0.481800  1.0  0.0024
  C  C300  1  0.783800  0.598100  0.500100  1.0  0.0228
  C  C301  1  0.417000  0.102700  0.535300  1.0  0.7119
  C  C302  1  0.433600  0.087000  0.553400  1.0  -0.0929
  C  C303  1  0.461300  0.087900  0.555800  1.0  0.0844
  C  C304  1  0.329900  0.114700  0.489800  1.0  0.7026
  C  C305  1  0.301400  0.110100  0.481800  1.0  0.0024
  C  C306  1  0.283800  0.098100  0.500100  1.0  0.0228
  C  C307  1  0.417000  0.602700  0.035300  1.0  0.7119
  C  C308  1  0.433600  0.587000  0.053400  1.0  -0.0929
  C  C309  1  0.461300  0.587900  0.055800  1.0  0.0844
  C  C310  1  0.329900  0.614700  0.989800  1.0  0.7026
  C  C311  1  0.301400  0.610100  0.981800  1.0  0.0024
  C  C312  1  0.283800  0.598100  0.000100  1.0  0.0228
  C  C313  1  0.833000  0.147300  0.535300  1.0  0.7123
  C  C314  1  0.816400  0.163000  0.553400  1.0  -0.0934
  C  C315  1  0.788700  0.162100  0.555800  1.0  0.0862
  C  C316  1  0.920100  0.135300  0.489800  1.0  0.7033
  C  C317  1  0.948600  0.139900  0.481800  1.0  0.0024
  C  C318  1  0.966200  0.151900  0.500100  1.0  0.0214
  C  C319  1  0.833000  0.647300  0.035300  1.0  0.7123
  C  C320  1  0.816400  0.663000  0.053400  1.0  -0.0934
  C  C321  1  0.788700  0.662100  0.055800  1.0  0.0862
  C  C322  1  0.920100  0.635300  0.989800  1.0  0.7033
  C  C323  1  0.948600  0.639900  0.981800  1.0  0.0024
  C  C324  1  0.966200  0.651900  0.000100  1.0  0.0214
  C  C325  1  0.333000  0.147300  0.035300  1.0  0.7123
  C  C326  1  0.316400  0.163000  0.053400  1.0  -0.0934
  C  C327  1  0.288700  0.162100  0.055800  1.0  0.0862
  C  C328  1  0.420100  0.135300  0.989800  1.0  0.7033
  C  C329  1  0.448600  0.139900  0.981800  1.0  0.0024
  C  C330  1  0.466200  0.151900  0.000100  1.0  0.0214
  C  C331  1  0.333000  0.647300  0.535300  1.0  0.7123
  C  C332  1  0.316400  0.663000  0.553400  1.0  -0.0934
  C  C333  1  0.288700  0.662100  0.555800  1.0  0.0862
  C  C334  1  0.420100  0.635300  0.489800  1.0  0.7033
  C  C335  1  0.448600  0.639900  0.481800  1.0  0.0024
  C  C336  1  0.466200  0.651900  0.500100  1.0  0.0214
  C  C337  1  0.333000  0.602700  0.714700  1.0  0.7129
  C  C338  1  0.316400  0.587000  0.696600  1.0  -0.0928
  C  C339  1  0.288700  0.587900  0.694200  1.0  0.0863
  C  C340  1  0.420100  0.614700  0.760200  1.0  0.7029
  C  C341  1  0.448600  0.610100  0.768200  1.0  0.0016
  C  C342  1  0.466200  0.598100  0.749900  1.0  0.0219
  C  C343  1  0.333000  0.102700  0.214700  1.0  0.7129
  C  C344  1  0.316400  0.087000  0.196600  1.0  -0.0928
  C  C345  1  0.288700  0.087900  0.194200  1.0  0.0863
  C  C346  1  0.420100  0.114700  0.260200  1.0  0.7029
  C  C347  1  0.448600  0.110100  0.268200  1.0  0.0016
  C  C348  1  0.466200  0.098100  0.249900  1.0  0.0219
  C  C349  1  0.833000  0.602700  0.214700  1.0  0.7129
  C  C350  1  0.816400  0.587000  0.196600  1.0  -0.0928
  C  C351  1  0.788700  0.587900  0.194200  1.0  0.0863
  C  C352  1  0.920100  0.614700  0.260200  1.0  0.7029
  C  C353  1  0.948600  0.610100  0.268200  1.0  0.0016
  C  C354  1  0.966200  0.598100  0.249900  1.0  0.0219
  C  C355  1  0.833000  0.102700  0.714700  1.0  0.7129
  C  C356  1  0.816400  0.087000  0.696600  1.0  -0.0928
  C  C357  1  0.788700  0.087900  0.694200  1.0  0.0863
  C  C358  1  0.920100  0.114700  0.760200  1.0  0.7029
  C  C359  1  0.948600  0.110100  0.768200  1.0  0.0016
  C  C360  1  0.966200  0.098100  0.749900  1.0  0.0219
  C  C361  1  0.417000  0.647300  0.214700  1.0  0.7113
  C  C362  1  0.433600  0.663000  0.196600  1.0  -0.0923
  C  C363  1  0.461300  0.662100  0.194200  1.0  0.0846
  C  C364  1  0.329900  0.635300  0.260200  1.0  0.7026
  C  C365  1  0.301400  0.639900  0.268200  1.0  0.0019
  C  C366  1  0.283800  0.651900  0.249900  1.0  0.0239
  C  C367  1  0.417000  0.147300  0.714700  1.0  0.7113
  C  C368  1  0.433600  0.163000  0.696600  1.0  -0.0923
  C  C369  1  0.461300  0.162100  0.694200  1.0  0.0846
  C  C370  1  0.329900  0.135300  0.760200  1.0  0.7026
  C  C371  1  0.301400  0.139900  0.768200  1.0  0.0019
  C  C372  1  0.283800  0.151900  0.749900  1.0  0.0239
  C  C373  1  0.917000  0.647300  0.714700  1.0  0.7113
  C  C374  1  0.933600  0.663000  0.696600  1.0  -0.0923
  C  C375  1  0.961300  0.662100  0.694200  1.0  0.0846
  C  C376  1  0.829900  0.635300  0.760200  1.0  0.7026
  C  C377  1  0.801400  0.639900  0.768200  1.0  0.0019
  C  C378  1  0.783800  0.651900  0.749900  1.0  0.0239
  C  C379  1  0.917000  0.147300  0.214700  1.0  0.7113
  C  C380  1  0.933600  0.163000  0.196600  1.0  -0.0923
  C  C381  1  0.961300  0.162100  0.194200  1.0  0.0846
  C  C382  1  0.829900  0.135300  0.260200  1.0  0.7026
  C  C383  1  0.801400  0.139900  0.268200  1.0  0.0019
  C  C384  1  0.783800  0.151900  0.249900  1.0  0.0239
  C  C385  1  0.035300  0.917000  0.102700  1.0  0.7128
  C  C386  1  0.053400  0.933600  0.087000  1.0  -0.0922
  C  C387  1  0.055800  0.961300  0.087900  1.0  0.0884
  C  C388  1  0.989800  0.829900  0.114700  1.0  0.7037
  C  C389  1  0.981800  0.801400  0.110100  1.0  0.0032
  C  C390  1  0.000100  0.783800  0.098100  1.0  0.0306
  C  C391  1  0.035300  0.417000  0.602700  1.0  0.7128
  C  C392  1  0.053400  0.433600  0.587000  1.0  -0.0922
  C  C393  1  0.055800  0.461300  0.587900  1.0  0.0884
  C  C394  1  0.989800  0.329900  0.614700  1.0  0.7037
  C  C395  1  0.981800  0.301400  0.610100  1.0  0.0032
  C  C396  1  0.000100  0.283800  0.598100  1.0  0.0306
  C  C397  1  0.535300  0.917000  0.602700  1.0  0.7128
  C  C398  1  0.553400  0.933600  0.587000  1.0  -0.0922
  C  C399  1  0.555800  0.961300  0.587900  1.0  0.0884
  C  C400  1  0.489800  0.829900  0.614700  1.0  0.7037
  C  C401  1  0.481800  0.801400  0.610100  1.0  0.0032
  C  C402  1  0.500100  0.783800  0.598100  1.0  0.0306
  C  C403  1  0.535300  0.417000  0.102700  1.0  0.7128
  C  C404  1  0.553400  0.433600  0.087000  1.0  -0.0922
  C  C405  1  0.555800  0.461300  0.087900  1.0  0.0884
  C  C406  1  0.489800  0.329900  0.114700  1.0  0.7037
  C  C407  1  0.481800  0.301400  0.110100  1.0  0.0032
  C  C408  1  0.500100  0.283800  0.098100  1.0  0.0306
  C  C409  1  0.535300  0.833000  0.147300  1.0  0.7125
  C  C410  1  0.553400  0.816400  0.163000  1.0  -0.0928
  C  C411  1  0.555800  0.788700  0.162100  1.0  0.0888
  C  C412  1  0.489800  0.920100  0.135300  1.0  0.7059
  C  C413  1  0.481800  0.948600  0.139900  1.0  0.0027
  C  C414  1  0.500100  0.966200  0.151900  1.0  0.0311
  C  C415  1  0.535300  0.333000  0.647300  1.0  0.7125
  C  C416  1  0.553400  0.316400  0.663000  1.0  -0.0928
  C  C417  1  0.555800  0.288700  0.662100  1.0  0.0888
  C  C418  1  0.489800  0.420100  0.635300  1.0  0.7059
  C  C419  1  0.481800  0.448600  0.639900  1.0  0.0027
  C  C420  1  0.500100  0.466200  0.651900  1.0  0.0311
  C  C421  1  0.035300  0.833000  0.647300  1.0  0.7125
  C  C422  1  0.053400  0.816400  0.663000  1.0  -0.0928
  C  C423  1  0.055800  0.788700  0.662100  1.0  0.0888
  C  C424  1  0.989800  0.920100  0.635300  1.0  0.7059
  C  C425  1  0.981800  0.948600  0.639900  1.0  0.0027
  C  C426  1  0.000100  0.966200  0.651900  1.0  0.0311
  C  C427  1  0.035300  0.333000  0.147300  1.0  0.7125
  C  C428  1  0.053400  0.316400  0.163000  1.0  -0.0928
  C  C429  1  0.055800  0.288700  0.162100  1.0  0.0888
  C  C430  1  0.989800  0.420100  0.135300  1.0  0.7059
  C  C431  1  0.981800  0.448600  0.139900  1.0  0.0027
  C  C432  1  0.000100  0.466200  0.151900  1.0  0.0311
  C  C433  1  0.714700  0.333000  0.602700  1.0  0.7134
  C  C434  1  0.696600  0.316400  0.587000  1.0  -0.0929
  C  C435  1  0.694200  0.288700  0.587900  1.0  0.0857
  C  C436  1  0.760200  0.420100  0.614700  1.0  0.7053
  C  C437  1  0.768200  0.448600  0.610100  1.0  0.002
  C  C438  1  0.749900  0.466200  0.598100  1.0  0.0312
  C  C439  1  0.714700  0.833000  0.102700  1.0  0.7134
  C  C440  1  0.696600  0.816400  0.087000  1.0  -0.0929
  C  C441  1  0.694200  0.788700  0.087900  1.0  0.0857
  C  C442  1  0.760200  0.920100  0.114700  1.0  0.7053
  C  C443  1  0.768200  0.948600  0.110100  1.0  0.002
  C  C444  1  0.749900  0.966200  0.098100  1.0  0.0312
  C  C445  1  0.214700  0.333000  0.102700  1.0  0.7134
  C  C446  1  0.196600  0.316400  0.087000  1.0  -0.0929
  C  C447  1  0.194200  0.288700  0.087900  1.0  0.0857
  C  C448  1  0.260200  0.420100  0.114700  1.0  0.7053
  C  C449  1  0.268200  0.448600  0.110100  1.0  0.002
  C  C450  1  0.249900  0.466200  0.098100  1.0  0.0312
  C  C451  1  0.214700  0.833000  0.602700  1.0  0.7134
  C  C452  1  0.196600  0.816400  0.587000  1.0  -0.0929
  C  C453  1  0.194200  0.788700  0.587900  1.0  0.0857
  C  C454  1  0.260200  0.920100  0.614700  1.0  0.7053
  C  C455  1  0.268200  0.948600  0.610100  1.0  0.002
  C  C456  1  0.249900  0.966200  0.598100  1.0  0.0312
  C  C457  1  0.214700  0.417000  0.647300  1.0  0.7132
  C  C458  1  0.196600  0.433600  0.663000  1.0  -0.0933
  C  C459  1  0.194200  0.461300  0.662100  1.0  0.0866
  C  C460  1  0.260200  0.329900  0.635300  1.0  0.703
  C  C461  1  0.268200  0.301400  0.639900  1.0  0.0018
  C  C462  1  0.249900  0.283800  0.651900  1.0  0.0317
  C  C463  1  0.214700  0.917000  0.147300  1.0  0.7132
  C  C464  1  0.196600  0.933600  0.163000  1.0  -0.0933
  C  C465  1  0.194200  0.961300  0.162100  1.0  0.0866
  C  C466  1  0.260200  0.829900  0.135300  1.0  0.703
  C  C467  1  0.268200  0.801400  0.139900  1.0  0.0018
  C  C468  1  0.249900  0.783800  0.151900  1.0  0.0317
  C  C469  1  0.714700  0.417000  0.147300  1.0  0.7132
  C  C470  1  0.696600  0.433600  0.163000  1.0  -0.0933
  C  C471  1  0.694200  0.461300  0.162100  1.0  0.0866
  C  C472  1  0.760200  0.329900  0.135300  1.0  0.703
  C  C473  1  0.768200  0.301400  0.139900  1.0  0.0018
  C  C474  1  0.749900  0.283800  0.151900  1.0  0.0317
  C  C475  1  0.714700  0.917000  0.647300  1.0  0.7132
  C  C476  1  0.696600  0.933600  0.663000  1.0  -0.0933
  C  C477  1  0.694200  0.961300  0.662100  1.0  0.0866
  C  C478  1  0.760200  0.829900  0.635300  1.0  0.703
  C  C479  1  0.768200  0.801400  0.639900  1.0  0.0018
  C  C480  1  0.749900  0.783800  0.651900  1.0  0.0317
  C  C481  1  0.102700  0.035300  0.917000  1.0  0.7131
  C  C482  1  0.087000  0.053400  0.933600  1.0  -0.0934
  C  C483  1  0.087900  0.055800  0.961300  1.0  0.0861
  C  C484  1  0.114700  0.989800  0.829900  1.0  0.705
  C  C485  1  0.110100  0.981800  0.801400  1.0  0.0036
  C  C486  1  0.098100  0.000100  0.783800  1.0  0.0268
  C  C487  1  0.102700  0.535300  0.417000  1.0  0.7131
  C  C488  1  0.087000  0.553400  0.433600  1.0  -0.0934
  C  C489  1  0.087900  0.555800  0.461300  1.0  0.0861
  C  C490  1  0.114700  0.489800  0.329900  1.0  0.705
  C  C491  1  0.110100  0.481800  0.301400  1.0  0.0036
  C  C492  1  0.098100  0.500100  0.283800  1.0  0.0268
  C  C493  1  0.602700  0.035300  0.417000  1.0  0.7131
  C  C494  1  0.587000  0.053400  0.433600  1.0  -0.0934
  C  C495  1  0.587900  0.055800  0.461300  1.0  0.0861
  C  C496  1  0.614700  0.989800  0.329900  1.0  0.705
  C  C497  1  0.610100  0.981800  0.301400  1.0  0.0036
  C  C498  1  0.598100  0.000100  0.283800  1.0  0.0268
  C  C499  1  0.602700  0.535300  0.917000  1.0  0.7131
  C  C500  1  0.587000  0.553400  0.933600  1.0  -0.0934
  C  C501  1  0.587900  0.555800  0.961300  1.0  0.0861
  C  C502  1  0.614700  0.489800  0.829900  1.0  0.705
  C  C503  1  0.610100  0.481800  0.801400  1.0  0.0036
  C  C504  1  0.598100  0.500100  0.783800  1.0  0.0268
  C  C505  1  0.147300  0.535300  0.833000  1.0  0.714
  C  C506  1  0.163000  0.553400  0.816400  1.0  -0.0923
  C  C507  1  0.162100  0.555800  0.788700  1.0  0.0883
  C  C508  1  0.135300  0.489800  0.920100  1.0  0.7043
  C  C509  1  0.139900  0.481800  0.948600  1.0  0.0019
  C  C510  1  0.151900  0.500100  0.966200  1.0  0.0286
  C  C511  1  0.147300  0.035300  0.333000  1.0  0.714
  C  C512  1  0.163000  0.053400  0.316400  1.0  -0.0923
  C  C513  1  0.162100  0.055800  0.288700  1.0  0.0883
  C  C514  1  0.135300  0.989800  0.420100  1.0  0.7043
  C  C515  1  0.139900  0.981800  0.448600  1.0  0.0019
  C  C516  1  0.151900  0.000100  0.466200  1.0  0.0286
  C  C517  1  0.647300  0.535300  0.333000  1.0  0.714
  C  C518  1  0.663000  0.553400  0.316400  1.0  -0.0923
  C  C519  1  0.662100  0.555800  0.288700  1.0  0.0883
  C  C520  1  0.635300  0.489800  0.420100  1.0  0.7043
  C  C521  1  0.639900  0.481800  0.448600  1.0  0.0019
  C  C522  1  0.651900  0.500100  0.466200  1.0  0.0286
  C  C523  1  0.647300  0.035300  0.833000  1.0  0.714
  C  C524  1  0.663000  0.053400  0.816400  1.0  -0.0923
  C  C525  1  0.662100  0.055800  0.788700  1.0  0.0883
  C  C526  1  0.635300  0.989800  0.920100  1.0  0.7043
  C  C527  1  0.639900  0.981800  0.948600  1.0  0.0019
  C  C528  1  0.651900  0.000100  0.966200  1.0  0.0286
  C  C529  1  0.602700  0.714700  0.333000  1.0  0.7132
  C  C530  1  0.587000  0.696600  0.316400  1.0  -0.0933
  C  C531  1  0.587900  0.694200  0.288700  1.0  0.0853
  C  C532  1  0.614700  0.760200  0.420100  1.0  0.7052
  C  C533  1  0.610100  0.768200  0.448600  1.0  0.0029
  C  C534  1  0.598100  0.749900  0.466200  1.0  0.0261
  C  C535  1  0.602700  0.214700  0.833000  1.0  0.7132
  C  C536  1  0.587000  0.196600  0.816400  1.0  -0.0933
  C  C537  1  0.587900  0.194200  0.788700  1.0  0.0853
  C  C538  1  0.614700  0.260200  0.920100  1.0  0.7052
  C  C539  1  0.610100  0.268200  0.948600  1.0  0.0029
  C  C540  1  0.598100  0.249900  0.966200  1.0  0.0261
  C  C541  1  0.102700  0.714700  0.833000  1.0  0.7132
  C  C542  1  0.087000  0.696600  0.816400  1.0  -0.0933
  C  C543  1  0.087900  0.694200  0.788700  1.0  0.0853
  C  C544  1  0.114700  0.760200  0.920100  1.0  0.7052
  C  C545  1  0.110100  0.768200  0.948600  1.0  0.0029
  C  C546  1  0.098100  0.749900  0.966200  1.0  0.0261
  C  C547  1  0.102700  0.214700  0.333000  1.0  0.7132
  C  C548  1  0.087000  0.196600  0.316400  1.0  -0.0933
  C  C549  1  0.087900  0.194200  0.288700  1.0  0.0853
  C  C550  1  0.114700  0.260200  0.420100  1.0  0.7052
  C  C551  1  0.110100  0.268200  0.448600  1.0  0.0029
  C  C552  1  0.098100  0.249900  0.466200  1.0  0.0261
  C  C553  1  0.647300  0.214700  0.417000  1.0  0.7131
  C  C554  1  0.663000  0.196600  0.433600  1.0  -0.0921
  C  C555  1  0.662100  0.194200  0.461300  1.0  0.0901
  C  C556  1  0.635300  0.260200  0.329900  1.0  0.7046
  C  C557  1  0.639900  0.268200  0.301400  1.0  0.0021
  C  C558  1  0.651900  0.249900  0.283800  1.0  0.0286
  C  C559  1  0.647300  0.714700  0.917000  1.0  0.7131
  C  C560  1  0.663000  0.696600  0.933600  1.0  -0.0921
  C  C561  1  0.662100  0.694200  0.961300  1.0  0.0901
  C  C562  1  0.635300  0.760200  0.829900  1.0  0.7046
  C  C563  1  0.639900  0.768200  0.801400  1.0  0.0021
  C  C564  1  0.651900  0.749900  0.783800  1.0  0.0286
  C  C565  1  0.147300  0.214700  0.917000  1.0  0.7131
  C  C566  1  0.163000  0.196600  0.933600  1.0  -0.0921
  C  C567  1  0.162100  0.194200  0.961300  1.0  0.0901
  C  C568  1  0.135300  0.260200  0.829900  1.0  0.7046
  C  C569  1  0.139900  0.268200  0.801400  1.0  0.0021
  C  C570  1  0.151900  0.249900  0.783800  1.0  0.0286
  C  C571  1  0.147300  0.714700  0.417000  1.0  0.7131
  C  C572  1  0.163000  0.696600  0.433600  1.0  -0.0921
  C  C573  1  0.162100  0.694200  0.461300  1.0  0.0901
  C  C574  1  0.135300  0.760200  0.329900  1.0  0.7046
  C  C575  1  0.139900  0.768200  0.301400  1.0  0.0021
  C  C576  1  0.151900  0.749900  0.283800  1.0  0.0286
  C  C577  1  0.852700  0.167000  0.464700  1.0  0.7134
  C  C578  1  0.837000  0.183600  0.446600  1.0  -0.0927
  C  C579  1  0.837900  0.211300  0.444200  1.0  0.0845
  C  C580  1  0.864700  0.079900  0.510200  1.0  0.7015
  C  C581  1  0.860100  0.051400  0.518200  1.0  0.003
  C  C582  1  0.848100  0.033800  0.499900  1.0  0.0229
  C  C583  1  0.852700  0.667000  0.964700  1.0  0.7134
  C  C584  1  0.837000  0.683600  0.946600  1.0  -0.0927
  C  C585  1  0.837900  0.711300  0.944200  1.0  0.0845
  C  C586  1  0.864700  0.579900  0.010200  1.0  0.7015
  C  C587  1  0.860100  0.551400  0.018200  1.0  0.003
  C  C588  1  0.848100  0.533800  0.999900  1.0  0.0229
  C  C589  1  0.352700  0.167000  0.964700  1.0  0.7134
  C  C590  1  0.337000  0.183600  0.946600  1.0  -0.0927
  C  C591  1  0.337900  0.211300  0.944200  1.0  0.0845
  C  C592  1  0.364700  0.079900  0.010200  1.0  0.7015
  C  C593  1  0.360100  0.051400  0.018200  1.0  0.003
  C  C594  1  0.348100  0.033800  0.999900  1.0  0.0229
  C  C595  1  0.352700  0.667000  0.464700  1.0  0.7134
  C  C596  1  0.337000  0.683600  0.446600  1.0  -0.0927
  C  C597  1  0.337900  0.711300  0.444200  1.0  0.0845
  C  C598  1  0.364700  0.579900  0.510200  1.0  0.7015
  C  C599  1  0.360100  0.551400  0.518200  1.0  0.003
  C  C600  1  0.348100  0.533800  0.499900  1.0  0.0229
  C  C601  1  0.897300  0.083000  0.964700  1.0  0.7137
  C  C602  1  0.913000  0.066400  0.946600  1.0  -0.0914
  C  C603  1  0.912100  0.038700  0.944200  1.0  0.0885
  C  C604  1  0.885300  0.170100  0.010200  1.0  0.7028
  C  C605  1  0.889900  0.198600  0.018200  1.0  0.0015
  C  C606  1  0.901900  0.216200  0.999900  1.0  0.0242
  C  C607  1  0.897300  0.583000  0.464700  1.0  0.7137
  C  C608  1  0.913000  0.566400  0.446600  1.0  -0.0914
  C  C609  1  0.912100  0.538700  0.444200  1.0  0.0885
  C  C610  1  0.885300  0.670100  0.510200  1.0  0.7028
  C  C611  1  0.889900  0.698600  0.518200  1.0  0.0015
  C  C612  1  0.901900  0.716200  0.499900  1.0  0.0242
  C  C613  1  0.397300  0.083000  0.464700  1.0  0.7137
  C  C614  1  0.413000  0.066400  0.446600  1.0  -0.0914
  C  C615  1  0.412100  0.038700  0.444200  1.0  0.0885
  C  C616  1  0.385300  0.170100  0.510200  1.0  0.7028
  C  C617  1  0.389900  0.198600  0.518200  1.0  0.0015
  C  C618  1  0.401900  0.216200  0.499900  1.0  0.0242
  C  C619  1  0.397300  0.583000  0.964700  1.0  0.7137
  C  C620  1  0.413000  0.566400  0.946600  1.0  -0.0914
  C  C621  1  0.412100  0.538700  0.944200  1.0  0.0885
  C  C622  1  0.385300  0.670100  0.010200  1.0  0.7028
  C  C623  1  0.389900  0.698600  0.018200  1.0  0.0015
  C  C624  1  0.401900  0.716200  0.999900  1.0  0.0242
  C  C625  1  0.352700  0.583000  0.785300  1.0  0.7134
  C  C626  1  0.337000  0.566400  0.803400  1.0  -0.0931
  C  C627  1  0.337900  0.538700  0.805800  1.0  0.0847
  C  C628  1  0.364700  0.670100  0.739800  1.0  0.7038
  C  C629  1  0.360100  0.698600  0.731800  1.0  0.0036
  C  C630  1  0.348100  0.716200  0.750100  1.0  0.0213
  C  C631  1  0.352700  0.083000  0.285300  1.0  0.7134
  C  C632  1  0.337000  0.066400  0.303400  1.0  -0.0931
  C  C633  1  0.337900  0.038700  0.305800  1.0  0.0847
  C  C634  1  0.364700  0.170100  0.239800  1.0  0.7038
  C  C635  1  0.360100  0.198600  0.231800  1.0  0.0036
  C  C636  1  0.348100  0.216200  0.250100  1.0  0.0213
  C  C637  1  0.852700  0.583000  0.285300  1.0  0.7134
  C  C638  1  0.837000  0.566400  0.303400  1.0  -0.0931
  C  C639  1  0.837900  0.538700  0.305800  1.0  0.0847
  C  C640  1  0.864700  0.670100  0.239800  1.0  0.7038
  C  C641  1  0.860100  0.698600  0.231800  1.0  0.0036
  C  C642  1  0.848100  0.716200  0.250100  1.0  0.0213
  C  C643  1  0.852700  0.083000  0.785300  1.0  0.7134
  C  C644  1  0.837000  0.066400  0.803400  1.0  -0.0931
  C  C645  1  0.837900  0.038700  0.805800  1.0  0.0847
  C  C646  1  0.864700  0.170100  0.739800  1.0  0.7038
  C  C647  1  0.860100  0.198600  0.731800  1.0  0.0036
  C  C648  1  0.848100  0.216200  0.750100  1.0  0.0213
  C  C649  1  0.397300  0.667000  0.285300  1.0  0.7139
  C  C650  1  0.413000  0.683600  0.303400  1.0  -0.0921
  C  C651  1  0.412100  0.711300  0.305800  1.0  0.088
  C  C652  1  0.385300  0.579900  0.239800  1.0  0.7008
  C  C653  1  0.389900  0.551400  0.231800  1.0  0.0026
  C  C654  1  0.401900  0.533800  0.250100  1.0  0.0223
  C  C655  1  0.397300  0.167000  0.785300  1.0  0.7139
  C  C656  1  0.413000  0.183600  0.803400  1.0  -0.0921
  C  C657  1  0.412100  0.211300  0.805800  1.0  0.088
  C  C658  1  0.385300  0.079900  0.739800  1.0  0.7008
  C  C659  1  0.389900  0.051400  0.731800  1.0  0.0026
  C  C660  1  0.401900  0.033800  0.750100  1.0  0.0223
  C  C661  1  0.897300  0.667000  0.785300  1.0  0.7139
  C  C662  1  0.913000  0.683600  0.803400  1.0  -0.0921
  C  C663  1  0.912100  0.711300  0.805800  1.0  0.088
  C  C664  1  0.885300  0.579900  0.739800  1.0  0.7008
  C  C665  1  0.889900  0.551400  0.731800  1.0  0.0026
  C  C666  1  0.901900  0.533800  0.750100  1.0  0.0223
  C  C667  1  0.897300  0.167000  0.285300  1.0  0.7139
  C  C668  1  0.913000  0.183600  0.303400  1.0  -0.0921
  C  C669  1  0.912100  0.211300  0.305800  1.0  0.088
  C  C670  1  0.885300  0.079900  0.239800  1.0  0.7008
  C  C671  1  0.889900  0.051400  0.231800  1.0  0.0026
  C  C672  1  0.901900  0.033800  0.250100  1.0  0.0223
  C  C673  1  0.667000  0.285300  0.397300  1.0  0.7117
  C  C674  1  0.683600  0.303400  0.413000  1.0  -0.0937
  C  C675  1  0.711300  0.305800  0.412100  1.0  0.0852
  C  C676  1  0.579900  0.239800  0.385300  1.0  0.6998
  C  C677  1  0.551400  0.231800  0.389900  1.0  0.0018
  C  C678  1  0.533800  0.250100  0.401900  1.0  0.0294
  C  C679  1  0.667000  0.785300  0.897300  1.0  0.7117
  C  C680  1  0.683600  0.803400  0.913000  1.0  -0.0937
  C  C681  1  0.711300  0.805800  0.912100  1.0  0.0852
  C  C682  1  0.579900  0.739800  0.885300  1.0  0.6998
  C  C683  1  0.551400  0.731800  0.889900  1.0  0.0018
  C  C684  1  0.533800  0.750100  0.901900  1.0  0.0294
  C  C685  1  0.167000  0.285300  0.897300  1.0  0.7117
  C  C686  1  0.183600  0.303400  0.913000  1.0  -0.0937
  C  C687  1  0.211300  0.305800  0.912100  1.0  0.0852
  C  C688  1  0.079900  0.239800  0.885300  1.0  0.6998
  C  C689  1  0.051400  0.231800  0.889900  1.0  0.0018
  C  C690  1  0.033800  0.250100  0.901900  1.0  0.0294
  C  C691  1  0.167000  0.785300  0.397300  1.0  0.7117
  C  C692  1  0.183600  0.803400  0.413000  1.0  -0.0937
  C  C693  1  0.211300  0.805800  0.412100  1.0  0.0852
  C  C694  1  0.079900  0.739800  0.385300  1.0  0.6998
  C  C695  1  0.051400  0.731800  0.389900  1.0  0.0018
  C  C696  1  0.033800  0.750100  0.401900  1.0  0.0294
  C  C697  1  0.583000  0.785300  0.352700  1.0  0.7132
  C  C698  1  0.566400  0.803400  0.337000  1.0  -0.0935
  C  C699  1  0.538700  0.805800  0.337900  1.0  0.0862
  C  C700  1  0.670100  0.739800  0.364700  1.0  0.7005
  C  C701  1  0.698600  0.731800  0.360100  1.0  0.0022
  C  C702  1  0.716200  0.750100  0.348100  1.0  0.0291
  C  C703  1  0.583000  0.285300  0.852700  1.0  0.7132
  C  C704  1  0.566400  0.303400  0.837000  1.0  -0.0935
  C  C705  1  0.538700  0.305800  0.837900  1.0  0.0862
  C  C706  1  0.670100  0.239800  0.864700  1.0  0.7005
  C  C707  1  0.698600  0.231800  0.860100  1.0  0.0022
  C  C708  1  0.716200  0.250100  0.848100  1.0  0.0291
  C  C709  1  0.083000  0.785300  0.852700  1.0  0.7132
  C  C710  1  0.066400  0.803400  0.837000  1.0  -0.0935
  C  C711  1  0.038700  0.805800  0.837900  1.0  0.0862
  C  C712  1  0.170100  0.739800  0.864700  1.0  0.7005
  C  C713  1  0.198600  0.731800  0.860100  1.0  0.0022
  C  C714  1  0.216200  0.750100  0.848100  1.0  0.0291
  C  C715  1  0.083000  0.285300  0.352700  1.0  0.7132
  C  C716  1  0.066400  0.303400  0.337000  1.0  -0.0935
  C  C717  1  0.038700  0.305800  0.337900  1.0  0.0862
  C  C718  1  0.170100  0.239800  0.364700  1.0  0.7005
  C  C719  1  0.198600  0.231800  0.360100  1.0  0.0022
  C  C720  1  0.216200  0.250100  0.348100  1.0  0.0291
  C  C721  1  0.083000  0.964700  0.897300  1.0  0.7125
  C  C722  1  0.066400  0.946600  0.913000  1.0  -0.094
  C  C723  1  0.038700  0.944200  0.912100  1.0  0.0878
  C  C724  1  0.170100  0.010200  0.885300  1.0  0.7006
  C  C725  1  0.198600  0.018200  0.889900  1.0  0.0012
  C  C726  1  0.216200  0.999900  0.901900  1.0  0.0278
  C  C727  1  0.083000  0.464700  0.397300  1.0  0.7125
  C  C728  1  0.066400  0.446600  0.413000  1.0  -0.094
  C  C729  1  0.038700  0.444200  0.412100  1.0  0.0878
  C  C730  1  0.170100  0.510200  0.385300  1.0  0.7006
  C  C731  1  0.198600  0.518200  0.389900  1.0  0.0012
  C  C732  1  0.216200  0.499900  0.401900  1.0  0.0278
  C  C733  1  0.583000  0.964700  0.397300  1.0  0.7125
  C  C734  1  0.566400  0.946600  0.413000  1.0  -0.094
  C  C735  1  0.538700  0.944200  0.412100  1.0  0.0878
  C  C736  1  0.670100  0.010200  0.385300  1.0  0.7006
  C  C737  1  0.698600  0.018200  0.389900  1.0  0.0012
  C  C738  1  0.716200  0.999900  0.401900  1.0  0.0278
  C  C739  1  0.583000  0.464700  0.897300  1.0  0.7125
  C  C740  1  0.566400  0.446600  0.913000  1.0  -0.094
  C  C741  1  0.538700  0.444200  0.912100  1.0  0.0878
  C  C742  1  0.670100  0.510200  0.885300  1.0  0.7006
  C  C743  1  0.698600  0.518200  0.889900  1.0  0.0012
  C  C744  1  0.716200  0.499900  0.901900  1.0  0.0278
  C  C745  1  0.167000  0.464700  0.852700  1.0  0.7117
  C  C746  1  0.183600  0.446600  0.837000  1.0  -0.0928
  C  C747  1  0.211300  0.444200  0.837900  1.0  0.0855
  C  C748  1  0.079900  0.510200  0.864700  1.0  0.7003
  C  C749  1  0.051400  0.518200  0.860100  1.0  0.002
  C  C750  1  0.033800  0.499900  0.848100  1.0  0.0288
  C  C751  1  0.167000  0.964700  0.352700  1.0  0.7117
  C  C752  1  0.183600  0.946600  0.337000  1.0  -0.0928
  C  C753  1  0.211300  0.944200  0.337900  1.0  0.0855
  C  C754  1  0.079900  0.010200  0.364700  1.0  0.7003
  C  C755  1  0.051400  0.018200  0.360100  1.0  0.002
  C  C756  1  0.033800  0.999900  0.348100  1.0  0.0288
  C  C757  1  0.667000  0.464700  0.352700  1.0  0.7117
  C  C758  1  0.683600  0.446600  0.337000  1.0  -0.0928
  C  C759  1  0.711300  0.444200  0.337900  1.0  0.0855
  C  C760  1  0.579900  0.510200  0.364700  1.0  0.7003
  C  C761  1  0.551400  0.518200  0.360100  1.0  0.002
  C  C762  1  0.533800  0.499900  0.348100  1.0  0.0288
  C  C763  1  0.667000  0.964700  0.852700  1.0  0.7117
  C  C764  1  0.683600  0.946600  0.837000  1.0  -0.0928
  C  C765  1  0.711300  0.944200  0.837900  1.0  0.0855
  C  C766  1  0.579900  0.010200  0.864700  1.0  0.7003
  C  C767  1  0.551400  0.018200  0.860100  1.0  0.002
  C  C768  1  0.533800  0.999900  0.848100  1.0  0.0288
  C  C769  1  0.785300  0.352700  0.583000  1.0  0.7128
  C  C770  1  0.803400  0.337000  0.566400  1.0  -0.0923
  C  C771  1  0.805800  0.337900  0.538700  1.0  0.0885
  C  C772  1  0.739800  0.364700  0.670100  1.0  0.7028
  C  C773  1  0.731800  0.360100  0.698600  1.0  0.0029
  C  C774  1  0.750100  0.348100  0.716200  1.0  0.0295
  C  C775  1  0.785300  0.852700  0.083000  1.0  0.7128
  C  C776  1  0.803400  0.837000  0.066400  1.0  -0.0923
  C  C777  1  0.805800  0.837900  0.038700  1.0  0.0885
  C  C778  1  0.739800  0.864700  0.170100  1.0  0.7028
  C  C779  1  0.731800  0.860100  0.198600  1.0  0.0029
  C  C780  1  0.750100  0.848100  0.216200  1.0  0.0295
  C  C781  1  0.285300  0.352700  0.083000  1.0  0.7128
  C  C782  1  0.303400  0.337000  0.066400  1.0  -0.0923
  C  C783  1  0.305800  0.337900  0.038700  1.0  0.0885
  C  C784  1  0.239800  0.364700  0.170100  1.0  0.7028
  C  C785  1  0.231800  0.360100  0.198600  1.0  0.0029
  C  C786  1  0.250100  0.348100  0.216200  1.0  0.0295
  C  C787  1  0.285300  0.852700  0.583000  1.0  0.7128
  C  C788  1  0.303400  0.837000  0.566400  1.0  -0.0923
  C  C789  1  0.305800  0.837900  0.538700  1.0  0.0885
  C  C790  1  0.239800  0.864700  0.670100  1.0  0.7028
  C  C791  1  0.231800  0.860100  0.698600  1.0  0.0029
  C  C792  1  0.250100  0.848100  0.716200  1.0  0.0295
  C  C793  1  0.285300  0.397300  0.667000  1.0  0.7114
  C  C794  1  0.303400  0.413000  0.683600  1.0  -0.0922
  C  C795  1  0.305800  0.412100  0.711300  1.0  0.0881
  C  C796  1  0.239800  0.385300  0.579900  1.0  0.7028
  C  C797  1  0.231800  0.389900  0.551400  1.0  0.0035
  C  C798  1  0.250100  0.401900  0.533800  1.0  0.0302
  C  C799  1  0.285300  0.897300  0.167000  1.0  0.7114
  C  C800  1  0.303400  0.913000  0.183600  1.0  -0.0922
  C  C801  1  0.305800  0.912100  0.211300  1.0  0.0881
  C  C802  1  0.239800  0.885300  0.079900  1.0  0.7028
  C  C803  1  0.231800  0.889900  0.051400  1.0  0.0035
  C  C804  1  0.250100  0.901900  0.033800  1.0  0.0302
  C  C805  1  0.785300  0.397300  0.167000  1.0  0.7114
  C  C806  1  0.803400  0.413000  0.183600  1.0  -0.0922
  C  C807  1  0.805800  0.412100  0.211300  1.0  0.0881
  C  C808  1  0.739800  0.385300  0.079900  1.0  0.7028
  C  C809  1  0.731800  0.389900  0.051400  1.0  0.0035
  C  C810  1  0.750100  0.401900  0.033800  1.0  0.0302
  C  C811  1  0.785300  0.897300  0.667000  1.0  0.7114
  C  C812  1  0.803400  0.913000  0.683600  1.0  -0.0922
  C  C813  1  0.805800  0.912100  0.711300  1.0  0.0881
  C  C814  1  0.739800  0.885300  0.579900  1.0  0.7028
  C  C815  1  0.731800  0.889900  0.551400  1.0  0.0035
  C  C816  1  0.750100  0.901900  0.533800  1.0  0.0302
  C  C817  1  0.464700  0.852700  0.167000  1.0  0.713
  C  C818  1  0.446600  0.837000  0.183600  1.0  -0.093
  C  C819  1  0.444200  0.837900  0.211300  1.0  0.087
  C  C820  1  0.510200  0.864700  0.079900  1.0  0.7016
  C  C821  1  0.518200  0.860100  0.051400  1.0  0.0022
  C  C822  1  0.499900  0.848100  0.033800  1.0  0.0303
  C  C823  1  0.464700  0.352700  0.667000  1.0  0.713
  C  C824  1  0.446600  0.337000  0.683600  1.0  -0.093
  C  C825  1  0.444200  0.337900  0.711300  1.0  0.087
  C  C826  1  0.510200  0.364700  0.579900  1.0  0.7016
  C  C827  1  0.518200  0.360100  0.551400  1.0  0.0022
  C  C828  1  0.499900  0.348100  0.533800  1.0  0.0303
  C  C829  1  0.964700  0.852700  0.667000  1.0  0.713
  C  C830  1  0.946600  0.837000  0.683600  1.0  -0.093
  C  C831  1  0.944200  0.837900  0.711300  1.0  0.087
  C  C832  1  0.010200  0.864700  0.579900  1.0  0.7016
  C  C833  1  0.018200  0.860100  0.551400  1.0  0.0022
  C  C834  1  0.999900  0.848100  0.533800  1.0  0.0303
  C  C835  1  0.964700  0.352700  0.167000  1.0  0.713
  C  C836  1  0.946600  0.337000  0.183600  1.0  -0.093
  C  C837  1  0.944200  0.337900  0.211300  1.0  0.087
  C  C838  1  0.010200  0.364700  0.079900  1.0  0.7016
  C  C839  1  0.018200  0.360100  0.051400  1.0  0.0022
  C  C840  1  0.999900  0.348100  0.033800  1.0  0.0303
  C  C841  1  0.964700  0.897300  0.083000  1.0  0.7126
  C  C842  1  0.946600  0.913000  0.066400  1.0  -0.0928
  C  C843  1  0.944200  0.912100  0.038700  1.0  0.0863
  C  C844  1  0.010200  0.885300  0.170100  1.0  0.7022
  C  C845  1  0.018200  0.889900  0.198600  1.0  0.0017
  C  C846  1  0.999900  0.901900  0.216200  1.0  0.0306
  C  C847  1  0.964700  0.397300  0.583000  1.0  0.7126
  C  C848  1  0.946600  0.413000  0.566400  1.0  -0.0928
  C  C849  1  0.944200  0.412100  0.538700  1.0  0.0863
  C  C850  1  0.010200  0.385300  0.670100  1.0  0.7022
  C  C851  1  0.018200  0.389900  0.698600  1.0  0.0017
  C  C852  1  0.999900  0.401900  0.716200  1.0  0.0306
  C  C853  1  0.464700  0.897300  0.583000  1.0  0.7126
  C  C854  1  0.446600  0.913000  0.566400  1.0  -0.0928
  C  C855  1  0.444200  0.912100  0.538700  1.0  0.0863
  C  C856  1  0.510200  0.885300  0.670100  1.0  0.7022
  C  C857  1  0.518200  0.889900  0.698600  1.0  0.0017
  C  C858  1  0.499900  0.901900  0.716200  1.0  0.0306
  C  C859  1  0.464700  0.397300  0.083000  1.0  0.7126
  C  C860  1  0.446600  0.413000  0.066400  1.0  -0.0928
  C  C861  1  0.444200  0.412100  0.038700  1.0  0.0863
  C  C862  1  0.510200  0.385300  0.170100  1.0  0.7022
  C  C863  1  0.518200  0.389900  0.198600  1.0  0.0017
  C  C864  1  0.499900  0.401900  0.216200  1.0  0.0306
  C  C865  1  0.083000  0.897300  0.964700  1.0  0.7123
  C  C866  1  0.066400  0.913000  0.946600  1.0  -0.0925
  C  C867  1  0.038700  0.912100  0.944200  1.0  0.0851
  C  C868  1  0.170100  0.885300  0.010200  1.0  0.7032
  C  C869  1  0.198600  0.889900  0.018200  1.0  0.001
  C  C870  1  0.216200  0.901900  0.999900  1.0  0.0231
  C  C871  1  0.083000  0.397300  0.464700  1.0  0.7123
  C  C872  1  0.066400  0.413000  0.446600  1.0  -0.0925
  C  C873  1  0.038700  0.412100  0.444200  1.0  0.0851
  C  C874  1  0.170100  0.385300  0.510200  1.0  0.7032
  C  C875  1  0.198600  0.389900  0.518200  1.0  0.001
  C  C876  1  0.216200  0.401900  0.499900  1.0  0.0231
  C  C877  1  0.583000  0.897300  0.464700  1.0  0.7123
  C  C878  1  0.566400  0.913000  0.446600  1.0  -0.0925
  C  C879  1  0.538700  0.912100  0.444200  1.0  0.0851
  C  C880  1  0.670100  0.885300  0.510200  1.0  0.7032
  C  C881  1  0.698600  0.889900  0.518200  1.0  0.001
  C  C882  1  0.716200  0.901900  0.499900  1.0  0.0231
  C  C883  1  0.583000  0.397300  0.964700  1.0  0.7123
  C  C884  1  0.566400  0.413000  0.946600  1.0  -0.0925
  C  C885  1  0.538700  0.412100  0.944200  1.0  0.0851
  C  C886  1  0.670100  0.385300  0.010200  1.0  0.7032
  C  C887  1  0.698600  0.389900  0.018200  1.0  0.001
  C  C888  1  0.716200  0.401900  0.999900  1.0  0.0231
  C  C889  1  0.167000  0.852700  0.464700  1.0  0.7118
  C  C890  1  0.183600  0.837000  0.446600  1.0  -0.0919
  C  C891  1  0.211300  0.837900  0.444200  1.0  0.0851
  C  C892  1  0.079900  0.864700  0.510200  1.0  0.7023
  C  C893  1  0.051400  0.860100  0.518200  1.0  0.0012
  C  C894  1  0.033800  0.848100  0.499900  1.0  0.023
  C  C895  1  0.167000  0.352700  0.964700  1.0  0.7118
  C  C896  1  0.183600  0.337000  0.946600  1.0  -0.0919
  C  C897  1  0.211300  0.337900  0.944200  1.0  0.0851
  C  C898  1  0.079900  0.364700  0.010200  1.0  0.7023
  C  C899  1  0.051400  0.360100  0.018200  1.0  0.0012
  C  C900  1  0.033800  0.348100  0.999900  1.0  0.023
  C  C901  1  0.667000  0.852700  0.964700  1.0  0.7118
  C  C902  1  0.683600  0.837000  0.946600  1.0  -0.0919
  C  C903  1  0.711300  0.837900  0.944200  1.0  0.0851
  C  C904  1  0.579900  0.864700  0.010200  1.0  0.7023
  C  C905  1  0.551400  0.860100  0.018200  1.0  0.0012
  C  C906  1  0.533800  0.848100  0.999900  1.0  0.023
  C  C907  1  0.667000  0.352700  0.464700  1.0  0.7118
  C  C908  1  0.683600  0.337000  0.446600  1.0  -0.0919
  C  C909  1  0.711300  0.337900  0.444200  1.0  0.0851
  C  C910  1  0.579900  0.364700  0.510200  1.0  0.7023
  C  C911  1  0.551400  0.360100  0.518200  1.0  0.0012
  C  C912  1  0.533800  0.348100  0.499900  1.0  0.023
  C  C913  1  0.667000  0.397300  0.285300  1.0  0.7112
  C  C914  1  0.683600  0.413000  0.303400  1.0  -0.0925
  C  C915  1  0.711300  0.412100  0.305800  1.0  0.0845
  C  C916  1  0.579900  0.385300  0.239800  1.0  0.7027
  C  C917  1  0.551400  0.389900  0.231800  1.0  0.0019
  C  C918  1  0.533800  0.401900  0.250100  1.0  0.0224
  C  C919  1  0.667000  0.897300  0.785300  1.0  0.7112
  C  C920  1  0.683600  0.913000  0.803400  1.0  -0.0925
  C  C921  1  0.711300  0.912100  0.805800  1.0  0.0845
  C  C922  1  0.579900  0.885300  0.739800  1.0  0.7027
  C  C923  1  0.551400  0.889900  0.731800  1.0  0.0019
  C  C924  1  0.533800  0.901900  0.750100  1.0  0.0224
  C  C925  1  0.167000  0.397300  0.785300  1.0  0.7112
  C  C926  1  0.183600  0.413000  0.803400  1.0  -0.0925
  C  C927  1  0.211300  0.412100  0.805800  1.0  0.0845
  C  C928  1  0.079900  0.385300  0.739800  1.0  0.7027
  C  C929  1  0.051400  0.389900  0.731800  1.0  0.0019
  C  C930  1  0.033800  0.401900  0.750100  1.0  0.0224
  C  C931  1  0.167000  0.897300  0.285300  1.0  0.7112
  C  C932  1  0.183600  0.913000  0.303400  1.0  -0.0925
  C  C933  1  0.211300  0.912100  0.305800  1.0  0.0845
  C  C934  1  0.079900  0.885300  0.239800  1.0  0.7027
  C  C935  1  0.051400  0.889900  0.231800  1.0  0.0019
  C  C936  1  0.033800  0.901900  0.250100  1.0  0.0224
  C  C937  1  0.583000  0.352700  0.785300  1.0  0.713
  C  C938  1  0.566400  0.337000  0.803400  1.0  -0.093
  C  C939  1  0.538700  0.337900  0.805800  1.0  0.0863
  C  C940  1  0.670100  0.364700  0.739800  1.0  0.703
  C  C941  1  0.698600  0.360100  0.731800  1.0  0.0018
  C  C942  1  0.716200  0.348100  0.750100  1.0  0.0215
  C  C943  1  0.583000  0.852700  0.285300  1.0  0.713
  C  C944  1  0.566400  0.837000  0.303400  1.0  -0.093
  C  C945  1  0.538700  0.837900  0.305800  1.0  0.0863
  C  C946  1  0.670100  0.864700  0.239800  1.0  0.703
  C  C947  1  0.698600  0.860100  0.231800  1.0  0.0018
  C  C948  1  0.716200  0.848100  0.250100  1.0  0.0215
  C  C949  1  0.083000  0.352700  0.285300  1.0  0.713
  C  C950  1  0.066400  0.337000  0.303400  1.0  -0.093
  C  C951  1  0.038700  0.337900  0.305800  1.0  0.0863
  C  C952  1  0.170100  0.364700  0.239800  1.0  0.703
  C  C953  1  0.198600  0.360100  0.231800  1.0  0.0018
  C  C954  1  0.216200  0.348100  0.250100  1.0  0.0215
  C  C955  1  0.083000  0.852700  0.785300  1.0  0.713
  C  C956  1  0.066400  0.837000  0.803400  1.0  -0.093
  C  C957  1  0.038700  0.837900  0.805800  1.0  0.0863
  C  C958  1  0.170100  0.864700  0.739800  1.0  0.703
  C  C959  1  0.198600  0.860100  0.731800  1.0  0.0018
  C  C960  1  0.216200  0.848100  0.750100  1.0  0.0215
  C  C961  1  0.964700  0.083000  0.897300  1.0  0.7132
  C  C962  1  0.946600  0.066400  0.913000  1.0  -0.0929
  C  C963  1  0.944200  0.038700  0.912100  1.0  0.0868
  C  C964  1  0.010200  0.170100  0.885300  1.0  0.7052
  C  C965  1  0.018200  0.198600  0.889900  1.0  0.0008
  C  C966  1  0.999900  0.216200  0.901900  1.0  0.0313
  C  C967  1  0.964700  0.583000  0.397300  1.0  0.7132
  C  C968  1  0.946600  0.566400  0.413000  1.0  -0.0929
  C  C969  1  0.944200  0.538700  0.412100  1.0  0.0868
  C  C970  1  0.010200  0.670100  0.385300  1.0  0.7052
  C  C971  1  0.018200  0.698600  0.389900  1.0  0.0008
  C  C972  1  0.999900  0.716200  0.401900  1.0  0.0313
  C  C973  1  0.464700  0.083000  0.397300  1.0  0.7132
  C  C974  1  0.446600  0.066400  0.413000  1.0  -0.0929
  C  C975  1  0.444200  0.038700  0.412100  1.0  0.0868
  C  C976  1  0.510200  0.170100  0.385300  1.0  0.7052
  C  C977  1  0.518200  0.198600  0.389900  1.0  0.0008
  C  C978  1  0.499900  0.216200  0.401900  1.0  0.0313
  C  C979  1  0.464700  0.583000  0.897300  1.0  0.7132
  C  C980  1  0.446600  0.566400  0.913000  1.0  -0.0929
  C  C981  1  0.444200  0.538700  0.912100  1.0  0.0868
  C  C982  1  0.510200  0.670100  0.885300  1.0  0.7052
  C  C983  1  0.518200  0.698600  0.889900  1.0  0.0008
  C  C984  1  0.499900  0.716200  0.901900  1.0  0.0313
  C  C985  1  0.464700  0.167000  0.852700  1.0  0.7135
  C  C986  1  0.446600  0.183600  0.837000  1.0  -0.0926
  C  C987  1  0.444200  0.211300  0.837900  1.0  0.0859
  C  C988  1  0.510200  0.079900  0.864700  1.0  0.703
  C  C989  1  0.518200  0.051400  0.860100  1.0  0.0017
  C  C990  1  0.499900  0.033800  0.848100  1.0  0.0317
  C  C991  1  0.464700  0.667000  0.352700  1.0  0.7135
  C  C992  1  0.446600  0.683600  0.337000  1.0  -0.0926
  C  C993  1  0.444200  0.711300  0.337900  1.0  0.0859
  C  C994  1  0.510200  0.579900  0.364700  1.0  0.703
  C  C995  1  0.518200  0.551400  0.360100  1.0  0.0017
  C  C996  1  0.499900  0.533800  0.348100  1.0  0.0317
  C  C997  1  0.964700  0.167000  0.352700  1.0  0.7135
  C  C998  1  0.946600  0.183600  0.337000  1.0  -0.0926
  C  C999  1  0.944200  0.211300  0.337900  1.0  0.0859
  C  C1000  1  0.010200  0.079900  0.364700  1.0  0.703
  C  C1001  1  0.018200  0.051400  0.360100  1.0  0.0017
  C  C1002  1  0.999900  0.033800  0.348100  1.0  0.0317
  C  C1003  1  0.964700  0.667000  0.852700  1.0  0.7135
  C  C1004  1  0.946600  0.683600  0.837000  1.0  -0.0926
  C  C1005  1  0.944200  0.711300  0.837900  1.0  0.0859
  C  C1006  1  0.010200  0.579900  0.864700  1.0  0.703
  C  C1007  1  0.018200  0.551400  0.860100  1.0  0.0017
  C  C1008  1  0.999900  0.533800  0.848100  1.0  0.0317
  C  C1009  1  0.285300  0.667000  0.397300  1.0  0.7125
  C  C1010  1  0.303400  0.683600  0.413000  1.0  -0.0925
  C  C1011  1  0.305800  0.711300  0.412100  1.0  0.0889
  C  C1012  1  0.239800  0.579900  0.385300  1.0  0.7036
  C  C1013  1  0.231800  0.551400  0.389900  1.0  0.0023
  C  C1014  1  0.250100  0.533800  0.401900  1.0  0.0308
  C  C1015  1  0.285300  0.167000  0.897300  1.0  0.7125
  C  C1016  1  0.303400  0.183600  0.913000  1.0  -0.0925
  C  C1017  1  0.305800  0.211300  0.912100  1.0  0.0889
  C  C1018  1  0.239800  0.079900  0.885300  1.0  0.7036
  C  C1019  1  0.231800  0.051400  0.889900  1.0  0.0023
  C  C1020  1  0.250100  0.033800  0.901900  1.0  0.0308
  C  C1021  1  0.785300  0.667000  0.897300  1.0  0.7125
  C  C1022  1  0.803400  0.683600  0.913000  1.0  -0.0925
  C  C1023  1  0.805800  0.711300  0.912100  1.0  0.0889
  C  C1024  1  0.739800  0.579900  0.885300  1.0  0.7036
  C  C1025  1  0.731800  0.551400  0.889900  1.0  0.0023
  C  C1026  1  0.750100  0.533800  0.901900  1.0  0.0308
  C  C1027  1  0.785300  0.167000  0.397300  1.0  0.7125
  C  C1028  1  0.803400  0.183600  0.413000  1.0  -0.0925
  C  C1029  1  0.805800  0.211300  0.412100  1.0  0.0889
  C  C1030  1  0.739800  0.079900  0.385300  1.0  0.7036
  C  C1031  1  0.731800  0.051400  0.389900  1.0  0.0023
  C  C1032  1  0.750100  0.033800  0.401900  1.0  0.0308
  C  C1033  1  0.785300  0.583000  0.352700  1.0  0.7127
  C  C1034  1  0.803400  0.566400  0.337000  1.0  -0.0919
  C  C1035  1  0.805800  0.538700  0.337900  1.0  0.088
  C  C1036  1  0.739800  0.670100  0.364700  1.0  0.706
  C  C1037  1  0.731800  0.698600  0.360100  1.0  0.0027
  C  C1038  1  0.750100  0.716200  0.348100  1.0  0.0308
  C  C1039  1  0.785300  0.083000  0.852700  1.0  0.7127
  C  C1040  1  0.803400  0.066400  0.837000  1.0  -0.0919
  C  C1041  1  0.805800  0.038700  0.837900  1.0  0.088
  C  C1042  1  0.739800  0.170100  0.864700  1.0  0.706
  C  C1043  1  0.731800  0.198600  0.860100  1.0  0.0027
  C  C1044  1  0.750100  0.216200  0.848100  1.0  0.0308
  C  C1045  1  0.285300  0.583000  0.852700  1.0  0.7127
  C  C1046  1  0.303400  0.566400  0.837000  1.0  -0.0919
  C  C1047  1  0.305800  0.538700  0.837900  1.0  0.088
  C  C1048  1  0.239800  0.670100  0.864700  1.0  0.706
  C  C1049  1  0.231800  0.698600  0.860100  1.0  0.0027
  C  C1050  1  0.250100  0.716200  0.848100  1.0  0.0308
  C  C1051  1  0.285300  0.083000  0.352700  1.0  0.7127
  C  C1052  1  0.303400  0.066400  0.337000  1.0  -0.0919
  C  C1053  1  0.305800  0.038700  0.337900  1.0  0.088
  C  C1054  1  0.239800  0.170100  0.364700  1.0  0.706
  C  C1055  1  0.231800  0.198600  0.360100  1.0  0.0027
  C  C1056  1  0.250100  0.216200  0.348100  1.0  0.0308
  C  C1057  1  0.897300  0.964700  0.083000  1.0  0.7134
  C  C1058  1  0.913000  0.946600  0.066400  1.0  -0.0917
  C  C1059  1  0.912100  0.944200  0.038700  1.0  0.0895
  C  C1060  1  0.885300  0.010200  0.170100  1.0  0.7044
  C  C1061  1  0.889900  0.018200  0.198600  1.0  0.001
  C  C1062  1  0.901900  0.999900  0.216200  1.0  0.0285
  C  C1063  1  0.897300  0.464700  0.583000  1.0  0.7134
  C  C1064  1  0.913000  0.446600  0.566400  1.0  -0.0917
  C  C1065  1  0.912100  0.444200  0.538700  1.0  0.0895
  C  C1066  1  0.885300  0.510200  0.670100  1.0  0.7044
  C  C1067  1  0.889900  0.518200  0.698600  1.0  0.001
  C  C1068  1  0.901900  0.499900  0.716200  1.0  0.0285
  C  C1069  1  0.397300  0.964700  0.583000  1.0  0.7134
  C  C1070  1  0.413000  0.946600  0.566400  1.0  -0.0917
  C  C1071  1  0.412100  0.944200  0.538700  1.0  0.0895
  C  C1072  1  0.385300  0.010200  0.670100  1.0  0.7044
  C  C1073  1  0.389900  0.018200  0.698600  1.0  0.001
  C  C1074  1  0.401900  0.999900  0.716200  1.0  0.0285
  C  C1075  1  0.397300  0.464700  0.083000  1.0  0.7134
  C  C1076  1  0.413000  0.446600  0.066400  1.0  -0.0917
  C  C1077  1  0.412100  0.444200  0.038700  1.0  0.0895
  C  C1078  1  0.385300  0.510200  0.170100  1.0  0.7044
  C  C1079  1  0.389900  0.518200  0.198600  1.0  0.001
  C  C1080  1  0.401900  0.499900  0.216200  1.0  0.0285
  C  C1081  1  0.852700  0.464700  0.167000  1.0  0.7127
  C  C1082  1  0.837000  0.446600  0.183600  1.0  -0.093
  C  C1083  1  0.837900  0.444200  0.211300  1.0  0.0859
  C  C1084  1  0.864700  0.510200  0.079900  1.0  0.7052
  C  C1085  1  0.860100  0.518200  0.051400  1.0  0.0028
  C  C1086  1  0.848100  0.499900  0.033800  1.0  0.0256
  C  C1087  1  0.852700  0.964700  0.667000  1.0  0.7127
  C  C1088  1  0.837000  0.946600  0.683600  1.0  -0.093
  C  C1089  1  0.837900  0.944200  0.711300  1.0  0.0859
  C  C1090  1  0.864700  0.010200  0.579900  1.0  0.7052
  C  C1091  1  0.860100  0.018200  0.551400  1.0  0.0028
  C  C1092  1  0.848100  0.999900  0.533800  1.0  0.0256
  C  C1093  1  0.352700  0.464700  0.667000  1.0  0.7127
  C  C1094  1  0.337000  0.446600  0.683600  1.0  -0.093
  C  C1095  1  0.337900  0.444200  0.711300  1.0  0.0859
  C  C1096  1  0.364700  0.510200  0.579900  1.0  0.7052
  C  C1097  1  0.360100  0.518200  0.551400  1.0  0.0028
  C  C1098  1  0.348100  0.499900  0.533800  1.0  0.0256
  C  C1099  1  0.352700  0.964700  0.167000  1.0  0.7127
  C  C1100  1  0.337000  0.946600  0.183600  1.0  -0.093
  C  C1101  1  0.337900  0.944200  0.211300  1.0  0.0859
  C  C1102  1  0.364700  0.010200  0.079900  1.0  0.7052
  C  C1103  1  0.360100  0.018200  0.051400  1.0  0.0028
  C  C1104  1  0.348100  0.999900  0.033800  1.0  0.0256
  C  C1105  1  0.397300  0.285300  0.667000  1.0  0.7137
  C  C1106  1  0.413000  0.303400  0.683600  1.0  -0.0921
  C  C1107  1  0.412100  0.305800  0.711300  1.0  0.0894
  C  C1108  1  0.385300  0.239800  0.579900  1.0  0.7043
  C  C1109  1  0.389900  0.231800  0.551400  1.0  0.0019
  C  C1110  1  0.401900  0.250100  0.533800  1.0  0.0288
  C  C1111  1  0.397300  0.785300  0.167000  1.0  0.7137
  C  C1112  1  0.413000  0.803400  0.183600  1.0  -0.0921
  C  C1113  1  0.412100  0.805800  0.211300  1.0  0.0894
  C  C1114  1  0.385300  0.739800  0.079900  1.0  0.7043
  C  C1115  1  0.389900  0.731800  0.051400  1.0  0.0019
  C  C1116  1  0.401900  0.750100  0.033800  1.0  0.0288
  C  C1117  1  0.897300  0.285300  0.167000  1.0  0.7137
  C  C1118  1  0.913000  0.303400  0.183600  1.0  -0.0921
  C  C1119  1  0.912100  0.305800  0.211300  1.0  0.0894
  C  C1120  1  0.885300  0.239800  0.079900  1.0  0.7043
  C  C1121  1  0.889900  0.231800  0.051400  1.0  0.0019
  C  C1122  1  0.901900  0.250100  0.033800  1.0  0.0288
  C  C1123  1  0.897300  0.785300  0.667000  1.0  0.7137
  C  C1124  1  0.913000  0.803400  0.683600  1.0  -0.0921
  C  C1125  1  0.912100  0.805800  0.711300  1.0  0.0894
  C  C1126  1  0.885300  0.739800  0.579900  1.0  0.7043
  C  C1127  1  0.889900  0.731800  0.551400  1.0  0.0019
  C  C1128  1  0.901900  0.750100  0.533800  1.0  0.0288
  C  C1129  1  0.352700  0.785300  0.583000  1.0  0.7134
  C  C1130  1  0.337000  0.803400  0.566400  1.0  -0.093
  C  C1131  1  0.337900  0.805800  0.538700  1.0  0.0853
  C  C1132  1  0.364700  0.739800  0.670100  1.0  0.7051
  C  C1133  1  0.360100  0.731800  0.698600  1.0  0.0026
  C  C1134  1  0.348100  0.750100  0.716200  1.0  0.0263
  C  C1135  1  0.352700  0.285300  0.083000  1.0  0.7134
  C  C1136  1  0.337000  0.303400  0.066400  1.0  -0.093
  C  C1137  1  0.337900  0.305800  0.038700  1.0  0.0853
  C  C1138  1  0.364700  0.239800  0.170100  1.0  0.7051
  C  C1139  1  0.360100  0.231800  0.198600  1.0  0.0026
  C  C1140  1  0.348100  0.250100  0.216200  1.0  0.0263
  C  C1141  1  0.852700  0.785300  0.083000  1.0  0.7134
  C  C1142  1  0.837000  0.803400  0.066400  1.0  -0.093
  C  C1143  1  0.837900  0.805800  0.038700  1.0  0.0853
  C  C1144  1  0.864700  0.739800  0.170100  1.0  0.7051
  C  C1145  1  0.860100  0.731800  0.198600  1.0  0.0026
  C  C1146  1  0.848100  0.750100  0.216200  1.0  0.0263
  C  C1147  1  0.852700  0.285300  0.583000  1.0  0.7134
  C  C1148  1  0.837000  0.303400  0.566400  1.0  -0.093
  C  C1149  1  0.837900  0.305800  0.538700  1.0  0.0853
  C  C1150  1  0.864700  0.239800  0.670100  1.0  0.7051
  C  C1151  1  0.860100  0.231800  0.698600  1.0  0.0026
  C  C1152  1  0.848100  0.250100  0.716200  1.0  0.0263
  C  C1153  1  0.147300  0.833000  0.535300  1.0  0.7138
  C  C1154  1  0.163000  0.816400  0.553400  1.0  -0.0918
  C  C1155  1  0.162100  0.788700  0.555800  1.0  0.088
  C  C1156  1  0.135300  0.920100  0.489800  1.0  0.703
  C  C1157  1  0.139900  0.948600  0.481800  1.0  0.0018
  C  C1158  1  0.151900  0.966200  0.500100  1.0  0.0232
  C  C1159  1  0.147300  0.333000  0.035300  1.0  0.7138
  C  C1160  1  0.163000  0.316400  0.053400  1.0  -0.0918
  C  C1161  1  0.162100  0.288700  0.055800  1.0  0.088
  C  C1162  1  0.135300  0.420100  0.989800  1.0  0.703
  C  C1163  1  0.139900  0.448600  0.981800  1.0  0.0018
  C  C1164  1  0.151900  0.466200  0.000100  1.0  0.0232
  C  C1165  1  0.647300  0.833000  0.035300  1.0  0.7138
  C  C1166  1  0.663000  0.816400  0.053400  1.0  -0.0918
  C  C1167  1  0.662100  0.788700  0.055800  1.0  0.088
  C  C1168  1  0.635300  0.920100  0.989800  1.0  0.703
  C  C1169  1  0.639900  0.948600  0.981800  1.0  0.0018
  C  C1170  1  0.651900  0.966200  0.000100  1.0  0.0232
  C  C1171  1  0.647300  0.333000  0.535300  1.0  0.7138
  C  C1172  1  0.663000  0.316400  0.553400  1.0  -0.0918
  C  C1173  1  0.662100  0.288700  0.555800  1.0  0.088
  C  C1174  1  0.635300  0.420100  0.489800  1.0  0.703
  C  C1175  1  0.639900  0.448600  0.481800  1.0  0.0018
  C  C1176  1  0.651900  0.466200  0.500100  1.0  0.0232
  C  C1177  1  0.102700  0.917000  0.035300  1.0  0.7134
  C  C1178  1  0.087000  0.933600  0.053400  1.0  -0.0928
  C  C1179  1  0.087900  0.961300  0.055800  1.0  0.0843
  C  C1180  1  0.114700  0.829900  0.989800  1.0  0.7016
  C  C1181  1  0.110100  0.801400  0.981800  1.0  0.003
  C  C1182  1  0.098100  0.783800  0.000100  1.0  0.0207
  C  C1183  1  0.102700  0.417000  0.535300  1.0  0.7134
  C  C1184  1  0.087000  0.433600  0.553400  1.0  -0.0928
  C  C1185  1  0.087900  0.461300  0.555800  1.0  0.0843
  C  C1186  1  0.114700  0.329900  0.489800  1.0  0.7016
  C  C1187  1  0.110100  0.301400  0.481800  1.0  0.003
  C  C1188  1  0.098100  0.283800  0.500100  1.0  0.0207
  C  C1189  1  0.602700  0.917000  0.535300  1.0  0.7134
  C  C1190  1  0.587000  0.933600  0.553400  1.0  -0.0928
  C  C1191  1  0.587900  0.961300  0.555800  1.0  0.0843
  C  C1192  1  0.614700  0.829900  0.489800  1.0  0.7016
  C  C1193  1  0.610100  0.801400  0.481800  1.0  0.003
  C  C1194  1  0.598100  0.783800  0.500100  1.0  0.0207
  C  C1195  1  0.602700  0.417000  0.035300  1.0  0.7134
  C  C1196  1  0.587000  0.433600  0.053400  1.0  -0.0928
  C  C1197  1  0.587900  0.461300  0.055800  1.0  0.0843
  C  C1198  1  0.614700  0.329900  0.989800  1.0  0.7016
  C  C1199  1  0.610100  0.301400  0.981800  1.0  0.003
  C  C1200  1  0.598100  0.283800  0.000100  1.0  0.0207
  C  C1201  1  0.647300  0.417000  0.214700  1.0  0.7139
  C  C1202  1  0.663000  0.433600  0.196600  1.0  -0.0911
  C  C1203  1  0.662100  0.461300  0.194200  1.0  0.0886
  C  C1204  1  0.635300  0.329900  0.260200  1.0  0.7007
  C  C1205  1  0.639900  0.301400  0.268200  1.0  0.0013
  C  C1206  1  0.651900  0.283800  0.249900  1.0  0.0248
  C  C1207  1  0.647300  0.917000  0.714700  1.0  0.7139
  C  C1208  1  0.663000  0.933600  0.696600  1.0  -0.0911
  C  C1209  1  0.662100  0.961300  0.694200  1.0  0.0886
  C  C1210  1  0.635300  0.829900  0.760200  1.0  0.7007
  C  C1211  1  0.639900  0.801400  0.768200  1.0  0.0013
  C  C1212  1  0.651900  0.783800  0.749900  1.0  0.0248
  C  C1213  1  0.147300  0.417000  0.714700  1.0  0.7139
  C  C1214  1  0.163000  0.433600  0.696600  1.0  -0.0911
  C  C1215  1  0.162100  0.461300  0.694200  1.0  0.0886
  C  C1216  1  0.135300  0.329900  0.760200  1.0  0.7007
  C  C1217  1  0.139900  0.301400  0.768200  1.0  0.0013
  C  C1218  1  0.151900  0.283800  0.749900  1.0  0.0248
  C  C1219  1  0.147300  0.917000  0.214700  1.0  0.7139
  C  C1220  1  0.163000  0.933600  0.196600  1.0  -0.0911
  C  C1221  1  0.162100  0.961300  0.194200  1.0  0.0886
  C  C1222  1  0.135300  0.829900  0.260200  1.0  0.7007
  C  C1223  1  0.139900  0.801400  0.268200  1.0  0.0013
  C  C1224  1  0.151900  0.783800  0.249900  1.0  0.0248
  C  C1225  1  0.602700  0.333000  0.714700  1.0  0.7135
  C  C1226  1  0.587000  0.316400  0.696600  1.0  -0.0923
  C  C1227  1  0.587900  0.288700  0.694200  1.0  0.085
  C  C1228  1  0.614700  0.420100  0.760200  1.0  0.7037
  C  C1229  1  0.610100  0.448600  0.768200  1.0  0.0024
  C  C1230  1  0.598100  0.466200  0.749900  1.0  0.0219
  C  C1231  1  0.602700  0.833000  0.214700  1.0  0.7135
  C  C1232  1  0.587000  0.816400  0.196600  1.0  -0.0923
  C  C1233  1  0.587900  0.788700  0.194200  1.0  0.085
  C  C1234  1  0.614700  0.920100  0.260200  1.0  0.7037
  C  C1235  1  0.610100  0.948600  0.268200  1.0  0.0024
  C  C1236  1  0.598100  0.966200  0.249900  1.0  0.0219
  C  C1237  1  0.102700  0.333000  0.214700  1.0  0.7135
  C  C1238  1  0.087000  0.316400  0.196600  1.0  -0.0923
  C  C1239  1  0.087900  0.288700  0.194200  1.0  0.085
  C  C1240  1  0.114700  0.420100  0.260200  1.0  0.7037
  C  C1241  1  0.110100  0.448600  0.268200  1.0  0.0024
  C  C1242  1  0.098100  0.466200  0.249900  1.0  0.0219
  C  C1243  1  0.102700  0.833000  0.714700  1.0  0.7135
  C  C1244  1  0.087000  0.816400  0.696600  1.0  -0.0923
  C  C1245  1  0.087900  0.788700  0.694200  1.0  0.085
  C  C1246  1  0.114700  0.920100  0.760200  1.0  0.7037
  C  C1247  1  0.110100  0.948600  0.768200  1.0  0.0024
  C  C1248  1  0.098100  0.966200  0.749900  1.0  0.0219
  C  C1249  1  0.333000  0.714700  0.602700  1.0  0.7128
  C  C1250  1  0.316400  0.696600  0.587000  1.0  -0.093
  C  C1251  1  0.288700  0.694200  0.587900  1.0  0.0869
  C  C1252  1  0.420100  0.760200  0.614700  1.0  0.7008
  C  C1253  1  0.448600  0.768200  0.610100  1.0  0.0014
  C  C1254  1  0.466200  0.749900  0.598100  1.0  0.0279
  C  C1255  1  0.333000  0.214700  0.102700  1.0  0.7128
  C  C1256  1  0.316400  0.196600  0.087000  1.0  -0.093
  C  C1257  1  0.288700  0.194200  0.087900  1.0  0.0869
  C  C1258  1  0.420100  0.260200  0.114700  1.0  0.7008
  C  C1259  1  0.448600  0.268200  0.110100  1.0  0.0014
  C  C1260  1  0.466200  0.249900  0.098100  1.0  0.0279
  C  C1261  1  0.833000  0.714700  0.102700  1.0  0.7128
  C  C1262  1  0.816400  0.696600  0.087000  1.0  -0.093
  C  C1263  1  0.788700  0.694200  0.087900  1.0  0.0869
  C  C1264  1  0.920100  0.760200  0.114700  1.0  0.7008
  C  C1265  1  0.948600  0.768200  0.110100  1.0  0.0014
  C  C1266  1  0.966200  0.749900  0.098100  1.0  0.0279
  C  C1267  1  0.833000  0.214700  0.602700  1.0  0.7128
  C  C1268  1  0.816400  0.196600  0.587000  1.0  -0.093
  C  C1269  1  0.788700  0.194200  0.587900  1.0  0.0869
  C  C1270  1  0.920100  0.260200  0.614700  1.0  0.7008
  C  C1271  1  0.948600  0.268200  0.610100  1.0  0.0014
  C  C1272  1  0.966200  0.249900  0.598100  1.0  0.0279
  C  C1273  1  0.417000  0.214700  0.647300  1.0  0.7113
  C  C1274  1  0.433600  0.196600  0.663000  1.0  -0.0931
  C  C1275  1  0.461300  0.194200  0.662100  1.0  0.0857
  C  C1276  1  0.329900  0.260200  0.635300  1.0  0.7001
  C  C1277  1  0.301400  0.268200  0.639900  1.0  0.0009
  C  C1278  1  0.283800  0.249900  0.651900  1.0  0.0289
  C  C1279  1  0.417000  0.714700  0.147300  1.0  0.7113
  C  C1280  1  0.433600  0.696600  0.163000  1.0  -0.0931
  C  C1281  1  0.461300  0.694200  0.162100  1.0  0.0857
  C  C1282  1  0.329900  0.760200  0.135300  1.0  0.7001
  C  C1283  1  0.301400  0.768200  0.139900  1.0  0.0009
  C  C1284  1  0.283800  0.749900  0.151900  1.0  0.0289
  C  C1285  1  0.917000  0.214700  0.147300  1.0  0.7113
  C  C1286  1  0.933600  0.196600  0.163000  1.0  -0.0931
  C  C1287  1  0.961300  0.194200  0.162100  1.0  0.0857
  C  C1288  1  0.829900  0.260200  0.135300  1.0  0.7001
  C  C1289  1  0.801400  0.268200  0.139900  1.0  0.0009
  C  C1290  1  0.783800  0.249900  0.151900  1.0  0.0289
  C  C1291  1  0.917000  0.714700  0.647300  1.0  0.7113
  C  C1292  1  0.933600  0.696600  0.663000  1.0  -0.0931
  C  C1293  1  0.961300  0.694200  0.662100  1.0  0.0857
  C  C1294  1  0.829900  0.760200  0.635300  1.0  0.7001
  C  C1295  1  0.801400  0.768200  0.639900  1.0  0.0009
  C  C1296  1  0.783800  0.749900  0.651900  1.0  0.0289
  C  C1297  1  0.917000  0.035300  0.102700  1.0  0.712
  C  C1298  1  0.933600  0.053400  0.087000  1.0  -0.0926
  C  C1299  1  0.961300  0.055800  0.087900  1.0  0.0849
  C  C1300  1  0.829900  0.989800  0.114700  1.0  0.7001
  C  C1301  1  0.801400  0.981800  0.110100  1.0  0.0018
  C  C1302  1  0.783800  0.000100  0.098100  1.0  0.0296
  C  C1303  1  0.917000  0.535300  0.602700  1.0  0.712
  C  C1304  1  0.933600  0.553400  0.587000  1.0  -0.0926
  C  C1305  1  0.961300  0.555800  0.587900  1.0  0.0849
  C  C1306  1  0.829900  0.489800  0.614700  1.0  0.7001
  C  C1307  1  0.801400  0.481800  0.610100  1.0  0.0018
  C  C1308  1  0.783800  0.500100  0.598100  1.0  0.0296
  C  C1309  1  0.417000  0.035300  0.602700  1.0  0.712
  C  C1310  1  0.433600  0.053400  0.587000  1.0  -0.0926
  C  C1311  1  0.461300  0.055800  0.587900  1.0  0.0849
  C  C1312  1  0.329900  0.989800  0.614700  1.0  0.7001
  C  C1313  1  0.301400  0.981800  0.610100  1.0  0.0018
  C  C1314  1  0.283800  0.000100  0.598100  1.0  0.0296
  C  C1315  1  0.417000  0.535300  0.102700  1.0  0.712
  C  C1316  1  0.433600  0.553400  0.087000  1.0  -0.0926
  C  C1317  1  0.461300  0.555800  0.087900  1.0  0.0849
  C  C1318  1  0.329900  0.489800  0.114700  1.0  0.7001
  C  C1319  1  0.301400  0.481800  0.110100  1.0  0.0018
  C  C1320  1  0.283800  0.500100  0.098100  1.0  0.0296
  C  C1321  1  0.833000  0.535300  0.147300  1.0  0.713
  C  C1322  1  0.816400  0.553400  0.163000  1.0  -0.0939
  C  C1323  1  0.788700  0.555800  0.162100  1.0  0.0875
  C  C1324  1  0.920100  0.489800  0.135300  1.0  0.7002
  C  C1325  1  0.948600  0.481800  0.139900  1.0  0.0011
  C  C1326  1  0.966200  0.500100  0.151900  1.0  0.0289
  C  C1327  1  0.833000  0.035300  0.647300  1.0  0.713
  C  C1328  1  0.816400  0.053400  0.663000  1.0  -0.0939
  C  C1329  1  0.788700  0.055800  0.662100  1.0  0.0875
  C  C1330  1  0.920100  0.989800  0.635300  1.0  0.7002
  C  C1331  1  0.948600  0.981800  0.639900  1.0  0.0011
  C  C1332  1  0.966200  0.000100  0.651900  1.0  0.0289
  C  C1333  1  0.333000  0.535300  0.647300  1.0  0.713
  C  C1334  1  0.316400  0.553400  0.663000  1.0  -0.0939
  C  C1335  1  0.288700  0.555800  0.662100  1.0  0.0875
  C  C1336  1  0.420100  0.489800  0.635300  1.0  0.7002
  C  C1337  1  0.448600  0.481800  0.639900  1.0  0.0011
  C  C1338  1  0.466200  0.500100  0.651900  1.0  0.0289
  C  C1339  1  0.333000  0.035300  0.147300  1.0  0.713
  C  C1340  1  0.316400  0.053400  0.163000  1.0  -0.0939
  C  C1341  1  0.288700  0.055800  0.162100  1.0  0.0875
  C  C1342  1  0.420100  0.989800  0.135300  1.0  0.7002
  C  C1343  1  0.448600  0.981800  0.139900  1.0  0.0011
  C  C1344  1  0.466200  0.000100  0.151900  1.0  0.0289
  C  C1345  1  0.214700  0.647300  0.417000  1.0  0.7123
  C  C1346  1  0.196600  0.663000  0.433600  1.0  -0.0925
  C  C1347  1  0.194200  0.662100  0.461300  1.0  0.0867
  C  C1348  1  0.260200  0.635300  0.329900  1.0  0.7019
  C  C1349  1  0.268200  0.639900  0.301400  1.0  0.0018
  C  C1350  1  0.249900  0.651900  0.283800  1.0  0.0309
  C  C1351  1  0.214700  0.147300  0.917000  1.0  0.7123
  C  C1352  1  0.196600  0.163000  0.933600  1.0  -0.0925
  C  C1353  1  0.194200  0.162100  0.961300  1.0  0.0867
  C  C1354  1  0.260200  0.135300  0.829900  1.0  0.7019
  C  C1355  1  0.268200  0.139900  0.801400  1.0  0.0018
  C  C1356  1  0.249900  0.151900  0.783800  1.0  0.0309
  C  C1357  1  0.714700  0.647300  0.917000  1.0  0.7123
  C  C1358  1  0.696600  0.663000  0.933600  1.0  -0.0925
  C  C1359  1  0.694200  0.662100  0.961300  1.0  0.0867
  C  C1360  1  0.760200  0.635300  0.829900  1.0  0.7019
  C  C1361  1  0.768200  0.639900  0.801400  1.0  0.0018
  C  C1362  1  0.749900  0.651900  0.783800  1.0  0.0309
  C  C1363  1  0.714700  0.147300  0.417000  1.0  0.7123
  C  C1364  1  0.696600  0.163000  0.433600  1.0  -0.0925
  C  C1365  1  0.694200  0.162100  0.461300  1.0  0.0867
  C  C1366  1  0.760200  0.135300  0.329900  1.0  0.7019
  C  C1367  1  0.768200  0.139900  0.301400  1.0  0.0018
  C  C1368  1  0.749900  0.151900  0.283800  1.0  0.0309
  C  C1369  1  0.714700  0.602700  0.333000  1.0  0.7132
  C  C1370  1  0.696600  0.587000  0.316400  1.0  -0.0926
  C  C1371  1  0.694200  0.587900  0.288700  1.0  0.0859
  C  C1372  1  0.760200  0.614700  0.420100  1.0  0.702
  C  C1373  1  0.768200  0.610100  0.448600  1.0  0.0011
  C  C1374  1  0.749900  0.598100  0.466200  1.0  0.0299
  C  C1375  1  0.714700  0.102700  0.833000  1.0  0.7132
  C  C1376  1  0.696600  0.087000  0.816400  1.0  -0.0926
  C  C1377  1  0.694200  0.087900  0.788700  1.0  0.0859
  C  C1378  1  0.760200  0.114700  0.920100  1.0  0.702
  C  C1379  1  0.768200  0.110100  0.948600  1.0  0.0011
  C  C1380  1  0.749900  0.098100  0.966200  1.0  0.0299
  C  C1381  1  0.214700  0.602700  0.833000  1.0  0.7132
  C  C1382  1  0.196600  0.587000  0.816400  1.0  -0.0926
  C  C1383  1  0.194200  0.587900  0.788700  1.0  0.0859
  C  C1384  1  0.260200  0.614700  0.920100  1.0  0.702
  C  C1385  1  0.268200  0.610100  0.948600  1.0  0.0011
  C  C1386  1  0.249900  0.598100  0.966200  1.0  0.0299
  C  C1387  1  0.214700  0.102700  0.333000  1.0  0.7132
  C  C1388  1  0.196600  0.087000  0.316400  1.0  -0.0926
  C  C1389  1  0.194200  0.087900  0.288700  1.0  0.0859
  C  C1390  1  0.260200  0.114700  0.420100  1.0  0.702
  C  C1391  1  0.268200  0.110100  0.448600  1.0  0.0011
  C  C1392  1  0.249900  0.098100  0.466200  1.0  0.0299
  C  C1393  1  0.535300  0.147300  0.833000  1.0  0.7119
  C  C1394  1  0.553400  0.163000  0.816400  1.0  -0.0918
  C  C1395  1  0.555800  0.162100  0.788700  1.0  0.0879
  C  C1396  1  0.489800  0.135300  0.920100  1.0  0.703
  C  C1397  1  0.481800  0.139900  0.948600  1.0  0.0025
  C  C1398  1  0.500100  0.151900  0.966200  1.0  0.0297
  C  C1399  1  0.535300  0.647300  0.333000  1.0  0.7119
  C  C1400  1  0.553400  0.663000  0.316400  1.0  -0.0918
  C  C1401  1  0.555800  0.662100  0.288700  1.0  0.0879
  C  C1402  1  0.489800  0.635300  0.420100  1.0  0.703
  C  C1403  1  0.481800  0.639900  0.448600  1.0  0.0025
  C  C1404  1  0.500100  0.651900  0.466200  1.0  0.0297
  C  C1405  1  0.035300  0.147300  0.333000  1.0  0.7119
  C  C1406  1  0.053400  0.163000  0.316400  1.0  -0.0918
  C  C1407  1  0.055800  0.162100  0.288700  1.0  0.0879
  C  C1408  1  0.989800  0.135300  0.420100  1.0  0.703
  C  C1409  1  0.981800  0.139900  0.448600  1.0  0.0025
  C  C1410  1  0.000100  0.151900  0.466200  1.0  0.0297
  C  C1411  1  0.035300  0.647300  0.833000  1.0  0.7119
  C  C1412  1  0.053400  0.663000  0.816400  1.0  -0.0918
  C  C1413  1  0.055800  0.662100  0.788700  1.0  0.0879
  C  C1414  1  0.989800  0.635300  0.920100  1.0  0.703
  C  C1415  1  0.981800  0.639900  0.948600  1.0  0.0025
  C  C1416  1  0.000100  0.651900  0.966200  1.0  0.0297
  C  C1417  1  0.035300  0.102700  0.917000  1.0  0.7123
  C  C1418  1  0.053400  0.087000  0.933600  1.0  -0.092
  C  C1419  1  0.055800  0.087900  0.961300  1.0  0.0894
  C  C1420  1  0.989800  0.114700  0.829900  1.0  0.7024
  C  C1421  1  0.981800  0.110100  0.801400  1.0  0.0028
  C  C1422  1  0.000100  0.098100  0.783800  1.0  0.0302
  C  C1423  1  0.035300  0.602700  0.417000  1.0  0.7123
  C  C1424  1  0.053400  0.587000  0.433600  1.0  -0.092
  C  C1425  1  0.055800  0.587900  0.461300  1.0  0.0894
  C  C1426  1  0.989800  0.614700  0.329900  1.0  0.7024
  C  C1427  1  0.981800  0.610100  0.301400  1.0  0.0028
  C  C1428  1  0.000100  0.598100  0.283800  1.0  0.0302
  C  C1429  1  0.535300  0.102700  0.417000  1.0  0.7123
  C  C1430  1  0.553400  0.087000  0.433600  1.0  -0.092
  C  C1431  1  0.555800  0.087900  0.461300  1.0  0.0894
  C  C1432  1  0.489800  0.114700  0.329900  1.0  0.7024
  C  C1433  1  0.481800  0.110100  0.301400  1.0  0.0028
  C  C1434  1  0.500100  0.098100  0.283800  1.0  0.0302
  C  C1435  1  0.535300  0.602700  0.917000  1.0  0.7123
  C  C1436  1  0.553400  0.587000  0.933600  1.0  -0.092
  C  C1437  1  0.555800  0.587900  0.961300  1.0  0.0894
  C  C1438  1  0.489800  0.614700  0.829900  1.0  0.7024
  C  C1439  1  0.481800  0.610100  0.801400  1.0  0.0028
  C  C1440  1  0.500100  0.598100  0.783800  1.0  0.0302
  C  C1441  1  0.919600  0.070700  0.070700  1.0  0.0293
  C  C1442  1  0.975100  0.072600  0.072600  1.0  0.2222
  C  C1443  1  0.003100  0.070600  0.070600  1.0  0.5643
  C  C1444  1  0.628400  0.058700  0.058700  1.0  0.7206
  C  C1445  1  0.604000  0.069100  0.069100  1.0  -0.0109
  C  C1446  1  0.919600  0.570700  0.570700  1.0  0.0293
  C  C1447  1  0.975100  0.572600  0.572600  1.0  0.2222
  C  C1448  1  0.003100  0.570600  0.570600  1.0  0.5643
  C  C1449  1  0.628400  0.558700  0.558700  1.0  0.7206
  C  C1450  1  0.604000  0.569100  0.569100  1.0  -0.0108
  C  C1451  1  0.419600  0.070700  0.570700  1.0  0.0293
  C  C1452  1  0.475100  0.072600  0.572600  1.0  0.2222
  C  C1453  1  0.503100  0.070600  0.570600  1.0  0.5643
  C  C1454  1  0.128400  0.058700  0.558700  1.0  0.7206
  C  C1455  1  0.104000  0.069100  0.569100  1.0  -0.0109
  C  C1456  1  0.419600  0.570700  0.070700  1.0  0.0293
  C  C1457  1  0.475100  0.572600  0.072600  1.0  0.2222
  C  C1458  1  0.503100  0.570600  0.070600  1.0  0.5643
  C  C1459  1  0.128400  0.558700  0.058700  1.0  0.7206
  C  C1460  1  0.104000  0.569100  0.069100  1.0  -0.0109
  C  C1461  1  0.830400  0.179300  0.570700  1.0  0.0331
  C  C1462  1  0.774900  0.177400  0.572600  1.0  0.2219
  C  C1463  1  0.746900  0.179400  0.570600  1.0  0.564
  C  C1464  1  0.121600  0.191300  0.558700  1.0  0.7197
  C  C1465  1  0.146000  0.180900  0.569100  1.0  -0.0103
  C  C1466  1  0.830400  0.679300  0.070700  1.0  0.0331
  C  C1467  1  0.774900  0.677400  0.072600  1.0  0.2219
  C  C1468  1  0.746900  0.679400  0.070600  1.0  0.564
  C  C1469  1  0.121600  0.691300  0.058700  1.0  0.7197
  C  C1470  1  0.146000  0.680900  0.069100  1.0  -0.0103
  C  C1471  1  0.330400  0.570700  0.679300  1.0  0.033
  C  C1472  1  0.274900  0.572600  0.677400  1.0  0.2221
  C  C1473  1  0.246900  0.570600  0.679400  1.0  0.5641
  C  C1474  1  0.621600  0.558700  0.691300  1.0  0.7198
  C  C1475  1  0.646000  0.569100  0.680900  1.0  -0.0102
  C  C1476  1  0.330400  0.070700  0.179300  1.0  0.033
  C  C1477  1  0.274900  0.072600  0.177400  1.0  0.2221
  C  C1478  1  0.246900  0.070600  0.179400  1.0  0.5641
  C  C1479  1  0.621600  0.058700  0.191300  1.0  0.7198
  C  C1480  1  0.646000  0.069100  0.180900  1.0  -0.0102
  C  C1481  1  0.419600  0.679300  0.179300  1.0  0.0288
  C  C1482  1  0.475100  0.677400  0.177400  1.0  0.222
  C  C1483  1  0.503100  0.679400  0.179400  1.0  0.5638
  C  C1484  1  0.128400  0.691300  0.191300  1.0  0.7215
  C  C1485  1  0.104000  0.680900  0.180900  1.0  -0.0101
  C  C1486  1  0.919600  0.679300  0.679300  1.0  0.0288
  C  C1487  1  0.975100  0.677400  0.677400  1.0  0.222
  C  C1488  1  0.003100  0.679400  0.679400  1.0  0.5638
  C  C1489  1  0.628400  0.691300  0.691300  1.0  0.7215
  C  C1490  1  0.604000  0.680900  0.680900  1.0  -0.0102
  C  C1491  1  0.919600  0.179300  0.179300  1.0  0.0288
  C  C1492  1  0.975100  0.177400  0.177400  1.0  0.222
  C  C1493  1  0.003100  0.179400  0.179400  1.0  0.5638
  C  C1494  1  0.628400  0.191300  0.191300  1.0  0.7215
  C  C1495  1  0.604000  0.180900  0.180900  1.0  -0.0102
  C  C1496  1  0.070700  0.919600  0.070700  1.0  0.0256
  C  C1497  1  0.072600  0.975100  0.072600  1.0  0.222
  C  C1498  1  0.070600  0.003100  0.070600  1.0  0.5643
  C  C1499  1  0.058700  0.628400  0.058700  1.0  0.7214
  C  C1500  1  0.069100  0.604000  0.069100  1.0  -0.011
  C  C1501  1  0.070700  0.419600  0.570700  1.0  0.0256
  C  C1502  1  0.072600  0.475100  0.572600  1.0  0.222
  C  C1503  1  0.070600  0.503100  0.570600  1.0  0.5643
  C  C1504  1  0.058700  0.128400  0.558700  1.0  0.7214
  C  C1505  1  0.069100  0.104000  0.569100  1.0  -0.0111
  C  C1506  1  0.570700  0.919600  0.570700  1.0  0.0256
  C  C1507  1  0.572600  0.975100  0.572600  1.0  0.222
  C  C1508  1  0.570600  0.003100  0.570600  1.0  0.5643
  C  C1509  1  0.558700  0.628400  0.558700  1.0  0.7214
  C  C1510  1  0.569100  0.604000  0.569100  1.0  -0.0111
  C  C1511  1  0.570700  0.419600  0.070700  1.0  0.0256
  C  C1512  1  0.572600  0.475100  0.072600  1.0  0.222
  C  C1513  1  0.570600  0.503100  0.070600  1.0  0.5643
  C  C1514  1  0.558700  0.128400  0.058700  1.0  0.7214
  C  C1515  1  0.569100  0.104000  0.069100  1.0  -0.011
  C  C1516  1  0.570700  0.830400  0.179300  1.0  0.0268
  C  C1517  1  0.572600  0.774900  0.177400  1.0  0.2217
  C  C1518  1  0.570600  0.746900  0.179400  1.0  0.5645
  C  C1519  1  0.558700  0.121600  0.191300  1.0  0.7214
  C  C1520  1  0.569100  0.146000  0.180900  1.0  -0.0106
  C  C1521  1  0.070700  0.830400  0.679300  1.0  0.0268
  C  C1522  1  0.072600  0.774900  0.677400  1.0  0.2217
  C  C1523  1  0.070600  0.746900  0.679400  1.0  0.5645
  C  C1524  1  0.058700  0.121600  0.691300  1.0  0.7214
  C  C1525  1  0.069100  0.146000  0.680900  1.0  -0.0107
  C  C1526  1  0.679300  0.330400  0.570700  1.0  0.0283
  C  C1527  1  0.677400  0.274900  0.572600  1.0  0.2218
  C  C1528  1  0.679400  0.246900  0.570600  1.0  0.5641
  C  C1529  1  0.691300  0.621600  0.558700  1.0  0.7202
  C  C1530  1  0.680900  0.646000  0.569100  1.0  -0.0106
  C  C1531  1  0.679300  0.830400  0.070700  1.0  0.0283
  C  C1532  1  0.677400  0.774900  0.072600  1.0  0.2218
  C  C1533  1  0.679400  0.746900  0.070600  1.0  0.5641
  C  C1534  1  0.691300  0.121600  0.058700  1.0  0.7202
  C  C1535  1  0.680900  0.146000  0.069100  1.0  -0.0106
  C  C1536  1  0.179300  0.419600  0.679300  1.0  0.0259
  C  C1537  1  0.177400  0.475100  0.677400  1.0  0.2221
  C  C1538  1  0.179400  0.503100  0.679400  1.0  0.5635
  C  C1539  1  0.191300  0.128400  0.691300  1.0  0.7208
  C  C1540  1  0.180900  0.104000  0.680900  1.0  -0.0103
  C  C1541  1  0.179300  0.919600  0.179300  1.0  0.0259
  C  C1542  1  0.177400  0.975100  0.177400  1.0  0.2221
  C  C1543  1  0.179400  0.003100  0.179400  1.0  0.5635
  C  C1544  1  0.191300  0.628400  0.191300  1.0  0.7208
  C  C1545  1  0.180900  0.604000  0.180900  1.0  -0.0104
  C  C1546  1  0.070700  0.070700  0.919600  1.0  0.0253
  C  C1547  1  0.072600  0.072600  0.975100  1.0  0.2208
  C  C1548  1  0.070600  0.070600  0.003100  1.0  0.5643
  C  C1549  1  0.058700  0.058700  0.628400  1.0  0.7215
  C  C1550  1  0.069100  0.069100  0.604000  1.0  -0.0106
  C  C1551  1  0.070700  0.570700  0.419600  1.0  0.0253
  C  C1552  1  0.072600  0.572600  0.475100  1.0  0.2208
  C  C1553  1  0.070600  0.570600  0.503100  1.0  0.5643
  C  C1554  1  0.058700  0.558700  0.128400  1.0  0.7215
  C  C1555  1  0.069100  0.569100  0.104000  1.0  -0.0107
  C  C1556  1  0.570700  0.070700  0.419600  1.0  0.0253
  C  C1557  1  0.572600  0.072600  0.475100  1.0  0.2208
  C  C1558  1  0.570600  0.070600  0.503100  1.0  0.5643
  C  C1559  1  0.558700  0.058700  0.128400  1.0  0.7215
  C  C1560  1  0.569100  0.069100  0.104000  1.0  -0.0107
  C  C1561  1  0.570700  0.570700  0.919600  1.0  0.0253
  C  C1562  1  0.572600  0.572600  0.975100  1.0  0.2208
  C  C1563  1  0.570600  0.570600  0.003100  1.0  0.5643
  C  C1564  1  0.558700  0.558700  0.628400  1.0  0.7215
  C  C1565  1  0.569100  0.569100  0.604000  1.0  -0.0107
  C  C1566  1  0.179300  0.570700  0.830400  1.0  0.0247
  C  C1567  1  0.177400  0.572600  0.774900  1.0  0.2204
  C  C1568  1  0.179400  0.570600  0.746900  1.0  0.5639
  C  C1569  1  0.191300  0.558700  0.121600  1.0  0.7204
  C  C1570  1  0.180900  0.569100  0.146000  1.0  -0.0105
  C  C1571  1  0.179300  0.070700  0.330400  1.0  0.0247
  C  C1572  1  0.177400  0.072600  0.274900  1.0  0.2204
  C  C1573  1  0.179400  0.070600  0.246900  1.0  0.5639
  C  C1574  1  0.191300  0.058700  0.621600  1.0  0.7204
  C  C1575  1  0.180900  0.069100  0.646000  1.0  -0.0105
  C  C1576  1  0.570700  0.679300  0.330400  1.0  0.0229
  C  C1577  1  0.572600  0.677400  0.274900  1.0  0.2203
  C  C1578  1  0.570600  0.679400  0.246900  1.0  0.5649
  C  C1579  1  0.558700  0.691300  0.621600  1.0  0.7216
  C  C1580  1  0.569100  0.680900  0.646000  1.0  -0.0107
  C  C1581  1  0.070700  0.679300  0.830400  1.0  0.0229
  C  C1582  1  0.072600  0.677400  0.774900  1.0  0.2203
  C  C1583  1  0.070600  0.679400  0.746900  1.0  0.5649
  C  C1584  1  0.058700  0.691300  0.121600  1.0  0.7216
  C  C1585  1  0.069100  0.680900  0.146000  1.0  -0.0107
  C  C1586  1  0.679300  0.179300  0.419600  1.0  0.0257
  C  C1587  1  0.677400  0.177400  0.475100  1.0  0.2206
  C  C1588  1  0.679400  0.179400  0.503100  1.0  0.5631
  C  C1589  1  0.691300  0.191300  0.128400  1.0  0.7208
  C  C1590  1  0.680900  0.180900  0.104000  1.0  -0.0103
  C  C1591  1  0.679300  0.679300  0.919600  1.0  0.0257
  C  C1592  1  0.677400  0.677400  0.975100  1.0  0.2206
  C  C1593  1  0.679400  0.679400  0.003100  1.0  0.5631
  C  C1594  1  0.691300  0.691300  0.628400  1.0  0.7208
  C  C1595  1  0.680900  0.680900  0.604000  1.0  -0.0103
  C  C1596  1  0.179300  0.179300  0.919600  1.0  0.0257
  C  C1597  1  0.177400  0.177400  0.975100  1.0  0.2206
  C  C1598  1  0.179400  0.179400  0.003100  1.0  0.5631
  C  C1599  1  0.191300  0.191300  0.628400  1.0  0.7208
  C  C1600  1  0.180900  0.180900  0.604000  1.0  -0.0103
  C  C1601  1  0.820700  0.169600  0.429300  1.0  0.0253
  C  C1602  1  0.822600  0.225100  0.427400  1.0  0.222
  C  C1603  1  0.820600  0.253100  0.429400  1.0  0.5642
  C  C1604  1  0.808700  0.878400  0.441300  1.0  0.7217
  C  C1605  1  0.819100  0.854000  0.430900  1.0  -0.0109
  C  C1606  1  0.820700  0.669600  0.929300  1.0  0.0253
  C  C1607  1  0.822600  0.725100  0.927400  1.0  0.222
  C  C1608  1  0.820600  0.753100  0.929400  1.0  0.5642
  C  C1609  1  0.808700  0.378400  0.941300  1.0  0.7217
  C  C1610  1  0.819100  0.354000  0.930900  1.0  -0.0108
  C  C1611  1  0.929300  0.080400  0.929300  1.0  0.028
  C  C1612  1  0.927400  0.024900  0.927400  1.0  0.2218
  C  C1613  1  0.929400  0.996900  0.929400  1.0  0.5639
  C  C1614  1  0.941300  0.371600  0.941300  1.0  0.7205
  C  C1615  1  0.930900  0.396000  0.930900  1.0  -0.0102
  C  C1616  1  0.929300  0.580400  0.429300  1.0  0.028
  C  C1617  1  0.927400  0.524900  0.427400  1.0  0.2218
  C  C1618  1  0.929400  0.496900  0.429400  1.0  0.5639
  C  C1619  1  0.941300  0.871600  0.441300  1.0  0.7205
  C  C1620  1  0.930900  0.896000  0.430900  1.0  -0.0102
  C  C1621  1  0.429300  0.080400  0.429300  1.0  0.028
  C  C1622  1  0.427400  0.024900  0.427400  1.0  0.2218
  C  C1623  1  0.429400  0.996900  0.429400  1.0  0.5639
  C  C1624  1  0.441300  0.371600  0.441300  1.0  0.7205
  C  C1625  1  0.430900  0.396000  0.430900  1.0  -0.0101
  C  C1626  1  0.429300  0.580400  0.929300  1.0  0.028
  C  C1627  1  0.427400  0.524900  0.927400  1.0  0.2218
  C  C1628  1  0.429400  0.496900  0.929400  1.0  0.5639
  C  C1629  1  0.441300  0.871600  0.941300  1.0  0.7205
  C  C1630  1  0.430900  0.896000  0.930900  1.0  -0.0101
  C  C1631  1  0.320700  0.580400  0.820700  1.0  0.0272
  C  C1632  1  0.322600  0.524900  0.822600  1.0  0.2217
  C  C1633  1  0.320600  0.496900  0.820600  1.0  0.5646
  C  C1634  1  0.308700  0.871600  0.808700  1.0  0.7213
  C  C1635  1  0.319100  0.896000  0.819100  1.0  -0.0107
  C  C1636  1  0.320700  0.080400  0.320700  1.0  0.0272
  C  C1637  1  0.322600  0.024900  0.322600  1.0  0.2217
  C  C1638  1  0.320600  0.996900  0.320600  1.0  0.5646
  C  C1639  1  0.308700  0.371600  0.308700  1.0  0.7213
  C  C1640  1  0.319100  0.396000  0.319100  1.0  -0.0108
  C  C1641  1  0.429300  0.669600  0.320700  1.0  0.0263
  C  C1642  1  0.427400  0.725100  0.322600  1.0  0.2221
  C  C1643  1  0.429400  0.753100  0.320600  1.0  0.5636
  C  C1644  1  0.441300  0.378400  0.308700  1.0  0.7203
  C  C1645  1  0.430900  0.354000  0.319100  1.0  -0.0108
  C  C1646  1  0.929300  0.669600  0.820700  1.0  0.0263
  C  C1647  1  0.927400  0.725100  0.822600  1.0  0.2221
  C  C1648  1  0.929400  0.753100  0.820600  1.0  0.5636
  C  C1649  1  0.941300  0.378400  0.808700  1.0  0.7203
  C  C1650  1  0.930900  0.354000  0.819100  1.0  -0.0108
  C  C1651  1  0.669600  0.320700  0.429300  1.0  0.0291
  C  C1652  1  0.725100  0.322600  0.427400  1.0  0.2222
  C  C1653  1  0.753100  0.320600  0.429400  1.0  0.5641
  C  C1654  1  0.378400  0.308700  0.441300  1.0  0.721
  C  C1655  1  0.354000  0.319100  0.430900  1.0  -0.0106
  C  C1656  1  0.669600  0.820700  0.929300  1.0  0.0291
  C  C1657  1  0.725100  0.822600  0.927400  1.0  0.2222
  C  C1658  1  0.753100  0.820600  0.929400  1.0  0.5641
  C  C1659  1  0.378400  0.808700  0.941300  1.0  0.721
  C  C1660  1  0.354000  0.819100  0.930900  1.0  -0.0104
  C  C1661  1  0.580400  0.820700  0.320700  1.0  0.0332
  C  C1662  1  0.524900  0.822600  0.322600  1.0  0.2221
  C  C1663  1  0.496900  0.820600  0.320600  1.0  0.5641
  C  C1664  1  0.871600  0.808700  0.308700  1.0  0.7192
  C  C1665  1  0.896000  0.819100  0.319100  1.0  -0.0105
  C  C1666  1  0.080400  0.820700  0.820700  1.0  0.0332
  C  C1667  1  0.024900  0.822600  0.822600  1.0  0.2221
  C  C1668  1  0.996900  0.820600  0.820600  1.0  0.5641
  C  C1669  1  0.371600  0.808700  0.808700  1.0  0.7192
  C  C1670  1  0.396000  0.819100  0.819100  1.0  -0.0105
  C  C1671  1  0.080400  0.320700  0.320700  1.0  0.0332
  C  C1672  1  0.024900  0.322600  0.322600  1.0  0.2221
  C  C1673  1  0.996900  0.320600  0.320600  1.0  0.5641
  C  C1674  1  0.371600  0.308700  0.308700  1.0  0.7192
  C  C1675  1  0.396000  0.319100  0.319100  1.0  -0.0105
  C  C1676  1  0.080400  0.929300  0.929300  1.0  0.0329
  C  C1677  1  0.024900  0.927400  0.927400  1.0  0.2219
  C  C1678  1  0.996900  0.929400  0.929400  1.0  0.5639
  C  C1679  1  0.371600  0.941300  0.941300  1.0  0.72
  C  C1680  1  0.396000  0.930900  0.930900  1.0  -0.0098
  C  C1681  1  0.080400  0.429300  0.429300  1.0  0.0329
  C  C1682  1  0.024900  0.427400  0.427400  1.0  0.2219
  C  C1683  1  0.996900  0.429400  0.429400  1.0  0.5639
  C  C1684  1  0.371600  0.441300  0.441300  1.0  0.72
  C  C1685  1  0.396000  0.430900  0.430900  1.0  -0.0099
  C  C1686  1  0.580400  0.929300  0.429300  1.0  0.0329
  C  C1687  1  0.524900  0.927400  0.427400  1.0  0.2219
  C  C1688  1  0.496900  0.929400  0.429400  1.0  0.5639
  C  C1689  1  0.871600  0.941300  0.441300  1.0  0.72
  C  C1690  1  0.896000  0.930900  0.430900  1.0  -0.0098
  C  C1691  1  0.580400  0.429300  0.929300  1.0  0.0329
  C  C1692  1  0.524900  0.427400  0.927400  1.0  0.2219
  C  C1693  1  0.496900  0.429400  0.929400  1.0  0.5639
  C  C1694  1  0.871600  0.441300  0.941300  1.0  0.72
  C  C1695  1  0.896000  0.430900  0.930900  1.0  -0.0098
  C  C1696  1  0.169600  0.429300  0.820700  1.0  0.029
  C  C1697  1  0.225100  0.427400  0.822600  1.0  0.222
  C  C1698  1  0.253100  0.429400  0.820600  1.0  0.5641
  C  C1699  1  0.878400  0.441300  0.808700  1.0  0.7213
  C  C1700  1  0.854000  0.430900  0.819100  1.0  -0.0105
  C  C1701  1  0.169600  0.929300  0.320700  1.0  0.029
  C  C1702  1  0.225100  0.927400  0.322600  1.0  0.222
  C  C1703  1  0.253100  0.929400  0.320600  1.0  0.5641
  C  C1704  1  0.878400  0.941300  0.308700  1.0  0.7213
  C  C1705  1  0.854000  0.930900  0.319100  1.0  -0.0105
  C  C1706  1  0.820700  0.320700  0.580400  1.0  0.0235
  C  C1707  1  0.822600  0.322600  0.524900  1.0  0.2205
  C  C1708  1  0.820600  0.320600  0.496900  1.0  0.5649
  C  C1709  1  0.808700  0.308700  0.871600  1.0  0.7212
  C  C1710  1  0.819100  0.319100  0.896000  1.0  -0.0109
  C  C1711  1  0.820700  0.820700  0.080400  1.0  0.0235
  C  C1712  1  0.822600  0.822600  0.024900  1.0  0.2205
  C  C1713  1  0.820600  0.820600  0.996900  1.0  0.5649
  C  C1714  1  0.808700  0.808700  0.371600  1.0  0.7212
  C  C1715  1  0.819100  0.819100  0.396000  1.0  -0.0109
  C  C1716  1  0.320700  0.320700  0.080400  1.0  0.0235
  C  C1717  1  0.322600  0.322600  0.024900  1.0  0.2205
  C  C1718  1  0.320600  0.320600  0.996900  1.0  0.5649
  C  C1719  1  0.308700  0.308700  0.371600  1.0  0.7212
  C  C1720  1  0.319100  0.319100  0.396000  1.0  -0.0109
  C  C1721  1  0.320700  0.429300  0.669600  1.0  0.0252
  C  C1722  1  0.322600  0.427400  0.725100  1.0  0.2206
  C  C1723  1  0.320600  0.429400  0.753100  1.0  0.5639
  C  C1724  1  0.308700  0.441300  0.378400  1.0  0.7219
  C  C1725  1  0.319100  0.430900  0.354000  1.0  -0.0104
  C  C1726  1  0.320700  0.929300  0.169600  1.0  0.0252
  C  C1727  1  0.322600  0.927400  0.225100  1.0  0.2206
  C  C1728  1  0.320600  0.929400  0.253100  1.0  0.5639
  C  C1729  1  0.308700  0.941300  0.878400  1.0  0.7219
  C  C1730  1  0.319100  0.930900  0.854000  1.0  -0.0103
  C  C1731  1  0.429300  0.820700  0.169600  1.0  0.0259
  C  C1732  1  0.427400  0.822600  0.225100  1.0  0.2208
  C  C1733  1  0.429400  0.820600  0.253100  1.0  0.5637
  C  C1734  1  0.441300  0.808700  0.878400  1.0  0.7205
  C  C1735  1  0.430900  0.819100  0.854000  1.0  -0.0106
  C  C1736  1  0.929300  0.820700  0.669600  1.0  0.0259
  C  C1737  1  0.927400  0.822600  0.725100  1.0  0.2208
  C  C1738  1  0.929400  0.820600  0.753100  1.0  0.5637
  C  C1739  1  0.941300  0.808700  0.378400  1.0  0.7205
  C  C1740  1  0.930900  0.819100  0.354000  1.0  -0.0106
  C  C1741  1  0.929300  0.929300  0.080400  1.0  0.024
  C  C1742  1  0.927400  0.927400  0.024900  1.0  0.2202
  C  C1743  1  0.929400  0.929400  0.996900  1.0  0.5637
  C  C1744  1  0.941300  0.941300  0.371600  1.0  0.7206
  C  C1745  1  0.930900  0.930900  0.396000  1.0  -0.0103
  C  C1746  1  0.929300  0.429300  0.580400  1.0  0.024
  C  C1747  1  0.927400  0.427400  0.524900  1.0  0.2202
  C  C1748  1  0.929400  0.429400  0.496900  1.0  0.5637
  C  C1749  1  0.941300  0.441300  0.871600  1.0  0.7206
  C  C1750  1  0.930900  0.430900  0.896000  1.0  -0.0103
  C  C1751  1  0.429300  0.929300  0.580400  1.0  0.024
  C  C1752  1  0.427400  0.927400  0.524900  1.0  0.2202
  C  C1753  1  0.429400  0.929400  0.496900  1.0  0.5637
  C  C1754  1  0.441300  0.941300  0.871600  1.0  0.7206
  C  C1755  1  0.430900  0.930900  0.896000  1.0  -0.0103
  C  C1756  1  0.429300  0.429300  0.080400  1.0  0.024
  C  C1757  1  0.427400  0.427400  0.024900  1.0  0.2202
  C  C1758  1  0.429400  0.429400  0.996900  1.0  0.5637
  C  C1759  1  0.441300  0.441300  0.371600  1.0  0.7206
  C  C1760  1  0.430900  0.430900  0.396000  1.0  -0.0101
  C  C1761  1  0.169600  0.820700  0.429300  1.0  0.0291
  C  C1762  1  0.225100  0.822600  0.427400  1.0  0.2222
  C  C1763  1  0.253100  0.820600  0.429400  1.0  0.5641
  C  C1764  1  0.878400  0.808700  0.441300  1.0  0.721
  C  C1765  1  0.854000  0.819100  0.430900  1.0  -0.0104
  C  C1766  1  0.169600  0.320700  0.929300  1.0  0.0291
  C  C1767  1  0.225100  0.322600  0.927400  1.0  0.2222
  C  C1768  1  0.253100  0.320600  0.929400  1.0  0.5641
  C  C1769  1  0.878400  0.308700  0.941300  1.0  0.721
  C  C1770  1  0.854000  0.319100  0.930900  1.0  -0.0106
  C  C1771  1  0.669600  0.429300  0.320700  1.0  0.029
  C  C1772  1  0.725100  0.427400  0.322600  1.0  0.222
  C  C1773  1  0.753100  0.429400  0.320600  1.0  0.5641
  C  C1774  1  0.378400  0.441300  0.308700  1.0  0.7213
  C  C1775  1  0.354000  0.430900  0.319100  1.0  -0.0103
  C  C1776  1  0.669600  0.929300  0.820700  1.0  0.029
  C  C1777  1  0.725100  0.927400  0.822600  1.0  0.222
  C  C1778  1  0.753100  0.929400  0.820600  1.0  0.5641
  C  C1779  1  0.378400  0.941300  0.808700  1.0  0.7213
  C  C1780  1  0.354000  0.930900  0.819100  1.0  -0.0105
  C  C1781  1  0.580400  0.320700  0.820700  1.0  0.0332
  C  C1782  1  0.524900  0.322600  0.822600  1.0  0.2221
  C  C1783  1  0.496900  0.320600  0.820600  1.0  0.5641
  C  C1784  1  0.871600  0.308700  0.808700  1.0  0.7192
  C  C1785  1  0.896000  0.319100  0.819100  1.0  -0.0105
  C  C1786  1  0.429300  0.169600  0.820700  1.0  0.0263
  C  C1787  1  0.427400  0.225100  0.822600  1.0  0.2221
  C  C1788  1  0.429400  0.253100  0.820600  1.0  0.5636
  C  C1789  1  0.441300  0.878400  0.808700  1.0  0.7203
  C  C1790  1  0.430900  0.854000  0.819100  1.0  -0.0108
  C  C1791  1  0.929300  0.169600  0.320700  1.0  0.0263
  C  C1792  1  0.927400  0.225100  0.322600  1.0  0.2221
  C  C1793  1  0.929400  0.253100  0.320600  1.0  0.5636
  C  C1794  1  0.941300  0.878400  0.308700  1.0  0.7203
  C  C1795  1  0.930900  0.854000  0.319100  1.0  -0.0108
  C  C1796  1  0.320700  0.669600  0.429300  1.0  0.0253
  C  C1797  1  0.322600  0.725100  0.427400  1.0  0.222
  C  C1798  1  0.320600  0.753100  0.429400  1.0  0.5642
  C  C1799  1  0.308700  0.378400  0.441300  1.0  0.7217
  C  C1800  1  0.319100  0.354000  0.430900  1.0  -0.0108
  C  C1801  1  0.320700  0.169600  0.929300  1.0  0.0253
  C  C1802  1  0.322600  0.225100  0.927400  1.0  0.222
  C  C1803  1  0.320600  0.253100  0.929400  1.0  0.5642
  C  C1804  1  0.308700  0.878400  0.941300  1.0  0.7217
  C  C1805  1  0.319100  0.854000  0.930900  1.0  -0.0109
  C  C1806  1  0.820700  0.580400  0.320700  1.0  0.0272
  C  C1807  1  0.822600  0.524900  0.322600  1.0  0.2217
  C  C1808  1  0.820600  0.496900  0.320600  1.0  0.5646
  C  C1809  1  0.808700  0.871600  0.308700  1.0  0.7213
  C  C1810  1  0.819100  0.896000  0.319100  1.0  -0.0107
  C  C1811  1  0.820700  0.080400  0.820700  1.0  0.0272
  C  C1812  1  0.822600  0.024900  0.822600  1.0  0.2217
  C  C1813  1  0.820600  0.996900  0.820600  1.0  0.5646
  C  C1814  1  0.808700  0.371600  0.808700  1.0  0.7213
  C  C1815  1  0.819100  0.396000  0.819100  1.0  -0.0108
  C  C1816  1  0.820700  0.429300  0.169600  1.0  0.0252
  C  C1817  1  0.822600  0.427400  0.225100  1.0  0.2206
  C  C1818  1  0.820600  0.429400  0.253100  1.0  0.5639
  C  C1819  1  0.808700  0.441300  0.878400  1.0  0.7219
  C  C1820  1  0.819100  0.430900  0.854000  1.0  -0.0102
  C  C1821  1  0.820700  0.929300  0.669600  1.0  0.0252
  C  C1822  1  0.822600  0.927400  0.725100  1.0  0.2206
  C  C1823  1  0.820600  0.929400  0.753100  1.0  0.5639
  C  C1824  1  0.808700  0.941300  0.378400  1.0  0.7219
  C  C1825  1  0.819100  0.930900  0.354000  1.0  -0.0103
  C  C1826  1  0.429300  0.320700  0.669600  1.0  0.0259
  C  C1827  1  0.427400  0.322600  0.725100  1.0  0.2208
  C  C1828  1  0.429400  0.320600  0.753100  1.0  0.5637
  C  C1829  1  0.441300  0.308700  0.378400  1.0  0.7205
  C  C1830  1  0.430900  0.319100  0.354000  1.0  -0.0106
  C  C1831  1  0.929300  0.320700  0.169600  1.0  0.0259
  C  C1832  1  0.927400  0.322600  0.225100  1.0  0.2208
  C  C1833  1  0.929400  0.320600  0.253100  1.0  0.5637
  C  C1834  1  0.941300  0.308700  0.878400  1.0  0.7205
  C  C1835  1  0.930900  0.319100  0.854000  1.0  -0.0106
  C  C1836  1  0.320700  0.820700  0.580400  1.0  0.0235
  C  C1837  1  0.322600  0.822600  0.524900  1.0  0.2205
  C  C1838  1  0.320600  0.820600  0.496900  1.0  0.5649
  C  C1839  1  0.308700  0.808700  0.871600  1.0  0.7212
  C  C1840  1  0.319100  0.819100  0.896000  1.0  -0.0109
  C  C1841  1  0.179300  0.830400  0.570700  1.0  0.0283
  C  C1842  1  0.177400  0.774900  0.572600  1.0  0.2218
  C  C1843  1  0.179400  0.746900  0.570600  1.0  0.5641
  C  C1844  1  0.191300  0.121600  0.558700  1.0  0.7202
  C  C1845  1  0.180900  0.146000  0.569100  1.0  -0.0105
  C  C1846  1  0.179300  0.330400  0.070700  1.0  0.0283
  C  C1847  1  0.177400  0.274900  0.072600  1.0  0.2218
  C  C1848  1  0.179400  0.246900  0.070600  1.0  0.5641
  C  C1849  1  0.191300  0.621600  0.058700  1.0  0.7202
  C  C1850  1  0.180900  0.646000  0.069100  1.0  -0.0105
  C  C1851  1  0.679300  0.419600  0.179300  1.0  0.0259
  C  C1852  1  0.677400  0.475100  0.177400  1.0  0.2221
  C  C1853  1  0.679400  0.503100  0.179400  1.0  0.5635
  C  C1854  1  0.691300  0.128400  0.191300  1.0  0.7208
  C  C1855  1  0.680900  0.104000  0.180900  1.0  -0.0104
  C  C1856  1  0.679300  0.919600  0.679300  1.0  0.0259
  C  C1857  1  0.677400  0.975100  0.677400  1.0  0.2221
  C  C1858  1  0.679400  0.003100  0.679400  1.0  0.5635
  C  C1859  1  0.691300  0.628400  0.691300  1.0  0.7208
  C  C1860  1  0.680900  0.604000  0.680900  1.0  -0.0103
  C  C1861  1  0.570700  0.330400  0.679300  1.0  0.0268
  C  C1862  1  0.572600  0.274900  0.677400  1.0  0.2217
  C  C1863  1  0.570600  0.246900  0.679400  1.0  0.5645
  C  C1864  1  0.558700  0.621600  0.691300  1.0  0.7214
  C  C1865  1  0.569100  0.646000  0.680900  1.0  -0.0106
  C  C1866  1  0.070700  0.330400  0.179300  1.0  0.0268
  C  C1867  1  0.072600  0.274900  0.177400  1.0  0.2217
  C  C1868  1  0.070600  0.246900  0.179400  1.0  0.5645
  C  C1869  1  0.058700  0.621600  0.191300  1.0  0.7214
  C  C1870  1  0.069100  0.646000  0.180900  1.0  -0.0107
  C  C1871  1  0.330400  0.679300  0.570700  1.0  0.0331
  C  C1872  1  0.274900  0.677400  0.572600  1.0  0.2219
  C  C1873  1  0.246900  0.679400  0.570600  1.0  0.564
  C  C1874  1  0.621600  0.691300  0.558700  1.0  0.7197
  C  C1875  1  0.646000  0.680900  0.569100  1.0  -0.0101
  C  C1876  1  0.330400  0.179300  0.070700  1.0  0.0331
  C  C1877  1  0.274900  0.177400  0.072600  1.0  0.2219
  C  C1878  1  0.246900  0.179400  0.070600  1.0  0.564
  C  C1879  1  0.621600  0.191300  0.058700  1.0  0.7197
  C  C1880  1  0.646000  0.180900  0.069100  1.0  -0.0101
  C  C1881  1  0.419600  0.179300  0.679300  1.0  0.0288
  C  C1882  1  0.475100  0.177400  0.677400  1.0  0.222
  C  C1883  1  0.503100  0.179400  0.679400  1.0  0.5638
  C  C1884  1  0.128400  0.191300  0.691300  1.0  0.7215
  C  C1885  1  0.104000  0.180900  0.680900  1.0  -0.0101
  C  C1886  1  0.830400  0.570700  0.179300  1.0  0.033
  C  C1887  1  0.774900  0.572600  0.177400  1.0  0.2221
  C  C1888  1  0.746900  0.570600  0.179400  1.0  0.5641
  C  C1889  1  0.121600  0.558700  0.191300  1.0  0.7198
  C  C1890  1  0.146000  0.569100  0.180900  1.0  -0.01
  C  C1891  1  0.830400  0.070700  0.679300  1.0  0.033
  C  C1892  1  0.774900  0.072600  0.677400  1.0  0.2221
  C  C1893  1  0.746900  0.070600  0.679400  1.0  0.5641
  C  C1894  1  0.121600  0.058700  0.691300  1.0  0.7198
  C  C1895  1  0.146000  0.069100  0.680900  1.0  -0.0101
  C  C1896  1  0.179300  0.679300  0.419600  1.0  0.0257
  C  C1897  1  0.177400  0.677400  0.475100  1.0  0.2206
  C  C1898  1  0.179400  0.679400  0.503100  1.0  0.5631
  C  C1899  1  0.191300  0.691300  0.128400  1.0  0.7208
  C  C1900  1  0.180900  0.680900  0.104000  1.0  -0.0103
  C  C1901  1  0.679300  0.570700  0.330400  1.0  0.0247
  C  C1902  1  0.677400  0.572600  0.274900  1.0  0.2204
  C  C1903  1  0.679400  0.570600  0.246900  1.0  0.5639
  C  C1904  1  0.691300  0.558700  0.621600  1.0  0.7204
  C  C1905  1  0.680900  0.569100  0.646000  1.0  -0.0105
  C  C1906  1  0.679300  0.070700  0.830400  1.0  0.0247
  C  C1907  1  0.677400  0.072600  0.774900  1.0  0.2204
  C  C1908  1  0.679400  0.070600  0.746900  1.0  0.5639
  C  C1909  1  0.691300  0.058700  0.121600  1.0  0.7204
  C  C1910  1  0.680900  0.069100  0.146000  1.0  -0.0103
  C  C1911  1  0.570700  0.179300  0.830400  1.0  0.0229
  C  C1912  1  0.572600  0.177400  0.774900  1.0  0.2203
  C  C1913  1  0.570600  0.179400  0.746900  1.0  0.5649
  C  C1914  1  0.558700  0.191300  0.121600  1.0  0.7216
  C  C1915  1  0.569100  0.180900  0.146000  1.0  -0.0107
  C  C1916  1  0.070700  0.179300  0.330400  1.0  0.0229
  C  C1917  1  0.072600  0.177400  0.274900  1.0  0.2203
  C  C1918  1  0.070600  0.179400  0.246900  1.0  0.5649
  C  C1919  1  0.058700  0.191300  0.621600  1.0  0.7216
  C  C1920  1  0.069100  0.180900  0.646000  1.0  -0.0107
  C  C1921  1  0.793200  0.114200  0.956800  1.0  0.0299
  C  C1922  1  0.758800  0.092900  0.991200  1.0  -0.0484
  C  C1923  1  0.738600  0.080500  0.011400  1.0  0.6755
  C  C1924  1  0.293200  0.114200  0.456800  1.0  0.0299
  C  C1925  1  0.258800  0.092900  0.491200  1.0  -0.0484
  C  C1926  1  0.238600  0.080500  0.511400  1.0  0.6702
  C  C1927  1  0.956800  0.135800  0.456800  1.0  0.0319
  C  C1928  1  0.991200  0.157100  0.491200  1.0  -0.0484
  C  C1929  1  0.011400  0.169500  0.511400  1.0  0.6768
  C  C1930  1  0.956800  0.635800  0.956800  1.0  0.0319
  C  C1931  1  0.991200  0.657100  0.991200  1.0  -0.0484
  C  C1932  1  0.011400  0.669500  0.011400  1.0  0.6687
  C  C1933  1  0.456800  0.614200  0.793200  1.0  0.0323
  C  C1934  1  0.491200  0.592900  0.758800  1.0  -0.0488
  C  C1935  1  0.511400  0.580500  0.738600  1.0  0.6703
  C  C1936  1  0.456800  0.114200  0.293200  1.0  0.0323
  C  C1937  1  0.491200  0.092900  0.258800  1.0  -0.0488
  C  C1938  1  0.511400  0.080500  0.238600  1.0  0.6703
  C  C1939  1  0.293200  0.635800  0.293200  1.0  0.03
  C  C1940  1  0.258800  0.657100  0.258800  1.0  -0.0483
  C  C1941  1  0.238600  0.669500  0.238600  1.0  0.6703
  C  C1942  1  0.293200  0.135800  0.793200  1.0  0.03
  C  C1943  1  0.258800  0.157100  0.758800  1.0  -0.0483
  C  C1944  1  0.238600  0.169500  0.738600  1.0  0.6703
  C  C1945  1  0.793200  0.635800  0.793200  1.0  0.03
  C  C1946  1  0.758800  0.657100  0.758800  1.0  -0.0483
  C  C1947  1  0.738600  0.669500  0.738600  1.0  0.6703
  C  C1948  1  0.793200  0.135800  0.293200  1.0  0.03
  C  C1949  1  0.758800  0.157100  0.258800  1.0  -0.0483
  C  C1950  1  0.738600  0.169500  0.238600  1.0  0.6703
  C  C1951  1  0.956800  0.793200  0.114200  1.0  0.0305
  C  C1952  1  0.991200  0.758800  0.092900  1.0  -0.0489
  C  C1953  1  0.011400  0.738600  0.080500  1.0  0.6775
  C  C1954  1  0.956800  0.293200  0.614200  1.0  0.0305
  C  C1955  1  0.991200  0.258800  0.592900  1.0  -0.0489
  C  C1956  1  0.011400  0.238600  0.580500  1.0  0.6775
  C  C1957  1  0.456800  0.956800  0.135800  1.0  0.0308
  C  C1958  1  0.491200  0.991200  0.157100  1.0  -0.0485
  C  C1959  1  0.511400  0.011400  0.169500  1.0  0.6777
  C  C1960  1  0.456800  0.456800  0.635800  1.0  0.0308
  C  C1961  1  0.491200  0.491200  0.657100  1.0  -0.0485
  C  C1962  1  0.511400  0.511400  0.669500  1.0  0.6715
  C  C1963  1  0.956800  0.956800  0.635800  1.0  0.0308
  C  C1964  1  0.991200  0.991200  0.657100  1.0  -0.0485
  C  C1965  1  0.011400  0.011400  0.669500  1.0  0.6694
  C  C1966  1  0.793200  0.456800  0.614200  1.0  0.0293
  C  C1967  1  0.758800  0.491200  0.592900  1.0  -0.0483
  C  C1968  1  0.738600  0.511400  0.580500  1.0  0.6711
  C  C1969  1  0.293200  0.456800  0.114200  1.0  0.0293
  C  C1970  1  0.258800  0.491200  0.092900  1.0  -0.0483
  C  C1971  1  0.238600  0.511400  0.080500  1.0  0.6711
  C  C1972  1  0.293200  0.293200  0.635800  1.0  0.0287
  C  C1973  1  0.258800  0.258800  0.657100  1.0  -0.0484
  C  C1974  1  0.238600  0.238600  0.669500  1.0  0.6714
  C  C1975  1  0.293200  0.793200  0.135800  1.0  0.0287
  C  C1976  1  0.258800  0.758800  0.157100  1.0  -0.0484
  C  C1977  1  0.238600  0.738600  0.169500  1.0  0.6714
  C  C1978  1  0.793200  0.293200  0.135800  1.0  0.0287
  C  C1979  1  0.758800  0.258800  0.157100  1.0  -0.0484
  C  C1980  1  0.738600  0.238600  0.169500  1.0  0.6714
  C  C1981  1  0.793200  0.793200  0.635800  1.0  0.0287
  C  C1982  1  0.758800  0.758800  0.657100  1.0  -0.0484
  C  C1983  1  0.738600  0.738600  0.669500  1.0  0.6714
  C  C1984  1  0.114200  0.956800  0.793200  1.0  0.0303
  C  C1985  1  0.092900  0.991200  0.758800  1.0  -0.048
  C  C1986  1  0.080500  0.011400  0.738600  1.0  0.6781
  C  C1987  1  0.114200  0.456800  0.293200  1.0  0.0303
  C  C1988  1  0.092900  0.491200  0.258800  1.0  -0.048
  C  C1989  1  0.080500  0.511400  0.238600  1.0  0.6718
  C  C1990  1  0.135800  0.456800  0.956800  1.0  0.0298
  C  C1991  1  0.157100  0.491200  0.991200  1.0  -0.048
  C  C1992  1  0.169500  0.511400  0.011400  1.0  0.6789
  C  C1993  1  0.635800  0.456800  0.456800  1.0  0.0298
  C  C1994  1  0.657100  0.491200  0.491200  1.0  -0.048
  C  C1995  1  0.669500  0.511400  0.511400  1.0  0.6729
  C  C1996  1  0.635800  0.956800  0.956800  1.0  0.0298
  C  C1997  1  0.657100  0.991200  0.991200  1.0  -0.048
  C  C1998  1  0.669500  0.011400  0.011400  1.0  0.6709
  C  C1999  1  0.614200  0.793200  0.456800  1.0  0.0295
  C  C2000  1  0.592900  0.758800  0.491200  1.0  -0.0483
  C  C2001  1  0.580500  0.738600  0.511400  1.0  0.6724
  C  C2002  1  0.614200  0.293200  0.956800  1.0  0.0295
  C  C2003  1  0.592900  0.258800  0.991200  1.0  -0.0483
  C  C2004  1  0.580500  0.238600  0.011400  1.0  0.678
  C  C2005  1  0.635800  0.293200  0.293200  1.0  0.0299
  C  C2006  1  0.657100  0.258800  0.258800  1.0  -0.0483
  C  C2007  1  0.669500  0.238600  0.238600  1.0  0.672
  C  C2008  1  0.635800  0.793200  0.793200  1.0  0.0299
  C  C2009  1  0.657100  0.758800  0.758800  1.0  -0.0483
  C  C2010  1  0.669500  0.738600  0.738600  1.0  0.672
  C  C2011  1  0.135800  0.293200  0.793200  1.0  0.0299
  C  C2012  1  0.157100  0.258800  0.758800  1.0  -0.0483
  C  C2013  1  0.169500  0.238600  0.738600  1.0  0.672
  C  C2014  1  0.135800  0.793200  0.293200  1.0  0.0299
  C  C2015  1  0.157100  0.758800  0.258800  1.0  -0.0483
  C  C2016  1  0.169500  0.738600  0.238600  1.0  0.672
  C  C2017  1  0.864200  0.043200  0.543200  1.0  0.0299
  C  C2018  1  0.842900  0.008800  0.508800  1.0  -0.0483
  C  C2019  1  0.830500  0.988600  0.488600  1.0  0.6778
  C  C2020  1  0.364200  0.043200  0.043200  1.0  0.0299
  C  C2021  1  0.342900  0.008800  0.008800  1.0  -0.0483
  C  C2022  1  0.330500  0.988600  0.988600  1.0  0.6697
  C  C2023  1  0.364200  0.543200  0.543200  1.0  0.0299
  C  C2024  1  0.342900  0.508800  0.508800  1.0  -0.0483
  C  C2025  1  0.330500  0.488600  0.488600  1.0  0.6719
  C  C2026  1  0.885800  0.206800  0.043200  1.0  0.031
  C  C2027  1  0.907100  0.241200  0.008800  1.0  -0.048
  C  C2028  1  0.919500  0.261400  0.988600  1.0  0.6785
  C  C2029  1  0.885800  0.706800  0.543200  1.0  0.031
  C  C2030  1  0.907100  0.741200  0.508800  1.0  -0.048
  C  C2031  1  0.919500  0.761400  0.488600  1.0  0.6721
  C  C2032  1  0.385800  0.206800  0.543200  1.0  0.031
  C  C2033  1  0.407100  0.241200  0.508800  1.0  -0.048
  C  C2034  1  0.419500  0.261400  0.488600  1.0  0.6721
  C  C2035  1  0.364200  0.706800  0.706800  1.0  0.0293
  C  C2036  1  0.342900  0.741200  0.741200  1.0  -0.048
  C  C2037  1  0.330500  0.761400  0.761400  1.0  0.6724
  C  C2038  1  0.364200  0.206800  0.206800  1.0  0.0293
  C  C2039  1  0.342900  0.241200  0.241200  1.0  -0.048
  C  C2040  1  0.330500  0.261400  0.261400  1.0  0.6724
  C  C2041  1  0.864200  0.706800  0.206800  1.0  0.0293
  C  C2042  1  0.842900  0.741200  0.241200  1.0  -0.048
  C  C2043  1  0.830500  0.761400  0.261400  1.0  0.6724
  C  C2044  1  0.864200  0.206800  0.706800  1.0  0.0293
  C  C2045  1  0.842900  0.241200  0.741200  1.0  -0.048
  C  C2046  1  0.830500  0.261400  0.761400  1.0  0.6724
  C  C2047  1  0.385800  0.543200  0.206800  1.0  0.0298
  C  C2048  1  0.407100  0.508800  0.241200  1.0  -0.0482
  C  C2049  1  0.419500  0.488600  0.261400  1.0  0.6728
  C  C2050  1  0.385800  0.043200  0.706800  1.0  0.0298
  C  C2051  1  0.407100  0.008800  0.741200  1.0  -0.0482
  C  C2052  1  0.419500  0.988600  0.761400  1.0  0.6783
  C  C2053  1  0.543200  0.206800  0.385800  1.0  0.0287
  C  C2054  1  0.508800  0.241200  0.407100  1.0  -0.0481
  C  C2055  1  0.488600  0.261400  0.419500  1.0  0.6714
  C  C2056  1  0.543200  0.706800  0.885800  1.0  0.0287
  C  C2057  1  0.508800  0.741200  0.907100  1.0  -0.0481
  C  C2058  1  0.488600  0.761400  0.919500  1.0  0.6714
  C  C2059  1  0.706800  0.706800  0.364200  1.0  0.0315
  C  C2060  1  0.741200  0.741200  0.342900  1.0  -0.0486
  C  C2061  1  0.761400  0.761400  0.330500  1.0  0.6712
  C  C2062  1  0.706800  0.206800  0.864200  1.0  0.0315
  C  C2063  1  0.741200  0.241200  0.842900  1.0  -0.0486
  C  C2064  1  0.761400  0.261400  0.830500  1.0  0.6712
  C  C2065  1  0.206800  0.706800  0.864200  1.0  0.0315
  C  C2066  1  0.241200  0.741200  0.842900  1.0  -0.0486
  C  C2067  1  0.261400  0.761400  0.830500  1.0  0.6712
  C  C2068  1  0.206800  0.206800  0.364200  1.0  0.0315
  C  C2069  1  0.241200  0.241200  0.342900  1.0  -0.0486
  C  C2070  1  0.261400  0.261400  0.330500  1.0  0.6712
  C  C2071  1  0.206800  0.043200  0.885800  1.0  0.0315
  C  C2072  1  0.241200  0.008800  0.907100  1.0  -0.0487
  C  C2073  1  0.261400  0.988600  0.919500  1.0  0.6774
  C  C2074  1  0.206800  0.543200  0.385800  1.0  0.0315
  C  C2075  1  0.241200  0.508800  0.407100  1.0  -0.0487
  C  C2076  1  0.261400  0.488600  0.419500  1.0  0.6716
  C  C2077  1  0.706800  0.043200  0.385800  1.0  0.0315
  C  C2078  1  0.741200  0.008800  0.407100  1.0  -0.0487
  C  C2079  1  0.761400  0.988600  0.419500  1.0  0.6774
  C  C2080  1  0.043200  0.543200  0.864200  1.0  0.028
  C  C2081  1  0.008800  0.508800  0.842900  1.0  -0.0486
  C  C2082  1  0.988600  0.488600  0.830500  1.0  0.6765
  C  C2083  1  0.043200  0.043200  0.364200  1.0  0.028
  C  C2084  1  0.008800  0.008800  0.342900  1.0  -0.0486
  C  C2085  1  0.988600  0.988600  0.330500  1.0  0.6685
  C  C2086  1  0.543200  0.543200  0.364200  1.0  0.028
  C  C2087  1  0.508800  0.508800  0.342900  1.0  -0.0486
  C  C2088  1  0.488600  0.488600  0.330500  1.0  0.671
  C  C2089  1  0.706800  0.364200  0.706800  1.0  0.0323
  C  C2090  1  0.741200  0.342900  0.741200  1.0  -0.0487
  C  C2091  1  0.761400  0.330500  0.761400  1.0  0.6707
  C  C2092  1  0.706800  0.864200  0.206800  1.0  0.0323
  C  C2093  1  0.741200  0.842900  0.241200  1.0  -0.0487
  C  C2094  1  0.761400  0.830500  0.261400  1.0  0.6707
  C  C2095  1  0.206800  0.364200  0.206800  1.0  0.0323
  C  C2096  1  0.241200  0.342900  0.241200  1.0  -0.0487
  C  C2097  1  0.261400  0.330500  0.261400  1.0  0.6707
  C  C2098  1  0.206800  0.864200  0.706800  1.0  0.0323
  C  C2099  1  0.241200  0.842900  0.741200  1.0  -0.0487
  C  C2100  1  0.261400  0.830500  0.761400  1.0  0.6707
  C  C2101  1  0.206800  0.385800  0.543200  1.0  0.0325
  C  C2102  1  0.241200  0.407100  0.508800  1.0  -0.0487
  C  C2103  1  0.261400  0.419500  0.488600  1.0  0.6707
  C  C2104  1  0.706800  0.385800  0.043200  1.0  0.0325
  C  C2105  1  0.741200  0.407100  0.008800  1.0  -0.0487
  C  C2106  1  0.761400  0.419500  0.988600  1.0  0.6768
  C  C2107  1  0.543200  0.864200  0.043200  1.0  0.0301
  C  C2108  1  0.508800  0.842900  0.008800  1.0  -0.0485
  C  C2109  1  0.488600  0.830500  0.988600  1.0  0.6753
  C  C2110  1  0.543200  0.364200  0.543200  1.0  0.0301
  C  C2111  1  0.508800  0.342900  0.508800  1.0  -0.0485
  C  C2112  1  0.488600  0.330500  0.488600  1.0  0.6696
  C  C2113  1  0.043200  0.885800  0.206800  1.0  0.0294
  C  C2114  1  0.008800  0.907100  0.241200  1.0  -0.0481
  C  C2115  1  0.988600  0.919500  0.261400  1.0  0.6758
  C  C2116  1  0.043200  0.385800  0.706800  1.0  0.0294
  C  C2117  1  0.008800  0.407100  0.741200  1.0  -0.0481
  C  C2118  1  0.988600  0.419500  0.761400  1.0  0.6758
  C  C2119  1  0.543200  0.385800  0.206800  1.0  0.0294
  C  C2120  1  0.508800  0.407100  0.241200  1.0  -0.0481
  C  C2121  1  0.488600  0.419500  0.261400  1.0  0.6709
  C  C2122  1  0.206800  0.885800  0.043200  1.0  0.0325
  C  C2123  1  0.241200  0.907100  0.008800  1.0  -0.0487
  C  C2124  1  0.261400  0.919500  0.988600  1.0  0.6768
  C  C2125  1  0.706800  0.885800  0.543200  1.0  0.0325
  C  C2126  1  0.741200  0.907100  0.508800  1.0  -0.0487
  C  C2127  1  0.761400  0.919500  0.488600  1.0  0.6707
  C  C2128  1  0.043200  0.864200  0.543200  1.0  0.0301
  C  C2129  1  0.008800  0.842900  0.508800  1.0  -0.0485
  C  C2130  1  0.988600  0.830500  0.488600  1.0  0.6753
  C  C2131  1  0.043200  0.364200  0.043200  1.0  0.0301
  C  C2132  1  0.008800  0.342900  0.008800  1.0  -0.0485
  C  C2133  1  0.988600  0.330500  0.988600  1.0  0.6672
  C  C2134  1  0.543200  0.885800  0.706800  1.0  0.0294
  C  C2135  1  0.508800  0.907100  0.741200  1.0  -0.0481
  C  C2136  1  0.488600  0.919500  0.761400  1.0  0.6709
  C  C2137  1  0.043200  0.206800  0.885800  1.0  0.0287
  C  C2138  1  0.008800  0.241200  0.907100  1.0  -0.0481
  C  C2139  1  0.988600  0.261400  0.919500  1.0  0.6769
  C  C2140  1  0.043200  0.706800  0.385800  1.0  0.0287
  C  C2141  1  0.008800  0.741200  0.407100  1.0  -0.0481
  C  C2142  1  0.988600  0.761400  0.419500  1.0  0.6769
  C  C2143  1  0.543200  0.043200  0.864200  1.0  0.028
  C  C2144  1  0.508800  0.008800  0.842900  1.0  -0.0486
  C  C2145  1  0.488600  0.988600  0.830500  1.0  0.6765
  C  C2146  1  0.706800  0.543200  0.885800  1.0  0.0315
  C  C2147  1  0.741200  0.508800  0.907100  1.0  -0.0487
  C  C2148  1  0.761400  0.488600  0.919500  1.0  0.6716
  C  C2149  1  0.885800  0.043200  0.206800  1.0  0.0298
  C  C2150  1  0.907100  0.008800  0.241200  1.0  -0.0482
  C  C2151  1  0.919500  0.988600  0.261400  1.0  0.6783
  C  C2152  1  0.885800  0.543200  0.706800  1.0  0.0298
  C  C2153  1  0.907100  0.508800  0.741200  1.0  -0.0482
  C  C2154  1  0.919500  0.488600  0.761400  1.0  0.6728
  C  C2155  1  0.864200  0.543200  0.043200  1.0  0.0299
  C  C2156  1  0.842900  0.508800  0.008800  1.0  -0.0483
  C  C2157  1  0.830500  0.488600  0.988600  1.0  0.6778
  C  C2158  1  0.385800  0.706800  0.043200  1.0  0.031
  C  C2159  1  0.407100  0.741200  0.008800  1.0  -0.048
  C  C2160  1  0.419500  0.761400  0.988600  1.0  0.6785
  C  C2161  1  0.135800  0.956800  0.456800  1.0  0.0298
  C  C2162  1  0.157100  0.991200  0.491200  1.0  -0.048
  C  C2163  1  0.169500  0.011400  0.511400  1.0  0.6789
  C  C2164  1  0.114200  0.793200  0.956800  1.0  0.0295
  C  C2165  1  0.092900  0.758800  0.991200  1.0  -0.0483
  C  C2166  1  0.080500  0.738600  0.011400  1.0  0.678
  C  C2167  1  0.114200  0.293200  0.456800  1.0  0.0295
  C  C2168  1  0.092900  0.258800  0.491200  1.0  -0.0483
  C  C2169  1  0.080500  0.238600  0.511400  1.0  0.6724
  C  C2170  1  0.614200  0.456800  0.793200  1.0  0.0303
  C  C2171  1  0.592900  0.491200  0.758800  1.0  -0.048
  C  C2172  1  0.580500  0.511400  0.738600  1.0  0.6718
  C  C2173  1  0.614200  0.956800  0.293200  1.0  0.0303
  C  C2174  1  0.592900  0.991200  0.258800  1.0  -0.048
  C  C2175  1  0.580500  0.011400  0.238600  1.0  0.6781
  C  C2176  1  0.456800  0.793200  0.614200  1.0  0.0305
  C  C2177  1  0.491200  0.758800  0.592900  1.0  -0.0489
  C  C2178  1  0.511400  0.738600  0.580500  1.0  0.6713
  C  C2179  1  0.456800  0.293200  0.114200  1.0  0.0305
  C  C2180  1  0.491200  0.258800  0.092900  1.0  -0.0489
  C  C2181  1  0.511400  0.238600  0.080500  1.0  0.6713
  C  C2182  1  0.793200  0.956800  0.114200  1.0  0.0293
  C  C2183  1  0.758800  0.991200  0.092900  1.0  -0.0483
  C  C2184  1  0.738600  0.011400  0.080500  1.0  0.677
  C  C2185  1  0.293200  0.956800  0.614200  1.0  0.0293
  C  C2186  1  0.258800  0.991200  0.592900  1.0  -0.0483
  C  C2187  1  0.238600  0.011400  0.580500  1.0  0.677
  C  C2188  1  0.956800  0.456800  0.135800  1.0  0.0308
  C  C2189  1  0.991200  0.491200  0.157100  1.0  -0.0485
  C  C2190  1  0.011400  0.511400  0.169500  1.0  0.6777
  C  C2191  1  0.793200  0.614200  0.456800  1.0  0.0299
  C  C2192  1  0.758800  0.592900  0.491200  1.0  -0.0484
  C  C2193  1  0.738600  0.580500  0.511400  1.0  0.6702
  C  C2194  1  0.293200  0.614200  0.956800  1.0  0.0299
  C  C2195  1  0.258800  0.592900  0.991200  1.0  -0.0484
  C  C2196  1  0.238600  0.580500  0.011400  1.0  0.6755
  C  C2197  1  0.456800  0.135800  0.956800  1.0  0.0319
  C  C2198  1  0.491200  0.157100  0.991200  1.0  -0.0484
  C  C2199  1  0.511400  0.169500  0.011400  1.0  0.6768
  C  C2200  1  0.456800  0.635800  0.456800  1.0  0.0319
  C  C2201  1  0.491200  0.657100  0.491200  1.0  -0.0484
  C  C2202  1  0.511400  0.669500  0.511400  1.0  0.6711
  C  C2203  1  0.956800  0.114200  0.793200  1.0  0.0323
  C  C2204  1  0.991200  0.092900  0.758800  1.0  -0.0488
  C  C2205  1  0.011400  0.080500  0.738600  1.0  0.6765
  C  C2206  1  0.956800  0.614200  0.293200  1.0  0.0323
  C  C2207  1  0.991200  0.592900  0.258800  1.0  -0.0488
  C  C2208  1  0.011400  0.580500  0.238600  1.0  0.6765
  C  C2209  1  0.592700  0.092700  0.058900  1.0  0.0544
  C  C2210  1  0.592700  0.592700  0.558900  1.0  0.0544
  C  C2211  1  0.157300  0.157300  0.558900  1.0  0.0555
  C  C2212  1  0.157300  0.657300  0.058900  1.0  0.0555
  C  C2213  1  0.657300  0.157300  0.058900  1.0  0.0555
  C  C2214  1  0.657300  0.657300  0.558900  1.0  0.0555
  C  C2215  1  0.657300  0.592700  0.691100  1.0  0.0537
  C  C2216  1  0.157300  0.592700  0.191100  1.0  0.0537
  C  C2217  1  0.092700  0.657300  0.191100  1.0  0.0539
  C  C2218  1  0.092700  0.157300  0.691100  1.0  0.0539
  C  C2219  1  0.058900  0.592700  0.092700  1.0  0.0543
  C  C2220  1  0.558900  0.592700  0.592700  1.0  0.0543
  C  C2221  1  0.558900  0.157300  0.157300  1.0  0.0556
  C  C2222  1  0.558900  0.657300  0.657300  1.0  0.0556
  C  C2223  1  0.058900  0.157300  0.657300  1.0  0.0556
  C  C2224  1  0.058900  0.657300  0.157300  1.0  0.0556
  C  C2225  1  0.691100  0.657300  0.592700  1.0  0.0531
  C  C2226  1  0.691100  0.157300  0.092700  1.0  0.0531
  C  C2227  1  0.191100  0.092700  0.657300  1.0  0.0531
  C  C2228  1  0.191100  0.592700  0.157300  1.0  0.0531
  C  C2229  1  0.092700  0.058900  0.592700  1.0  0.0526
  C  C2230  1  0.092700  0.558900  0.092700  1.0  0.0526
  C  C2231  1  0.157300  0.558900  0.157300  1.0  0.0531
  C  C2232  1  0.157300  0.058900  0.657300  1.0  0.0531
  C  C2233  1  0.657300  0.558900  0.657300  1.0  0.0531
  C  C2234  1  0.657300  0.058900  0.157300  1.0  0.0531
  C  C2235  1  0.592700  0.691100  0.657300  1.0  0.0557
  C  C2236  1  0.592700  0.191100  0.157300  1.0  0.0557
  C  C2237  1  0.657300  0.191100  0.092700  1.0  0.0547
  C  C2238  1  0.157300  0.191100  0.592700  1.0  0.0547
  C  C2239  1  0.842700  0.842700  0.441100  1.0  0.054
  C  C2240  1  0.842700  0.342700  0.941100  1.0  0.054
  C  C2241  1  0.342700  0.842700  0.941100  1.0  0.054
  C  C2242  1  0.342700  0.342700  0.441100  1.0  0.054
  C  C2243  1  0.907300  0.407300  0.941100  1.0  0.054
  C  C2244  1  0.907300  0.907300  0.441100  1.0  0.054
  C  C2245  1  0.342700  0.907300  0.808900  1.0  0.0543
  C  C2246  1  0.842700  0.907300  0.308900  1.0  0.0543
  C  C2247  1  0.407300  0.342700  0.308900  1.0  0.0548
  C  C2248  1  0.407300  0.842700  0.808900  1.0  0.0548
  C  C2249  1  0.342700  0.308900  0.407300  1.0  0.0532
  C  C2250  1  0.842700  0.308900  0.907300  1.0  0.0532
  C  C2251  1  0.907300  0.808900  0.342700  1.0  0.0523
  C  C2252  1  0.907300  0.308900  0.842700  1.0  0.0523
  C  C2253  1  0.407300  0.941100  0.907300  1.0  0.0556
  C  C2254  1  0.407300  0.441100  0.407300  1.0  0.0556
  C  C2255  1  0.842700  0.441100  0.842700  1.0  0.055
  C  C2256  1  0.842700  0.941100  0.342700  1.0  0.055
  C  C2257  1  0.342700  0.441100  0.342700  1.0  0.055
  C  C2258  1  0.342700  0.941100  0.842700  1.0  0.055
  C  C2259  1  0.808900  0.342700  0.907300  1.0  0.0555
  C  C2260  1  0.808900  0.842700  0.407300  1.0  0.0555
  C  C2261  1  0.308900  0.407300  0.342700  1.0  0.055
  C  C2262  1  0.308900  0.907300  0.842700  1.0  0.055
  C  C2263  1  0.441100  0.842700  0.842700  1.0  0.0529
  C  C2264  1  0.441100  0.342700  0.342700  1.0  0.0529
  C  C2265  1  0.941100  0.842700  0.342700  1.0  0.0529
  C  C2266  1  0.941100  0.342700  0.842700  1.0  0.0529
  C  C2267  1  0.941100  0.907300  0.407300  1.0  0.053
  C  C2268  1  0.441100  0.907300  0.907300  1.0  0.053
  C  C2269  1  0.407300  0.907300  0.941100  1.0  0.054
  C  C2270  1  0.407300  0.407300  0.441100  1.0  0.054
  C  C2271  1  0.342700  0.407300  0.308900  1.0  0.0543
  C  C2272  1  0.842700  0.407300  0.808900  1.0  0.0543
  C  C2273  1  0.907300  0.342700  0.808900  1.0  0.0548
  C  C2274  1  0.907300  0.842700  0.308900  1.0  0.0548
  C  C2275  1  0.941100  0.407300  0.907300  1.0  0.053
  C  C2276  1  0.441100  0.407300  0.407300  1.0  0.053
  C  C2277  1  0.308900  0.342700  0.407300  1.0  0.0555
  C  C2278  1  0.308900  0.842700  0.907300  1.0  0.0555
  C  C2279  1  0.808900  0.907300  0.342700  1.0  0.055
  C  C2280  1  0.808900  0.407300  0.842700  1.0  0.055
  C  C2281  1  0.907300  0.941100  0.407300  1.0  0.0556
  C  C2282  1  0.907300  0.441100  0.907300  1.0  0.0556
  C  C2283  1  0.407300  0.308900  0.342700  1.0  0.0523
  C  C2284  1  0.407300  0.808900  0.842700  1.0  0.0523
  C  C2285  1  0.342700  0.808900  0.907300  1.0  0.0532
  C  C2286  1  0.842700  0.808900  0.407300  1.0  0.0532
  C  C2287  1  0.092700  0.592700  0.058900  1.0  0.0544
  C  C2288  1  0.092700  0.092700  0.558900  1.0  0.0544
  C  C2289  1  0.657300  0.092700  0.191100  1.0  0.0537
  C  C2290  1  0.157300  0.092700  0.691100  1.0  0.0537
  C  C2291  1  0.592700  0.657300  0.691100  1.0  0.0539
  C  C2292  1  0.592700  0.157300  0.191100  1.0  0.0539
  C  C2293  1  0.657300  0.691100  0.592700  1.0  0.0547
  C  C2294  1  0.157300  0.691100  0.092700  1.0  0.0547
  C  C2295  1  0.092700  0.191100  0.657300  1.0  0.0557
  C  C2296  1  0.092700  0.691100  0.157300  1.0  0.0557
  C  C2297  1  0.592700  0.058900  0.092700  1.0  0.0526
  C  C2298  1  0.592700  0.558900  0.592700  1.0  0.0526
  C  C2299  1  0.191100  0.657300  0.092700  1.0  0.0531
  C  C2300  1  0.191100  0.157300  0.592700  1.0  0.0531
  C  C2301  1  0.691100  0.592700  0.657300  1.0  0.0531
  C  C2302  1  0.691100  0.092700  0.157300  1.0  0.0531
  C  C2303  1  0.058900  0.092700  0.592700  1.0  0.0543
  C  C2304  1  0.558900  0.092700  0.092700  1.0  0.0543
  O  O2305  1  0.893500  0.097500  0.033400  1.0  -0.513
  O  O2306  1  0.928900  0.119500  0.021500  1.0  -0.5537
  O  O2307  1  0.015900  0.058500  0.090100  1.0  -0.5974
  O  O2308  1  0.838720  0.105720  0.011370  1.0  -0.5423
  O  O2309  1  0.844590  0.126510  0.974030  1.0  -0.5283
  O  O2310  1  0.715560  0.077890  0.003220  1.0  -0.5959
  O  O2311  1  0.637980  0.069840  0.039350  1.0  -0.6332
  O  O2312  1  0.893500  0.597500  0.533400  1.0  -0.513
  O  O2313  1  0.928900  0.619500  0.521500  1.0  -0.5537
  O  O2314  1  0.015900  0.558500  0.590100  1.0  -0.5974
  O  O2315  1  0.838720  0.605720  0.511370  1.0  -0.5423
  O  O2316  1  0.844590  0.626510  0.474030  1.0  -0.5283
  O  O2317  1  0.715560  0.577890  0.503220  1.0  -0.5959
  O  O2318  1  0.637980  0.569840  0.539350  1.0  -0.6332
  O  O2319  1  0.393500  0.097500  0.533400  1.0  -0.513
  O  O2320  1  0.428900  0.119500  0.521500  1.0  -0.5537
  O  O2321  1  0.515900  0.058500  0.590100  1.0  -0.5974
  O  O2322  1  0.338720  0.105720  0.511370  1.0  -0.5423
  O  O2323  1  0.344590  0.126510  0.474030  1.0  -0.5283
  O  O2324  1  0.215560  0.077890  0.503220  1.0  -0.5959
  O  O2325  1  0.137980  0.069840  0.539350  1.0  -0.6332
  O  O2326  1  0.393500  0.597500  0.033400  1.0  -0.513
  O  O2327  1  0.428900  0.619500  0.021500  1.0  -0.5537
  O  O2328  1  0.515900  0.558500  0.090100  1.0  -0.5974
  O  O2329  1  0.338720  0.605720  0.011370  1.0  -0.5423
  O  O2330  1  0.344590  0.626510  0.974030  1.0  -0.5283
  O  O2331  1  0.215560  0.577890  0.003220  1.0  -0.5959
  O  O2332  1  0.137980  0.569840  0.039350  1.0  -0.6332
  O  O2333  1  0.856500  0.152500  0.533400  1.0  -0.5121
  O  O2334  1  0.821100  0.130500  0.521500  1.0  -0.554
  O  O2335  1  0.734100  0.191500  0.590100  1.0  -0.5983
  O  O2336  1  0.911280  0.144280  0.511370  1.0  -0.5437
  O  O2337  1  0.905410  0.123490  0.474030  1.0  -0.5283
  O  O2338  1  0.034440  0.172110  0.503220  1.0  -0.5973
  O  O2339  1  0.112020  0.180160  0.539350  1.0  -0.6314
  O  O2340  1  0.856500  0.652500  0.033400  1.0  -0.5121
  O  O2341  1  0.821100  0.630500  0.021500  1.0  -0.554
  O  O2342  1  0.734100  0.691500  0.090100  1.0  -0.5983
  O  O2343  1  0.911280  0.644280  0.011370  1.0  -0.5437
  O  O2344  1  0.905410  0.623490  0.974030  1.0  -0.5283
  O  O2345  1  0.034440  0.672110  0.003220  1.0  -0.5973
  O  O2346  1  0.112020  0.680160  0.039350  1.0  -0.6314
  O  O2347  1  0.356500  0.152500  0.033400  1.0  -0.5121
  O  O2348  1  0.321100  0.130500  0.021500  1.0  -0.554
  O  O2349  1  0.234100  0.191500  0.090100  1.0  -0.5983
  O  O2350  1  0.411280  0.144280  0.011370  1.0  -0.5437
  O  O2351  1  0.405410  0.123490  0.974030  1.0  -0.5283
  O  O2352  1  0.534440  0.172110  0.003220  1.0  -0.5973
  O  O2353  1  0.612020  0.180160  0.039350  1.0  -0.6314
  O  O2354  1  0.356500  0.652500  0.533400  1.0  -0.5121
  O  O2355  1  0.321100  0.630500  0.521500  1.0  -0.554
  O  O2356  1  0.234100  0.691500  0.590100  1.0  -0.5983
  O  O2357  1  0.411280  0.644280  0.511370  1.0  -0.5437
  O  O2358  1  0.405410  0.623490  0.474030  1.0  -0.5283
  O  O2359  1  0.534440  0.672110  0.503220  1.0  -0.5973
  O  O2360  1  0.612020  0.680160  0.539350  1.0  -0.6314
  O  O2361  1  0.356500  0.597500  0.716600  1.0  -0.5134
  O  O2362  1  0.321100  0.619500  0.728500  1.0  -0.5552
  O  O2363  1  0.234100  0.558500  0.659900  1.0  -0.5983
  O  O2364  1  0.411280  0.605720  0.738630  1.0  -0.5403
  O  O2365  1  0.405410  0.626510  0.775970  1.0  -0.5279
  O  O2366  1  0.534440  0.577890  0.746780  1.0  -0.5953
  O  O2367  1  0.612020  0.569840  0.710650  1.0  -0.6327
  O  O2368  1  0.356500  0.097500  0.216600  1.0  -0.5134
  O  O2369  1  0.321100  0.119500  0.228500  1.0  -0.5552
  O  O2370  1  0.234100  0.058500  0.159900  1.0  -0.5983
  O  O2371  1  0.411280  0.105720  0.238630  1.0  -0.5403
  O  O2372  1  0.405410  0.126510  0.275970  1.0  -0.5279
  O  O2373  1  0.534440  0.077890  0.246780  1.0  -0.5953
  O  O2374  1  0.612020  0.069840  0.210650  1.0  -0.6327
  O  O2375  1  0.856500  0.597500  0.216600  1.0  -0.5134
  O  O2376  1  0.821100  0.619500  0.228500  1.0  -0.5552
  O  O2377  1  0.734100  0.558500  0.159900  1.0  -0.5983
  O  O2378  1  0.911280  0.605720  0.238630  1.0  -0.5403
  O  O2379  1  0.905410  0.626510  0.275970  1.0  -0.5279
  O  O2380  1  0.034440  0.577890  0.246780  1.0  -0.5953
  O  O2381  1  0.112020  0.569840  0.210650  1.0  -0.6327
  O  O2382  1  0.856500  0.097500  0.716600  1.0  -0.5134
  O  O2383  1  0.821100  0.119500  0.728500  1.0  -0.5552
  O  O2384  1  0.734100  0.058500  0.659900  1.0  -0.5983
  O  O2385  1  0.911280  0.105720  0.738630  1.0  -0.5403
  O  O2386  1  0.905410  0.126510  0.775970  1.0  -0.5279
  O  O2387  1  0.034440  0.077890  0.746780  1.0  -0.5953
  O  O2388  1  0.112020  0.069840  0.710650  1.0  -0.6327
  O  O2389  1  0.393500  0.652500  0.216600  1.0  -0.5127
  O  O2390  1  0.428900  0.630500  0.228500  1.0  -0.5554
  O  O2391  1  0.515900  0.691500  0.159900  1.0  -0.6013
  O  O2392  1  0.338720  0.644280  0.238630  1.0  -0.5429
  O  O2393  1  0.344590  0.623490  0.275970  1.0  -0.5266
  O  O2394  1  0.215560  0.672110  0.246780  1.0  -0.5943
  O  O2395  1  0.137980  0.680160  0.210650  1.0  -0.632
  O  O2396  1  0.393500  0.152500  0.716600  1.0  -0.5127
  O  O2397  1  0.428900  0.130500  0.728500  1.0  -0.5554
  O  O2398  1  0.515900  0.191500  0.659900  1.0  -0.6013
  O  O2399  1  0.338720  0.144280  0.738630  1.0  -0.5429
  O  O2400  1  0.344590  0.123490  0.775970  1.0  -0.5266
  O  O2401  1  0.215560  0.172110  0.746780  1.0  -0.5943
  O  O2402  1  0.137980  0.180160  0.710650  1.0  -0.632
  O  O2403  1  0.893500  0.652500  0.716600  1.0  -0.5127
  O  O2404  1  0.928900  0.630500  0.728500  1.0  -0.5554
  O  O2405  1  0.015900  0.691500  0.659900  1.0  -0.6013
  O  O2406  1  0.838720  0.644280  0.738630  1.0  -0.5429
  O  O2407  1  0.844590  0.623490  0.775970  1.0  -0.5266
  O  O2408  1  0.715560  0.672110  0.746780  1.0  -0.5943
  O  O2409  1  0.637980  0.680160  0.710650  1.0  -0.632
  O  O2410  1  0.893500  0.152500  0.216600  1.0  -0.5127
  O  O2411  1  0.928900  0.130500  0.228500  1.0  -0.5554
  O  O2412  1  0.015900  0.191500  0.159900  1.0  -0.6013
  O  O2413  1  0.838720  0.144280  0.238630  1.0  -0.5429
  O  O2414  1  0.844590  0.123490  0.275970  1.0  -0.5266
  O  O2415  1  0.715560  0.172110  0.246780  1.0  -0.5943
  O  O2416  1  0.637980  0.180160  0.210650  1.0  -0.632
  O  O2417  1  0.033400  0.893500  0.097500  1.0  -0.5109
  O  O2418  1  0.021500  0.928900  0.119500  1.0  -0.5563
  O  O2419  1  0.090100  0.015900  0.058500  1.0  -0.6007
  O  O2420  1  0.011370  0.838720  0.105720  1.0  -0.5464
  O  O2421  1  0.974030  0.844590  0.126510  1.0  -0.5284
  O  O2422  1  0.003220  0.715560  0.077890  1.0  -0.598
  O  O2423  1  0.039350  0.637980  0.069840  1.0  -0.6293
  O  O2424  1  0.033400  0.393500  0.597500  1.0  -0.5109
  O  O2425  1  0.021500  0.428900  0.619500  1.0  -0.5563
  O  O2426  1  0.090100  0.515900  0.558500  1.0  -0.6007
  O  O2427  1  0.011370  0.338720  0.605720  1.0  -0.5464
  O  O2428  1  0.974030  0.344590  0.626510  1.0  -0.5284
  O  O2429  1  0.003220  0.215560  0.577890  1.0  -0.598
  O  O2430  1  0.039350  0.137980  0.569840  1.0  -0.6293
  O  O2431  1  0.533400  0.893500  0.597500  1.0  -0.5109
  O  O2432  1  0.521500  0.928900  0.619500  1.0  -0.5563
  O  O2433  1  0.590100  0.015900  0.558500  1.0  -0.6007
  O  O2434  1  0.511370  0.838720  0.605720  1.0  -0.5464
  O  O2435  1  0.474030  0.844590  0.626510  1.0  -0.5284
  O  O2436  1  0.503220  0.715560  0.577890  1.0  -0.598
  O  O2437  1  0.539350  0.637980  0.569840  1.0  -0.6293
  O  O2438  1  0.533400  0.393500  0.097500  1.0  -0.5109
  O  O2439  1  0.521500  0.428900  0.119500  1.0  -0.5563
  O  O2440  1  0.590100  0.515900  0.058500  1.0  -0.6007
  O  O2441  1  0.511370  0.338720  0.105720  1.0  -0.5464
  O  O2442  1  0.474030  0.344590  0.126510  1.0  -0.5284
  O  O2443  1  0.503220  0.215560  0.077890  1.0  -0.598
  O  O2444  1  0.539350  0.137980  0.069840  1.0  -0.6293
  O  O2445  1  0.533400  0.856500  0.152500  1.0  -0.5099
  O  O2446  1  0.521500  0.821100  0.130500  1.0  -0.5562
  O  O2447  1  0.590100  0.734100  0.191500  1.0  -0.6
  O  O2448  1  0.511370  0.911280  0.144280  1.0  -0.5474
  O  O2449  1  0.474030  0.905410  0.123490  1.0  -0.5286
  O  O2450  1  0.503220  0.034440  0.172110  1.0  -0.5987
  O  O2451  1  0.539350  0.112020  0.180160  1.0  -0.6299
  O  O2452  1  0.533400  0.356500  0.652500  1.0  -0.5099
  O  O2453  1  0.521500  0.321100  0.630500  1.0  -0.5562
  O  O2454  1  0.590100  0.234100  0.691500  1.0  -0.6
  O  O2455  1  0.511370  0.411280  0.644280  1.0  -0.5474
  O  O2456  1  0.474030  0.405410  0.623490  1.0  -0.5286
  O  O2457  1  0.503220  0.534440  0.672110  1.0  -0.5987
  O  O2458  1  0.539350  0.612020  0.680160  1.0  -0.6299
  O  O2459  1  0.033400  0.856500  0.652500  1.0  -0.5099
  O  O2460  1  0.021500  0.821100  0.630500  1.0  -0.5562
  O  O2461  1  0.090100  0.734100  0.691500  1.0  -0.6
  O  O2462  1  0.011370  0.911280  0.644280  1.0  -0.5474
  O  O2463  1  0.974030  0.905410  0.623490  1.0  -0.5286
  O  O2464  1  0.003220  0.034440  0.672110  1.0  -0.5987
  O  O2465  1  0.039350  0.112020  0.680160  1.0  -0.6299
  O  O2466  1  0.033400  0.356500  0.152500  1.0  -0.5099
  O  O2467  1  0.021500  0.321100  0.130500  1.0  -0.5562
  O  O2468  1  0.090100  0.234100  0.191500  1.0  -0.6
  O  O2469  1  0.011370  0.411280  0.144280  1.0  -0.5474
  O  O2470  1  0.974030  0.405410  0.123490  1.0  -0.5286
  O  O2471  1  0.003220  0.534440  0.172110  1.0  -0.5987
  O  O2472  1  0.039350  0.612020  0.180160  1.0  -0.6299
  O  O2473  1  0.716600  0.356500  0.597500  1.0  -0.5101
  O  O2474  1  0.728500  0.321100  0.619500  1.0  -0.5564
  O  O2475  1  0.659900  0.234100  0.558500  1.0  -0.6039
  O  O2476  1  0.738630  0.411280  0.605720  1.0  -0.5473
  O  O2477  1  0.775970  0.405410  0.626510  1.0  -0.5287
  O  O2478  1  0.746780  0.534440  0.577890  1.0  -0.5982
  O  O2479  1  0.710650  0.612020  0.569840  1.0  -0.6305
  O  O2480  1  0.716600  0.856500  0.097500  1.0  -0.5101
  O  O2481  1  0.728500  0.821100  0.119500  1.0  -0.5564
  O  O2482  1  0.659900  0.734100  0.058500  1.0  -0.6039
  O  O2483  1  0.738630  0.911280  0.105720  1.0  -0.5473
  O  O2484  1  0.775970  0.905410  0.126510  1.0  -0.5287
  O  O2485  1  0.746780  0.034440  0.077890  1.0  -0.5982
  O  O2486  1  0.710650  0.112020  0.069840  1.0  -0.6305
  O  O2487  1  0.216600  0.356500  0.097500  1.0  -0.5101
  O  O2488  1  0.228500  0.321100  0.119500  1.0  -0.5564
  O  O2489  1  0.159900  0.234100  0.058500  1.0  -0.6039
  O  O2490  1  0.238630  0.411280  0.105720  1.0  -0.5473
  O  O2491  1  0.275970  0.405410  0.126510  1.0  -0.5287
  O  O2492  1  0.246780  0.534440  0.077890  1.0  -0.5982
  O  O2493  1  0.210650  0.612020  0.069840  1.0  -0.6305
  O  O2494  1  0.216600  0.856500  0.597500  1.0  -0.5101
  O  O2495  1  0.228500  0.821100  0.619500  1.0  -0.5564
  O  O2496  1  0.159900  0.734100  0.558500  1.0  -0.6039
  O  O2497  1  0.238630  0.911280  0.605720  1.0  -0.5473
  O  O2498  1  0.275970  0.905410  0.626510  1.0  -0.5287
  O  O2499  1  0.246780  0.034440  0.577890  1.0  -0.5982
  O  O2500  1  0.210650  0.112020  0.569840  1.0  -0.6305
  O  O2501  1  0.216600  0.393500  0.652500  1.0  -0.5104
  O  O2502  1  0.228500  0.428900  0.630500  1.0  -0.5564
  O  O2503  1  0.159900  0.515900  0.691500  1.0  -0.6031
  O  O2504  1  0.238630  0.338720  0.644280  1.0  -0.5471
  O  O2505  1  0.275970  0.344590  0.623490  1.0  -0.5278
  O  O2506  1  0.246780  0.215560  0.672110  1.0  -0.5992
  O  O2507  1  0.210650  0.137980  0.680160  1.0  -0.6298
  O  O2508  1  0.216600  0.893500  0.152500  1.0  -0.5104
  O  O2509  1  0.228500  0.928900  0.130500  1.0  -0.5564
  O  O2510  1  0.159900  0.015900  0.191500  1.0  -0.6031
  O  O2511  1  0.238630  0.838720  0.144280  1.0  -0.5471
  O  O2512  1  0.275970  0.844590  0.123490  1.0  -0.5278
  O  O2513  1  0.246780  0.715560  0.172110  1.0  -0.5992
  O  O2514  1  0.210650  0.637980  0.180160  1.0  -0.6298
  O  O2515  1  0.716600  0.393500  0.152500  1.0  -0.5104
  O  O2516  1  0.728500  0.428900  0.130500  1.0  -0.5564
  O  O2517  1  0.659900  0.515900  0.191500  1.0  -0.6031
  O  O2518  1  0.738630  0.338720  0.144280  1.0  -0.5471
  O  O2519  1  0.775970  0.344590  0.123490  1.0  -0.5278
  O  O2520  1  0.746780  0.215560  0.172110  1.0  -0.5992
  O  O2521  1  0.710650  0.137980  0.180160  1.0  -0.6298
  O  O2522  1  0.716600  0.893500  0.652500  1.0  -0.5104
  O  O2523  1  0.728500  0.928900  0.630500  1.0  -0.5564
  O  O2524  1  0.659900  0.015900  0.691500  1.0  -0.6031
  O  O2525  1  0.738630  0.838720  0.644280  1.0  -0.5471
  O  O2526  1  0.775970  0.844590  0.623490  1.0  -0.5278
  O  O2527  1  0.746780  0.715560  0.672110  1.0  -0.5992
  O  O2528  1  0.710650  0.637980  0.680160  1.0  -0.6298
  O  O2529  1  0.097500  0.033400  0.893500  1.0  -0.5073
  O  O2530  1  0.119500  0.021500  0.928900  1.0  -0.5563
  O  O2531  1  0.058500  0.090100  0.015900  1.0  -0.6036
  O  O2532  1  0.105720  0.011370  0.838720  1.0  -0.5453
  O  O2533  1  0.126510  0.974030  0.844590  1.0  -0.5287
  O  O2534  1  0.077890  0.003220  0.715560  1.0  -0.5979
  O  O2535  1  0.069840  0.039350  0.637980  1.0  -0.6275
  O  O2536  1  0.097500  0.533400  0.393500  1.0  -0.5073
  O  O2537  1  0.119500  0.521500  0.428900  1.0  -0.5563
  O  O2538  1  0.058500  0.590100  0.515900  1.0  -0.6036
  O  O2539  1  0.105720  0.511370  0.338720  1.0  -0.5453
  O  O2540  1  0.126510  0.474030  0.344590  1.0  -0.5287
  O  O2541  1  0.077890  0.503220  0.215560  1.0  -0.5979
  O  O2542  1  0.069840  0.539350  0.137980  1.0  -0.6275
  O  O2543  1  0.597500  0.033400  0.393500  1.0  -0.5073
  O  O2544  1  0.619500  0.021500  0.428900  1.0  -0.5563
  O  O2545  1  0.558500  0.090100  0.515900  1.0  -0.6036
  O  O2546  1  0.605720  0.011370  0.338720  1.0  -0.5453
  O  O2547  1  0.626510  0.974030  0.344590  1.0  -0.5287
  O  O2548  1  0.577890  0.003220  0.215560  1.0  -0.5979
  O  O2549  1  0.569840  0.039350  0.137980  1.0  -0.6275
  O  O2550  1  0.597500  0.533400  0.893500  1.0  -0.5073
  O  O2551  1  0.619500  0.521500  0.928900  1.0  -0.5563
  O  O2552  1  0.558500  0.590100  0.015900  1.0  -0.6036
  O  O2553  1  0.605720  0.511370  0.838720  1.0  -0.5453
  O  O2554  1  0.626510  0.474030  0.844590  1.0  -0.5287
  O  O2555  1  0.577890  0.503220  0.715560  1.0  -0.5979
  O  O2556  1  0.569840  0.539350  0.637980  1.0  -0.6275
  O  O2557  1  0.152500  0.533400  0.856500  1.0  -0.5064
  O  O2558  1  0.130500  0.521500  0.821100  1.0  -0.5563
  O  O2559  1  0.191500  0.590100  0.734100  1.0  -0.6025
  O  O2560  1  0.144280  0.511370  0.911280  1.0  -0.5444
  O  O2561  1  0.123490  0.474030  0.905410  1.0  -0.5295
  O  O2562  1  0.172110  0.503220  0.034440  1.0  -0.5988
  O  O2563  1  0.180160  0.539350  0.112020  1.0  -0.6278
  O  O2564  1  0.152500  0.033400  0.356500  1.0  -0.5064
  O  O2565  1  0.130500  0.021500  0.321100  1.0  -0.5563
  O  O2566  1  0.191500  0.090100  0.234100  1.0  -0.6025
  O  O2567  1  0.144280  0.011370  0.411280  1.0  -0.5444
  O  O2568  1  0.123490  0.974030  0.405410  1.0  -0.5295
  O  O2569  1  0.172110  0.003220  0.534440  1.0  -0.5988
  O  O2570  1  0.180160  0.039350  0.612020  1.0  -0.6278
  O  O2571  1  0.652500  0.533400  0.356500  1.0  -0.5064
  O  O2572  1  0.630500  0.521500  0.321100  1.0  -0.5563
  O  O2573  1  0.691500  0.590100  0.234100  1.0  -0.6025
  O  O2574  1  0.644280  0.511370  0.411280  1.0  -0.5444
  O  O2575  1  0.623490  0.474030  0.405410  1.0  -0.5295
  O  O2576  1  0.672110  0.503220  0.534440  1.0  -0.5988
  O  O2577  1  0.680160  0.539350  0.612020  1.0  -0.6278
  O  O2578  1  0.652500  0.033400  0.856500  1.0  -0.5064
  O  O2579  1  0.630500  0.021500  0.821100  1.0  -0.5563
  O  O2580  1  0.691500  0.090100  0.734100  1.0  -0.6025
  O  O2581  1  0.644280  0.011370  0.911280  1.0  -0.5444
  O  O2582  1  0.623490  0.974030  0.905410  1.0  -0.5295
  O  O2583  1  0.672110  0.003220  0.034440  1.0  -0.5988
  O  O2584  1  0.680160  0.039350  0.112020  1.0  -0.6278
  O  O2585  1  0.597500  0.716600  0.356500  1.0  -0.5087
  O  O2586  1  0.619500  0.728500  0.321100  1.0  -0.5568
  O  O2587  1  0.558500  0.659900  0.234100  1.0  -0.6009
  O  O2588  1  0.605720  0.738630  0.411280  1.0  -0.5429
  O  O2589  1  0.626510  0.775970  0.405410  1.0  -0.5282
  O  O2590  1  0.577890  0.746780  0.534440  1.0  -0.5974
  O  O2591  1  0.569840  0.710650  0.612020  1.0  -0.6289
  O  O2592  1  0.597500  0.216600  0.856500  1.0  -0.5087
  O  O2593  1  0.619500  0.228500  0.821100  1.0  -0.5568
  O  O2594  1  0.558500  0.159900  0.734100  1.0  -0.6009
  O  O2595  1  0.605720  0.238630  0.911280  1.0  -0.5429
  O  O2596  1  0.626510  0.275970  0.905410  1.0  -0.5282
  O  O2597  1  0.577890  0.246780  0.034440  1.0  -0.5974
  O  O2598  1  0.569840  0.210650  0.112020  1.0  -0.6289
  O  O2599  1  0.097500  0.716600  0.856500  1.0  -0.5087
  O  O2600  1  0.119500  0.728500  0.821100  1.0  -0.5568
  O  O2601  1  0.058500  0.659900  0.734100  1.0  -0.6009
  O  O2602  1  0.105720  0.738630  0.911280  1.0  -0.5429
  O  O2603  1  0.126510  0.775970  0.905410  1.0  -0.5282
  O  O2604  1  0.077890  0.746780  0.034440  1.0  -0.5974
  O  O2605  1  0.069840  0.710650  0.112020  1.0  -0.6289
  O  O2606  1  0.097500  0.216600  0.356500  1.0  -0.5087
  O  O2607  1  0.119500  0.228500  0.321100  1.0  -0.5568
  O  O2608  1  0.058500  0.159900  0.234100  1.0  -0.6009
  O  O2609  1  0.105720  0.238630  0.411280  1.0  -0.5429
  O  O2610  1  0.126510  0.275970  0.405410  1.0  -0.5282
  O  O2611  1  0.077890  0.246780  0.534440  1.0  -0.5974
  O  O2612  1  0.069840  0.210650  0.612020  1.0  -0.6289
  O  O2613  1  0.652500  0.216600  0.393500  1.0  -0.5082
  O  O2614  1  0.630500  0.228500  0.428900  1.0  -0.5568
  O  O2615  1  0.691500  0.159900  0.515900  1.0  -0.6006
  O  O2616  1  0.644280  0.238630  0.338720  1.0  -0.5434
  O  O2617  1  0.623490  0.275970  0.344590  1.0  -0.5294
  O  O2618  1  0.672110  0.246780  0.215560  1.0  -0.5968
  O  O2619  1  0.680160  0.210650  0.137980  1.0  -0.6277
  O  O2620  1  0.652500  0.716600  0.893500  1.0  -0.5082
  O  O2621  1  0.630500  0.728500  0.928900  1.0  -0.5568
  O  O2622  1  0.691500  0.659900  0.015900  1.0  -0.6006
  O  O2623  1  0.644280  0.738630  0.838720  1.0  -0.5434
  O  O2624  1  0.623490  0.775970  0.844590  1.0  -0.5294
  O  O2625  1  0.672110  0.746780  0.715560  1.0  -0.5968
  O  O2626  1  0.680160  0.710650  0.637980  1.0  -0.6277
  O  O2627  1  0.152500  0.216600  0.893500  1.0  -0.5082
  O  O2628  1  0.130500  0.228500  0.928900  1.0  -0.5568
  O  O2629  1  0.191500  0.159900  0.015900  1.0  -0.6006
  O  O2630  1  0.144280  0.238630  0.838720  1.0  -0.5434
  O  O2631  1  0.123490  0.275970  0.844590  1.0  -0.5294
  O  O2632  1  0.172110  0.246780  0.715560  1.0  -0.5968
  O  O2633  1  0.180160  0.210650  0.637980  1.0  -0.6277
  O  O2634  1  0.152500  0.716600  0.393500  1.0  -0.5082
  O  O2635  1  0.130500  0.728500  0.428900  1.0  -0.5568
  O  O2636  1  0.191500  0.659900  0.515900  1.0  -0.6006
  O  O2637  1  0.144280  0.738630  0.338720  1.0  -0.5434
  O  O2638  1  0.123490  0.775970  0.344590  1.0  -0.5294
  O  O2639  1  0.172110  0.746780  0.215560  1.0  -0.5968
  O  O2640  1  0.180160  0.710650  0.137980  1.0  -0.6277
  O  O2641  1  0.847500  0.143500  0.466600  1.0  -0.5105
  O  O2642  1  0.869500  0.178900  0.478500  1.0  -0.5563
  O  O2643  1  0.808500  0.265900  0.409900  1.0  -0.6001
  O  O2644  1  0.855720  0.088720  0.488630  1.0  -0.5389
  O  O2645  1  0.876510  0.094590  0.525970  1.0  -0.5272
  O  O2646  1  0.827890  0.965560  0.496780  1.0  -0.5912
  O  O2647  1  0.819840  0.887980  0.460650  1.0  -0.6287
  O  O2648  1  0.847500  0.643500  0.966600  1.0  -0.5105
  O  O2649  1  0.869500  0.678900  0.978500  1.0  -0.5563
  O  O2650  1  0.808500  0.765900  0.909900  1.0  -0.6001
  O  O2651  1  0.855720  0.588720  0.988630  1.0  -0.5389
  O  O2652  1  0.876510  0.594590  0.025970  1.0  -0.5272
  O  O2653  1  0.827890  0.465560  0.996780  1.0  -0.5912
  O  O2654  1  0.819840  0.387980  0.960650  1.0  -0.6287
  O  O2655  1  0.347500  0.143500  0.966600  1.0  -0.5105
  O  O2656  1  0.369500  0.178900  0.978500  1.0  -0.5563
  O  O2657  1  0.308500  0.265900  0.909900  1.0  -0.6001
  O  O2658  1  0.355720  0.088720  0.988630  1.0  -0.5389
  O  O2659  1  0.376510  0.094590  0.025970  1.0  -0.5272
  O  O2660  1  0.327890  0.965560  0.996780  1.0  -0.5912
  O  O2661  1  0.319840  0.887980  0.960650  1.0  -0.6287
  O  O2662  1  0.347500  0.643500  0.466600  1.0  -0.5105
  O  O2663  1  0.369500  0.678900  0.478500  1.0  -0.5563
  O  O2664  1  0.308500  0.765900  0.409900  1.0  -0.6001
  O  O2665  1  0.355720  0.588720  0.488630  1.0  -0.5389
  O  O2666  1  0.376510  0.594590  0.525970  1.0  -0.5272
  O  O2667  1  0.327890  0.465560  0.496780  1.0  -0.5912
  O  O2668  1  0.319840  0.387980  0.460650  1.0  -0.6287
  O  O2669  1  0.902500  0.106500  0.966600  1.0  -0.5082
  O  O2670  1  0.880500  0.071100  0.978500  1.0  -0.5557
  O  O2671  1  0.941500  0.984100  0.909900  1.0  -0.599
  O  O2672  1  0.894280  0.161280  0.988630  1.0  -0.5391
  O  O2673  1  0.873490  0.155410  0.025970  1.0  -0.5271
  O  O2674  1  0.922110  0.284440  0.996780  1.0  -0.592
  O  O2675  1  0.930160  0.362020  0.960650  1.0  -0.6293
  O  O2676  1  0.902500  0.606500  0.466600  1.0  -0.5082
  O  O2677  1  0.880500  0.571100  0.478500  1.0  -0.5557
  O  O2678  1  0.941500  0.484100  0.409900  1.0  -0.599
  O  O2679  1  0.894280  0.661280  0.488630  1.0  -0.5391
  O  O2680  1  0.873490  0.655410  0.525970  1.0  -0.5271
  O  O2681  1  0.922110  0.784440  0.496780  1.0  -0.592
  O  O2682  1  0.930160  0.862020  0.460650  1.0  -0.6293
  O  O2683  1  0.402500  0.106500  0.466600  1.0  -0.5082
  O  O2684  1  0.380500  0.071100  0.478500  1.0  -0.5557
  O  O2685  1  0.441500  0.984100  0.409900  1.0  -0.599
  O  O2686  1  0.394280  0.161280  0.488630  1.0  -0.5391
  O  O2687  1  0.373490  0.155410  0.525970  1.0  -0.5271
  O  O2688  1  0.422110  0.284440  0.496780  1.0  -0.592
  O  O2689  1  0.430160  0.362020  0.460650  1.0  -0.6293
  O  O2690  1  0.402500  0.606500  0.966600  1.0  -0.5082
  O  O2691  1  0.380500  0.571100  0.978500  1.0  -0.5557
  O  O2692  1  0.441500  0.484100  0.909900  1.0  -0.599
  O  O2693  1  0.394280  0.661280  0.988630  1.0  -0.5391
  O  O2694  1  0.373490  0.655410  0.025970  1.0  -0.5271
  O  O2695  1  0.422110  0.784440  0.996780  1.0  -0.592
  O  O2696  1  0.430160  0.862020  0.960650  1.0  -0.6293
  O  O2697  1  0.347500  0.606500  0.783400  1.0  -0.5097
  O  O2698  1  0.369500  0.571100  0.771500  1.0  -0.5547
  O  O2699  1  0.308500  0.484100  0.840100  1.0  -0.5979
  O  O2700  1  0.355720  0.661280  0.761370  1.0  -0.5407
  O  O2701  1  0.376510  0.655410  0.724030  1.0  -0.5284
  O  O2702  1  0.327890  0.784440  0.753220  1.0  -0.5938
  O  O2703  1  0.319840  0.862020  0.789350  1.0  -0.6284
  O  O2704  1  0.347500  0.106500  0.283400  1.0  -0.5097
  O  O2705  1  0.369500  0.071100  0.271500  1.0  -0.5547
  O  O2706  1  0.308500  0.984100  0.340100  1.0  -0.5979
  O  O2707  1  0.355720  0.161280  0.261370  1.0  -0.5407
  O  O2708  1  0.376510  0.155410  0.224030  1.0  -0.5284
  O  O2709  1  0.327890  0.284440  0.253220  1.0  -0.5938
  O  O2710  1  0.319840  0.362020  0.289350  1.0  -0.6284
  O  O2711  1  0.847500  0.606500  0.283400  1.0  -0.5097
  O  O2712  1  0.869500  0.571100  0.271500  1.0  -0.5547
  O  O2713  1  0.808500  0.484100  0.340100  1.0  -0.5979
  O  O2714  1  0.855720  0.661280  0.261370  1.0  -0.5407
  O  O2715  1  0.876510  0.655410  0.224030  1.0  -0.5284
  O  O2716  1  0.827890  0.784440  0.253220  1.0  -0.5938
  O  O2717  1  0.819840  0.862020  0.289350  1.0  -0.6284
  O  O2718  1  0.847500  0.106500  0.783400  1.0  -0.5097
  O  O2719  1  0.869500  0.071100  0.771500  1.0  -0.5547
  O  O2720  1  0.808500  0.984100  0.840100  1.0  -0.5979
  O  O2721  1  0.855720  0.161280  0.761370  1.0  -0.5407
  O  O2722  1  0.876510  0.155410  0.724030  1.0  -0.5284
  O  O2723  1  0.827890  0.284440  0.753220  1.0  -0.5938
  O  O2724  1  0.819840  0.362020  0.789350  1.0  -0.6284
  O  O2725  1  0.402500  0.643500  0.283400  1.0  -0.5091
  O  O2726  1  0.380500  0.678900  0.271500  1.0  -0.5554
  O  O2727  1  0.441500  0.765900  0.340100  1.0  -0.5973
  O  O2728  1  0.394280  0.588720  0.261370  1.0  -0.5398
  O  O2729  1  0.373490  0.594590  0.224030  1.0  -0.5286
  O  O2730  1  0.422110  0.465560  0.253220  1.0  -0.5926
  O  O2731  1  0.430160  0.387980  0.289350  1.0  -0.6284
  O  O2732  1  0.402500  0.143500  0.783400  1.0  -0.5091
  O  O2733  1  0.380500  0.178900  0.771500  1.0  -0.5554
  O  O2734  1  0.441500  0.265900  0.840100  1.0  -0.5973
  O  O2735  1  0.394280  0.088720  0.761370  1.0  -0.5398
  O  O2736  1  0.373490  0.094590  0.724030  1.0  -0.5286
  O  O2737  1  0.422110  0.965560  0.753220  1.0  -0.5926
  O  O2738  1  0.430160  0.887980  0.789350  1.0  -0.6284
  O  O2739  1  0.902500  0.643500  0.783400  1.0  -0.5091
  O  O2740  1  0.880500  0.678900  0.771500  1.0  -0.5554
  O  O2741  1  0.941500  0.765900  0.840100  1.0  -0.5973
  O  O2742  1  0.894280  0.588720  0.761370  1.0  -0.5398
  O  O2743  1  0.873490  0.594590  0.724030  1.0  -0.5286
  O  O2744  1  0.922110  0.465560  0.753220  1.0  -0.5926
  O  O2745  1  0.930160  0.387980  0.789350  1.0  -0.6284
  O  O2746  1  0.902500  0.143500  0.283400  1.0  -0.5091
  O  O2747  1  0.880500  0.178900  0.271500  1.0  -0.5554
  O  O2748  1  0.941500  0.265900  0.340100  1.0  -0.5973
  O  O2749  1  0.894280  0.088720  0.261370  1.0  -0.5398
  O  O2750  1  0.873490  0.094590  0.224030  1.0  -0.5286
  O  O2751  1  0.922110  0.965560  0.253220  1.0  -0.5926
  O  O2752  1  0.930160  0.887980  0.289350  1.0  -0.6284
  O  O2753  1  0.643500  0.283400  0.402500  1.0  -0.5127
  O  O2754  1  0.678900  0.271500  0.380500  1.0  -0.5568
  O  O2755  1  0.765900  0.340100  0.441500  1.0  -0.6024
  O  O2756  1  0.588720  0.261370  0.394280  1.0  -0.5484
  O  O2757  1  0.594590  0.224030  0.373490  1.0  -0.5272
  O  O2758  1  0.465560  0.253220  0.422110  1.0  -0.5989
  O  O2759  1  0.387980  0.289350  0.430160  1.0  -0.6299
  O  O2760  1  0.643500  0.783400  0.902500  1.0  -0.5127
  O  O2761  1  0.678900  0.771500  0.880500  1.0  -0.5568
  O  O2762  1  0.765900  0.840100  0.941500  1.0  -0.6024
  O  O2763  1  0.588720  0.761370  0.894280  1.0  -0.5484
  O  O2764  1  0.594590  0.724030  0.873490  1.0  -0.5272
  O  O2765  1  0.465560  0.753220  0.922110  1.0  -0.5989
  O  O2766  1  0.387980  0.789350  0.930160  1.0  -0.6299
  O  O2767  1  0.143500  0.283400  0.902500  1.0  -0.5127
  O  O2768  1  0.178900  0.271500  0.880500  1.0  -0.5568
  O  O2769  1  0.265900  0.340100  0.941500  1.0  -0.6024
  O  O2770  1  0.088720  0.261370  0.894280  1.0  -0.5484
  O  O2771  1  0.094590  0.224030  0.873490  1.0  -0.5272
  O  O2772  1  0.965560  0.253220  0.922110  1.0  -0.5989
  O  O2773  1  0.887980  0.289350  0.930160  1.0  -0.6299
  O  O2774  1  0.143500  0.783400  0.402500  1.0  -0.5127
  O  O2775  1  0.178900  0.771500  0.380500  1.0  -0.5568
  O  O2776  1  0.265900  0.840100  0.441500  1.0  -0.6024
  O  O2777  1  0.088720  0.761370  0.394280  1.0  -0.5484
  O  O2778  1  0.094590  0.724030  0.373490  1.0  -0.5272
  O  O2779  1  0.965560  0.753220  0.422110  1.0  -0.5989
  O  O2780  1  0.887980  0.789350  0.430160  1.0  -0.6299
  O  O2781  1  0.606500  0.783400  0.347500  1.0  -0.5115
  O  O2782  1  0.571100  0.771500  0.369500  1.0  -0.5578
  O  O2783  1  0.484100  0.840100  0.308500  1.0  -0.6042
  O  O2784  1  0.661280  0.761370  0.355720  1.0  -0.5471
  O  O2785  1  0.655410  0.724030  0.376510  1.0  -0.5287
  O  O2786  1  0.784440  0.753220  0.327890  1.0  -0.6002
  O  O2787  1  0.862020  0.789350  0.319840  1.0  -0.6298
  O  O2788  1  0.606500  0.283400  0.847500  1.0  -0.5115
  O  O2789  1  0.571100  0.271500  0.869500  1.0  -0.5578
  O  O2790  1  0.484100  0.340100  0.808500  1.0  -0.6042
  O  O2791  1  0.661280  0.261370  0.855720  1.0  -0.5471
  O  O2792  1  0.655410  0.224030  0.876510  1.0  -0.5287
  O  O2793  1  0.784440  0.253220  0.827890  1.0  -0.6002
  O  O2794  1  0.862020  0.289350  0.819840  1.0  -0.6298
  O  O2795  1  0.106500  0.783400  0.847500  1.0  -0.5115
  O  O2796  1  0.071100  0.771500  0.869500  1.0  -0.5578
  O  O2797  1  0.984100  0.840100  0.808500  1.0  -0.6042
  O  O2798  1  0.161280  0.761370  0.855720  1.0  -0.5471
  O  O2799  1  0.155410  0.724030  0.876510  1.0  -0.5287
  O  O2800  1  0.284440  0.753220  0.827890  1.0  -0.6002
  O  O2801  1  0.362020  0.789350  0.819840  1.0  -0.6298
  O  O2802  1  0.106500  0.283400  0.347500  1.0  -0.5115
  O  O2803  1  0.071100  0.271500  0.369500  1.0  -0.5578
  O  O2804  1  0.984100  0.340100  0.308500  1.0  -0.6042
  O  O2805  1  0.161280  0.261370  0.355720  1.0  -0.5471
  O  O2806  1  0.155410  0.224030  0.376510  1.0  -0.5287
  O  O2807  1  0.284440  0.253220  0.327890  1.0  -0.6002
  O  O2808  1  0.362020  0.289350  0.319840  1.0  -0.6298
  O  O2809  1  0.106500  0.966600  0.902500  1.0  -0.5126
  O  O2810  1  0.071100  0.978500  0.880500  1.0  -0.5586
  O  O2811  1  0.984100  0.909900  0.941500  1.0  -0.6003
  O  O2812  1  0.161280  0.988630  0.894280  1.0  -0.546
  O  O2813  1  0.155410  0.025970  0.873490  1.0  -0.5281
  O  O2814  1  0.284440  0.996780  0.922110  1.0  -0.5993
  O  O2815  1  0.362020  0.960650  0.930160  1.0  -0.6299
  O  O2816  1  0.106500  0.466600  0.402500  1.0  -0.5126
  O  O2817  1  0.071100  0.478500  0.380500  1.0  -0.5586
  O  O2818  1  0.984100  0.409900  0.441500  1.0  -0.6003
  O  O2819  1  0.161280  0.488630  0.394280  1.0  -0.546
  O  O2820  1  0.155410  0.525970  0.373490  1.0  -0.5281
  O  O2821  1  0.284440  0.496780  0.422110  1.0  -0.5993
  O  O2822  1  0.362020  0.460650  0.430160  1.0  -0.6299
  O  O2823  1  0.606500  0.966600  0.402500  1.0  -0.5126
  O  O2824  1  0.571100  0.978500  0.380500  1.0  -0.5586
  O  O2825  1  0.484100  0.909900  0.441500  1.0  -0.6003
  O  O2826  1  0.661280  0.988630  0.394280  1.0  -0.546
  O  O2827  1  0.655410  0.025970  0.373490  1.0  -0.5281
  O  O2828  1  0.784440  0.996780  0.422110  1.0  -0.5993
  O  O2829  1  0.862020  0.960650  0.430160  1.0  -0.6299
  O  O2830  1  0.606500  0.466600  0.902500  1.0  -0.5126
  O  O2831  1  0.571100  0.478500  0.880500  1.0  -0.5586
  O  O2832  1  0.484100  0.409900  0.941500  1.0  -0.6003
  O  O2833  1  0.661280  0.488630  0.894280  1.0  -0.546
  O  O2834  1  0.655410  0.525970  0.873490  1.0  -0.5281
  O  O2835  1  0.784440  0.496780  0.922110  1.0  -0.5993
  O  O2836  1  0.862020  0.460650  0.930160  1.0  -0.6299
  O  O2837  1  0.143500  0.466600  0.847500  1.0  -0.5131
  O  O2838  1  0.178900  0.478500  0.869500  1.0  -0.5604
  O  O2839  1  0.265900  0.409900  0.808500  1.0  -0.6017
  O  O2840  1  0.088720  0.488630  0.855720  1.0  -0.5463
  O  O2841  1  0.094590  0.525970  0.876510  1.0  -0.5275
  O  O2842  1  0.965560  0.496780  0.827890  1.0  -0.5976
  O  O2843  1  0.887980  0.460650  0.819840  1.0  -0.6304
  O  O2844  1  0.143500  0.966600  0.347500  1.0  -0.5131
  O  O2845  1  0.178900  0.978500  0.369500  1.0  -0.5604
  O  O2846  1  0.265900  0.909900  0.308500  1.0  -0.6017
  O  O2847  1  0.088720  0.988630  0.355720  1.0  -0.5463
  O  O2848  1  0.094590  0.025970  0.376510  1.0  -0.5275
  O  O2849  1  0.965560  0.996780  0.327890  1.0  -0.5976
  O  O2850  1  0.887980  0.960650  0.319840  1.0  -0.6304
  O  O2851  1  0.643500  0.466600  0.347500  1.0  -0.5131
  O  O2852  1  0.678900  0.478500  0.369500  1.0  -0.5604
  O  O2853  1  0.765900  0.409900  0.308500  1.0  -0.6017
  O  O2854  1  0.588720  0.488630  0.355720  1.0  -0.5463
  O  O2855  1  0.594590  0.525970  0.376510  1.0  -0.5275
  O  O2856  1  0.465560  0.496780  0.327890  1.0  -0.5976
  O  O2857  1  0.387980  0.460650  0.319840  1.0  -0.6304
  O  O2858  1  0.643500  0.966600  0.847500  1.0  -0.5131
  O  O2859  1  0.678900  0.978500  0.869500  1.0  -0.5604
  O  O2860  1  0.765900  0.909900  0.808500  1.0  -0.6017
  O  O2861  1  0.588720  0.988630  0.855720  1.0  -0.5463
  O  O2862  1  0.594590  0.025970  0.876510  1.0  -0.5275
  O  O2863  1  0.465560  0.996780  0.827890  1.0  -0.5976
  O  O2864  1  0.387980  0.960650  0.819840  1.0  -0.6304
  O  O2865  1  0.783400  0.347500  0.606500  1.0  -0.5082
  O  O2866  1  0.771500  0.369500  0.571100  1.0  -0.5542
  O  O2867  1  0.840100  0.308500  0.484100  1.0  -0.5995
  O  O2868  1  0.761370  0.355720  0.661280  1.0  -0.5465
  O  O2869  1  0.724030  0.376510  0.655410  1.0  -0.5298
  O  O2870  1  0.753220  0.327890  0.784440  1.0  -0.6001
  O  O2871  1  0.789350  0.319840  0.862020  1.0  -0.632
  O  O2872  1  0.783400  0.847500  0.106500  1.0  -0.5082
  O  O2873  1  0.771500  0.869500  0.071100  1.0  -0.5542
  O  O2874  1  0.840100  0.808500  0.984100  1.0  -0.5995
  O  O2875  1  0.761370  0.855720  0.161280  1.0  -0.5465
  O  O2876  1  0.724030  0.876510  0.155410  1.0  -0.5298
  O  O2877  1  0.753220  0.827890  0.284440  1.0  -0.6001
  O  O2878  1  0.789350  0.819840  0.362020  1.0  -0.632
  O  O2879  1  0.283400  0.347500  0.106500  1.0  -0.5082
  O  O2880  1  0.271500  0.369500  0.071100  1.0  -0.5542
  O  O2881  1  0.340100  0.308500  0.984100  1.0  -0.5995
  O  O2882  1  0.261370  0.355720  0.161280  1.0  -0.5465
  O  O2883  1  0.224030  0.376510  0.155410  1.0  -0.5298
  O  O2884  1  0.253220  0.327890  0.284440  1.0  -0.6001
  O  O2885  1  0.289350  0.319840  0.362020  1.0  -0.632
  O  O2886  1  0.283400  0.847500  0.606500  1.0  -0.5082
  O  O2887  1  0.271500  0.869500  0.571100  1.0  -0.5542
  O  O2888  1  0.340100  0.808500  0.484100  1.0  -0.5995
  O  O2889  1  0.261370  0.855720  0.661280  1.0  -0.5465
  O  O2890  1  0.224030  0.876510  0.655410  1.0  -0.5298
  O  O2891  1  0.253220  0.827890  0.784440  1.0  -0.6001
  O  O2892  1  0.289350  0.819840  0.862020  1.0  -0.632
  O  O2893  1  0.283400  0.402500  0.643500  1.0  -0.5081
  O  O2894  1  0.271500  0.380500  0.678900  1.0  -0.5538
  O  O2895  1  0.340100  0.441500  0.765900  1.0  -0.6014
  O  O2896  1  0.261370  0.394280  0.588720  1.0  -0.5476
  O  O2897  1  0.224030  0.373490  0.594590  1.0  -0.5288
  O  O2898  1  0.253220  0.422110  0.465560  1.0  -0.5996
  O  O2899  1  0.289350  0.430160  0.387980  1.0  -0.6314
  O  O2900  1  0.283400  0.902500  0.143500  1.0  -0.5081
  O  O2901  1  0.271500  0.880500  0.178900  1.0  -0.5538
  O  O2902  1  0.340100  0.941500  0.265900  1.0  -0.6014
  O  O2903  1  0.261370  0.894280  0.088720  1.0  -0.5476
  O  O2904  1  0.224030  0.873490  0.094590  1.0  -0.5288
  O  O2905  1  0.253220  0.922110  0.965560  1.0  -0.5996
  O  O2906  1  0.289350  0.930160  0.887980  1.0  -0.6314
  O  O2907  1  0.783400  0.402500  0.143500  1.0  -0.5081
  O  O2908  1  0.771500  0.380500  0.178900  1.0  -0.5538
  O  O2909  1  0.840100  0.441500  0.265900  1.0  -0.6014
  O  O2910  1  0.761370  0.394280  0.088720  1.0  -0.5476
  O  O2911  1  0.724030  0.373490  0.094590  1.0  -0.5288
  O  O2912  1  0.753220  0.422110  0.965560  1.0  -0.5996
  O  O2913  1  0.789350  0.430160  0.887980  1.0  -0.6314
  O  O2914  1  0.783400  0.902500  0.643500  1.0  -0.5081
  O  O2915  1  0.771500  0.880500  0.678900  1.0  -0.5538
  O  O2916  1  0.840100  0.941500  0.765900  1.0  -0.6014
  O  O2917  1  0.761370  0.894280  0.588720  1.0  -0.5476
  O  O2918  1  0.724030  0.873490  0.594590  1.0  -0.5288
  O  O2919  1  0.753220  0.922110  0.465560  1.0  -0.5996
  O  O2920  1  0.789350  0.930160  0.387980  1.0  -0.6314
  O  O2921  1  0.466600  0.847500  0.143500  1.0  -0.5087
  O  O2922  1  0.478500  0.869500  0.178900  1.0  -0.5548
  O  O2923  1  0.409900  0.808500  0.265900  1.0  -0.6029
  O  O2924  1  0.488630  0.855720  0.088720  1.0  -0.5474
  O  O2925  1  0.525970  0.876510  0.094590  1.0  -0.5293
  O  O2926  1  0.496780  0.827890  0.965560  1.0  -0.5993
  O  O2927  1  0.460650  0.819840  0.887980  1.0  -0.6317
  O  O2928  1  0.466600  0.347500  0.643500  1.0  -0.5087
  O  O2929  1  0.478500  0.369500  0.678900  1.0  -0.5548
  O  O2930  1  0.409900  0.308500  0.765900  1.0  -0.6029
  O  O2931  1  0.488630  0.355720  0.588720  1.0  -0.5474
  O  O2932  1  0.525970  0.376510  0.594590  1.0  -0.5293
  O  O2933  1  0.496780  0.327890  0.465560  1.0  -0.5993
  O  O2934  1  0.460650  0.319840  0.387980  1.0  -0.6317
  O  O2935  1  0.966600  0.847500  0.643500  1.0  -0.5087
  O  O2936  1  0.978500  0.869500  0.678900  1.0  -0.5548
  O  O2937  1  0.909900  0.808500  0.765900  1.0  -0.6029
  O  O2938  1  0.988630  0.855720  0.588720  1.0  -0.5474
  O  O2939  1  0.025970  0.876510  0.594590  1.0  -0.5293
  O  O2940  1  0.996780  0.827890  0.465560  1.0  -0.5993
  O  O2941  1  0.960650  0.819840  0.387980  1.0  -0.6317
  O  O2942  1  0.966600  0.347500  0.143500  1.0  -0.5087
  O  O2943  1  0.978500  0.369500  0.178900  1.0  -0.5548
  O  O2944  1  0.909900  0.308500  0.265900  1.0  -0.6029
  O  O2945  1  0.988630  0.355720  0.088720  1.0  -0.5474
  O  O2946  1  0.025970  0.376510  0.094590  1.0  -0.5293
  O  O2947  1  0.996780  0.327890  0.965560  1.0  -0.5993
  O  O2948  1  0.960650  0.319840  0.887980  1.0  -0.6317
  O  O2949  1  0.966600  0.902500  0.106500  1.0  -0.5085
  O  O2950  1  0.978500  0.880500  0.071100  1.0  -0.5544
  O  O2951  1  0.909900  0.941500  0.984100  1.0  -0.6039
  O  O2952  1  0.988630  0.894280  0.161280  1.0  -0.5488
  O  O2953  1  0.025970  0.873490  0.155410  1.0  -0.5283
  O  O2954  1  0.996780  0.922110  0.284440  1.0  -0.6007
  O  O2955  1  0.960650  0.930160  0.362020  1.0  -0.6314
  O  O2956  1  0.966600  0.402500  0.606500  1.0  -0.5085
  O  O2957  1  0.978500  0.380500  0.571100  1.0  -0.5544
  O  O2958  1  0.909900  0.441500  0.484100  1.0  -0.6039
  O  O2959  1  0.988630  0.394280  0.661280  1.0  -0.5488
  O  O2960  1  0.025970  0.373490  0.655410  1.0  -0.5283
  O  O2961  1  0.996780  0.422110  0.784440  1.0  -0.6007
  O  O2962  1  0.960650  0.430160  0.862020  1.0  -0.6314
  O  O2963  1  0.466600  0.902500  0.606500  1.0  -0.5085
  O  O2964  1  0.478500  0.880500  0.571100  1.0  -0.5544
  O  O2965  1  0.409900  0.941500  0.484100  1.0  -0.6039
  O  O2966  1  0.488630  0.894280  0.661280  1.0  -0.5488
  O  O2967  1  0.525970  0.873490  0.655410  1.0  -0.5283
  O  O2968  1  0.496780  0.922110  0.784440  1.0  -0.6007
  O  O2969  1  0.460650  0.930160  0.862020  1.0  -0.6314
  O  O2970  1  0.466600  0.402500  0.106500  1.0  -0.5085
  O  O2971  1  0.478500  0.380500  0.071100  1.0  -0.5544
  O  O2972  1  0.409900  0.441500  0.984100  1.0  -0.6039
  O  O2973  1  0.488630  0.394280  0.161280  1.0  -0.5488
  O  O2974  1  0.525970  0.373490  0.155410  1.0  -0.5283
  O  O2975  1  0.496780  0.422110  0.284440  1.0  -0.6007
  O  O2976  1  0.460650  0.430160  0.362020  1.0  -0.6314
  O  O2977  1  0.106500  0.902500  0.966600  1.0  -0.5122
  O  O2978  1  0.071100  0.880500  0.978500  1.0  -0.5541
  O  O2979  1  0.984100  0.941500  0.909900  1.0  -0.6002
  O  O2980  1  0.161280  0.894280  0.988630  1.0  -0.5418
  O  O2981  1  0.155410  0.873490  0.025970  1.0  -0.5271
  O  O2982  1  0.284440  0.922110  0.996780  1.0  -0.5954
  O  O2983  1  0.362020  0.930160  0.960650  1.0  -0.6322
  O  O2984  1  0.106500  0.402500  0.466600  1.0  -0.5122
  O  O2985  1  0.071100  0.380500  0.478500  1.0  -0.5541
  O  O2986  1  0.984100  0.441500  0.409900  1.0  -0.6002
  O  O2987  1  0.161280  0.394280  0.488630  1.0  -0.5418
  O  O2988  1  0.155410  0.373490  0.525970  1.0  -0.5271
  O  O2989  1  0.284440  0.422110  0.496780  1.0  -0.5954
  O  O2990  1  0.362020  0.430160  0.460650  1.0  -0.6322
  O  O2991  1  0.606500  0.902500  0.466600  1.0  -0.5122
  O  O2992  1  0.571100  0.880500  0.478500  1.0  -0.5541
  O  O2993  1  0.484100  0.941500  0.409900  1.0  -0.6002
  O  O2994  1  0.661280  0.894280  0.488630  1.0  -0.5418
  O  O2995  1  0.655410  0.873490  0.525970  1.0  -0.5271
  O  O2996  1  0.784440  0.922110  0.496780  1.0  -0.5954
  O  O2997  1  0.862020  0.930160  0.460650  1.0  -0.6322
  O  O2998  1  0.606500  0.402500  0.966600  1.0  -0.5122
  O  O2999  1  0.571100  0.380500  0.978500  1.0  -0.5541
  O  O3000  1  0.484100  0.441500  0.909900  1.0  -0.6002
  O  O3001  1  0.661280  0.394280  0.988630  1.0  -0.5418
  O  O3002  1  0.655410  0.373490  0.025970  1.0  -0.5271
  O  O3003  1  0.784440  0.422110  0.996780  1.0  -0.5954
  O  O3004  1  0.862020  0.430160  0.960650  1.0  -0.6322
  O  O3005  1  0.143500  0.847500  0.466600  1.0  -0.5139
  O  O3006  1  0.178900  0.869500  0.478500  1.0  -0.5556
  O  O3007  1  0.265900  0.808500  0.409900  1.0  -0.5996
  O  O3008  1  0.088720  0.855720  0.488630  1.0  -0.5412
  O  O3009  1  0.094590  0.876510  0.525970  1.0  -0.5277
  O  O3010  1  0.965560  0.827890  0.496780  1.0  -0.5942
  O  O3011  1  0.887980  0.819840  0.460650  1.0  -0.6327
  O  O3012  1  0.143500  0.347500  0.966600  1.0  -0.5139
  O  O3013  1  0.178900  0.369500  0.978500  1.0  -0.5556
  O  O3014  1  0.265900  0.308500  0.909900  1.0  -0.5996
  O  O3015  1  0.088720  0.355720  0.988630  1.0  -0.5412
  O  O3016  1  0.094590  0.376510  0.025970  1.0  -0.5277
  O  O3017  1  0.965560  0.327890  0.996780  1.0  -0.5942
  O  O3018  1  0.887980  0.319840  0.960650  1.0  -0.6327
  O  O3019  1  0.643500  0.847500  0.966600  1.0  -0.5139
  O  O3020  1  0.678900  0.869500  0.978500  1.0  -0.5556
  O  O3021  1  0.765900  0.808500  0.909900  1.0  -0.5996
  O  O3022  1  0.588720  0.855720  0.988630  1.0  -0.5412
  O  O3023  1  0.594590  0.876510  0.025970  1.0  -0.5277
  O  O3024  1  0.465560  0.827890  0.996780  1.0  -0.5942
  O  O3025  1  0.387980  0.819840  0.960650  1.0  -0.6327
  O  O3026  1  0.643500  0.347500  0.466600  1.0  -0.5139
  O  O3027  1  0.678900  0.369500  0.478500  1.0  -0.5556
  O  O3028  1  0.765900  0.308500  0.409900  1.0  -0.5996
  O  O3029  1  0.588720  0.355720  0.488630  1.0  -0.5412
  O  O3030  1  0.594590  0.376510  0.525970  1.0  -0.5277
  O  O3031  1  0.465560  0.327890  0.496780  1.0  -0.5942
  O  O3032  1  0.387980  0.319840  0.460650  1.0  -0.6327
  O  O3033  1  0.643500  0.402500  0.283400  1.0  -0.5127
  O  O3034  1  0.678900  0.380500  0.271500  1.0  -0.5546
  O  O3035  1  0.765900  0.441500  0.340100  1.0  -0.5985
  O  O3036  1  0.588720  0.394280  0.261370  1.0  -0.5443
  O  O3037  1  0.594590  0.373490  0.224030  1.0  -0.5273
  O  O3038  1  0.465560  0.422110  0.253220  1.0  -0.5959
  O  O3039  1  0.387980  0.430160  0.289350  1.0  -0.6319
  O  O3040  1  0.643500  0.902500  0.783400  1.0  -0.5127
  O  O3041  1  0.678900  0.880500  0.771500  1.0  -0.5546
  O  O3042  1  0.765900  0.941500  0.840100  1.0  -0.5985
  O  O3043  1  0.588720  0.894280  0.761370  1.0  -0.5443
  O  O3044  1  0.594590  0.873490  0.724030  1.0  -0.5273
  O  O3045  1  0.465560  0.922110  0.753220  1.0  -0.5959
  O  O3046  1  0.387980  0.930160  0.789350  1.0  -0.6319
  O  O3047  1  0.143500  0.402500  0.783400  1.0  -0.5127
  O  O3048  1  0.178900  0.380500  0.771500  1.0  -0.5546
  O  O3049  1  0.265900  0.441500  0.840100  1.0  -0.5985
  O  O3050  1  0.088720  0.394280  0.761370  1.0  -0.5443
  O  O3051  1  0.094590  0.373490  0.724030  1.0  -0.5273
  O  O3052  1  0.965560  0.422110  0.753220  1.0  -0.5959
  O  O3053  1  0.887980  0.430160  0.789350  1.0  -0.6319
  O  O3054  1  0.143500  0.902500  0.283400  1.0  -0.5127
  O  O3055  1  0.178900  0.880500  0.271500  1.0  -0.5546
  O  O3056  1  0.265900  0.941500  0.340100  1.0  -0.5985
  O  O3057  1  0.088720  0.894280  0.261370  1.0  -0.5443
  O  O3058  1  0.094590  0.873490  0.224030  1.0  -0.5273
  O  O3059  1  0.965560  0.922110  0.253220  1.0  -0.5959
  O  O3060  1  0.887980  0.930160  0.289350  1.0  -0.6319
  O  O3061  1  0.606500  0.347500  0.783400  1.0  -0.5123
  O  O3062  1  0.571100  0.369500  0.771500  1.0  -0.5544
  O  O3063  1  0.484100  0.308500  0.840100  1.0  -0.597
  O  O3064  1  0.661280  0.355720  0.761370  1.0  -0.5426
  O  O3065  1  0.655410  0.376510  0.724030  1.0  -0.5289
  O  O3066  1  0.784440  0.327890  0.753220  1.0  -0.5973
  O  O3067  1  0.862020  0.319840  0.789350  1.0  -0.6323
  O  O3068  1  0.606500  0.847500  0.283400  1.0  -0.5123
  O  O3069  1  0.571100  0.869500  0.271500  1.0  -0.5544
  O  O3070  1  0.484100  0.808500  0.340100  1.0  -0.597
  O  O3071  1  0.661280  0.855720  0.261370  1.0  -0.5426
  O  O3072  1  0.655410  0.876510  0.224030  1.0  -0.5289
  O  O3073  1  0.784440  0.827890  0.253220  1.0  -0.5973
  O  O3074  1  0.862020  0.819840  0.289350  1.0  -0.6323
  O  O3075  1  0.106500  0.347500  0.283400  1.0  -0.5123
  O  O3076  1  0.071100  0.369500  0.271500  1.0  -0.5544
  O  O3077  1  0.984100  0.308500  0.340100  1.0  -0.597
  O  O3078  1  0.161280  0.355720  0.261370  1.0  -0.5426
  O  O3079  1  0.155410  0.376510  0.224030  1.0  -0.5289
  O  O3080  1  0.284440  0.327890  0.253220  1.0  -0.5973
  O  O3081  1  0.362020  0.319840  0.289350  1.0  -0.6323
  O  O3082  1  0.106500  0.847500  0.783400  1.0  -0.5123
  O  O3083  1  0.071100  0.869500  0.771500  1.0  -0.5544
  O  O3084  1  0.984100  0.808500  0.840100  1.0  -0.597
  O  O3085  1  0.161280  0.855720  0.761370  1.0  -0.5426
  O  O3086  1  0.155410  0.876510  0.724030  1.0  -0.5289
  O  O3087  1  0.284440  0.827890  0.753220  1.0  -0.5973
  O  O3088  1  0.362020  0.819840  0.789350  1.0  -0.6323
  O  O3089  1  0.966600  0.106500  0.902500  1.0  -0.5107
  O  O3090  1  0.978500  0.071100  0.880500  1.0  -0.5556
  O  O3091  1  0.909900  0.984100  0.941500  1.0  -0.6023
  O  O3092  1  0.988630  0.161280  0.894280  1.0  -0.5479
  O  O3093  1  0.025970  0.155410  0.873490  1.0  -0.5282
  O  O3094  1  0.996780  0.284440  0.922110  1.0  -0.5982
  O  O3095  1  0.960650  0.362020  0.930160  1.0  -0.6295
  O  O3096  1  0.966600  0.606500  0.402500  1.0  -0.5107
  O  O3097  1  0.978500  0.571100  0.380500  1.0  -0.5556
  O  O3098  1  0.909900  0.484100  0.441500  1.0  -0.6023
  O  O3099  1  0.988630  0.661280  0.394280  1.0  -0.5479
  O  O3100  1  0.025970  0.655410  0.373490  1.0  -0.5282
  O  O3101  1  0.996780  0.784440  0.422110  1.0  -0.5982
  O  O3102  1  0.960650  0.862020  0.430160  1.0  -0.6295
  O  O3103  1  0.466600  0.106500  0.402500  1.0  -0.5107
  O  O3104  1  0.478500  0.071100  0.380500  1.0  -0.5556
  O  O3105  1  0.409900  0.984100  0.441500  1.0  -0.6023
  O  O3106  1  0.488630  0.161280  0.394280  1.0  -0.5479
  O  O3107  1  0.525970  0.155410  0.373490  1.0  -0.5282
  O  O3108  1  0.496780  0.284440  0.422110  1.0  -0.5982
  O  O3109  1  0.460650  0.362020  0.430160  1.0  -0.6295
  O  O3110  1  0.466600  0.606500  0.902500  1.0  -0.5107
  O  O3111  1  0.478500  0.571100  0.880500  1.0  -0.5556
  O  O3112  1  0.409900  0.484100  0.941500  1.0  -0.6023
  O  O3113  1  0.488630  0.661280  0.894280  1.0  -0.5479
  O  O3114  1  0.525970  0.655410  0.873490  1.0  -0.5282
  O  O3115  1  0.496780  0.784440  0.922110  1.0  -0.5982
  O  O3116  1  0.460650  0.862020  0.930160  1.0  -0.6295
  O  O3117  1  0.466600  0.143500  0.847500  1.0  -0.5107
  O  O3118  1  0.478500  0.178900  0.869500  1.0  -0.5574
  O  O3119  1  0.409900  0.265900  0.808500  1.0  -0.604
  O  O3120  1  0.488630  0.088720  0.855720  1.0  -0.5471
  O  O3121  1  0.525970  0.094590  0.876510  1.0  -0.5283
  O  O3122  1  0.496780  0.965560  0.827890  1.0  -0.5991
  O  O3123  1  0.460650  0.887980  0.819840  1.0  -0.6304
  O  O3124  1  0.466600  0.643500  0.347500  1.0  -0.5107
  O  O3125  1  0.478500  0.678900  0.369500  1.0  -0.5574
  O  O3126  1  0.409900  0.765900  0.308500  1.0  -0.604
  O  O3127  1  0.488630  0.588720  0.355720  1.0  -0.5471
  O  O3128  1  0.525970  0.594590  0.376510  1.0  -0.5283
  O  O3129  1  0.496780  0.465560  0.327890  1.0  -0.5991
  O  O3130  1  0.460650  0.387980  0.319840  1.0  -0.6304
  O  O3131  1  0.966600  0.143500  0.347500  1.0  -0.5107
  O  O3132  1  0.978500  0.178900  0.369500  1.0  -0.5574
  O  O3133  1  0.909900  0.265900  0.308500  1.0  -0.604
  O  O3134  1  0.988630  0.088720  0.355720  1.0  -0.5471
  O  O3135  1  0.025970  0.094590  0.376510  1.0  -0.5283
  O  O3136  1  0.996780  0.965560  0.327890  1.0  -0.5991
  O  O3137  1  0.960650  0.887980  0.319840  1.0  -0.6304
  O  O3138  1  0.966600  0.643500  0.847500  1.0  -0.5107
  O  O3139  1  0.978500  0.678900  0.869500  1.0  -0.5574
  O  O3140  1  0.909900  0.765900  0.808500  1.0  -0.604
  O  O3141  1  0.988630  0.588720  0.855720  1.0  -0.5471
  O  O3142  1  0.025970  0.594590  0.876510  1.0  -0.5283
  O  O3143  1  0.996780  0.465560  0.827890  1.0  -0.5991
  O  O3144  1  0.960650  0.387980  0.819840  1.0  -0.6304
  O  O3145  1  0.283400  0.643500  0.402500  1.0  -0.5111
  O  O3146  1  0.271500  0.678900  0.380500  1.0  -0.5568
  O  O3147  1  0.340100  0.765900  0.441500  1.0  -0.6004
  O  O3148  1  0.261370  0.588720  0.394280  1.0  -0.547
  O  O3149  1  0.224030  0.594590  0.373490  1.0  -0.5285
  O  O3150  1  0.253220  0.465560  0.422110  1.0  -0.5978
  O  O3151  1  0.289350  0.387980  0.430160  1.0  -0.629
  O  O3152  1  0.283400  0.143500  0.902500  1.0  -0.5111
  O  O3153  1  0.271500  0.178900  0.880500  1.0  -0.5568
  O  O3154  1  0.340100  0.265900  0.941500  1.0  -0.6004
  O  O3155  1  0.261370  0.088720  0.894280  1.0  -0.547
  O  O3156  1  0.224030  0.094590  0.873490  1.0  -0.5285
  O  O3157  1  0.253220  0.965560  0.922110  1.0  -0.5978
  O  O3158  1  0.289350  0.887980  0.930160  1.0  -0.629
  O  O3159  1  0.783400  0.643500  0.902500  1.0  -0.5111
  O  O3160  1  0.771500  0.678900  0.880500  1.0  -0.5568
  O  O3161  1  0.840100  0.765900  0.941500  1.0  -0.6004
  O  O3162  1  0.761370  0.588720  0.894280  1.0  -0.547
  O  O3163  1  0.724030  0.594590  0.873490  1.0  -0.5285
  O  O3164  1  0.753220  0.465560  0.922110  1.0  -0.5978
  O  O3165  1  0.789350  0.387980  0.930160  1.0  -0.629
  O  O3166  1  0.783400  0.143500  0.402500  1.0  -0.5111
  O  O3167  1  0.771500  0.178900  0.380500  1.0  -0.5568
  O  O3168  1  0.840100  0.265900  0.441500  1.0  -0.6004
  O  O3169  1  0.761370  0.088720  0.394280  1.0  -0.547
  O  O3170  1  0.724030  0.094590  0.373490  1.0  -0.5285
  O  O3171  1  0.753220  0.965560  0.422110  1.0  -0.5978
  O  O3172  1  0.789350  0.887980  0.430160  1.0  -0.629
  O  O3173  1  0.783400  0.606500  0.347500  1.0  -0.509
  O  O3174  1  0.771500  0.571100  0.369500  1.0  -0.5557
  O  O3175  1  0.840100  0.484100  0.308500  1.0  -0.6007
  O  O3176  1  0.761370  0.661280  0.355720  1.0  -0.5462
  O  O3177  1  0.724030  0.655410  0.376510  1.0  -0.5287
  O  O3178  1  0.753220  0.784440  0.327890  1.0  -0.599
  O  O3179  1  0.789350  0.862020  0.319840  1.0  -0.6304
  O  O3180  1  0.783400  0.106500  0.847500  1.0  -0.509
  O  O3181  1  0.771500  0.071100  0.869500  1.0  -0.5557
  O  O3182  1  0.840100  0.984100  0.808500  1.0  -0.6007
  O  O3183  1  0.761370  0.161280  0.855720  1.0  -0.5462
  O  O3184  1  0.724030  0.155410  0.876510  1.0  -0.5287
  O  O3185  1  0.753220  0.284440  0.827890  1.0  -0.599
  O  O3186  1  0.789350  0.362020  0.819840  1.0  -0.6304
  O  O3187  1  0.283400  0.606500  0.847500  1.0  -0.509
  O  O3188  1  0.271500  0.571100  0.869500  1.0  -0.5557
  O  O3189  1  0.340100  0.484100  0.808500  1.0  -0.6007
  O  O3190  1  0.261370  0.661280  0.855720  1.0  -0.5462
  O  O3191  1  0.224030  0.655410  0.876510  1.0  -0.5287
  O  O3192  1  0.253220  0.784440  0.827890  1.0  -0.599
  O  O3193  1  0.289350  0.862020  0.819840  1.0  -0.6304
  O  O3194  1  0.283400  0.106500  0.347500  1.0  -0.509
  O  O3195  1  0.271500  0.071100  0.369500  1.0  -0.5557
  O  O3196  1  0.340100  0.984100  0.308500  1.0  -0.6007
  O  O3197  1  0.261370  0.161280  0.355720  1.0  -0.5462
  O  O3198  1  0.224030  0.155410  0.376510  1.0  -0.5287
  O  O3199  1  0.253220  0.284440  0.327890  1.0  -0.599
  O  O3200  1  0.289350  0.362020  0.319840  1.0  -0.6304
  O  O3201  1  0.902500  0.966600  0.106500  1.0  -0.5074
  O  O3202  1  0.880500  0.978500  0.071100  1.0  -0.5565
  O  O3203  1  0.941500  0.909900  0.984100  1.0  -0.5999
  O  O3204  1  0.894280  0.988630  0.161280  1.0  -0.5427
  O  O3205  1  0.873490  0.025970  0.155410  1.0  -0.5293
  O  O3206  1  0.922110  0.996780  0.284440  1.0  -0.5975
  O  O3207  1  0.930160  0.960650  0.362020  1.0  -0.6277
  O  O3208  1  0.902500  0.466600  0.606500  1.0  -0.5074
  O  O3209  1  0.880500  0.478500  0.571100  1.0  -0.5565
  O  O3210  1  0.941500  0.409900  0.484100  1.0  -0.5999
  O  O3211  1  0.894280  0.488630  0.661280  1.0  -0.5427
  O  O3212  1  0.873490  0.525970  0.655410  1.0  -0.5293
  O  O3213  1  0.922110  0.496780  0.784440  1.0  -0.5975
  O  O3214  1  0.930160  0.460650  0.862020  1.0  -0.6277
  O  O3215  1  0.402500  0.966600  0.606500  1.0  -0.5074
  O  O3216  1  0.380500  0.978500  0.571100  1.0  -0.5565
  O  O3217  1  0.441500  0.909900  0.484100  1.0  -0.5999
  O  O3218  1  0.394280  0.988630  0.661280  1.0  -0.5427
  O  O3219  1  0.373490  0.025970  0.655410  1.0  -0.5293
  O  O3220  1  0.422110  0.996780  0.784440  1.0  -0.5975
  O  O3221  1  0.430160  0.960650  0.862020  1.0  -0.6277
  O  O3222  1  0.402500  0.466600  0.106500  1.0  -0.5074
  O  O3223  1  0.380500  0.478500  0.071100  1.0  -0.5565
  O  O3224  1  0.441500  0.409900  0.984100  1.0  -0.5999
  O  O3225  1  0.394280  0.488630  0.161280  1.0  -0.5427
  O  O3226  1  0.373490  0.525970  0.155410  1.0  -0.5293
  O  O3227  1  0.422110  0.496780  0.284440  1.0  -0.5975
  O  O3228  1  0.430160  0.460650  0.362020  1.0  -0.6277
  O  O3229  1  0.847500  0.466600  0.143500  1.0  -0.5085
  O  O3230  1  0.869500  0.478500  0.178900  1.0  -0.5571
  O  O3231  1  0.808500  0.409900  0.265900  1.0  -0.6015
  O  O3232  1  0.855720  0.488630  0.088720  1.0  -0.5437
  O  O3233  1  0.876510  0.525970  0.094590  1.0  -0.5288
  O  O3234  1  0.827890  0.496780  0.965560  1.0  -0.5968
  O  O3235  1  0.819840  0.460650  0.887980  1.0  -0.6284
  O  O3236  1  0.847500  0.966600  0.643500  1.0  -0.5085
  O  O3237  1  0.869500  0.978500  0.678900  1.0  -0.5571
  O  O3238  1  0.808500  0.909900  0.765900  1.0  -0.6015
  O  O3239  1  0.855720  0.988630  0.588720  1.0  -0.5437
  O  O3240  1  0.876510  0.025970  0.594590  1.0  -0.5288
  O  O3241  1  0.827890  0.996780  0.465560  1.0  -0.5968
  O  O3242  1  0.819840  0.960650  0.387980  1.0  -0.6284
  O  O3243  1  0.347500  0.466600  0.643500  1.0  -0.5085
  O  O3244  1  0.369500  0.478500  0.678900  1.0  -0.5571
  O  O3245  1  0.308500  0.409900  0.765900  1.0  -0.6015
  O  O3246  1  0.355720  0.488630  0.588720  1.0  -0.5437
  O  O3247  1  0.376510  0.525970  0.594590  1.0  -0.5288
  O  O3248  1  0.327890  0.496780  0.465560  1.0  -0.5968
  O  O3249  1  0.319840  0.460650  0.387980  1.0  -0.6284
  O  O3250  1  0.347500  0.966600  0.143500  1.0  -0.5085
  O  O3251  1  0.369500  0.978500  0.178900  1.0  -0.5571
  O  O3252  1  0.308500  0.909900  0.265900  1.0  -0.6015
  O  O3253  1  0.355720  0.988630  0.088720  1.0  -0.5437
  O  O3254  1  0.376510  0.025970  0.094590  1.0  -0.5288
  O  O3255  1  0.327890  0.996780  0.965560  1.0  -0.5968
  O  O3256  1  0.319840  0.960650  0.887980  1.0  -0.6284
  O  O3257  1  0.402500  0.283400  0.643500  1.0  -0.5068
  O  O3258  1  0.380500  0.271500  0.678900  1.0  -0.5565
  O  O3259  1  0.441500  0.340100  0.765900  1.0  -0.6025
  O  O3260  1  0.394280  0.261370  0.588720  1.0  -0.5445
  O  O3261  1  0.373490  0.224030  0.594590  1.0  -0.5294
  O  O3262  1  0.422110  0.253220  0.465560  1.0  -0.5978
  O  O3263  1  0.430160  0.289350  0.387980  1.0  -0.6275
  O  O3264  1  0.402500  0.783400  0.143500  1.0  -0.5068
  O  O3265  1  0.380500  0.771500  0.178900  1.0  -0.5565
  O  O3266  1  0.441500  0.840100  0.265900  1.0  -0.6025
  O  O3267  1  0.394280  0.761370  0.088720  1.0  -0.5445
  O  O3268  1  0.373490  0.724030  0.094590  1.0  -0.5294
  O  O3269  1  0.422110  0.753220  0.965560  1.0  -0.5978
  O  O3270  1  0.430160  0.789350  0.887980  1.0  -0.6275
  O  O3271  1  0.902500  0.283400  0.143500  1.0  -0.5068
  O  O3272  1  0.880500  0.271500  0.178900  1.0  -0.5565
  O  O3273  1  0.941500  0.340100  0.265900  1.0  -0.6025
  O  O3274  1  0.894280  0.261370  0.088720  1.0  -0.5445
  O  O3275  1  0.873490  0.224030  0.094590  1.0  -0.5294
  O  O3276  1  0.922110  0.253220  0.965560  1.0  -0.5978
  O  O3277  1  0.930160  0.289350  0.887980  1.0  -0.6275
  O  O3278  1  0.902500  0.783400  0.643500  1.0  -0.5068
  O  O3279  1  0.880500  0.771500  0.678900  1.0  -0.5565
  O  O3280  1  0.941500  0.840100  0.765900  1.0  -0.6025
  O  O3281  1  0.894280  0.761370  0.588720  1.0  -0.5445
  O  O3282  1  0.873490  0.724030  0.594590  1.0  -0.5294
  O  O3283  1  0.922110  0.753220  0.465560  1.0  -0.5978
  O  O3284  1  0.930160  0.789350  0.387980  1.0  -0.6275
  O  O3285  1  0.347500  0.783400  0.606500  1.0  -0.5077
  O  O3286  1  0.369500  0.771500  0.571100  1.0  -0.5564
  O  O3287  1  0.308500  0.840100  0.484100  1.0  -0.6038
  O  O3288  1  0.355720  0.761370  0.661280  1.0  -0.5454
  O  O3289  1  0.376510  0.724030  0.655410  1.0  -0.5285
  O  O3290  1  0.327890  0.753220  0.784440  1.0  -0.5988
  O  O3291  1  0.319840  0.789350  0.862020  1.0  -0.6287
  O  O3292  1  0.347500  0.283400  0.106500  1.0  -0.5077
  O  O3293  1  0.369500  0.271500  0.071100  1.0  -0.5564
  O  O3294  1  0.308500  0.340100  0.984100  1.0  -0.6038
  O  O3295  1  0.355720  0.261370  0.161280  1.0  -0.5454
  O  O3296  1  0.376510  0.224030  0.155410  1.0  -0.5285
  O  O3297  1  0.327890  0.253220  0.284440  1.0  -0.5988
  O  O3298  1  0.319840  0.289350  0.362020  1.0  -0.6287
  O  O3299  1  0.847500  0.783400  0.106500  1.0  -0.5077
  O  O3300  1  0.869500  0.771500  0.071100  1.0  -0.5564
  O  O3301  1  0.808500  0.840100  0.984100  1.0  -0.6038
  O  O3302  1  0.855720  0.761370  0.161280  1.0  -0.5454
  O  O3303  1  0.876510  0.724030  0.155410  1.0  -0.5285
  O  O3304  1  0.827890  0.753220  0.284440  1.0  -0.5988
  O  O3305  1  0.819840  0.789350  0.362020  1.0  -0.6287
  O  O3306  1  0.847500  0.283400  0.606500  1.0  -0.5077
  O  O3307  1  0.869500  0.271500  0.571100  1.0  -0.5564
  O  O3308  1  0.808500  0.340100  0.484100  1.0  -0.6038
  O  O3309  1  0.855720  0.261370  0.661280  1.0  -0.5454
  O  O3310  1  0.876510  0.224030  0.655410  1.0  -0.5285
  O  O3311  1  0.827890  0.253220  0.784440  1.0  -0.5988
  O  O3312  1  0.819840  0.289350  0.862020  1.0  -0.6287
  O  O3313  1  0.152500  0.856500  0.533400  1.0  -0.5081
  O  O3314  1  0.130500  0.821100  0.521500  1.0  -0.5549
  O  O3315  1  0.191500  0.734100  0.590100  1.0  -0.5968
  O  O3316  1  0.144280  0.911280  0.511370  1.0  -0.5404
  O  O3317  1  0.123490  0.905410  0.474030  1.0  -0.529
  O  O3318  1  0.172110  0.034440  0.503220  1.0  -0.594
  O  O3319  1  0.180160  0.112020  0.539350  1.0  -0.6285
  O  O3320  1  0.152500  0.356500  0.033400  1.0  -0.5081
  O  O3321  1  0.130500  0.321100  0.021500  1.0  -0.5549
  O  O3322  1  0.191500  0.234100  0.090100  1.0  -0.5968
  O  O3323  1  0.144280  0.411280  0.011370  1.0  -0.5404
  O  O3324  1  0.123490  0.405410  0.974030  1.0  -0.529
  O  O3325  1  0.172110  0.534440  0.003220  1.0  -0.594
  O  O3326  1  0.180160  0.612020  0.039350  1.0  -0.6285
  O  O3327  1  0.652500  0.856500  0.033400  1.0  -0.5081
  O  O3328  1  0.630500  0.821100  0.021500  1.0  -0.5549
  O  O3329  1  0.691500  0.734100  0.090100  1.0  -0.5968
  O  O3330  1  0.644280  0.911280  0.011370  1.0  -0.5404
  O  O3331  1  0.623490  0.905410  0.974030  1.0  -0.529
  O  O3332  1  0.672110  0.034440  0.003220  1.0  -0.594
  O  O3333  1  0.680160  0.112020  0.039350  1.0  -0.6285
  O  O3334  1  0.652500  0.356500  0.533400  1.0  -0.5081
  O  O3335  1  0.630500  0.321100  0.521500  1.0  -0.5549
  O  O3336  1  0.691500  0.234100  0.590100  1.0  -0.5968
  O  O3337  1  0.644280  0.411280  0.511370  1.0  -0.5404
  O  O3338  1  0.623490  0.405410  0.474030  1.0  -0.529
  O  O3339  1  0.672110  0.534440  0.503220  1.0  -0.594
  O  O3340  1  0.680160  0.612020  0.539350  1.0  -0.6285
  O  O3341  1  0.097500  0.893500  0.033400  1.0  -0.5099
  O  O3342  1  0.119500  0.928900  0.021500  1.0  -0.5554
  O  O3343  1  0.058500  0.015900  0.090100  1.0  -0.5987
  O  O3344  1  0.105720  0.838720  0.011370  1.0  -0.5405
  O  O3345  1  0.126510  0.844590  0.974030  1.0  -0.5278
  O  O3346  1  0.077890  0.715560  0.003220  1.0  -0.5927
  O  O3347  1  0.069840  0.637980  0.039350  1.0  -0.6282
  O  O3348  1  0.097500  0.393500  0.533400  1.0  -0.5099
  O  O3349  1  0.119500  0.428900  0.521500  1.0  -0.5554
  O  O3350  1  0.058500  0.515900  0.590100  1.0  -0.5987
  O  O3351  1  0.105720  0.338720  0.511370  1.0  -0.5405
  O  O3352  1  0.126510  0.344590  0.474030  1.0  -0.5278
  O  O3353  1  0.077890  0.215560  0.503220  1.0  -0.5927
  O  O3354  1  0.069840  0.137980  0.539350  1.0  -0.6282
  O  O3355  1  0.597500  0.893500  0.533400  1.0  -0.5099
  O  O3356  1  0.619500  0.928900  0.521500  1.0  -0.5554
  O  O3357  1  0.558500  0.015900  0.590100  1.0  -0.5987
  O  O3358  1  0.605720  0.838720  0.511370  1.0  -0.5405
  O  O3359  1  0.626510  0.844590  0.474030  1.0  -0.5278
  O  O3360  1  0.577890  0.715560  0.503220  1.0  -0.5927
  O  O3361  1  0.569840  0.637980  0.539350  1.0  -0.6282
  O  O3362  1  0.597500  0.393500  0.033400  1.0  -0.5099
  O  O3363  1  0.619500  0.428900  0.021500  1.0  -0.5554
  O  O3364  1  0.558500  0.515900  0.090100  1.0  -0.5987
  O  O3365  1  0.605720  0.338720  0.011370  1.0  -0.5405
  O  O3366  1  0.626510  0.344590  0.974030  1.0  -0.5278
  O  O3367  1  0.577890  0.215560  0.003220  1.0  -0.5927
  O  O3368  1  0.569840  0.137980  0.039350  1.0  -0.6282
  O  O3369  1  0.652500  0.393500  0.216600  1.0  -0.5099
  O  O3370  1  0.630500  0.428900  0.228500  1.0  -0.5559
  O  O3371  1  0.691500  0.515900  0.159900  1.0  -0.5996
  O  O3372  1  0.644280  0.338720  0.238630  1.0  -0.5386
  O  O3373  1  0.623490  0.344590  0.275970  1.0  -0.5275
  O  O3374  1  0.672110  0.215560  0.246780  1.0  -0.5913
  O  O3375  1  0.680160  0.137980  0.210650  1.0  -0.6283
  O  O3376  1  0.652500  0.893500  0.716600  1.0  -0.5099
  O  O3377  1  0.630500  0.928900  0.728500  1.0  -0.5559
  O  O3378  1  0.691500  0.015900  0.659900  1.0  -0.5996
  O  O3379  1  0.644280  0.838720  0.738630  1.0  -0.5386
  O  O3380  1  0.623490  0.844590  0.775970  1.0  -0.5275
  O  O3381  1  0.672110  0.715560  0.746780  1.0  -0.5913
  O  O3382  1  0.680160  0.637980  0.710650  1.0  -0.6283
  O  O3383  1  0.152500  0.393500  0.716600  1.0  -0.5099
  O  O3384  1  0.130500  0.428900  0.728500  1.0  -0.5559
  O  O3385  1  0.191500  0.515900  0.659900  1.0  -0.5996
  O  O3386  1  0.144280  0.338720  0.738630  1.0  -0.5386
  O  O3387  1  0.123490  0.344590  0.775970  1.0  -0.5275
  O  O3388  1  0.172110  0.215560  0.746780  1.0  -0.5913
  O  O3389  1  0.180160  0.137980  0.710650  1.0  -0.6283
  O  O3390  1  0.152500  0.893500  0.216600  1.0  -0.5099
  O  O3391  1  0.130500  0.928900  0.228500  1.0  -0.5559
  O  O3392  1  0.191500  0.015900  0.159900  1.0  -0.5996
  O  O3393  1  0.144280  0.838720  0.238630  1.0  -0.5386
  O  O3394  1  0.123490  0.844590  0.275970  1.0  -0.5275
  O  O3395  1  0.172110  0.715560  0.246780  1.0  -0.5913
  O  O3396  1  0.180160  0.637980  0.210650  1.0  -0.6283
  O  O3397  1  0.597500  0.356500  0.716600  1.0  -0.5096
  O  O3398  1  0.619500  0.321100  0.728500  1.0  -0.5553
  O  O3399  1  0.558500  0.234100  0.659900  1.0  -0.5995
  O  O3400  1  0.605720  0.411280  0.738630  1.0  -0.5393
  O  O3401  1  0.626510  0.405410  0.775970  1.0  -0.5271
  O  O3402  1  0.577890  0.534440  0.746780  1.0  -0.5917
  O  O3403  1  0.569840  0.612020  0.710650  1.0  -0.6299
  O  O3404  1  0.597500  0.856500  0.216600  1.0  -0.5096
  O  O3405  1  0.619500  0.821100  0.228500  1.0  -0.5553
  O  O3406  1  0.558500  0.734100  0.159900  1.0  -0.5995
  O  O3407  1  0.605720  0.911280  0.238630  1.0  -0.5393
  O  O3408  1  0.626510  0.905410  0.275970  1.0  -0.5271
  O  O3409  1  0.577890  0.034440  0.246780  1.0  -0.5917
  O  O3410  1  0.569840  0.112020  0.210650  1.0  -0.6299
  O  O3411  1  0.097500  0.356500  0.216600  1.0  -0.5096
  O  O3412  1  0.119500  0.321100  0.228500  1.0  -0.5553
  O  O3413  1  0.058500  0.234100  0.159900  1.0  -0.5995
  O  O3414  1  0.105720  0.411280  0.238630  1.0  -0.5393
  O  O3415  1  0.126510  0.405410  0.275970  1.0  -0.5271
  O  O3416  1  0.077890  0.534440  0.246780  1.0  -0.5917
  O  O3417  1  0.069840  0.612020  0.210650  1.0  -0.6299
  O  O3418  1  0.097500  0.856500  0.716600  1.0  -0.5096
  O  O3419  1  0.119500  0.821100  0.728500  1.0  -0.5553
  O  O3420  1  0.058500  0.734100  0.659900  1.0  -0.5995
  O  O3421  1  0.105720  0.911280  0.738630  1.0  -0.5393
  O  O3422  1  0.126510  0.905410  0.775970  1.0  -0.5271
  O  O3423  1  0.077890  0.034440  0.746780  1.0  -0.5917
  O  O3424  1  0.069840  0.112020  0.710650  1.0  -0.6299
  O  O3425  1  0.356500  0.716600  0.597500  1.0  -0.5127
  O  O3426  1  0.321100  0.728500  0.619500  1.0  -0.5579
  O  O3427  1  0.234100  0.659900  0.558500  1.0  -0.601
  O  O3428  1  0.411280  0.738630  0.605720  1.0  -0.5462
  O  O3429  1  0.405410  0.775970  0.626510  1.0  -0.5281
  O  O3430  1  0.534440  0.746780  0.577890  1.0  -0.5993
  O  O3431  1  0.612020  0.710650  0.569840  1.0  -0.6294
  O  O3432  1  0.356500  0.216600  0.097500  1.0  -0.5127
  O  O3433  1  0.321100  0.228500  0.119500  1.0  -0.5579
  O  O3434  1  0.234100  0.159900  0.058500  1.0  -0.601
  O  O3435  1  0.411280  0.238630  0.105720  1.0  -0.5462
  O  O3436  1  0.405410  0.275970  0.126510  1.0  -0.5281
  O  O3437  1  0.534440  0.246780  0.077890  1.0  -0.5993
  O  O3438  1  0.612020  0.210650  0.069840  1.0  -0.6294
  O  O3439  1  0.856500  0.716600  0.097500  1.0  -0.5127
  O  O3440  1  0.821100  0.728500  0.119500  1.0  -0.5579
  O  O3441  1  0.734100  0.659900  0.058500  1.0  -0.601
  O  O3442  1  0.911280  0.738630  0.105720  1.0  -0.5462
  O  O3443  1  0.905410  0.775970  0.126510  1.0  -0.5281
  O  O3444  1  0.034440  0.746780  0.077890  1.0  -0.5993
  O  O3445  1  0.112020  0.710650  0.069840  1.0  -0.6294
  O  O3446  1  0.856500  0.216600  0.597500  1.0  -0.5127
  O  O3447  1  0.821100  0.228500  0.619500  1.0  -0.5579
  O  O3448  1  0.734100  0.159900  0.558500  1.0  -0.601
  O  O3449  1  0.911280  0.238630  0.605720  1.0  -0.5462
  O  O3450  1  0.905410  0.275970  0.626510  1.0  -0.5281
  O  O3451  1  0.034440  0.246780  0.577890  1.0  -0.5993
  O  O3452  1  0.112020  0.210650  0.569840  1.0  -0.6294
  O  O3453  1  0.393500  0.216600  0.652500  1.0  -0.5131
  O  O3454  1  0.428900  0.228500  0.630500  1.0  -0.5575
  O  O3455  1  0.515900  0.159900  0.691500  1.0  -0.6007
  O  O3456  1  0.338720  0.238630  0.644280  1.0  -0.5455
  O  O3457  1  0.344590  0.275970  0.623490  1.0  -0.5276
  O  O3458  1  0.215560  0.246780  0.672110  1.0  -0.5975
  O  O3459  1  0.137980  0.210650  0.680160  1.0  -0.6309
  O  O3460  1  0.393500  0.716600  0.152500  1.0  -0.5131
  O  O3461  1  0.428900  0.728500  0.130500  1.0  -0.5575
  O  O3462  1  0.515900  0.659900  0.191500  1.0  -0.6007
  O  O3463  1  0.338720  0.738630  0.144280  1.0  -0.5455
  O  O3464  1  0.344590  0.775970  0.123490  1.0  -0.5276
  O  O3465  1  0.215560  0.746780  0.172110  1.0  -0.5975
  O  O3466  1  0.137980  0.710650  0.180160  1.0  -0.6309
  O  O3467  1  0.893500  0.216600  0.152500  1.0  -0.5131
  O  O3468  1  0.928900  0.228500  0.130500  1.0  -0.5575
  O  O3469  1  0.015900  0.159900  0.191500  1.0  -0.6007
  O  O3470  1  0.838720  0.238630  0.144280  1.0  -0.5455
  O  O3471  1  0.844590  0.275970  0.123490  1.0  -0.5276
  O  O3472  1  0.715560  0.246780  0.172110  1.0  -0.5975
  O  O3473  1  0.637980  0.210650  0.180160  1.0  -0.6309
  O  O3474  1  0.893500  0.716600  0.652500  1.0  -0.5131
  O  O3475  1  0.928900  0.728500  0.630500  1.0  -0.5575
  O  O3476  1  0.015900  0.659900  0.691500  1.0  -0.6007
  O  O3477  1  0.838720  0.738630  0.644280  1.0  -0.5455
  O  O3478  1  0.844590  0.775970  0.623490  1.0  -0.5276
  O  O3479  1  0.715560  0.746780  0.672110  1.0  -0.5975
  O  O3480  1  0.637980  0.710650  0.680160  1.0  -0.6309
  O  O3481  1  0.893500  0.033400  0.097500  1.0  -0.512
  O  O3482  1  0.928900  0.021500  0.119500  1.0  -0.5596
  O  O3483  1  0.015900  0.090100  0.058500  1.0  -0.6042
  O  O3484  1  0.838720  0.011370  0.105720  1.0  -0.5487
  O  O3485  1  0.844590  0.974030  0.126510  1.0  -0.5273
  O  O3486  1  0.715560  0.003220  0.077890  1.0  -0.5987
  O  O3487  1  0.637980  0.039350  0.069840  1.0  -0.6299
  O  O3488  1  0.893500  0.533400  0.597500  1.0  -0.512
  O  O3489  1  0.928900  0.521500  0.619500  1.0  -0.5596
  O  O3490  1  0.015900  0.590100  0.558500  1.0  -0.6042
  O  O3491  1  0.838720  0.511370  0.605720  1.0  -0.5487
  O  O3492  1  0.844590  0.474030  0.626510  1.0  -0.5273
  O  O3493  1  0.715560  0.503220  0.577890  1.0  -0.5987
  O  O3494  1  0.637980  0.539350  0.569840  1.0  -0.6299
  O  O3495  1  0.393500  0.033400  0.597500  1.0  -0.512
  O  O3496  1  0.428900  0.021500  0.619500  1.0  -0.5596
  O  O3497  1  0.515900  0.090100  0.558500  1.0  -0.6042
  O  O3498  1  0.338720  0.011370  0.605720  1.0  -0.5487
  O  O3499  1  0.344590  0.974030  0.626510  1.0  -0.5273
  O  O3500  1  0.215560  0.003220  0.577890  1.0  -0.5987
  O  O3501  1  0.137980  0.039350  0.569840  1.0  -0.6299
  O  O3502  1  0.393500  0.533400  0.097500  1.0  -0.512
  O  O3503  1  0.428900  0.521500  0.119500  1.0  -0.5596
  O  O3504  1  0.515900  0.590100  0.058500  1.0  -0.6042
  O  O3505  1  0.338720  0.511370  0.105720  1.0  -0.5487
  O  O3506  1  0.344590  0.474030  0.126510  1.0  -0.5273
  O  O3507  1  0.215560  0.503220  0.077890  1.0  -0.5987
  O  O3508  1  0.137980  0.539350  0.069840  1.0  -0.6299
  O  O3509  1  0.856500  0.533400  0.152500  1.0  -0.5119
  O  O3510  1  0.821100  0.521500  0.130500  1.0  -0.5586
  O  O3511  1  0.734100  0.590100  0.191500  1.0  -0.6026
  O  O3512  1  0.911280  0.511370  0.144280  1.0  -0.5472
  O  O3513  1  0.905410  0.474030  0.123490  1.0  -0.5285
  O  O3514  1  0.034440  0.503220  0.172110  1.0  -0.6002
  O  O3515  1  0.112020  0.539350  0.180160  1.0  -0.6296
  O  O3516  1  0.856500  0.033400  0.652500  1.0  -0.5119
  O  O3517  1  0.821100  0.021500  0.630500  1.0  -0.5586
  O  O3518  1  0.734100  0.090100  0.691500  1.0  -0.6026
  O  O3519  1  0.911280  0.011370  0.644280  1.0  -0.5472
  O  O3520  1  0.905410  0.974030  0.623490  1.0  -0.5285
  O  O3521  1  0.034440  0.003220  0.672110  1.0  -0.6002
  O  O3522  1  0.112020  0.039350  0.680160  1.0  -0.6296
  O  O3523  1  0.356500  0.533400  0.652500  1.0  -0.5119
  O  O3524  1  0.321100  0.521500  0.630500  1.0  -0.5586
  O  O3525  1  0.234100  0.590100  0.691500  1.0  -0.6026
  O  O3526  1  0.411280  0.511370  0.644280  1.0  -0.5472
  O  O3527  1  0.405410  0.474030  0.623490  1.0  -0.5285
  O  O3528  1  0.534440  0.503220  0.672110  1.0  -0.6002
  O  O3529  1  0.612020  0.539350  0.680160  1.0  -0.6296
  O  O3530  1  0.356500  0.033400  0.152500  1.0  -0.5119
  O  O3531  1  0.321100  0.021500  0.130500  1.0  -0.5586
  O  O3532  1  0.234100  0.090100  0.191500  1.0  -0.6026
  O  O3533  1  0.411280  0.011370  0.144280  1.0  -0.5472
  O  O3534  1  0.405410  0.974030  0.123490  1.0  -0.5285
  O  O3535  1  0.534440  0.003220  0.172110  1.0  -0.6002
  O  O3536  1  0.612020  0.039350  0.180160  1.0  -0.6296
  O  O3537  1  0.216600  0.652500  0.393500  1.0  -0.5079
  O  O3538  1  0.228500  0.630500  0.428900  1.0  -0.5543
  O  O3539  1  0.159900  0.691500  0.515900  1.0  -0.6038
  O  O3540  1  0.238630  0.644280  0.338720  1.0  -0.5485
  O  O3541  1  0.275970  0.623490  0.344590  1.0  -0.5288
  O  O3542  1  0.246780  0.672110  0.215560  1.0  -0.5992
  O  O3543  1  0.210650  0.680160  0.137980  1.0  -0.6308
  O  O3544  1  0.216600  0.152500  0.893500  1.0  -0.5079
  O  O3545  1  0.228500  0.130500  0.928900  1.0  -0.5543
  O  O3546  1  0.159900  0.191500  0.015900  1.0  -0.6038
  O  O3547  1  0.238630  0.144280  0.838720  1.0  -0.5485
  O  O3548  1  0.275970  0.123490  0.844590  1.0  -0.5288
  O  O3549  1  0.246780  0.172110  0.715560  1.0  -0.5992
  O  O3550  1  0.210650  0.180160  0.637980  1.0  -0.6308
  O  O3551  1  0.716600  0.652500  0.893500  1.0  -0.5079
  O  O3552  1  0.728500  0.630500  0.928900  1.0  -0.5543
  O  O3553  1  0.659900  0.691500  0.015900  1.0  -0.6038
  O  O3554  1  0.738630  0.644280  0.838720  1.0  -0.5485
  O  O3555  1  0.775970  0.623490  0.844590  1.0  -0.5288
  O  O3556  1  0.746780  0.672110  0.715560  1.0  -0.5992
  O  O3557  1  0.710650  0.680160  0.637980  1.0  -0.6308
  O  O3558  1  0.716600  0.152500  0.393500  1.0  -0.5079
  O  O3559  1  0.728500  0.130500  0.428900  1.0  -0.5543
  O  O3560  1  0.659900  0.191500  0.515900  1.0  -0.6038
  O  O3561  1  0.738630  0.144280  0.338720  1.0  -0.5485
  O  O3562  1  0.775970  0.123490  0.344590  1.0  -0.5288
  O  O3563  1  0.746780  0.172110  0.215560  1.0  -0.5992
  O  O3564  1  0.710650  0.180160  0.137980  1.0  -0.6308
  O  O3565  1  0.716600  0.597500  0.356500  1.0  -0.5088
  O  O3566  1  0.728500  0.619500  0.321100  1.0  -0.5539
  O  O3567  1  0.659900  0.558500  0.234100  1.0  -0.6026
  O  O3568  1  0.738630  0.605720  0.411280  1.0  -0.5473
  O  O3569  1  0.775970  0.626510  0.405410  1.0  -0.5284
  O  O3570  1  0.746780  0.577890  0.534440  1.0  -0.6008
  O  O3571  1  0.710650  0.569840  0.612020  1.0  -0.6322
  O  O3572  1  0.716600  0.097500  0.856500  1.0  -0.5088
  O  O3573  1  0.728500  0.119500  0.821100  1.0  -0.5539
  O  O3574  1  0.659900  0.058500  0.734100  1.0  -0.6026
  O  O3575  1  0.738630  0.105720  0.911280  1.0  -0.5473
  O  O3576  1  0.775970  0.126510  0.905410  1.0  -0.5284
  O  O3577  1  0.746780  0.077890  0.034440  1.0  -0.6008
  O  O3578  1  0.710650  0.069840  0.112020  1.0  -0.6322
  O  O3579  1  0.216600  0.597500  0.856500  1.0  -0.5088
  O  O3580  1  0.228500  0.619500  0.821100  1.0  -0.5539
  O  O3581  1  0.159900  0.558500  0.734100  1.0  -0.6026
  O  O3582  1  0.238630  0.605720  0.911280  1.0  -0.5473
  O  O3583  1  0.275970  0.626510  0.905410  1.0  -0.5284
  O  O3584  1  0.246780  0.577890  0.034440  1.0  -0.6008
  O  O3585  1  0.210650  0.569840  0.112020  1.0  -0.6322
  O  O3586  1  0.216600  0.097500  0.356500  1.0  -0.5088
  O  O3587  1  0.228500  0.119500  0.321100  1.0  -0.5539
  O  O3588  1  0.159900  0.058500  0.234100  1.0  -0.6026
  O  O3589  1  0.238630  0.105720  0.411280  1.0  -0.5473
  O  O3590  1  0.275970  0.126510  0.405410  1.0  -0.5284
  O  O3591  1  0.246780  0.077890  0.534440  1.0  -0.6008
  O  O3592  1  0.210650  0.069840  0.612020  1.0  -0.6322
  O  O3593  1  0.533400  0.152500  0.856500  1.0  -0.5078
  O  O3594  1  0.521500  0.130500  0.821100  1.0  -0.5547
  O  O3595  1  0.590100  0.191500  0.734100  1.0  -0.6008
  O  O3596  1  0.511370  0.144280  0.911280  1.0  -0.5473
  O  O3597  1  0.474030  0.123490  0.905410  1.0  -0.5292
  O  O3598  1  0.503220  0.172110  0.034440  1.0  -0.6001
  O  O3599  1  0.539350  0.180160  0.112020  1.0  -0.6318
  O  O3600  1  0.533400  0.652500  0.356500  1.0  -0.5078
  O  O3601  1  0.521500  0.630500  0.321100  1.0  -0.5547
  O  O3602  1  0.590100  0.691500  0.234100  1.0  -0.6008
  O  O3603  1  0.511370  0.644280  0.411280  1.0  -0.5473
  O  O3604  1  0.474030  0.623490  0.405410  1.0  -0.5292
  O  O3605  1  0.503220  0.672110  0.534440  1.0  -0.6001
  O  O3606  1  0.539350  0.680160  0.612020  1.0  -0.6318
  O  O3607  1  0.033400  0.152500  0.356500  1.0  -0.5078
  O  O3608  1  0.021500  0.130500  0.321100  1.0  -0.5547
  O  O3609  1  0.090100  0.191500  0.234100  1.0  -0.6008
  O  O3610  1  0.011370  0.144280  0.411280  1.0  -0.5473
  O  O3611  1  0.974030  0.123490  0.405410  1.0  -0.5292
  O  O3612  1  0.003220  0.172110  0.534440  1.0  -0.6001
  O  O3613  1  0.039350  0.180160  0.612020  1.0  -0.6318
  O  O3614  1  0.033400  0.652500  0.856500  1.0  -0.5078
  O  O3615  1  0.021500  0.630500  0.821100  1.0  -0.5547
  O  O3616  1  0.090100  0.691500  0.734100  1.0  -0.6008
  O  O3617  1  0.011370  0.644280  0.911280  1.0  -0.5473
  O  O3618  1  0.974030  0.623490  0.905410  1.0  -0.5292
  O  O3619  1  0.003220  0.672110  0.034440  1.0  -0.6001
  O  O3620  1  0.039350  0.680160  0.112020  1.0  -0.6318
  O  O3621  1  0.033400  0.097500  0.893500  1.0  -0.5091
  O  O3622  1  0.021500  0.119500  0.928900  1.0  -0.5541
  O  O3623  1  0.090100  0.058500  0.015900  1.0  -0.6003
  O  O3624  1  0.011370  0.105720  0.838720  1.0  -0.5472
  O  O3625  1  0.974030  0.126510  0.844590  1.0  -0.5296
  O  O3626  1  0.003220  0.077890  0.715560  1.0  -0.5996
  O  O3627  1  0.039350  0.069840  0.637980  1.0  -0.6317
  O  O3628  1  0.033400  0.597500  0.393500  1.0  -0.5091
  O  O3629  1  0.021500  0.619500  0.428900  1.0  -0.5541
  O  O3630  1  0.090100  0.558500  0.515900  1.0  -0.6003
  O  O3631  1  0.011370  0.605720  0.338720  1.0  -0.5472
  O  O3632  1  0.974030  0.626510  0.344590  1.0  -0.5296
  O  O3633  1  0.003220  0.577890  0.215560  1.0  -0.5996
  O  O3634  1  0.039350  0.569840  0.137980  1.0  -0.6317
  O  O3635  1  0.533400  0.097500  0.393500  1.0  -0.5091
  O  O3636  1  0.521500  0.119500  0.428900  1.0  -0.5541
  O  O3637  1  0.590100  0.058500  0.515900  1.0  -0.6003
  O  O3638  1  0.511370  0.105720  0.338720  1.0  -0.5472
  O  O3639  1  0.474030  0.126510  0.344590  1.0  -0.5296
  O  O3640  1  0.503220  0.077890  0.215560  1.0  -0.5996
  O  O3641  1  0.539350  0.069840  0.137980  1.0  -0.6317
  O  O3642  1  0.533400  0.597500  0.893500  1.0  -0.5091
  O  O3643  1  0.521500  0.619500  0.928900  1.0  -0.5541
  O  O3644  1  0.590100  0.558500  0.015900  1.0  -0.6003
  O  O3645  1  0.511370  0.605720  0.838720  1.0  -0.5472
  O  O3646  1  0.474030  0.626510  0.844590  1.0  -0.5296
  O  O3647  1  0.503220  0.577890  0.715560  1.0  -0.5996
  O  O3648  1  0.539350  0.569840  0.637980  1.0  -0.6317
  O  O3649  1  0.695040  0.054960  0.054960  1.0  -0.9949
  O  O3650  1  0.054960  0.195040  0.554960  1.0  -0.9951
  O  O3651  1  0.554960  0.554960  0.695040  1.0  -0.9957
  O  O3652  1  0.195040  0.695040  0.195040  1.0  -0.9946
  O  O3653  1  0.054960  0.695040  0.054960  1.0  -0.9951
  O  O3654  1  0.554960  0.054960  0.195040  1.0  -0.9957
  O  O3655  1  0.695040  0.554960  0.554960  1.0  -0.9949
  O  O3656  1  0.195040  0.195040  0.695040  1.0  -0.9946
  O  O3657  1  0.054960  0.054960  0.695040  1.0  -0.9957
  O  O3658  1  0.195040  0.554960  0.054960  1.0  -0.9949
  O  O3659  1  0.554960  0.695040  0.554960  1.0  -0.9951
  O  O3660  1  0.695040  0.195040  0.195040  1.0  -0.9946
  O  O3661  1  0.695040  0.695040  0.695040  1.0  -0.9946
  O  O3662  1  0.804960  0.945040  0.445040  1.0  -0.9952
  O  O3663  1  0.945040  0.304960  0.945040  1.0  -0.9951
  O  O3664  1  0.304960  0.804960  0.804960  1.0  -0.9958
  O  O3665  1  0.304960  0.304960  0.304960  1.0  -0.9958
  O  O3666  1  0.445040  0.445040  0.304960  1.0  -0.9943
  O  O3667  1  0.445040  0.304960  0.445040  1.0  -0.9951
  O  O3668  1  0.804960  0.804960  0.304960  1.0  -0.9958
  O  O3669  1  0.304960  0.945040  0.945040  1.0  -0.9952
  O  O3670  1  0.945040  0.445040  0.804960  1.0  -0.9943
  O  O3671  1  0.804960  0.304960  0.804960  1.0  -0.9958
  O  O3672  1  0.304960  0.445040  0.445040  1.0  -0.9952
  O  O3673  1  0.445040  0.804960  0.945040  1.0  -0.9951
  O  O3674  1  0.945040  0.945040  0.304960  1.0  -0.9943
  O  O3675  1  0.945040  0.804960  0.445040  1.0  -0.9951
  O  O3676  1  0.445040  0.945040  0.804960  1.0  -0.9943
  O  O3677  1  0.804960  0.445040  0.945040  1.0  -0.9952
  O  O3678  1  0.195040  0.054960  0.554960  1.0  -0.9949
  O  O3679  1  0.054960  0.554960  0.195040  1.0  -0.9957
  O  O3680  1  0.554960  0.195040  0.054960  1.0  -0.9951
  O  O3681  1  0.074400  0.074400  0.074400  1.0  -0.7597
  O  O3682  1  0.074400  0.574400  0.574400  1.0  -0.7597
  O  O3683  1  0.574400  0.074400  0.574400  1.0  -0.7597
  O  O3684  1  0.574400  0.574400  0.074400  1.0  -0.7597
  O  O3685  1  0.675600  0.175600  0.574400  1.0  -0.7601
  O  O3686  1  0.675600  0.675600  0.074400  1.0  -0.7601
  O  O3687  1  0.175600  0.574400  0.675600  1.0  -0.761
  O  O3688  1  0.175600  0.074400  0.175600  1.0  -0.761
  O  O3689  1  0.574400  0.675600  0.175600  1.0  -0.7615
  O  O3690  1  0.074400  0.675600  0.675600  1.0  -0.7615
  O  O3691  1  0.675600  0.074400  0.675600  1.0  -0.761
  O  O3692  1  0.824400  0.324400  0.425600  1.0  -0.7611
  O  O3693  1  0.824400  0.824400  0.925600  1.0  -0.7611
  O  O3694  1  0.925600  0.925600  0.925600  1.0  -0.7614
  O  O3695  1  0.925600  0.425600  0.425600  1.0  -0.7614
  O  O3696  1  0.425600  0.925600  0.425600  1.0  -0.7614
  O  O3697  1  0.425600  0.425600  0.925600  1.0  -0.7614
  O  O3698  1  0.324400  0.425600  0.824400  1.0  -0.76
  O  O3699  1  0.324400  0.925600  0.324400  1.0  -0.76
  O  O3700  1  0.425600  0.824400  0.324400  1.0  -0.7598
  O  O3701  1  0.925600  0.824400  0.824400  1.0  -0.7598
  O  O3702  1  0.925600  0.324400  0.324400  1.0  -0.7598
  O  O3703  1  0.824400  0.925600  0.824400  1.0  -0.76
  O  O3704  1  0.324400  0.824400  0.425600  1.0  -0.7611
  O  O3705  1  0.324400  0.324400  0.925600  1.0  -0.7611
  O  O3706  1  0.824400  0.425600  0.324400  1.0  -0.76
  O  O3707  1  0.425600  0.324400  0.824400  1.0  -0.7598
  O  O3708  1  0.175600  0.675600  0.574400  1.0  -0.7601
  O  O3709  1  0.175600  0.175600  0.074400  1.0  -0.7601
  O  O3710  1  0.675600  0.574400  0.175600  1.0  -0.761
  O  O3711  1  0.574400  0.175600  0.675600  1.0  -0.7615
  O  O3712  1  0.074400  0.175600  0.175600  1.0  -0.7615
