# generated using pymatgen
data_Ti9Cu4P3H30C57I4N4O27
_symmetry_space_group_name_H-M   'P 1'
_cell_length_a   26.73300000
_cell_length_b   26.73300000
_cell_length_c   65.26100000
_cell_angle_alpha   90.00000000
_cell_angle_beta   90.00000000
_cell_angle_gamma   120.00000000
_symmetry_Int_Tables_number   1
_chemical_formula_structural   Ti9Cu4P3H30C57I4N4O27
_chemical_formula_sum   'Ti108 Cu48 P36 H360 C684 I48 N48 O324'
_cell_volume   40390.54866891
_cell_formula_units_Z   12
loop_
 _symmetry_equiv_pos_site_id
 _symmetry_equiv_pos_as_xyz
  1  'x, y, z'
loop_
 _atom_site_type_symbol
 _atom_site_label
 _atom_site_symmetry_multiplicity
 _atom_site_fract_x
 _atom_site_fract_y
 _atom_site_fract_z
 _atom_site_occupancy
 _atom_site_charge
  Ti  Ti1  1  0.632880  0.667840  0.036330  1.0  1.719
  Ti  Ti2  1  0.596470  0.579530  0.072730  1.0  1.692
  Ti  Ti3  1  0.602930  0.722190  0.072800  1.0  1.6047
  Ti  Ti4  1  0.299550  0.001170  0.369670  1.0  1.7199
  Ti  Ti5  1  0.263140  0.912860  0.406060  1.0  1.6922
  Ti  Ti6  1  0.269600  0.055520  0.406140  1.0  1.6047
  Ti  Ti7  1  0.966210  0.334510  0.703000  1.0  1.719
  Ti  Ti8  1  0.929800  0.246200  0.739400  1.0  1.6919
  Ti  Ti9  1  0.936260  0.388860  0.739470  1.0  1.6043
  Ti  Ti10  1  0.332160  0.965040  0.036330  1.0  1.7197
  Ti  Ti11  1  0.420470  0.016940  0.072730  1.0  1.687
  Ti  Ti12  1  0.277810  0.880740  0.072800  1.0  1.6023
  Ti  Ti13  1  0.998830  0.298370  0.369670  1.0  1.7198
  Ti  Ti14  1  0.087140  0.350270  0.406060  1.0  1.6879
  Ti  Ti15  1  0.944480  0.214070  0.406140  1.0  1.6018
  Ti  Ti16  1  0.665490  0.631710  0.703000  1.0  1.7197
  Ti  Ti17  1  0.753800  0.683610  0.739400  1.0  1.6869
  Ti  Ti18  1  0.611140  0.547410  0.739470  1.0  1.6023
  Ti  Ti19  1  0.034960  0.367120  0.036330  1.0  1.7195
  Ti  Ti20  1  0.983060  0.403530  0.072730  1.0  1.6953
  Ti  Ti21  1  0.119260  0.397070  0.072800  1.0  1.5985
  Ti  Ti22  1  0.701630  0.700450  0.369670  1.0  1.7196
  Ti  Ti23  1  0.649730  0.736860  0.406060  1.0  1.6962
  Ti  Ti24  1  0.785930  0.730400  0.406140  1.0  1.599
  Ti  Ti25  1  0.368290  0.033790  0.703000  1.0  1.7195
  Ti  Ti26  1  0.316390  0.070200  0.739400  1.0  1.695
  Ti  Ti27  1  0.452590  0.063740  0.739470  1.0  1.5985
  Ti  Ti28  1  0.667840  0.632880  0.463670  1.0  1.7168
  Ti  Ti29  1  0.579530  0.596470  0.427270  1.0  1.6948
  Ti  Ti30  1  0.722190  0.602930  0.427200  1.0  1.5907
  Ti  Ti31  1  0.334510  0.966210  0.797000  1.0  1.7168
  Ti  Ti32  1  0.246200  0.929800  0.760600  1.0  1.6947
  Ti  Ti33  1  0.388860  0.936260  0.760530  1.0  1.5902
  Ti  Ti34  1  0.001170  0.299550  0.130330  1.0  1.718
  Ti  Ti35  1  0.912860  0.263140  0.093940  1.0  1.6949
  Ti  Ti36  1  0.055520  0.269600  0.093860  1.0  1.5907
  Ti  Ti37  1  0.965040  0.332160  0.463670  1.0  1.7161
  Ti  Ti38  1  0.016940  0.420470  0.427270  1.0  1.6965
  Ti  Ti39  1  0.880740  0.277810  0.427200  1.0  1.605
  Ti  Ti40  1  0.631710  0.665490  0.797000  1.0  1.7161
  Ti  Ti41  1  0.683610  0.753800  0.760600  1.0  1.6963
  Ti  Ti42  1  0.547410  0.611140  0.760530  1.0  1.605
  Ti  Ti43  1  0.298370  0.998830  0.130330  1.0  1.7165
  Ti  Ti44  1  0.350270  0.087140  0.093940  1.0  1.6975
  Ti  Ti45  1  0.214070  0.944480  0.093860  1.0  1.6044
  Ti  Ti46  1  0.367120  0.034960  0.463670  1.0  1.7159
  Ti  Ti47  1  0.403530  0.983060  0.427270  1.0  1.6865
  Ti  Ti48  1  0.397070  0.119260  0.427200  1.0  1.6082
  Ti  Ti49  1  0.033790  0.368290  0.797000  1.0  1.7159
  Ti  Ti50  1  0.070200  0.316390  0.760600  1.0  1.6862
  Ti  Ti51  1  0.063740  0.452590  0.760530  1.0  1.6082
  Ti  Ti52  1  0.700450  0.701630  0.130330  1.0  1.7163
  Ti  Ti53  1  0.736860  0.649730  0.093940  1.0  1.6874
  Ti  Ti54  1  0.730400  0.785930  0.093860  1.0  1.6086
  Ti  Ti55  1  0.367120  0.332160  0.963670  1.0  1.7164
  Ti  Ti56  1  0.403530  0.420470  0.927270  1.0  1.6942
  Ti  Ti57  1  0.397070  0.277810  0.927200  1.0  1.58
  Ti  Ti58  1  0.033790  0.665490  0.297000  1.0  1.7164
  Ti  Ti59  1  0.070200  0.753800  0.260600  1.0  1.6941
  Ti  Ti60  1  0.063740  0.611140  0.260530  1.0  1.5796
  Ti  Ti61  1  0.700450  0.998830  0.630330  1.0  1.7176
  Ti  Ti62  1  0.736860  0.087140  0.593940  1.0  1.6969
  Ti  Ti63  1  0.730400  0.944480  0.593860  1.0  1.58
  Ti  Ti64  1  0.667840  0.034960  0.963670  1.0  1.7159
  Ti  Ti65  1  0.579530  0.983060  0.927270  1.0  1.6955
  Ti  Ti66  1  0.722190  0.119260  0.927200  1.0  1.6093
  Ti  Ti67  1  0.334510  0.368290  0.297000  1.0  1.7159
  Ti  Ti68  1  0.246200  0.316390  0.260600  1.0  1.6952
  Ti  Ti69  1  0.388860  0.452590  0.260530  1.0  1.6093
  Ti  Ti70  1  0.001170  0.701630  0.630330  1.0  1.7162
  Ti  Ti71  1  0.912860  0.649730  0.593940  1.0  1.6966
  Ti  Ti72  1  0.055520  0.785930  0.593860  1.0  1.6088
  Ti  Ti73  1  0.965040  0.632880  0.963670  1.0  1.7164
  Ti  Ti74  1  0.016940  0.596470  0.927270  1.0  1.6733
  Ti  Ti75  1  0.880740  0.602930  0.927200  1.0  1.5983
  Ti  Ti76  1  0.631710  0.966210  0.297000  1.0  1.7164
  Ti  Ti77  1  0.683610  0.929800  0.260600  1.0  1.6731
  Ti  Ti78  1  0.547410  0.936260  0.260530  1.0  1.5983
  Ti  Ti79  1  0.298370  0.299550  0.630330  1.0  1.7168
  Ti  Ti80  1  0.350270  0.263140  0.593940  1.0  1.6742
  Ti  Ti81  1  0.214070  0.269600  0.593860  1.0  1.5989
  Ti  Ti82  1  0.332160  0.367120  0.536330  1.0  1.7196
  Ti  Ti83  1  0.420470  0.403530  0.572730  1.0  1.6727
  Ti  Ti84  1  0.277810  0.397070  0.572800  1.0  1.6087
  Ti  Ti85  1  0.998830  0.700450  0.869670  1.0  1.7205
  Ti  Ti86  1  0.087140  0.736860  0.906060  1.0  1.6729
  Ti  Ti87  1  0.944480  0.730400  0.906140  1.0  1.6087
  Ti  Ti88  1  0.665490  0.033790  0.203000  1.0  1.7196
  Ti  Ti89  1  0.753800  0.070200  0.239400  1.0  1.6726
  Ti  Ti90  1  0.611140  0.063740  0.239470  1.0  1.6082
  Ti  Ti91  1  0.034960  0.667840  0.536330  1.0  1.7195
  Ti  Ti92  1  0.983060  0.579530  0.572730  1.0  1.6895
  Ti  Ti93  1  0.119260  0.722190  0.572800  1.0  1.582
  Ti  Ti94  1  0.701630  0.001170  0.869670  1.0  1.7197
  Ti  Ti95  1  0.649730  0.912860  0.906060  1.0  1.6929
  Ti  Ti96  1  0.785930  0.055520  0.906140  1.0  1.5816
  Ti  Ti97  1  0.368290  0.334510  0.203000  1.0  1.7196
  Ti  Ti98  1  0.316390  0.246200  0.239400  1.0  1.6893
  Ti  Ti99  1  0.452590  0.388860  0.239470  1.0  1.582
  Ti  Ti100  1  0.632880  0.965040  0.536330  1.0  1.7191
  Ti  Ti101  1  0.596470  0.016940  0.572730  1.0  1.6963
  Ti  Ti102  1  0.602930  0.880740  0.572800  1.0  1.6022
  Ti  Ti103  1  0.299550  0.298370  0.869670  1.0  1.7192
  Ti  Ti104  1  0.263140  0.350270  0.906060  1.0  1.6972
  Ti  Ti105  1  0.269600  0.214070  0.906140  1.0  1.6027
  Ti  Ti106  1  0.966210  0.631710  0.203000  1.0  1.7191
  Ti  Ti107  1  0.929800  0.683610  0.239400  1.0  1.6962
  Ti  Ti108  1  0.936260  0.547410  0.239470  1.0  1.6022
  Cu  Cu109  1  0.353260  0.621470  0.001540  1.0  0.1044
  Cu  Cu110  1  0.019930  0.954800  0.334870  1.0  0.1044
  Cu  Cu111  1  0.686590  0.288140  0.668200  1.0  0.1044
  Cu  Cu112  1  0.378530  0.731790  0.001540  1.0  0.1036
  Cu  Cu113  1  0.045200  0.065120  0.334870  1.0  0.1036
  Cu  Cu114  1  0.711860  0.398460  0.668200  1.0  0.1036
  Cu  Cu115  1  0.268210  0.646740  0.001540  1.0  0.1045
  Cu  Cu116  1  0.934880  0.980070  0.334870  1.0  0.1043
  Cu  Cu117  1  0.601540  0.313410  0.668200  1.0  0.1047
  Cu  Cu118  1  0.621470  0.353260  0.498460  1.0  0.1047
  Cu  Cu119  1  0.288140  0.686590  0.831800  1.0  0.1047
  Cu  Cu120  1  0.954800  0.019930  0.165130  1.0  0.1047
  Cu  Cu121  1  0.731790  0.378530  0.498460  1.0  0.1044
  Cu  Cu122  1  0.398460  0.711860  0.831800  1.0  0.1044
  Cu  Cu123  1  0.065120  0.045200  0.165130  1.0  0.1044
  Cu  Cu124  1  0.646740  0.268210  0.498460  1.0  0.1048
  Cu  Cu125  1  0.313410  0.601540  0.831800  1.0  0.1049
  Cu  Cu126  1  0.980070  0.934880  0.165130  1.0  0.1046
  Cu  Cu127  1  0.333333  0.666667  0.968560  1.0  0.0448
  Cu  Cu128  1  0.000000  0.000000  0.301890  1.0  0.0448
  Cu  Cu129  1  0.666667  0.333333  0.635230  1.0  0.0448
  Cu  Cu130  1  0.666667  0.333333  0.531440  1.0  0.0444
  Cu  Cu131  1  0.333333  0.666667  0.864770  1.0  0.0445
  Cu  Cu132  1  0.000000  0.000000  0.198110  1.0  0.0444
  Cu  Cu133  1  0.646740  0.378530  0.998470  1.0  0.1045
  Cu  Cu134  1  0.313410  0.711860  0.331800  1.0  0.1044
  Cu  Cu135  1  0.980070  0.045200  0.665130  1.0  0.1044
  Cu  Cu136  1  0.621470  0.268210  0.998470  1.0  0.1051
  Cu  Cu137  1  0.288140  0.601540  0.331800  1.0  0.105
  Cu  Cu138  1  0.954800  0.934880  0.665130  1.0  0.105
  Cu  Cu139  1  0.731790  0.353260  0.998470  1.0  0.1044
  Cu  Cu140  1  0.398460  0.686590  0.331800  1.0  0.1044
  Cu  Cu141  1  0.065120  0.019930  0.665130  1.0  0.104
  Cu  Cu142  1  0.378530  0.646740  0.501540  1.0  0.1041
  Cu  Cu143  1  0.045200  0.980070  0.834870  1.0  0.1042
  Cu  Cu144  1  0.711860  0.313410  0.168200  1.0  0.1042
  Cu  Cu145  1  0.268210  0.621470  0.501540  1.0  0.1043
  Cu  Cu146  1  0.934880  0.954800  0.834870  1.0  0.1043
  Cu  Cu147  1  0.601540  0.288140  0.168200  1.0  0.1043
  Cu  Cu148  1  0.353260  0.731790  0.501540  1.0  0.1038
  Cu  Cu149  1  0.019930  0.065120  0.834870  1.0  0.1036
  Cu  Cu150  1  0.686590  0.398460  0.168200  1.0  0.1039
  Cu  Cu151  1  0.666667  0.333333  0.031440  1.0  0.0445
  Cu  Cu152  1  0.333333  0.666667  0.364770  1.0  0.0445
  Cu  Cu153  1  0.000000  0.000000  0.698110  1.0  0.0444
  Cu  Cu154  1  0.333333  0.666667  0.468560  1.0  0.0448
  Cu  Cu155  1  0.000000  0.000000  0.801890  1.0  0.0448
  Cu  Cu156  1  0.666667  0.333333  0.135230  1.0  0.0448
  P  P157  1  0.567560  0.635070  0.111700  1.0  1.5326
  P  P158  1  0.234230  0.968400  0.445030  1.0  1.5326
  P  P159  1  0.900890  0.301740  0.778370  1.0  1.5333
  P  P160  1  0.364930  0.932490  0.111700  1.0  1.5343
  P  P161  1  0.031600  0.265820  0.445030  1.0  1.5343
  P  P162  1  0.698260  0.599160  0.778370  1.0  1.5346
  P  P163  1  0.067510  0.432440  0.111700  1.0  1.5378
  P  P164  1  0.734180  0.765770  0.445030  1.0  1.5378
  P  P165  1  0.400840  0.099110  0.778370  1.0  1.5386
  P  P166  1  0.635070  0.567560  0.388300  1.0  1.538
  P  P167  1  0.301740  0.900890  0.721630  1.0  1.5387
  P  P168  1  0.968400  0.234230  0.054970  1.0  1.538
  P  P169  1  0.932490  0.364930  0.388300  1.0  1.5328
  P  P170  1  0.599160  0.698260  0.721630  1.0  1.5331
  P  P171  1  0.265820  0.031600  0.054970  1.0  1.5328
  P  P172  1  0.432440  0.067510  0.388300  1.0  1.5345
  P  P173  1  0.099110  0.400840  0.721630  1.0  1.5352
  P  P174  1  0.765770  0.734180  0.054970  1.0  1.5345
  P  P175  1  0.432440  0.364930  0.888300  1.0  1.533
  P  P176  1  0.099110  0.698260  0.221630  1.0  1.5338
  P  P177  1  0.765770  0.031600  0.554970  1.0  1.533
  P  P178  1  0.635070  0.067510  0.888300  1.0  1.5349
  P  P179  1  0.301740  0.400840  0.221630  1.0  1.535
  P  P180  1  0.968400  0.734180  0.554970  1.0  1.5349
  P  P181  1  0.932490  0.567560  0.888300  1.0  1.5381
  P  P182  1  0.599160  0.900890  0.221630  1.0  1.5389
  P  P183  1  0.265820  0.234230  0.554970  1.0  1.5381
  P  P184  1  0.364930  0.432440  0.611700  1.0  1.5381
  P  P185  1  0.031600  0.765770  0.945030  1.0  1.5381
  P  P186  1  0.698260  0.099110  0.278370  1.0  1.5388
  P  P187  1  0.067510  0.635070  0.611700  1.0  1.5329
  P  P188  1  0.734180  0.968400  0.945030  1.0  1.5329
  P  P189  1  0.400840  0.301740  0.278370  1.0  1.5332
  P  P190  1  0.567560  0.932490  0.611700  1.0  1.5347
  P  P191  1  0.234230  0.265820  0.945030  1.0  1.5347
  P  P192  1  0.900890  0.599160  0.278370  1.0  1.5354
  H  H193  1  0.460600  0.623800  0.017800  1.0  0.0883
  H  H194  1  0.297800  0.502800  0.017600  1.0  0.0688
  H  H195  1  0.285400  0.702900  0.933500  1.0  0.0802
  H  H196  1  0.315500  0.447900  0.040400  1.0  0.1043
  H  H197  1  0.410600  0.482700  0.052400  1.0  0.0973
  H  H198  1  0.539300  0.636500  0.152500  1.0  0.0684
  H  H199  1  0.453700  0.547000  0.105000  1.0  0.0902
  H  H200  1  0.453600  0.606200  0.170800  1.0  0.098
  H  H201  1  0.381300  0.497200  0.127700  1.0  0.0536
  H  H202  1  0.375700  0.534200  0.159900  1.0  0.0819
  H  H203  1  0.127270  0.957130  0.351130  1.0  0.0883
  H  H204  1  0.964470  0.836130  0.350930  1.0  0.0689
  H  H205  1  0.952070  0.036230  0.266830  1.0  0.0802
  H  H206  1  0.982170  0.781230  0.373730  1.0  0.1043
  H  H207  1  0.077270  0.816030  0.385730  1.0  0.0973
  H  H208  1  0.205970  0.969830  0.485830  1.0  0.0684
  H  H209  1  0.120370  0.880330  0.438330  1.0  0.0902
  H  H210  1  0.120270  0.939530  0.504130  1.0  0.098
  H  H211  1  0.047970  0.830530  0.461030  1.0  0.0536
  H  H212  1  0.042370  0.867530  0.493230  1.0  0.0837
  H  H213  1  0.793930  0.290470  0.684470  1.0  0.0883
  H  H214  1  0.631130  0.169470  0.684270  1.0  0.0689
  H  H215  1  0.618730  0.369570  0.600170  1.0  0.0802
  H  H216  1  0.648830  0.114570  0.707070  1.0  0.1043
  H  H217  1  0.743930  0.149370  0.719070  1.0  0.0973
  H  H218  1  0.872630  0.303170  0.819170  1.0  0.0686
  H  H219  1  0.787030  0.213670  0.771670  1.0  0.0902
  H  H220  1  0.786930  0.272870  0.837470  1.0  0.098
  H  H221  1  0.714630  0.163870  0.794370  1.0  0.0536
  H  H222  1  0.709030  0.200870  0.826570  1.0  0.0819
  H  H223  1  0.376200  0.836800  0.017800  1.0  0.0883
  H  H224  1  0.497200  0.795000  0.017600  1.0  0.0696
  H  H225  1  0.297100  0.582500  0.933500  1.0  0.0814
  H  H226  1  0.552100  0.867600  0.040400  1.0  0.1019
  H  H227  1  0.517300  0.927900  0.052400  1.0  0.0958
  H  H228  1  0.363500  0.902800  0.152500  1.0  0.0679
  H  H229  1  0.453000  0.906700  0.105000  1.0  0.0905
  H  H230  1  0.393800  0.847400  0.170800  1.0  0.0978
  H  H231  1  0.502800  0.884100  0.127700  1.0  0.0527
  H  H232  1  0.465800  0.841500  0.159900  1.0  0.0842
  H  H233  1  0.042870  0.170130  0.351130  1.0  0.0883
  H  H234  1  0.163870  0.128330  0.350930  1.0  0.0697
  H  H235  1  0.963770  0.915830  0.266830  1.0  0.0815
  H  H236  1  0.218770  0.200930  0.373730  1.0  0.1019
  H  H237  1  0.183970  0.261230  0.385730  1.0  0.0958
  H  H238  1  0.030170  0.236130  0.485830  1.0  0.0679
  H  H239  1  0.119670  0.240030  0.438330  1.0  0.0905
  H  H240  1  0.060470  0.180730  0.504130  1.0  0.0978
  H  H241  1  0.169470  0.217430  0.461030  1.0  0.0527
  H  H242  1  0.132470  0.174830  0.493230  1.0  0.0842
  H  H243  1  0.709530  0.503470  0.684470  1.0  0.0883
  H  H244  1  0.830530  0.461670  0.684270  1.0  0.0697
  H  H245  1  0.630430  0.249170  0.600170  1.0  0.0814
  H  H246  1  0.885430  0.534270  0.707070  1.0  0.1019
  H  H247  1  0.850630  0.594570  0.719070  1.0  0.0958
  H  H248  1  0.696830  0.569470  0.819170  1.0  0.068
  H  H249  1  0.786330  0.573370  0.771670  1.0  0.0905
  H  H250  1  0.727130  0.514070  0.837470  1.0  0.0978
  H  H251  1  0.836130  0.550770  0.794370  1.0  0.0527
  H  H252  1  0.799130  0.508170  0.826570  1.0  0.0842
  H  H253  1  0.163200  0.539400  0.017800  1.0  0.0879
  H  H254  1  0.205000  0.702200  0.017600  1.0  0.0712
  H  H255  1  0.417500  0.714600  0.933500  1.0  0.079
  H  H256  1  0.132400  0.684500  0.040400  1.0  0.1031
  H  H257  1  0.072100  0.589400  0.052400  1.0  0.0962
  H  H258  1  0.097200  0.460700  0.152500  1.0  0.0695
  H  H259  1  0.093300  0.546300  0.105000  1.0  0.0902
  H  H260  1  0.152600  0.546400  0.170800  1.0  0.0978
  H  H261  1  0.115900  0.618700  0.127700  1.0  0.0546
  H  H262  1  0.158500  0.624300  0.159900  1.0  0.0827
  H  H263  1  0.829870  0.872730  0.351130  1.0  0.0879
  H  H264  1  0.871670  0.035530  0.350930  1.0  0.0712
  H  H265  1  0.084170  0.047930  0.266830  1.0  0.0789
  H  H266  1  0.799070  0.017830  0.373730  1.0  0.1031
  H  H267  1  0.738770  0.922730  0.385730  1.0  0.0962
  H  H268  1  0.763870  0.794030  0.485830  1.0  0.0695
  H  H269  1  0.759970  0.879630  0.438330  1.0  0.0902
  H  H270  1  0.819270  0.879730  0.504130  1.0  0.0978
  H  H271  1  0.782570  0.952030  0.461030  1.0  0.0546
  H  H272  1  0.825170  0.957630  0.493230  1.0  0.0802
  H  H273  1  0.496530  0.206070  0.684470  1.0  0.0879
  H  H274  1  0.538330  0.368870  0.684270  1.0  0.0712
  H  H275  1  0.750830  0.381270  0.600170  1.0  0.079
  H  H276  1  0.465730  0.351170  0.707070  1.0  0.1031
  H  H277  1  0.405430  0.256070  0.719070  1.0  0.0962
  H  H278  1  0.430530  0.127370  0.819170  1.0  0.0696
  H  H279  1  0.426630  0.212970  0.771670  1.0  0.0902
  H  H280  1  0.485930  0.213070  0.837470  1.0  0.0978
  H  H281  1  0.449230  0.285370  0.794370  1.0  0.0546
  H  H282  1  0.491830  0.290970  0.826570  1.0  0.0827
  H  H283  1  0.623800  0.460600  0.482200  1.0  0.0879
  H  H284  1  0.502800  0.297800  0.482400  1.0  0.0704
  H  H285  1  0.702900  0.285400  0.566500  1.0  0.079
  H  H286  1  0.447900  0.315500  0.459600  1.0  0.103
  H  H287  1  0.482700  0.410600  0.447600  1.0  0.0958
  H  H288  1  0.636500  0.539300  0.347500  1.0  0.0689
  H  H289  1  0.547000  0.453700  0.395000  1.0  0.0903
  H  H290  1  0.606200  0.453600  0.329200  1.0  0.0966
  H  H291  1  0.497200  0.381300  0.372300  1.0  0.054
  H  H292  1  0.534200  0.375700  0.340100  1.0  0.0817
  H  H293  1  0.290470  0.793930  0.815530  1.0  0.0879
  H  H294  1  0.169470  0.631130  0.815730  1.0  0.0705
  H  H295  1  0.369570  0.618730  0.899830  1.0  0.079
  H  H296  1  0.114570  0.648830  0.792930  1.0  0.103
  H  H297  1  0.149370  0.743930  0.780930  1.0  0.0958
  H  H298  1  0.303170  0.872630  0.680830  1.0  0.0691
  H  H299  1  0.213670  0.787030  0.728330  1.0  0.0903
  H  H300  1  0.272870  0.786930  0.662530  1.0  0.0966
  H  H301  1  0.163870  0.714630  0.705630  1.0  0.054
  H  H302  1  0.200870  0.709030  0.673430  1.0  0.0817
  H  H303  1  0.957130  0.127270  0.148870  1.0  0.0879
  H  H304  1  0.836130  0.964470  0.149070  1.0  0.0705
  H  H305  1  0.036230  0.952070  0.233170  1.0  0.079
  H  H306  1  0.781230  0.982170  0.126270  1.0  0.103
  H  H307  1  0.816030  0.077270  0.114270  1.0  0.0958
  H  H308  1  0.969830  0.205970  0.014170  1.0  0.0689
  H  H309  1  0.880330  0.120370  0.061670  1.0  0.0903
  H  H310  1  0.939530  0.120270  0.995870  1.0  0.0966
  H  H311  1  0.830530  0.047970  0.038970  1.0  0.054
  H  H312  1  0.867530  0.042370  0.006770  1.0  0.0838
  H  H313  1  0.836800  0.376200  0.482200  1.0  0.0891
  H  H314  1  0.795000  0.497200  0.482400  1.0  0.0695
  H  H315  1  0.582500  0.297100  0.566500  1.0  0.0808
  H  H316  1  0.867600  0.552100  0.459600  1.0  0.1045
  H  H317  1  0.927900  0.517300  0.447600  1.0  0.097
  H  H318  1  0.902800  0.363500  0.347500  1.0  0.0688
  H  H319  1  0.906700  0.453000  0.395000  1.0  0.0897
  H  H320  1  0.847400  0.393800  0.329200  1.0  0.097
  H  H321  1  0.884100  0.502800  0.372300  1.0  0.0535
  H  H322  1  0.841500  0.465800  0.340100  1.0  0.0845
  H  H323  1  0.503470  0.709530  0.815530  1.0  0.0891
  H  H324  1  0.461670  0.830530  0.815730  1.0  0.0696
  H  H325  1  0.249170  0.630430  0.899830  1.0  0.0808
  H  H326  1  0.534270  0.885430  0.792930  1.0  0.1045
  H  H327  1  0.594570  0.850630  0.780930  1.0  0.097
  H  H328  1  0.569470  0.696830  0.680830  1.0  0.0689
  H  H329  1  0.573370  0.786330  0.728330  1.0  0.0897
  H  H330  1  0.514070  0.727130  0.662530  1.0  0.097
  H  H331  1  0.550770  0.836130  0.705630  1.0  0.0535
  H  H332  1  0.508170  0.799130  0.673430  1.0  0.0845
  H  H333  1  0.170130  0.042870  0.148870  1.0  0.0891
  H  H334  1  0.128330  0.163870  0.149070  1.0  0.0695
  H  H335  1  0.915830  0.963770  0.233170  1.0  0.0808
  H  H336  1  0.200930  0.218770  0.126270  1.0  0.1045
  H  H337  1  0.261230  0.183970  0.114270  1.0  0.097
  H  H338  1  0.236130  0.030170  0.014170  1.0  0.0688
  H  H339  1  0.240030  0.119670  0.061670  1.0  0.0897
  H  H340  1  0.180730  0.060470  0.995870  1.0  0.097
  H  H341  1  0.217430  0.169470  0.038970  1.0  0.0535
  H  H342  1  0.174830  0.132470  0.006770  1.0  0.0845
  H  H343  1  0.539400  0.163200  0.482200  1.0  0.0884
  H  H344  1  0.702200  0.205000  0.482400  1.0  0.0698
  H  H345  1  0.714600  0.417500  0.566500  1.0  0.0814
  H  H346  1  0.684500  0.132400  0.459600  1.0  0.1025
  H  H347  1  0.589400  0.072100  0.447600  1.0  0.0953
  H  H348  1  0.460700  0.097200  0.347500  1.0  0.0685
  H  H349  1  0.546300  0.093300  0.395000  1.0  0.0902
  H  H350  1  0.546400  0.152600  0.329200  1.0  0.097
  H  H351  1  0.618700  0.115900  0.372300  1.0  0.0516
  H  H352  1  0.624300  0.158500  0.340100  1.0  0.0848
  H  H353  1  0.206070  0.496530  0.815530  1.0  0.0884
  H  H354  1  0.368870  0.538330  0.815730  1.0  0.0699
  H  H355  1  0.381270  0.750830  0.899830  1.0  0.0814
  H  H356  1  0.351170  0.465730  0.792930  1.0  0.1025
  H  H357  1  0.256070  0.405430  0.780930  1.0  0.0953
  H  H358  1  0.127370  0.430530  0.680830  1.0  0.0686
  H  H359  1  0.212970  0.426630  0.728330  1.0  0.0902
  H  H360  1  0.213070  0.485930  0.662530  1.0  0.097
  H  H361  1  0.285370  0.449230  0.705630  1.0  0.0516
  H  H362  1  0.290970  0.491830  0.673430  1.0  0.0848
  H  H363  1  0.872730  0.829870  0.148870  1.0  0.0884
  H  H364  1  0.035530  0.871670  0.149070  1.0  0.0698
  H  H365  1  0.047930  0.084170  0.233170  1.0  0.0814
  H  H366  1  0.017830  0.799070  0.126270  1.0  0.1025
  H  H367  1  0.922730  0.738770  0.114270  1.0  0.0953
  H  H368  1  0.794030  0.763870  0.014170  1.0  0.0685
  H  H369  1  0.879630  0.759970  0.061670  1.0  0.0902
  H  H370  1  0.879730  0.819270  0.995870  1.0  0.097
  H  H371  1  0.952030  0.782570  0.038970  1.0  0.0516
  H  H372  1  0.957630  0.825170  0.006770  1.0  0.0817
  H  H373  1  0.539400  0.376200  0.982200  1.0  0.0893
  H  H374  1  0.702200  0.497200  0.982400  1.0  0.0684
  H  H375  1  0.714600  0.297100  0.066500  1.0  0.0807
  H  H376  1  0.684500  0.552100  0.959600  1.0  0.1048
  H  H377  1  0.589400  0.517300  0.947600  1.0  0.0969
  H  H378  1  0.460700  0.363500  0.847500  1.0  0.0685
  H  H379  1  0.546300  0.453000  0.895000  1.0  0.0897
  H  H380  1  0.546400  0.393800  0.829200  1.0  0.0969
  H  H381  1  0.618700  0.502800  0.872300  1.0  0.0537
  H  H382  1  0.624300  0.465800  0.840100  1.0  0.0819
  H  H383  1  0.206070  0.709530  0.315530  1.0  0.0893
  H  H384  1  0.368870  0.830530  0.315730  1.0  0.0684
  H  H385  1  0.381270  0.630430  0.399830  1.0  0.0807
  H  H386  1  0.351170  0.885430  0.292930  1.0  0.1048
  H  H387  1  0.256070  0.850630  0.280930  1.0  0.0969
  H  H388  1  0.127370  0.696830  0.180830  1.0  0.0686
  H  H389  1  0.212970  0.786330  0.228330  1.0  0.0897
  H  H390  1  0.213070  0.727130  0.162530  1.0  0.0969
  H  H391  1  0.285370  0.836130  0.205630  1.0  0.0537
  H  H392  1  0.290970  0.799130  0.173430  1.0  0.0819
  H  H393  1  0.872730  0.042870  0.648870  1.0  0.0893
  H  H394  1  0.035530  0.163870  0.649070  1.0  0.0684
  H  H395  1  0.047930  0.963770  0.733170  1.0  0.0806
  H  H396  1  0.017830  0.218770  0.626270  1.0  0.1048
  H  H397  1  0.922730  0.183970  0.614270  1.0  0.0969
  H  H398  1  0.794030  0.030170  0.514170  1.0  0.0685
  H  H399  1  0.879630  0.119670  0.561670  1.0  0.0897
  H  H400  1  0.879730  0.060470  0.495870  1.0  0.0969
  H  H401  1  0.952030  0.169470  0.538970  1.0  0.0537
  H  H402  1  0.957630  0.132470  0.506770  1.0  0.0842
  H  H403  1  0.623800  0.163200  0.982200  1.0  0.0886
  H  H404  1  0.502800  0.205000  0.982400  1.0  0.0698
  H  H405  1  0.702900  0.417500  0.066500  1.0  0.0808
  H  H406  1  0.447900  0.132400  0.959600  1.0  0.1021
  H  H407  1  0.482700  0.072100  0.947600  1.0  0.0953
  H  H408  1  0.636500  0.097200  0.847500  1.0  0.0684
  H  H409  1  0.547000  0.093300  0.895000  1.0  0.0905
  H  H410  1  0.606200  0.152600  0.829200  1.0  0.0968
  H  H411  1  0.497200  0.115900  0.872300  1.0  0.0511
  H  H412  1  0.534200  0.158500  0.840100  1.0  0.0847
  H  H413  1  0.290470  0.496530  0.315530  1.0  0.0886
  H  H414  1  0.169470  0.538330  0.315730  1.0  0.0698
  H  H415  1  0.369570  0.750830  0.399830  1.0  0.0808
  H  H416  1  0.114570  0.465730  0.292930  1.0  0.1021
  H  H417  1  0.149370  0.405430  0.280930  1.0  0.0953
  H  H418  1  0.303170  0.430530  0.180830  1.0  0.0685
  H  H419  1  0.213670  0.426630  0.228330  1.0  0.0905
  H  H420  1  0.272870  0.485930  0.162530  1.0  0.0968
  H  H421  1  0.163870  0.449230  0.205630  1.0  0.0511
  H  H422  1  0.200870  0.491830  0.173430  1.0  0.0847
  H  H423  1  0.957130  0.829870  0.648870  1.0  0.0886
  H  H424  1  0.836130  0.871670  0.649070  1.0  0.0698
  H  H425  1  0.036230  0.084170  0.733170  1.0  0.0808
  H  H426  1  0.781230  0.799070  0.626270  1.0  0.1021
  H  H427  1  0.816030  0.738770  0.614270  1.0  0.0953
  H  H428  1  0.969830  0.763870  0.514170  1.0  0.0683
  H  H429  1  0.880330  0.759970  0.561670  1.0  0.0905
  H  H430  1  0.939530  0.819270  0.495870  1.0  0.0968
  H  H431  1  0.830530  0.782570  0.538970  1.0  0.0511
  H  H432  1  0.867530  0.825170  0.506770  1.0  0.0847
  H  H433  1  0.836800  0.460600  0.982200  1.0  0.0883
  H  H434  1  0.795000  0.297800  0.982400  1.0  0.0716
  H  H435  1  0.582500  0.285400  0.066500  1.0  0.0794
  H  H436  1  0.867600  0.315500  0.959600  1.0  0.103
  H  H437  1  0.927900  0.410600  0.947600  1.0  0.096
  H  H438  1  0.902800  0.539300  0.847500  1.0  0.0689
  H  H439  1  0.906700  0.453700  0.895000  1.0  0.0903
  H  H440  1  0.847400  0.453600  0.829200  1.0  0.0967
  H  H441  1  0.884100  0.381300  0.872300  1.0  0.0527
  H  H442  1  0.841500  0.375700  0.840100  1.0  0.084
  H  H443  1  0.503470  0.793930  0.315530  1.0  0.0883
  H  H444  1  0.461670  0.631130  0.315730  1.0  0.0716
  H  H445  1  0.249170  0.618730  0.399830  1.0  0.0794
  H  H446  1  0.534270  0.648830  0.292930  1.0  0.103
  H  H447  1  0.594570  0.743930  0.280930  1.0  0.096
  H  H448  1  0.569470  0.872630  0.180830  1.0  0.0691
  H  H449  1  0.573370  0.787030  0.228330  1.0  0.0903
  H  H450  1  0.514070  0.786930  0.162530  1.0  0.0967
  H  H451  1  0.550770  0.714630  0.205630  1.0  0.0527
  H  H452  1  0.508170  0.709030  0.173430  1.0  0.084
  H  H453  1  0.170130  0.127270  0.648870  1.0  0.0883
  H  H454  1  0.128330  0.964470  0.649070  1.0  0.0716
  H  H455  1  0.915830  0.952070  0.733170  1.0  0.0794
  H  H456  1  0.200930  0.982170  0.626270  1.0  0.103
  H  H457  1  0.261230  0.077270  0.614270  1.0  0.096
  H  H458  1  0.236130  0.205970  0.514170  1.0  0.0689
  H  H459  1  0.240030  0.120370  0.561670  1.0  0.0903
  H  H460  1  0.180730  0.120270  0.495870  1.0  0.0967
  H  H461  1  0.217430  0.047970  0.538970  1.0  0.0527
  H  H462  1  0.174830  0.042370  0.506770  1.0  0.0811
  H  H463  1  0.376200  0.539400  0.517800  1.0  0.0878
  H  H464  1  0.497200  0.702200  0.517600  1.0  0.0702
  H  H465  1  0.297100  0.714600  0.433500  1.0  0.0786
  H  H466  1  0.552100  0.684500  0.540400  1.0  0.1034
  H  H467  1  0.517300  0.589400  0.552400  1.0  0.096
  H  H468  1  0.363500  0.460700  0.652500  1.0  0.0694
  H  H469  1  0.453000  0.546300  0.605000  1.0  0.0904
  H  H470  1  0.393800  0.546400  0.670800  1.0  0.098
  H  H471  1  0.502800  0.618700  0.627700  1.0  0.0538
  H  H472  1  0.465800  0.624300  0.659900  1.0  0.0809
  H  H473  1  0.042870  0.872730  0.851130  1.0  0.0878
  H  H474  1  0.163870  0.035530  0.850930  1.0  0.0703
  H  H475  1  0.963770  0.047930  0.766830  1.0  0.0785
  H  H476  1  0.218770  0.017830  0.873730  1.0  0.1034
  H  H477  1  0.183970  0.922730  0.885730  1.0  0.096
  H  H478  1  0.030170  0.794030  0.985830  1.0  0.0694
  H  H479  1  0.119670  0.879630  0.938330  1.0  0.0904
  H  H480  1  0.060470  0.879730  0.004130  1.0  0.098
  H  H481  1  0.169470  0.952030  0.961030  1.0  0.0538
  H  H482  1  0.132470  0.957630  0.993230  1.0  0.0828
  H  H483  1  0.709530  0.206070  0.184470  1.0  0.0878
  H  H484  1  0.830530  0.368870  0.184270  1.0  0.0703
  H  H485  1  0.630430  0.381270  0.100170  1.0  0.0786
  H  H486  1  0.885430  0.351170  0.207070  1.0  0.1034
  H  H487  1  0.850630  0.256070  0.219070  1.0  0.096
  H  H488  1  0.696830  0.127370  0.319170  1.0  0.0695
  H  H489  1  0.786330  0.212970  0.271670  1.0  0.0904
  H  H490  1  0.727130  0.213070  0.337470  1.0  0.098
  H  H491  1  0.836130  0.285370  0.294370  1.0  0.0538
  H  H492  1  0.799130  0.290970  0.326570  1.0  0.0809
  H  H493  1  0.163200  0.623800  0.517800  1.0  0.0887
  H  H494  1  0.205000  0.502800  0.517600  1.0  0.0697
  H  H495  1  0.417500  0.702900  0.433500  1.0  0.0798
  H  H496  1  0.132400  0.447900  0.540400  1.0  0.1037
  H  H497  1  0.072100  0.482700  0.552400  1.0  0.0972
  H  H498  1  0.097200  0.636500  0.652500  1.0  0.0682
  H  H499  1  0.093300  0.547000  0.605000  1.0  0.0904
  H  H500  1  0.152600  0.606200  0.670800  1.0  0.0978
  H  H501  1  0.115900  0.497200  0.627700  1.0  0.0533
  H  H502  1  0.158500  0.534200  0.659900  1.0  0.0832
  H  H503  1  0.829870  0.957130  0.851130  1.0  0.0887
  H  H504  1  0.871670  0.836130  0.850930  1.0  0.0698
  H  H505  1  0.084170  0.036230  0.766830  1.0  0.0798
  H  H506  1  0.799070  0.781230  0.873730  1.0  0.1037
  H  H507  1  0.738770  0.816030  0.885730  1.0  0.0972
  H  H508  1  0.763870  0.969830  0.985830  1.0  0.0682
  H  H509  1  0.759970  0.880330  0.938330  1.0  0.0904
  H  H510  1  0.819270  0.939530  0.004130  1.0  0.0978
  H  H511  1  0.782570  0.830530  0.961030  1.0  0.0533
  H  H512  1  0.825170  0.867530  0.993230  1.0  0.0832
  H  H513  1  0.496530  0.290470  0.184470  1.0  0.0887
  H  H514  1  0.538330  0.169470  0.184270  1.0  0.0698
  H  H515  1  0.750830  0.369570  0.100170  1.0  0.0798
  H  H516  1  0.465730  0.114570  0.207070  1.0  0.1037
  H  H517  1  0.405430  0.149370  0.219070  1.0  0.0972
  H  H518  1  0.430530  0.303170  0.319170  1.0  0.0683
  H  H519  1  0.426630  0.213670  0.271670  1.0  0.0904
  H  H520  1  0.485930  0.272870  0.337470  1.0  0.0978
  H  H521  1  0.449230  0.163870  0.294370  1.0  0.0533
  H  H522  1  0.491830  0.200870  0.326570  1.0  0.0832
  H  H523  1  0.460600  0.836800  0.517800  1.0  0.0884
  H  H524  1  0.297800  0.795000  0.517600  1.0  0.0692
  H  H525  1  0.285400  0.582500  0.433500  1.0  0.0813
  H  H526  1  0.315500  0.867600  0.540400  1.0  0.1018
  H  H527  1  0.410600  0.927900  0.552400  1.0  0.0967
  H  H528  1  0.539300  0.902800  0.652500  1.0  0.0682
  H  H529  1  0.453700  0.906700  0.605000  1.0  0.0904
  H  H530  1  0.453600  0.847400  0.670800  1.0  0.0977
  H  H531  1  0.381300  0.884100  0.627700  1.0  0.0516
  H  H532  1  0.375700  0.841500  0.659900  1.0  0.0846
  H  H533  1  0.127270  0.170130  0.851130  1.0  0.0884
  H  H534  1  0.964470  0.128330  0.850930  1.0  0.0692
  H  H535  1  0.952070  0.915830  0.766830  1.0  0.0813
  H  H536  1  0.982170  0.200930  0.873730  1.0  0.1018
  H  H537  1  0.077270  0.261230  0.885730  1.0  0.0967
  H  H538  1  0.205970  0.236130  0.985830  1.0  0.0683
  H  H539  1  0.120370  0.240030  0.938330  1.0  0.0904
  H  H540  1  0.120270  0.180730  0.004130  1.0  0.0977
  H  H541  1  0.047970  0.217430  0.961030  1.0  0.0516
  H  H542  1  0.042370  0.174830  0.993230  1.0  0.0819
  H  H543  1  0.793930  0.503470  0.184470  1.0  0.0884
  H  H544  1  0.631130  0.461670  0.184270  1.0  0.0692
  H  H545  1  0.618730  0.249170  0.100170  1.0  0.0813
  H  H546  1  0.648830  0.534270  0.207070  1.0  0.1018
  H  H547  1  0.743930  0.594570  0.219070  1.0  0.0967
  H  H548  1  0.872630  0.569470  0.319170  1.0  0.0684
  H  H549  1  0.787030  0.573370  0.271670  1.0  0.0904
  H  H550  1  0.786930  0.514070  0.337470  1.0  0.0977
  H  H551  1  0.714630  0.550770  0.294370  1.0  0.0516
  H  H552  1  0.709030  0.508170  0.326570  1.0  0.0846
  C  C553  1  0.430600  0.587500  0.022600  1.0  0.1463
  C  C554  1  0.336000  0.517400  0.022510  1.0  0.1294
  C  C555  1  0.283700  0.668100  0.928780  1.0  0.0841
  C  C556  1  0.444000  0.557100  0.035780  1.0  -0.13
  C  C557  1  0.346200  0.484300  0.035940  1.0  -0.1924
  C  C558  1  0.401900  0.504400  0.042980  1.0  -0.0596
  C  C559  1  0.505500  0.581200  0.043110  1.0  0.6776
  C  C560  1  0.637000  0.554200  0.031060  1.0  0.0845
  C  C561  1  0.641200  0.786900  0.030630  1.0  0.136
  C  C562  1  0.693700  0.570900  0.029700  1.0  -0.0145
  C  C563  1  0.583100  0.509000  0.021500  1.0  -0.0368
  C  C564  1  0.694700  0.832600  0.031200  1.0  -0.038
  C  C565  1  0.591400  0.772900  0.017300  1.0  -0.0485
  C  C566  1  0.503400  0.604200  0.126410  1.0  0.0707
  C  C567  1  0.503300  0.613600  0.145800  1.0  -0.1435
  C  C568  1  0.452900  0.561500  0.118200  1.0  -0.1146
  C  C569  1  0.452300  0.591400  0.157400  1.0  -0.1289
  C  C570  1  0.400100  0.538600  0.128600  1.0  -0.0675
  C  C571  1  0.407500  0.554300  0.150800  1.0  -0.105
  C  C572  1  0.097270  0.920830  0.355930  1.0  0.1463
  C  C573  1  0.002670  0.850730  0.355840  1.0  0.1294
  C  C574  1  0.950370  0.001430  0.262110  1.0  0.0841
  C  C575  1  0.110670  0.890430  0.369110  1.0  -0.13
  C  C576  1  0.012870  0.817630  0.369270  1.0  -0.1924
  C  C577  1  0.068570  0.837730  0.376310  1.0  -0.0596
  C  C578  1  0.172170  0.914530  0.376440  1.0  0.6776
  C  C579  1  0.303670  0.887530  0.364390  1.0  0.0845
  C  C580  1  0.307870  0.120230  0.363960  1.0  0.1356
  C  C581  1  0.360370  0.904230  0.363030  1.0  -0.0145
  C  C582  1  0.249770  0.842330  0.354830  1.0  -0.0368
  C  C583  1  0.361370  0.165930  0.364530  1.0  -0.0379
  C  C584  1  0.258070  0.106230  0.350630  1.0  -0.0485
  C  C585  1  0.170070  0.937530  0.459740  1.0  0.0707
  C  C586  1  0.169970  0.946930  0.479130  1.0  -0.1445
  C  C587  1  0.119570  0.894830  0.451530  1.0  -0.1146
  C  C588  1  0.118970  0.924730  0.490730  1.0  -0.1291
  C  C589  1  0.066770  0.871930  0.461930  1.0  -0.0676
  C  C590  1  0.074170  0.887630  0.484130  1.0  -0.105
  C  C591  1  0.763930  0.254170  0.689270  1.0  0.1463
  C  C592  1  0.669330  0.184070  0.689180  1.0  0.1294
  C  C593  1  0.617030  0.334770  0.595450  1.0  0.0842
  C  C594  1  0.777330  0.223770  0.702450  1.0  -0.13
  C  C595  1  0.679530  0.150970  0.702610  1.0  -0.1924
  C  C596  1  0.735230  0.171070  0.709650  1.0  -0.0596
  C  C597  1  0.838830  0.247870  0.709780  1.0  0.6776
  C  C598  1  0.970330  0.220870  0.697730  1.0  0.0844
  C  C599  1  0.974530  0.453570  0.697300  1.0  0.136
  C  C600  1  0.027030  0.237570  0.696370  1.0  -0.0145
  C  C601  1  0.916430  0.175670  0.688170  1.0  -0.0368
  C  C602  1  0.028030  0.499270  0.697870  1.0  -0.038
  C  C603  1  0.924730  0.439570  0.683970  1.0  -0.0485
  C  C604  1  0.836730  0.270870  0.793080  1.0  0.0707
  C  C605  1  0.836630  0.280270  0.812470  1.0  -0.1425
  C  C606  1  0.786230  0.228170  0.784870  1.0  -0.1145
  C  C607  1  0.785630  0.258070  0.824070  1.0  -0.1289
  C  C608  1  0.733430  0.205270  0.795270  1.0  -0.0675
  C  C609  1  0.740830  0.220970  0.817470  1.0  -0.1051
  C  C610  1  0.412500  0.843100  0.022600  1.0  0.1476
  C  C611  1  0.482600  0.818600  0.022510  1.0  0.1292
  C  C612  1  0.331900  0.615600  0.928780  1.0  0.0855
  C  C613  1  0.442900  0.886900  0.035780  1.0  -0.1322
  C  C614  1  0.515700  0.861900  0.035940  1.0  -0.1887
  C  C615  1  0.495600  0.897500  0.042980  1.0  -0.0591
  C  C616  1  0.418800  0.924300  0.043110  1.0  0.677
  C  C617  1  0.445800  0.082800  0.031060  1.0  0.0834
  C  C618  1  0.213100  0.854300  0.030630  1.0  0.1377
  C  C619  1  0.429100  0.122800  0.029700  1.0  -0.0124
  C  C620  1  0.491000  0.074100  0.021500  1.0  -0.0332
  C  C621  1  0.167400  0.862100  0.031200  1.0  -0.0376
  C  C622  1  0.227100  0.818500  0.017300  1.0  -0.0499
  C  C623  1  0.395800  0.899200  0.126410  1.0  0.0701
  C  C624  1  0.386400  0.889700  0.145800  1.0  -0.146
  C  C625  1  0.438500  0.891400  0.118200  1.0  -0.1143
  C  C626  1  0.408600  0.860900  0.157400  1.0  -0.1273
  C  C627  1  0.461400  0.861500  0.128600  1.0  -0.0712
  C  C628  1  0.445700  0.853200  0.150800  1.0  -0.1028
  C  C629  1  0.079170  0.176430  0.355930  1.0  0.1476
  C  C630  1  0.149270  0.151930  0.355840  1.0  0.1292
  C  C631  1  0.998570  0.948930  0.262110  1.0  0.0855
  C  C632  1  0.109570  0.220230  0.369110  1.0  -0.1322
  C  C633  1  0.182370  0.195230  0.369270  1.0  -0.1887
  C  C634  1  0.162270  0.230830  0.376310  1.0  -0.0591
  C  C635  1  0.085470  0.257630  0.376440  1.0  0.677
  C  C636  1  0.112470  0.416130  0.364390  1.0  0.0834
  C  C637  1  0.879770  0.187630  0.363960  1.0  0.1373
  C  C638  1  0.095770  0.456130  0.363030  1.0  -0.0125
  C  C639  1  0.157670  0.407430  0.354830  1.0  -0.0332
  C  C640  1  0.834070  0.195430  0.364530  1.0  -0.0375
  C  C641  1  0.893770  0.151830  0.350630  1.0  -0.0502
  C  C642  1  0.062470  0.232530  0.459740  1.0  0.0701
  C  C643  1  0.053070  0.223030  0.479130  1.0  -0.147
  C  C644  1  0.105170  0.224730  0.451530  1.0  -0.1143
  C  C645  1  0.075270  0.194230  0.490730  1.0  -0.1276
  C  C646  1  0.128070  0.194830  0.461930  1.0  -0.0712
  C  C647  1  0.112370  0.186530  0.484130  1.0  -0.1028
  C  C648  1  0.745830  0.509770  0.689270  1.0  0.1476
  C  C649  1  0.815930  0.485270  0.689180  1.0  0.1292
  C  C650  1  0.665230  0.282270  0.595450  1.0  0.0855
  C  C651  1  0.776230  0.553570  0.702450  1.0  -0.1322
  C  C652  1  0.849030  0.528570  0.702610  1.0  -0.1887
  C  C653  1  0.828930  0.564170  0.709650  1.0  -0.0591
  C  C654  1  0.752130  0.590970  0.709780  1.0  0.677
  C  C655  1  0.779130  0.749470  0.697730  1.0  0.0832
  C  C656  1  0.546430  0.520970  0.697300  1.0  0.1377
  C  C657  1  0.762430  0.789470  0.696370  1.0  -0.0125
  C  C658  1  0.824330  0.740770  0.688170  1.0  -0.0332
  C  C659  1  0.500730  0.528770  0.697870  1.0  -0.0376
  C  C660  1  0.560430  0.485170  0.683970  1.0  -0.0499
  C  C661  1  0.729130  0.565870  0.793080  1.0  0.0701
  C  C662  1  0.719730  0.556370  0.812470  1.0  -0.1458
  C  C663  1  0.771830  0.558070  0.784870  1.0  -0.1143
  C  C664  1  0.741930  0.527570  0.824070  1.0  -0.1273
  C  C665  1  0.794730  0.528170  0.795270  1.0  -0.0712
  C  C666  1  0.779030  0.519870  0.817470  1.0  -0.103
  C  C667  1  0.156900  0.569400  0.022600  1.0  0.146
  C  C668  1  0.181400  0.664000  0.022510  1.0  0.1283
  C  C669  1  0.384400  0.716300  0.928780  1.0  0.0841
  C  C670  1  0.113100  0.556000  0.035780  1.0  -0.1303
  C  C671  1  0.138100  0.653800  0.035940  1.0  -0.1912
  C  C672  1  0.102500  0.598100  0.042980  1.0  -0.0597
  C  C673  1  0.075700  0.494500  0.043110  1.0  0.6801
  C  C674  1  0.917200  0.363000  0.031060  1.0  0.0845
  C  C675  1  0.145700  0.358800  0.030630  1.0  0.1386
  C  C676  1  0.877200  0.306300  0.029700  1.0  -0.011
  C  C677  1  0.925900  0.416900  0.021500  1.0  -0.0334
  C  C678  1  0.137900  0.305300  0.031200  1.0  -0.0383
  C  C679  1  0.181500  0.408600  0.017300  1.0  -0.0488
  C  C680  1  0.100800  0.496600  0.126410  1.0  0.071
  C  C681  1  0.110300  0.496700  0.145800  1.0  -0.1464
  C  C682  1  0.108600  0.547100  0.118200  1.0  -0.1141
  C  C683  1  0.139100  0.547700  0.157400  1.0  -0.1293
  C  C684  1  0.138500  0.599900  0.128600  1.0  -0.0688
  C  C685  1  0.146800  0.592500  0.150800  1.0  -0.1041
  C  C686  1  0.823570  0.902730  0.355930  1.0  0.146
  C  C687  1  0.848070  0.997330  0.355840  1.0  0.1283
  C  C688  1  0.051070  0.049630  0.262110  1.0  0.0842
  C  C689  1  0.779770  0.889330  0.369110  1.0  -0.1303
  C  C690  1  0.804770  0.987130  0.369270  1.0  -0.1912
  C  C691  1  0.769170  0.931430  0.376310  1.0  -0.0597
  C  C692  1  0.742370  0.827830  0.376440  1.0  0.6801
  C  C693  1  0.583870  0.696330  0.364390  1.0  0.0845
  C  C694  1  0.812370  0.692130  0.363960  1.0  0.1384
  C  C695  1  0.543870  0.639630  0.363030  1.0  -0.0111
  C  C696  1  0.592570  0.750230  0.354830  1.0  -0.0333
  C  C697  1  0.804570  0.638630  0.364530  1.0  -0.0383
  C  C698  1  0.848170  0.741930  0.350630  1.0  -0.0487
  C  C699  1  0.767470  0.829930  0.459740  1.0  0.071
  C  C700  1  0.776970  0.830030  0.479130  1.0  -0.1467
  C  C701  1  0.775270  0.880430  0.451530  1.0  -0.1141
  C  C702  1  0.805770  0.881030  0.490730  1.0  -0.1293
  C  C703  1  0.805170  0.933230  0.461930  1.0  -0.0688
  C  C704  1  0.813470  0.925830  0.484130  1.0  -0.1041
  C  C705  1  0.490230  0.236070  0.689270  1.0  0.146
  C  C706  1  0.514730  0.330670  0.689180  1.0  0.1283
  C  C707  1  0.717730  0.382970  0.595450  1.0  0.0841
  C  C708  1  0.446430  0.222670  0.702450  1.0  -0.1303
  C  C709  1  0.471430  0.320470  0.702610  1.0  -0.1912
  C  C710  1  0.435830  0.264770  0.709650  1.0  -0.0597
  C  C711  1  0.409030  0.161170  0.709780  1.0  0.6801
  C  C712  1  0.250530  0.029670  0.697730  1.0  0.0842
  C  C713  1  0.479030  0.025470  0.697300  1.0  0.1386
  C  C714  1  0.210530  0.972970  0.696370  1.0  -0.0111
  C  C715  1  0.259230  0.083570  0.688170  1.0  -0.0333
  C  C716  1  0.471230  0.971970  0.697870  1.0  -0.0383
  C  C717  1  0.514830  0.075270  0.683970  1.0  -0.0488
  C  C718  1  0.434130  0.163270  0.793080  1.0  0.071
  C  C719  1  0.443630  0.163370  0.812470  1.0  -0.145
  C  C720  1  0.441930  0.213770  0.784870  1.0  -0.1141
  C  C721  1  0.472430  0.214370  0.824070  1.0  -0.129
  C  C722  1  0.471830  0.266570  0.795270  1.0  -0.0688
  C  C723  1  0.480130  0.259170  0.817470  1.0  -0.1042
  C  C724  1  0.587500  0.430600  0.477400  1.0  0.1453
  C  C725  1  0.517400  0.336000  0.477490  1.0  0.1286
  C  C726  1  0.668100  0.283700  0.571220  1.0  0.0881
  C  C727  1  0.557100  0.444000  0.464220  1.0  -0.1319
  C  C728  1  0.484300  0.346200  0.464060  1.0  -0.1909
  C  C729  1  0.504400  0.401900  0.457020  1.0  -0.0602
  C  C730  1  0.581200  0.505500  0.456890  1.0  0.6798
  C  C731  1  0.554200  0.637000  0.468940  1.0  0.0849
  C  C732  1  0.786900  0.641200  0.469370  1.0  0.1374
  C  C733  1  0.570900  0.693700  0.470300  1.0  -0.0127
  C  C734  1  0.509000  0.583100  0.478500  1.0  -0.0352
  C  C735  1  0.832600  0.694700  0.468800  1.0  -0.0365
  C  C736  1  0.772900  0.591400  0.482700  1.0  -0.0509
  C  C737  1  0.604200  0.503400  0.373590  1.0  0.0691
  C  C738  1  0.613600  0.503300  0.354200  1.0  -0.1445
  C  C739  1  0.561500  0.452900  0.381800  1.0  -0.1136
  C  C740  1  0.591400  0.452300  0.342600  1.0  -0.1312
  C  C741  1  0.538600  0.400100  0.371400  1.0  -0.0677
  C  C742  1  0.554300  0.407500  0.349200  1.0  -0.1046
  C  C743  1  0.254170  0.763930  0.810730  1.0  0.1453
  C  C744  1  0.184070  0.669330  0.810820  1.0  0.1286
  C  C745  1  0.334770  0.617030  0.904550  1.0  0.0883
  C  C746  1  0.223770  0.777330  0.797550  1.0  -0.1319
  C  C747  1  0.150970  0.679530  0.797390  1.0  -0.1909
  C  C748  1  0.171070  0.735230  0.790350  1.0  -0.0602
  C  C749  1  0.247870  0.838830  0.790220  1.0  0.6798
  C  C750  1  0.220870  0.970330  0.802270  1.0  0.0849
  C  C751  1  0.453570  0.974530  0.802700  1.0  0.1374
  C  C752  1  0.237570  0.027030  0.803630  1.0  -0.0127
  C  C753  1  0.175670  0.916430  0.811830  1.0  -0.0352
  C  C754  1  0.499270  0.028030  0.802130  1.0  -0.0365
  C  C755  1  0.439570  0.924730  0.816030  1.0  -0.0509
  C  C756  1  0.270870  0.836730  0.706920  1.0  0.0691
  C  C757  1  0.280270  0.836630  0.687530  1.0  -0.1434
  C  C758  1  0.228170  0.786230  0.715130  1.0  -0.1136
  C  C759  1  0.258070  0.785630  0.675930  1.0  -0.1312
  C  C760  1  0.205270  0.733430  0.704730  1.0  -0.0677
  C  C761  1  0.220970  0.740830  0.682530  1.0  -0.1047
  C  C762  1  0.920830  0.097270  0.144070  1.0  0.1453
  C  C763  1  0.850730  0.002670  0.144160  1.0  0.1286
  C  C764  1  0.001430  0.950370  0.237890  1.0  0.088
  C  C765  1  0.890430  0.110670  0.130890  1.0  -0.1319
  C  C766  1  0.817630  0.012870  0.130730  1.0  -0.1909
  C  C767  1  0.837730  0.068570  0.123690  1.0  -0.0602
  C  C768  1  0.914530  0.172170  0.123560  1.0  0.6798
  C  C769  1  0.887530  0.303670  0.135610  1.0  0.0849
  C  C770  1  0.120230  0.307870  0.136040  1.0  0.1371
  C  C771  1  0.904230  0.360370  0.136970  1.0  -0.0127
  C  C772  1  0.842330  0.249770  0.145170  1.0  -0.0352
  C  C773  1  0.165930  0.361370  0.135470  1.0  -0.0364
  C  C774  1  0.106230  0.258070  0.149370  1.0  -0.0509
  C  C775  1  0.937530  0.170070  0.040260  1.0  0.0691
  C  C776  1  0.946930  0.169970  0.020870  1.0  -0.1455
  C  C777  1  0.894830  0.119570  0.048470  1.0  -0.1136
  C  C778  1  0.924730  0.118970  0.009270  1.0  -0.1314
  C  C779  1  0.871930  0.066770  0.038070  1.0  -0.0677
  C  C780  1  0.887630  0.074170  0.015870  1.0  -0.1046
  C  C781  1  0.843100  0.412500  0.477400  1.0  0.1452
  C  C782  1  0.818600  0.482600  0.477490  1.0  0.1288
  C  C783  1  0.615600  0.331900  0.571220  1.0  0.081
  C  C784  1  0.886900  0.442900  0.464220  1.0  -0.1302
  C  C785  1  0.861900  0.515700  0.464060  1.0  -0.1906
  C  C786  1  0.897500  0.495600  0.457020  1.0  -0.06
  C  C787  1  0.924300  0.418800  0.456890  1.0  0.6765
  C  C788  1  0.082800  0.445800  0.468940  1.0  0.0853
  C  C789  1  0.854300  0.213100  0.469370  1.0  0.1351
  C  C790  1  0.122800  0.429100  0.470300  1.0  -0.0148
  C  C791  1  0.074100  0.491000  0.478500  1.0  -0.0344
  C  C792  1  0.862100  0.167400  0.468800  1.0  -0.0357
  C  C793  1  0.818500  0.227100  0.482700  1.0  -0.0499
  C  C794  1  0.899200  0.395800  0.373590  1.0  0.0698
  C  C795  1  0.889700  0.386400  0.354200  1.0  -0.1431
  C  C796  1  0.891400  0.438500  0.381800  1.0  -0.1133
  C  C797  1  0.860900  0.408600  0.342600  1.0  -0.1301
  C  C798  1  0.861500  0.461400  0.371400  1.0  -0.0688
  C  C799  1  0.853200  0.445700  0.349200  1.0  -0.1055
  C  C800  1  0.509770  0.745830  0.810730  1.0  0.1452
  C  C801  1  0.485270  0.815930  0.810820  1.0  0.1288
  C  C802  1  0.282270  0.665230  0.904550  1.0  0.0811
  C  C803  1  0.553570  0.776230  0.797550  1.0  -0.1302
  C  C804  1  0.528570  0.849030  0.797390  1.0  -0.1906
  C  C805  1  0.564170  0.828930  0.790350  1.0  -0.06
  C  C806  1  0.590970  0.752130  0.790220  1.0  0.6765
  C  C807  1  0.749470  0.779130  0.802270  1.0  0.085
  C  C808  1  0.520970  0.546430  0.802700  1.0  0.1351
  C  C809  1  0.789470  0.762430  0.803630  1.0  -0.0148
  C  C810  1  0.740770  0.824330  0.811830  1.0  -0.0344
  C  C811  1  0.528770  0.500730  0.802130  1.0  -0.0357
  C  C812  1  0.485170  0.560430  0.816030  1.0  -0.0499
  C  C813  1  0.565870  0.729130  0.706920  1.0  0.0698
  C  C814  1  0.556370  0.719730  0.687530  1.0  -0.1429
  C  C815  1  0.558070  0.771830  0.715130  1.0  -0.1133
  C  C816  1  0.527570  0.741930  0.675930  1.0  -0.1301
  C  C817  1  0.528170  0.794730  0.704730  1.0  -0.0688
  C  C818  1  0.519870  0.779030  0.682530  1.0  -0.1056
  C  C819  1  0.176430  0.079170  0.144070  1.0  0.1452
  C  C820  1  0.151930  0.149270  0.144160  1.0  0.1288
  C  C821  1  0.948930  0.998570  0.237890  1.0  0.081
  C  C822  1  0.220230  0.109570  0.130890  1.0  -0.1302
  C  C823  1  0.195230  0.182370  0.130730  1.0  -0.1906
  C  C824  1  0.230830  0.162270  0.123690  1.0  -0.06
  C  C825  1  0.257630  0.085470  0.123560  1.0  0.6765
  C  C826  1  0.416130  0.112470  0.135610  1.0  0.0853
  C  C827  1  0.187630  0.879770  0.136040  1.0  0.1346
  C  C828  1  0.456130  0.095770  0.136970  1.0  -0.0148
  C  C829  1  0.407430  0.157670  0.145170  1.0  -0.0345
  C  C830  1  0.195430  0.834070  0.135470  1.0  -0.0355
  C  C831  1  0.151830  0.893770  0.149370  1.0  -0.0502
  C  C832  1  0.232530  0.062470  0.040260  1.0  0.0698
  C  C833  1  0.223030  0.053070  0.020870  1.0  -0.1441
  C  C834  1  0.224730  0.105170  0.048470  1.0  -0.1133
  C  C835  1  0.194230  0.075270  0.009270  1.0  -0.1303
  C  C836  1  0.194830  0.128070  0.038070  1.0  -0.0688
  C  C837  1  0.186530  0.112370  0.015870  1.0  -0.1055
  C  C838  1  0.569400  0.156900  0.477400  1.0  0.147
  C  C839  1  0.664000  0.181400  0.477490  1.0  0.1287
  C  C840  1  0.716300  0.384400  0.571220  1.0  0.087
  C  C841  1  0.556000  0.113100  0.464220  1.0  -0.1325
  C  C842  1  0.653800  0.138100  0.464060  1.0  -0.1892
  C  C843  1  0.598100  0.102500  0.457020  1.0  -0.0607
  C  C844  1  0.494500  0.075700  0.456890  1.0  0.6771
  C  C845  1  0.363000  0.917200  0.468940  1.0  0.0842
  C  C846  1  0.358800  0.145700  0.469370  1.0  0.1367
  C  C847  1  0.306300  0.877200  0.470300  1.0  -0.0137
  C  C848  1  0.416900  0.925900  0.478500  1.0  -0.0338
  C  C849  1  0.305300  0.137900  0.468800  1.0  -0.0376
  C  C850  1  0.408600  0.181500  0.482700  1.0  -0.051
  C  C851  1  0.496600  0.100800  0.373590  1.0  0.0694
  C  C852  1  0.496700  0.110300  0.354200  1.0  -0.1454
  C  C853  1  0.547100  0.108600  0.381800  1.0  -0.1122
  C  C854  1  0.547700  0.139100  0.342600  1.0  -0.1284
  C  C855  1  0.599900  0.138500  0.371400  1.0  -0.0725
  C  C856  1  0.592500  0.146800  0.349200  1.0  -0.1032
  C  C857  1  0.236070  0.490230  0.810730  1.0  0.147
  C  C858  1  0.330670  0.514730  0.810820  1.0  0.1287
  C  C859  1  0.382970  0.717730  0.904550  1.0  0.087
  C  C860  1  0.222670  0.446430  0.797550  1.0  -0.1325
  C  C861  1  0.320470  0.471430  0.797390  1.0  -0.1892
  C  C862  1  0.264770  0.435830  0.790350  1.0  -0.0607
  C  C863  1  0.161170  0.409030  0.790220  1.0  0.6771
  C  C864  1  0.029670  0.250530  0.802270  1.0  0.0839
  C  C865  1  0.025470  0.479030  0.802700  1.0  0.1367
  C  C866  1  0.972970  0.210530  0.803630  1.0  -0.0137
  C  C867  1  0.083570  0.259230  0.811830  1.0  -0.0338
  C  C868  1  0.971970  0.471230  0.802130  1.0  -0.0376
  C  C869  1  0.075270  0.514830  0.816030  1.0  -0.0509
  C  C870  1  0.163270  0.434130  0.706920  1.0  0.0693
  C  C871  1  0.163370  0.443630  0.687530  1.0  -0.1441
  C  C872  1  0.213770  0.441930  0.715130  1.0  -0.1122
  C  C873  1  0.214370  0.472430  0.675930  1.0  -0.1282
  C  C874  1  0.266570  0.471830  0.704730  1.0  -0.0725
  C  C875  1  0.259170  0.480130  0.682530  1.0  -0.1034
  C  C876  1  0.902730  0.823570  0.144070  1.0  0.147
  C  C877  1  0.997330  0.848070  0.144160  1.0  0.1287
  C  C878  1  0.049630  0.051070  0.237890  1.0  0.0871
  C  C879  1  0.889330  0.779770  0.130890  1.0  -0.1325
  C  C880  1  0.987130  0.804770  0.130730  1.0  -0.1892
  C  C881  1  0.931430  0.769170  0.123690  1.0  -0.0607
  C  C882  1  0.827830  0.742370  0.123560  1.0  0.6771
  C  C883  1  0.696330  0.583870  0.135610  1.0  0.0842
  C  C884  1  0.692130  0.812370  0.136040  1.0  0.1364
  C  C885  1  0.639630  0.543870  0.136970  1.0  -0.0137
  C  C886  1  0.750230  0.592570  0.145170  1.0  -0.0338
  C  C887  1  0.638630  0.804570  0.135470  1.0  -0.0376
  C  C888  1  0.741930  0.848170  0.149370  1.0  -0.0509
  C  C889  1  0.829930  0.767470  0.040260  1.0  0.0693
  C  C890  1  0.830030  0.776970  0.020870  1.0  -0.1458
  C  C891  1  0.880430  0.775270  0.048470  1.0  -0.1122
  C  C892  1  0.881030  0.805770  0.009270  1.0  -0.1284
  C  C893  1  0.933230  0.805170  0.038070  1.0  -0.0725
  C  C894  1  0.925830  0.813470  0.015870  1.0  -0.1032
  C  C895  1  0.569400  0.412500  0.977400  1.0  0.1459
  C  C896  1  0.664000  0.482600  0.977490  1.0  0.128
  C  C897  1  0.716300  0.331900  0.071220  1.0  0.084
  C  C898  1  0.556000  0.442900  0.964220  1.0  -0.1306
  C  C899  1  0.653800  0.515700  0.964060  1.0  -0.1899
  C  C900  1  0.598100  0.495600  0.957020  1.0  -0.0604
  C  C901  1  0.494500  0.418800  0.956890  1.0  0.6763
  C  C902  1  0.363000  0.445800  0.968940  1.0  0.0849
  C  C903  1  0.358800  0.213100  0.969370  1.0  0.1361
  C  C904  1  0.306300  0.429100  0.970300  1.0  -0.014
  C  C905  1  0.416900  0.491000  0.978500  1.0  -0.0337
  C  C906  1  0.305300  0.167400  0.968800  1.0  -0.0383
  C  C907  1  0.408600  0.227100  0.982700  1.0  -0.0495
  C  C908  1  0.496600  0.395800  0.873590  1.0  0.0683
  C  C909  1  0.496700  0.386400  0.854200  1.0  -0.1447
  C  C910  1  0.547100  0.438500  0.881800  1.0  -0.1128
  C  C911  1  0.547700  0.408600  0.842600  1.0  -0.1308
  C  C912  1  0.599900  0.461400  0.871400  1.0  -0.0683
  C  C913  1  0.592500  0.445700  0.849200  1.0  -0.1034
  C  C914  1  0.236070  0.745830  0.310730  1.0  0.1459
  C  C915  1  0.330670  0.815930  0.310820  1.0  0.128
  C  C916  1  0.382970  0.665230  0.404550  1.0  0.0842
  C  C917  1  0.222670  0.776230  0.297550  1.0  -0.1306
  C  C918  1  0.320470  0.849030  0.297390  1.0  -0.1899
  C  C919  1  0.264770  0.828930  0.290350  1.0  -0.0604
  C  C920  1  0.161170  0.752130  0.290220  1.0  0.6763
  C  C921  1  0.029670  0.779130  0.302270  1.0  0.0849
  C  C922  1  0.025470  0.546430  0.302700  1.0  0.1362
  C  C923  1  0.972970  0.762430  0.303630  1.0  -0.014
  C  C924  1  0.083570  0.824330  0.311830  1.0  -0.0336
  C  C925  1  0.971970  0.500730  0.302130  1.0  -0.0383
  C  C926  1  0.075270  0.560430  0.316030  1.0  -0.0495
  C  C927  1  0.163270  0.729130  0.206920  1.0  0.0683
  C  C928  1  0.163370  0.719730  0.187530  1.0  -0.1437
  C  C929  1  0.213770  0.771830  0.215130  1.0  -0.1128
  C  C930  1  0.214370  0.741930  0.175930  1.0  -0.1308
  C  C931  1  0.266570  0.794730  0.204730  1.0  -0.0683
  C  C932  1  0.259170  0.779030  0.182530  1.0  -0.1035
  C  C933  1  0.902730  0.079170  0.644070  1.0  0.1459
  C  C934  1  0.997330  0.149270  0.644160  1.0  0.128
  C  C935  1  0.049630  0.998570  0.737890  1.0  0.084
  C  C936  1  0.889330  0.109570  0.630890  1.0  -0.1306
  C  C937  1  0.987130  0.182370  0.630730  1.0  -0.1899
  C  C938  1  0.931430  0.162270  0.623690  1.0  -0.0604
  C  C939  1  0.827830  0.085470  0.623560  1.0  0.6763
  C  C940  1  0.696330  0.112470  0.635610  1.0  0.0849
  C  C941  1  0.692130  0.879770  0.636040  1.0  0.1359
  C  C942  1  0.639630  0.095770  0.636970  1.0  -0.014
  C  C943  1  0.750230  0.157670  0.645170  1.0  -0.0337
  C  C944  1  0.638630  0.834070  0.635470  1.0  -0.0382
  C  C945  1  0.741930  0.893770  0.649370  1.0  -0.0495
  C  C946  1  0.829930  0.062470  0.540260  1.0  0.0683
  C  C947  1  0.830030  0.053070  0.520870  1.0  -0.1456
  C  C948  1  0.880430  0.105170  0.548470  1.0  -0.1128
  C  C949  1  0.881030  0.075270  0.509270  1.0  -0.131
  C  C950  1  0.933230  0.128070  0.538070  1.0  -0.0683
  C  C951  1  0.925830  0.112370  0.515870  1.0  -0.1034
  C  C952  1  0.587500  0.156900  0.977400  1.0  0.1458
  C  C953  1  0.517400  0.181400  0.977490  1.0  0.1295
  C  C954  1  0.668100  0.384400  0.071220  1.0  0.0866
  C  C955  1  0.557100  0.113100  0.964220  1.0  -0.131
  C  C956  1  0.484300  0.138100  0.964060  1.0  -0.1884
  C  C957  1  0.504400  0.102500  0.957020  1.0  -0.0603
  C  C958  1  0.581200  0.075700  0.956890  1.0  0.6774
  C  C959  1  0.554200  0.917200  0.968940  1.0  0.0839
  C  C960  1  0.786900  0.145700  0.969370  1.0  0.1365
  C  C961  1  0.570900  0.877200  0.970300  1.0  -0.0136
  C  C962  1  0.509000  0.925900  0.978500  1.0  -0.0329
  C  C963  1  0.832600  0.137900  0.968800  1.0  -0.0393
  C  C964  1  0.772900  0.181500  0.982700  1.0  -0.0503
  C  C965  1  0.604200  0.100800  0.873590  1.0  0.0716
  C  C966  1  0.613600  0.110300  0.854200  1.0  -0.1421
  C  C967  1  0.561500  0.108600  0.881800  1.0  -0.1128
  C  C968  1  0.591400  0.139100  0.842600  1.0  -0.1277
  C  C969  1  0.538600  0.138500  0.871400  1.0  -0.0754
  C  C970  1  0.554300  0.146800  0.849200  1.0  -0.1061
  C  C971  1  0.254170  0.490230  0.310730  1.0  0.1458
  C  C972  1  0.184070  0.514730  0.310820  1.0  0.1295
  C  C973  1  0.334770  0.717730  0.404550  1.0  0.0867
  C  C974  1  0.223770  0.446430  0.297550  1.0  -0.131
  C  C975  1  0.150970  0.471430  0.297390  1.0  -0.1884
  C  C976  1  0.171070  0.435830  0.290350  1.0  -0.0602
  C  C977  1  0.247870  0.409030  0.290220  1.0  0.6774
  C  C978  1  0.220870  0.250530  0.302270  1.0  0.0836
  C  C979  1  0.453570  0.479030  0.302700  1.0  0.1365
  C  C980  1  0.237570  0.210530  0.303630  1.0  -0.0136
  C  C981  1  0.175670  0.259230  0.311830  1.0  -0.0329
  C  C982  1  0.499270  0.471230  0.302130  1.0  -0.0393
  C  C983  1  0.439570  0.514830  0.316030  1.0  -0.0503
  C  C984  1  0.270870  0.434130  0.206920  1.0  0.0716
  C  C985  1  0.280270  0.443630  0.187530  1.0  -0.1419
  C  C986  1  0.228170  0.441930  0.215130  1.0  -0.1128
  C  C987  1  0.258070  0.472430  0.175930  1.0  -0.1277
  C  C988  1  0.205270  0.471830  0.204730  1.0  -0.0754
  C  C989  1  0.220970  0.480130  0.182530  1.0  -0.1063
  C  C990  1  0.920830  0.823570  0.644070  1.0  0.1458
  C  C991  1  0.850730  0.848070  0.644160  1.0  0.1295
  C  C992  1  0.001430  0.051070  0.737890  1.0  0.0866
  C  C993  1  0.890430  0.779770  0.630890  1.0  -0.131
  C  C994  1  0.817630  0.804770  0.630730  1.0  -0.1884
  C  C995  1  0.837730  0.769170  0.623690  1.0  -0.0603
  C  C996  1  0.914530  0.742370  0.623560  1.0  0.6774
  C  C997  1  0.887530  0.583870  0.635610  1.0  0.0839
  C  C998  1  0.120230  0.812370  0.636040  1.0  0.1361
  C  C999  1  0.904230  0.543870  0.636970  1.0  -0.0136
  C  C1000  1  0.842330  0.592570  0.645170  1.0  -0.0329
  C  C1001  1  0.165930  0.804570  0.635470  1.0  -0.0392
  C  C1002  1  0.106230  0.848170  0.649370  1.0  -0.0506
  C  C1003  1  0.937530  0.767470  0.540260  1.0  0.0715
  C  C1004  1  0.946930  0.776970  0.520870  1.0  -0.1431
  C  C1005  1  0.894830  0.775270  0.548470  1.0  -0.1128
  C  C1006  1  0.924730  0.805770  0.509270  1.0  -0.1279
  C  C1007  1  0.871930  0.805170  0.538070  1.0  -0.0754
  C  C1008  1  0.887630  0.813470  0.515870  1.0  -0.1061
  C  C1009  1  0.843100  0.430600  0.977400  1.0  0.1472
  C  C1010  1  0.818600  0.336000  0.977490  1.0  0.129
  C  C1011  1  0.615600  0.283700  0.071220  1.0  0.0836
  C  C1012  1  0.886900  0.444000  0.964220  1.0  -0.1326
  C  C1013  1  0.861900  0.346200  0.964060  1.0  -0.1908
  C  C1014  1  0.897500  0.401900  0.957020  1.0  -0.0583
  C  C1015  1  0.924300  0.505500  0.956890  1.0  0.6787
  C  C1016  1  0.082800  0.637000  0.968940  1.0  0.0842
  C  C1017  1  0.854300  0.641200  0.969370  1.0  0.1364
  C  C1018  1  0.122800  0.693700  0.970300  1.0  -0.012
  C  C1019  1  0.074100  0.583100  0.978500  1.0  -0.036
  C  C1020  1  0.862100  0.694700  0.968800  1.0  -0.037
  C  C1021  1  0.818500  0.591400  0.982700  1.0  -0.0508
  C  C1022  1  0.899200  0.503400  0.873590  1.0  0.069
  C  C1023  1  0.889700  0.503300  0.854200  1.0  -0.1451
  C  C1024  1  0.891400  0.452900  0.881800  1.0  -0.1131
  C  C1025  1  0.860900  0.452300  0.842600  1.0  -0.1302
  C  C1026  1  0.861500  0.400100  0.871400  1.0  -0.0668
  C  C1027  1  0.853200  0.407500  0.849200  1.0  -0.1047
  C  C1028  1  0.509770  0.763930  0.310730  1.0  0.1472
  C  C1029  1  0.485270  0.669330  0.310820  1.0  0.129
  C  C1030  1  0.282270  0.617030  0.404550  1.0  0.0836
  C  C1031  1  0.553570  0.777330  0.297550  1.0  -0.1326
  C  C1032  1  0.528570  0.679530  0.297390  1.0  -0.1908
  C  C1033  1  0.564170  0.735230  0.290350  1.0  -0.0583
  C  C1034  1  0.590970  0.838830  0.290220  1.0  0.6787
  C  C1035  1  0.749470  0.970330  0.302270  1.0  0.084
  C  C1036  1  0.520970  0.974530  0.302700  1.0  0.1364
  C  C1037  1  0.789470  0.027030  0.303630  1.0  -0.012
  C  C1038  1  0.740770  0.916430  0.311830  1.0  -0.036
  C  C1039  1  0.528770  0.028030  0.302130  1.0  -0.037
  C  C1040  1  0.485170  0.924730  0.316030  1.0  -0.0508
  C  C1041  1  0.565870  0.836730  0.206920  1.0  0.069
  C  C1042  1  0.556370  0.836630  0.187530  1.0  -0.1437
  C  C1043  1  0.558070  0.786230  0.215130  1.0  -0.1131
  C  C1044  1  0.527570  0.785630  0.175930  1.0  -0.13
  C  C1045  1  0.528170  0.733430  0.204730  1.0  -0.0668
  C  C1046  1  0.519870  0.740830  0.182530  1.0  -0.1048
  C  C1047  1  0.176430  0.097270  0.644070  1.0  0.1472
  C  C1048  1  0.151930  0.002670  0.644160  1.0  0.129
  C  C1049  1  0.948930  0.950370  0.737890  1.0  0.0837
  C  C1050  1  0.220230  0.110670  0.630890  1.0  -0.1326
  C  C1051  1  0.195230  0.012870  0.630730  1.0  -0.1908
  C  C1052  1  0.230830  0.068570  0.623690  1.0  -0.0583
  C  C1053  1  0.257630  0.172170  0.623560  1.0  0.6787
  C  C1054  1  0.416130  0.303670  0.635610  1.0  0.0842
  C  C1055  1  0.187630  0.307870  0.636040  1.0  0.1361
  C  C1056  1  0.456130  0.360370  0.636970  1.0  -0.012
  C  C1057  1  0.407430  0.249770  0.645170  1.0  -0.036
  C  C1058  1  0.195430  0.361370  0.635470  1.0  -0.037
  C  C1059  1  0.151830  0.258070  0.649370  1.0  -0.0508
  C  C1060  1  0.232530  0.170070  0.540260  1.0  0.069
  C  C1061  1  0.223030  0.169970  0.520870  1.0  -0.1454
  C  C1062  1  0.224730  0.119570  0.548470  1.0  -0.1131
  C  C1063  1  0.194230  0.118970  0.509270  1.0  -0.1302
  C  C1064  1  0.194830  0.066770  0.538070  1.0  -0.0667
  C  C1065  1  0.186530  0.074170  0.515870  1.0  -0.1047
  C  C1066  1  0.412500  0.569400  0.522600  1.0  0.1481
  C  C1067  1  0.482600  0.664000  0.522510  1.0  0.1286
  C  C1068  1  0.331900  0.716300  0.428780  1.0  0.0797
  C  C1069  1  0.442900  0.556000  0.535780  1.0  -0.1311
  C  C1070  1  0.515700  0.653800  0.535940  1.0  -0.1905
  C  C1071  1  0.495600  0.598100  0.542980  1.0  -0.0574
  C  C1072  1  0.418800  0.494500  0.543110  1.0  0.6788
  C  C1073  1  0.445800  0.363000  0.531060  1.0  0.0838
  C  C1074  1  0.213100  0.358800  0.530630  1.0  0.1375
  C  C1075  1  0.429100  0.306300  0.529700  1.0  -0.011
  C  C1076  1  0.491000  0.416900  0.521500  1.0  -0.0339
  C  C1077  1  0.167400  0.305300  0.531200  1.0  -0.0384
  C  C1078  1  0.227100  0.408600  0.517300  1.0  -0.0489
  C  C1079  1  0.395800  0.496600  0.626410  1.0  0.0707
  C  C1080  1  0.386400  0.496700  0.645800  1.0  -0.1459
  C  C1081  1  0.438500  0.547100  0.618200  1.0  -0.1147
  C  C1082  1  0.408600  0.547700  0.657400  1.0  -0.1285
  C  C1083  1  0.461400  0.599900  0.628600  1.0  -0.0663
  C  C1084  1  0.445700  0.592500  0.650800  1.0  -0.1043
  C  C1085  1  0.079170  0.902730  0.855930  1.0  0.1481
  C  C1086  1  0.149270  0.997330  0.855840  1.0  0.1286
  C  C1087  1  0.998570  0.049630  0.762110  1.0  0.0797
  C  C1088  1  0.109570  0.889330  0.869110  1.0  -0.1311
  C  C1089  1  0.182370  0.987130  0.869270  1.0  -0.1905
  C  C1090  1  0.162270  0.931430  0.876310  1.0  -0.0574
  C  C1091  1  0.085470  0.827830  0.876440  1.0  0.6788
  C  C1092  1  0.112470  0.696330  0.864390  1.0  0.0838
  C  C1093  1  0.879770  0.692130  0.863960  1.0  0.1372
  C  C1094  1  0.095770  0.639630  0.863030  1.0  -0.011
  C  C1095  1  0.157670  0.750230  0.854830  1.0  -0.0339
  C  C1096  1  0.834070  0.638630  0.864530  1.0  -0.0383
  C  C1097  1  0.893770  0.741930  0.850630  1.0  -0.0489
  C  C1098  1  0.062470  0.829930  0.959740  1.0  0.0707
  C  C1099  1  0.053070  0.830030  0.979130  1.0  -0.1469
  C  C1100  1  0.105170  0.880430  0.951530  1.0  -0.1147
  C  C1101  1  0.075270  0.881030  0.990730  1.0  -0.1287
  C  C1102  1  0.128070  0.933230  0.961930  1.0  -0.0663
  C  C1103  1  0.112370  0.925830  0.984130  1.0  -0.1043
  C  C1104  1  0.745830  0.236070  0.189270  1.0  0.1481
  C  C1105  1  0.815930  0.330670  0.189180  1.0  0.1286
  C  C1106  1  0.665230  0.382970  0.095450  1.0  0.0799
  C  C1107  1  0.776230  0.222670  0.202450  1.0  -0.1311
  C  C1108  1  0.849030  0.320470  0.202610  1.0  -0.1905
  C  C1109  1  0.828930  0.264770  0.209650  1.0  -0.0574
  C  C1110  1  0.752130  0.161170  0.209780  1.0  0.6788
  C  C1111  1  0.779130  0.029670  0.197730  1.0  0.0837
  C  C1112  1  0.546430  0.025470  0.197300  1.0  0.1375
  C  C1113  1  0.762430  0.972970  0.196370  1.0  -0.011
  C  C1114  1  0.824330  0.083570  0.188170  1.0  -0.0338
  C  C1115  1  0.500730  0.971970  0.197870  1.0  -0.0384
  C  C1116  1  0.560430  0.075270  0.183970  1.0  -0.0489
  C  C1117  1  0.729130  0.163270  0.293080  1.0  0.0707
  C  C1118  1  0.719730  0.163370  0.312470  1.0  -0.1451
  C  C1119  1  0.771830  0.213770  0.284870  1.0  -0.1147
  C  C1120  1  0.741930  0.214370  0.324070  1.0  -0.1285
  C  C1121  1  0.794730  0.266570  0.295270  1.0  -0.0663
  C  C1122  1  0.779030  0.259170  0.317470  1.0  -0.1044
  C  C1123  1  0.156900  0.587500  0.522600  1.0  0.1468
  C  C1124  1  0.181400  0.517400  0.522510  1.0  0.1285
  C  C1125  1  0.384400  0.668100  0.428780  1.0  0.0847
  C  C1126  1  0.113100  0.557100  0.535780  1.0  -0.1302
  C  C1127  1  0.138100  0.484300  0.535940  1.0  -0.1921
  C  C1128  1  0.102500  0.504400  0.542980  1.0  -0.0602
  C  C1129  1  0.075700  0.581200  0.543110  1.0  0.6772
  C  C1130  1  0.917200  0.554200  0.531060  1.0  0.0845
  C  C1131  1  0.145700  0.786900  0.530630  1.0  0.1372
  C  C1132  1  0.877200  0.570900  0.529700  1.0  -0.0138
  C  C1133  1  0.925900  0.509000  0.521500  1.0  -0.0359
  C  C1134  1  0.137900  0.832600  0.531200  1.0  -0.0393
  C  C1135  1  0.181500  0.772900  0.517300  1.0  -0.0481
  C  C1136  1  0.100800  0.604200  0.626410  1.0  0.0688
  C  C1137  1  0.110300  0.613600  0.645800  1.0  -0.1456
  C  C1138  1  0.108600  0.561500  0.618200  1.0  -0.114
  C  C1139  1  0.139100  0.591400  0.657400  1.0  -0.1288
  C  C1140  1  0.138500  0.538600  0.628600  1.0  -0.0674
  C  C1141  1  0.146800  0.554300  0.650800  1.0  -0.1032
  C  C1142  1  0.823570  0.920830  0.855930  1.0  0.1468
  C  C1143  1  0.848070  0.850730  0.855840  1.0  0.1285
  C  C1144  1  0.051070  0.001430  0.762110  1.0  0.0847
  C  C1145  1  0.779770  0.890430  0.869110  1.0  -0.1302
  C  C1146  1  0.804770  0.817630  0.869270  1.0  -0.1921
  C  C1147  1  0.769170  0.837730  0.876310  1.0  -0.0602
  C  C1148  1  0.742370  0.914530  0.876440  1.0  0.6772
  C  C1149  1  0.583870  0.887530  0.864390  1.0  0.0845
  C  C1150  1  0.812370  0.120230  0.863960  1.0  0.1368
  C  C1151  1  0.543870  0.904230  0.863030  1.0  -0.0138
  C  C1152  1  0.592570  0.842330  0.854830  1.0  -0.0358
  C  C1153  1  0.804570  0.165930  0.864530  1.0  -0.0392
  C  C1154  1  0.848170  0.106230  0.850630  1.0  -0.0484
  C  C1155  1  0.767470  0.937530  0.959740  1.0  0.0688
  C  C1156  1  0.776970  0.946930  0.979130  1.0  -0.1466
  C  C1157  1  0.775270  0.894830  0.951530  1.0  -0.114
  C  C1158  1  0.805770  0.924730  0.990730  1.0  -0.1291
  C  C1159  1  0.805170  0.871930  0.961930  1.0  -0.0674
  C  C1160  1  0.813470  0.887630  0.984130  1.0  -0.1032
  C  C1161  1  0.490230  0.254170  0.189270  1.0  0.1468
  C  C1162  1  0.514730  0.184070  0.189180  1.0  0.1285
  C  C1163  1  0.717730  0.334770  0.095450  1.0  0.0847
  C  C1164  1  0.446430  0.223770  0.202450  1.0  -0.1302
  C  C1165  1  0.471430  0.150970  0.202610  1.0  -0.1921
  C  C1166  1  0.435830  0.171070  0.209650  1.0  -0.0602
  C  C1167  1  0.409030  0.247870  0.209780  1.0  0.6772
  C  C1168  1  0.250530  0.220870  0.197730  1.0  0.0843
  C  C1169  1  0.479030  0.453570  0.197300  1.0  0.1372
  C  C1170  1  0.210530  0.237570  0.196370  1.0  -0.0138
  C  C1171  1  0.259230  0.175670  0.188170  1.0  -0.0359
  C  C1172  1  0.471230  0.499270  0.197870  1.0  -0.0393
  C  C1173  1  0.514830  0.439570  0.183970  1.0  -0.0481
  C  C1174  1  0.434130  0.270870  0.293080  1.0  0.0688
  C  C1175  1  0.443630  0.280270  0.312470  1.0  -0.1454
  C  C1176  1  0.441930  0.228170  0.284870  1.0  -0.114
  C  C1177  1  0.472430  0.258070  0.324070  1.0  -0.1288
  C  C1178  1  0.471830  0.205270  0.295270  1.0  -0.0674
  C  C1179  1  0.480130  0.220970  0.317470  1.0  -0.1033
  C  C1180  1  0.430600  0.843100  0.522600  1.0  0.1456
  C  C1181  1  0.336000  0.818600  0.522510  1.0  0.13
  C  C1182  1  0.283700  0.615600  0.428780  1.0  0.0836
  C  C1183  1  0.444000  0.886900  0.535780  1.0  -0.1314
  C  C1184  1  0.346200  0.861900  0.535940  1.0  -0.19
  C  C1185  1  0.401900  0.897500  0.542980  1.0  -0.0603
  C  C1186  1  0.505500  0.924300  0.543110  1.0  0.6774
  C  C1187  1  0.637000  0.082800  0.531060  1.0  0.0828
  C  C1188  1  0.641200  0.854300  0.530630  1.0  0.1369
  C  C1189  1  0.693700  0.122800  0.529700  1.0  -0.0125
  C  C1190  1  0.583100  0.074100  0.521500  1.0  -0.0325
  C  C1191  1  0.694700  0.862100  0.531200  1.0  -0.04
  C  C1192  1  0.591400  0.818500  0.517300  1.0  -0.0492
  C  C1193  1  0.503400  0.899200  0.626410  1.0  0.0727
  C  C1194  1  0.503300  0.889700  0.645800  1.0  -0.1427
  C  C1195  1  0.452900  0.891400  0.618200  1.0  -0.1137
  C  C1196  1  0.452300  0.860900  0.657400  1.0  -0.1272
  C  C1197  1  0.400100  0.861500  0.628600  1.0  -0.0693
  C  C1198  1  0.407500  0.853200  0.650800  1.0  -0.1053
  C  C1199  1  0.097270  0.176430  0.855930  1.0  0.1456
  C  C1200  1  0.002670  0.151930  0.855840  1.0  0.13
  C  C1201  1  0.950370  0.948930  0.762110  1.0  0.0836
  C  C1202  1  0.110670  0.220230  0.869110  1.0  -0.1314
  C  C1203  1  0.012870  0.195230  0.869270  1.0  -0.19
  C  C1204  1  0.068570  0.230830  0.876310  1.0  -0.0603
  C  C1205  1  0.172170  0.257630  0.876440  1.0  0.6774
  C  C1206  1  0.303670  0.416130  0.864390  1.0  0.0828
  C  C1207  1  0.307870  0.187630  0.863960  1.0  0.1366
  C  C1208  1  0.360370  0.456130  0.863030  1.0  -0.0125
  C  C1209  1  0.249770  0.407430  0.854830  1.0  -0.0324
  C  C1210  1  0.361370  0.195430  0.864530  1.0  -0.04
  C  C1211  1  0.258070  0.151830  0.850630  1.0  -0.0492
  C  C1212  1  0.170070  0.232530  0.959740  1.0  0.0727
  C  C1213  1  0.169970  0.223030  0.979130  1.0  -0.1431
  C  C1214  1  0.119570  0.224730  0.951530  1.0  -0.1137
  C  C1215  1  0.118970  0.194230  0.990730  1.0  -0.1271
  C  C1216  1  0.066770  0.194830  0.961930  1.0  -0.0694
  C  C1217  1  0.074170  0.186530  0.984130  1.0  -0.1053
  C  C1218  1  0.763930  0.509770  0.189270  1.0  0.1456
  C  C1219  1  0.669330  0.485270  0.189180  1.0  0.13
  C  C1220  1  0.617030  0.282270  0.095450  1.0  0.0836
  C  C1221  1  0.777330  0.553570  0.202450  1.0  -0.1314
  C  C1222  1  0.679530  0.528570  0.202610  1.0  -0.19
  C  C1223  1  0.735230  0.564170  0.209650  1.0  -0.0603
  C  C1224  1  0.838830  0.590970  0.209780  1.0  0.6774
  C  C1225  1  0.970330  0.749470  0.197730  1.0  0.0827
  C  C1226  1  0.974530  0.520970  0.197300  1.0  0.1369
  C  C1227  1  0.027030  0.789470  0.196370  1.0  -0.0125
  C  C1228  1  0.916430  0.740770  0.188170  1.0  -0.0325
  C  C1229  1  0.028030  0.528770  0.197870  1.0  -0.04
  C  C1230  1  0.924730  0.485170  0.183970  1.0  -0.0492
  C  C1231  1  0.836730  0.565870  0.293080  1.0  0.0727
  C  C1232  1  0.836630  0.556370  0.312470  1.0  -0.1413
  C  C1233  1  0.786230  0.558070  0.284870  1.0  -0.1137
  C  C1234  1  0.785630  0.527570  0.324070  1.0  -0.1269
  C  C1235  1  0.733430  0.528170  0.295270  1.0  -0.0693
  C  C1236  1  0.740830  0.519870  0.317470  1.0  -0.1054
  I  I1237  1  0.442860  0.698390  0.980080  1.0  -0.2555
  I  I1238  1  0.109520  0.031720  0.313410  1.0  -0.2557
  I  I1239  1  0.776190  0.365060  0.646740  1.0  -0.2555
  I  I1240  1  0.301610  0.744470  0.980080  1.0  -0.2557
  I  I1241  1  0.968280  0.077800  0.313410  1.0  -0.2557
  I  I1242  1  0.634940  0.411130  0.646740  1.0  -0.2557
  I  I1243  1  0.255530  0.557140  0.980080  1.0  -0.2572
  I  I1244  1  0.922200  0.890480  0.313410  1.0  -0.257
  I  I1245  1  0.588870  0.223810  0.646740  1.0  -0.2571
  I  I1246  1  0.698390  0.442860  0.519920  1.0  -0.2538
  I  I1247  1  0.365060  0.776190  0.853260  1.0  -0.2538
  I  I1248  1  0.031720  0.109520  0.186590  1.0  -0.254
  I  I1249  1  0.744470  0.301610  0.519920  1.0  -0.254
  I  I1250  1  0.411130  0.634940  0.853260  1.0  -0.254
  I  I1251  1  0.077800  0.968280  0.186590  1.0  -0.254
  I  I1252  1  0.557140  0.255530  0.519920  1.0  -0.2548
  I  I1253  1  0.223810  0.588870  0.853260  1.0  -0.2546
  I  I1254  1  0.890480  0.922200  0.186590  1.0  -0.2546
  I  I1255  1  0.333333  0.666667  0.035840  1.0  -0.2662
  I  I1256  1  0.000000  0.000000  0.369170  1.0  -0.2661
  I  I1257  1  0.666667  0.333333  0.702500  1.0  -0.2663
  I  I1258  1  0.666667  0.333333  0.464160  1.0  -0.2658
  I  I1259  1  0.333333  0.666667  0.797500  1.0  -0.2657
  I  I1260  1  0.000000  0.000000  0.130830  1.0  -0.2658
  I  I1261  1  0.557140  0.301610  0.019920  1.0  -0.2552
  I  I1262  1  0.223810  0.634940  0.353260  1.0  -0.2556
  I  I1263  1  0.890480  0.968280  0.686590  1.0  -0.2559
  I  I1264  1  0.698390  0.255530  0.019920  1.0  -0.2549
  I  I1265  1  0.365060  0.588870  0.353260  1.0  -0.2553
  I  I1266  1  0.031720  0.922200  0.686590  1.0  -0.2553
  I  I1267  1  0.744470  0.442860  0.019920  1.0  -0.253
  I  I1268  1  0.411130  0.776190  0.353260  1.0  -0.2533
  I  I1269  1  0.077800  0.109520  0.686590  1.0  -0.2533
  I  I1270  1  0.301610  0.557140  0.480080  1.0  -0.257
  I  I1271  1  0.968280  0.890480  0.813410  1.0  -0.2572
  I  I1272  1  0.634940  0.223810  0.146740  1.0  -0.2569
  I  I1273  1  0.255530  0.698390  0.480080  1.0  -0.2571
  I  I1274  1  0.922200  0.031720  0.813410  1.0  -0.2571
  I  I1275  1  0.588870  0.365060  0.146740  1.0  -0.2571
  I  I1276  1  0.442860  0.744470  0.480080  1.0  -0.2558
  I  I1277  1  0.109520  0.077800  0.813410  1.0  -0.2556
  I  I1278  1  0.776190  0.411130  0.146740  1.0  -0.2558
  I  I1279  1  0.666667  0.333333  0.964160  1.0  -0.2658
  I  I1280  1  0.333333  0.666667  0.297500  1.0  -0.2657
  I  I1281  1  0.000000  0.000000  0.630830  1.0  -0.2658
  I  I1282  1  0.333333  0.666667  0.535840  1.0  -0.2662
  I  I1283  1  0.000000  0.000000  0.869170  1.0  -0.2661
  I  I1284  1  0.666667  0.333333  0.202500  1.0  -0.2663
  N  N1285  1  0.376300  0.568200  0.016060  1.0  -0.3004
  N  N1286  1  0.042970  0.901530  0.349390  1.0  -0.3003
  N  N1287  1  0.709630  0.234870  0.682730  1.0  -0.3003
  N  N1288  1  0.431800  0.808100  0.016060  1.0  -0.2992
  N  N1289  1  0.098470  0.141430  0.349390  1.0  -0.2992
  N  N1290  1  0.765130  0.474770  0.682730  1.0  -0.299
  N  N1291  1  0.191900  0.623700  0.016060  1.0  -0.3047
  N  N1292  1  0.858570  0.957030  0.349390  1.0  -0.3047
  N  N1293  1  0.525230  0.290370  0.682730  1.0  -0.3047
  N  N1294  1  0.568200  0.376300  0.483940  1.0  -0.303
  N  N1295  1  0.234870  0.709630  0.817270  1.0  -0.303
  N  N1296  1  0.901530  0.042970  0.150610  1.0  -0.303
  N  N1297  1  0.808100  0.431800  0.483940  1.0  -0.2988
  N  N1298  1  0.474770  0.765130  0.817270  1.0  -0.2988
  N  N1299  1  0.141430  0.098470  0.150610  1.0  -0.2988
  N  N1300  1  0.623700  0.191900  0.483940  1.0  -0.2986
  N  N1301  1  0.290370  0.525230  0.817270  1.0  -0.2986
  N  N1302  1  0.957030  0.858570  0.150610  1.0  -0.2986
  N  N1303  1  0.333333  0.666667  0.936470  1.0  -0.1742
  N  N1304  1  0.000000  0.000000  0.269800  1.0  -0.1718
  N  N1305  1  0.666667  0.333333  0.603140  1.0  -0.1741
  N  N1306  1  0.666667  0.333333  0.563530  1.0  -0.1734
  N  N1307  1  0.333333  0.666667  0.896860  1.0  -0.1735
  N  N1308  1  0.000000  0.000000  0.230200  1.0  -0.1713
  N  N1309  1  0.623700  0.431800  0.983940  1.0  -0.297
  N  N1310  1  0.290370  0.765130  0.317270  1.0  -0.297
  N  N1311  1  0.957030  0.098470  0.650610  1.0  -0.297
  N  N1312  1  0.568200  0.191900  0.983940  1.0  -0.2987
  N  N1313  1  0.234870  0.525230  0.317270  1.0  -0.2987
  N  N1314  1  0.901530  0.858570  0.650610  1.0  -0.2987
  N  N1315  1  0.808100  0.376300  0.983940  1.0  -0.302
  N  N1316  1  0.474770  0.709630  0.317270  1.0  -0.302
  N  N1317  1  0.141430  0.042970  0.650610  1.0  -0.302
  N  N1318  1  0.431800  0.623700  0.516060  1.0  -0.3029
  N  N1319  1  0.098470  0.957030  0.849390  1.0  -0.3029
  N  N1320  1  0.765130  0.290370  0.182730  1.0  -0.3029
  N  N1321  1  0.191900  0.568200  0.516060  1.0  -0.2992
  N  N1322  1  0.858570  0.901530  0.849390  1.0  -0.2992
  N  N1323  1  0.525230  0.234870  0.182730  1.0  -0.2992
  N  N1324  1  0.376300  0.808100  0.516060  1.0  -0.2984
  N  N1325  1  0.042970  0.141430  0.849390  1.0  -0.2984
  N  N1326  1  0.709630  0.474770  0.182730  1.0  -0.2982
  N  N1327  1  0.666667  0.333333  0.063530  1.0  -0.1734
  N  N1328  1  0.333333  0.666667  0.396860  1.0  -0.1735
  N  N1329  1  0.000000  0.000000  0.730200  1.0  -0.1713
  N  N1330  1  0.333333  0.666667  0.436470  1.0  -0.1742
  N  N1331  1  0.000000  0.000000  0.769800  1.0  -0.1718
  N  N1332  1  0.666667  0.333333  0.103140  1.0  -0.1741
  O  O1333  1  0.543500  0.623900  0.032750  1.0  -0.635
  O  O1334  1  0.515090  0.558400  0.057980  1.0  -0.6355
  O  O1335  1  0.624800  0.592800  0.043220  1.0  -0.7988
  O  O1336  1  0.629200  0.738000  0.042960  1.0  -0.662
  O  O1337  1  0.612850  0.660110  0.065900  1.0  -0.9644
  O  O1338  1  0.716000  0.706800  0.040030  1.0  -0.8751
  O  O1339  1  0.562740  0.586230  0.098430  1.0  -0.8275
  O  O1340  1  0.570000  0.684180  0.099060  1.0  -0.8285
  O  O1341  1  0.210170  0.957230  0.366080  1.0  -0.635
  O  O1342  1  0.181760  0.891730  0.391310  1.0  -0.6355
  O  O1343  1  0.291470  0.926130  0.376550  1.0  -0.7989
  O  O1344  1  0.295870  0.071330  0.376290  1.0  -0.6619
  O  O1345  1  0.279520  0.993440  0.399230  1.0  -0.9621
  O  O1346  1  0.382670  0.040130  0.373360  1.0  -0.875
  O  O1347  1  0.229410  0.919560  0.431760  1.0  -0.8275
  O  O1348  1  0.236670  0.017510  0.432390  1.0  -0.8286
  O  O1349  1  0.876830  0.290570  0.699420  1.0  -0.635
  O  O1350  1  0.848420  0.225070  0.724650  1.0  -0.6355
  O  O1351  1  0.958130  0.259470  0.709890  1.0  -0.7988
  O  O1352  1  0.962530  0.404670  0.709630  1.0  -0.662
  O  O1353  1  0.946180  0.326780  0.732570  1.0  -0.9644
  O  O1354  1  0.049330  0.373470  0.706700  1.0  -0.875
  O  O1355  1  0.896070  0.252900  0.765100  1.0  -0.8275
  O  O1356  1  0.903330  0.350850  0.765730  1.0  -0.828
  O  O1357  1  0.376100  0.919600  0.032750  1.0  -0.6346
  O  O1358  1  0.441600  0.956690  0.057980  1.0  -0.6378
  O  O1359  1  0.407200  0.032000  0.043220  1.0  -0.7997
  O  O1360  1  0.262000  0.891200  0.042960  1.0  -0.6619
  O  O1361  1  0.339890  0.952740  0.065900  1.0  -0.9642
  O  O1362  1  0.293200  0.009200  0.040030  1.0  -0.8735
  O  O1363  1  0.413770  0.976510  0.098430  1.0  -0.8259
  O  O1364  1  0.315820  0.885820  0.099060  1.0  -0.8276
  O  O1365  1  0.042770  0.252930  0.366080  1.0  -0.6346
  O  O1366  1  0.108270  0.290020  0.391310  1.0  -0.6378
  O  O1367  1  0.073870  0.365330  0.376550  1.0  -0.7997
  O  O1368  1  0.928670  0.224530  0.376290  1.0  -0.662
  O  O1369  1  0.006560  0.286070  0.399230  1.0  -0.9622
  O  O1370  1  0.959870  0.342530  0.373360  1.0  -0.8734
  O  O1371  1  0.080440  0.309840  0.431760  1.0  -0.8259
  O  O1372  1  0.982490  0.219150  0.432390  1.0  -0.8271
  O  O1373  1  0.709430  0.586270  0.699420  1.0  -0.6346
  O  O1374  1  0.774930  0.623360  0.724650  1.0  -0.6377
  O  O1375  1  0.740530  0.698670  0.709890  1.0  -0.7999
  O  O1376  1  0.595330  0.557870  0.709630  1.0  -0.6629
  O  O1377  1  0.673220  0.619410  0.732570  1.0  -0.9645
  O  O1378  1  0.626530  0.675870  0.706700  1.0  -0.8727
  O  O1379  1  0.747100  0.643180  0.765100  1.0  -0.826
  O  O1380  1  0.649150  0.552490  0.765730  1.0  -0.8276
  O  O1381  1  0.080400  0.456500  0.032750  1.0  -0.6361
  O  O1382  1  0.043310  0.484910  0.057980  1.0  -0.6364
  O  O1383  1  0.968000  0.375200  0.043220  1.0  -0.7992
  O  O1384  1  0.108800  0.370800  0.042960  1.0  -0.6631
  O  O1385  1  0.047260  0.387150  0.065900  1.0  -0.9637
  O  O1386  1  0.990800  0.284000  0.040030  1.0  -0.8732
  O  O1387  1  0.023490  0.437260  0.098430  1.0  -0.8238
  O  O1388  1  0.114180  0.430000  0.099060  1.0  -0.8252
  O  O1389  1  0.747070  0.789830  0.366080  1.0  -0.6361
  O  O1390  1  0.709980  0.818240  0.391310  1.0  -0.6364
  O  O1391  1  0.634670  0.708530  0.376550  1.0  -0.7993
  O  O1392  1  0.775470  0.704130  0.376290  1.0  -0.663
  O  O1393  1  0.713930  0.720480  0.399230  1.0  -0.9614
  O  O1394  1  0.657470  0.617330  0.373360  1.0  -0.8732
  O  O1395  1  0.690160  0.770590  0.431760  1.0  -0.8237
  O  O1396  1  0.780850  0.763330  0.432390  1.0  -0.8253
  O  O1397  1  0.413730  0.123170  0.699420  1.0  -0.6361
  O  O1398  1  0.376640  0.151580  0.724650  1.0  -0.6364
  O  O1399  1  0.301330  0.041870  0.709890  1.0  -0.7992
  O  O1400  1  0.442130  0.037470  0.709630  1.0  -0.6631
  O  O1401  1  0.380590  0.053820  0.732570  1.0  -0.9639
  O  O1402  1  0.324130  0.950670  0.706700  1.0  -0.8732
  O  O1403  1  0.356820  0.103930  0.765100  1.0  -0.8238
  O  O1404  1  0.447510  0.096670  0.765730  1.0  -0.8245
  O  O1405  1  0.623900  0.543500  0.467250  1.0  -0.6361
  O  O1406  1  0.558400  0.515090  0.442020  1.0  -0.6366
  O  O1407  1  0.592800  0.624800  0.456780  1.0  -0.7993
  O  O1408  1  0.738000  0.629200  0.457040  1.0  -0.6628
  O  O1409  1  0.660110  0.612850  0.434100  1.0  -0.964
  O  O1410  1  0.706800  0.716000  0.459970  1.0  -0.8727
  O  O1411  1  0.586230  0.562740  0.401570  1.0  -0.8245
  O  O1412  1  0.684180  0.570000  0.400940  1.0  -0.8256
  O  O1413  1  0.290570  0.876830  0.800580  1.0  -0.6361
  O  O1414  1  0.225070  0.848420  0.775350  1.0  -0.6366
  O  O1415  1  0.259470  0.958130  0.790110  1.0  -0.7993
  O  O1416  1  0.404670  0.962530  0.790370  1.0  -0.6628
  O  O1417  1  0.326780  0.946180  0.767430  1.0  -0.964
  O  O1418  1  0.373470  0.049330  0.793300  1.0  -0.8727
  O  O1419  1  0.252900  0.896070  0.734900  1.0  -0.8245
  O  O1420  1  0.350850  0.903330  0.734270  1.0  -0.825
  O  O1421  1  0.957230  0.210170  0.133920  1.0  -0.636
  O  O1422  1  0.891730  0.181760  0.108690  1.0  -0.6366
  O  O1423  1  0.926130  0.291470  0.123450  1.0  -0.7993
  O  O1424  1  0.071330  0.295870  0.123710  1.0  -0.6628
  O  O1425  1  0.993440  0.279520  0.100770  1.0  -0.9618
  O  O1426  1  0.040130  0.382670  0.126640  1.0  -0.8727
  O  O1427  1  0.919560  0.229410  0.068240  1.0  -0.8245
  O  O1428  1  0.017510  0.236670  0.067610  1.0  -0.8257
  O  O1429  1  0.919600  0.376100  0.467250  1.0  -0.6344
  O  O1430  1  0.956690  0.441600  0.442020  1.0  -0.6364
  O  O1431  1  0.032000  0.407200  0.456780  1.0  -0.8003
  O  O1432  1  0.891200  0.262000  0.457040  1.0  -0.6617
  O  O1433  1  0.952740  0.339890  0.434100  1.0  -0.9645
  O  O1434  1  0.009200  0.293200  0.459970  1.0  -0.8729
  O  O1435  1  0.976510  0.413770  0.401570  1.0  -0.8287
  O  O1436  1  0.885820  0.315820  0.400940  1.0  -0.8268
  O  O1437  1  0.586270  0.709430  0.800580  1.0  -0.6344
  O  O1438  1  0.623360  0.774930  0.775350  1.0  -0.6364
  O  O1439  1  0.698670  0.740530  0.790110  1.0  -0.8005
  O  O1440  1  0.557870  0.595330  0.790370  1.0  -0.6631
  O  O1441  1  0.619410  0.673220  0.767430  1.0  -0.9648
  O  O1442  1  0.675870  0.626530  0.793300  1.0  -0.8721
  O  O1443  1  0.643180  0.747100  0.734900  1.0  -0.8288
  O  O1444  1  0.552490  0.649150  0.734270  1.0  -0.8268
  O  O1445  1  0.252930  0.042770  0.133920  1.0  -0.6343
  O  O1446  1  0.290020  0.108270  0.108690  1.0  -0.6364
  O  O1447  1  0.365330  0.073870  0.123450  1.0  -0.8004
  O  O1448  1  0.224530  0.928670  0.123710  1.0  -0.6616
  O  O1449  1  0.286070  0.006560  0.100770  1.0  -0.9626
  O  O1450  1  0.342530  0.959870  0.126640  1.0  -0.8728
  O  O1451  1  0.309840  0.080440  0.068240  1.0  -0.8287
  O  O1452  1  0.219150  0.982490  0.067610  1.0  -0.8263
  O  O1453  1  0.456500  0.080400  0.467250  1.0  -0.6349
  O  O1454  1  0.484910  0.043310  0.442020  1.0  -0.6375
  O  O1455  1  0.375200  0.968000  0.456780  1.0  -0.7978
  O  O1456  1  0.370800  0.108800  0.457040  1.0  -0.6624
  O  O1457  1  0.387150  0.047260  0.434100  1.0  -0.9639
  O  O1458  1  0.284000  0.990800  0.459970  1.0  -0.8718
  O  O1459  1  0.437260  0.023490  0.401570  1.0  -0.8273
  O  O1460  1  0.430000  0.114180  0.400940  1.0  -0.8319
  O  O1461  1  0.123170  0.413730  0.800580  1.0  -0.6349
  O  O1462  1  0.151580  0.376640  0.775350  1.0  -0.6375
  O  O1463  1  0.041870  0.301330  0.790110  1.0  -0.7978
  O  O1464  1  0.037470  0.442130  0.790370  1.0  -0.6624
  O  O1465  1  0.053820  0.380590  0.767430  1.0  -0.9641
  O  O1466  1  0.950670  0.324130  0.793300  1.0  -0.8718
  O  O1467  1  0.103930  0.356820  0.734900  1.0  -0.8273
  O  O1468  1  0.096670  0.447510  0.734270  1.0  -0.8314
  O  O1469  1  0.789830  0.747070  0.133920  1.0  -0.6348
  O  O1470  1  0.818240  0.709980  0.108690  1.0  -0.6375
  O  O1471  1  0.708530  0.634670  0.123450  1.0  -0.7978
  O  O1472  1  0.704130  0.775470  0.123710  1.0  -0.6624
  O  O1473  1  0.720480  0.713930  0.100770  1.0  -0.9615
  O  O1474  1  0.617330  0.657470  0.126640  1.0  -0.8719
  O  O1475  1  0.770590  0.690160  0.068240  1.0  -0.8272
  O  O1476  1  0.763330  0.780850  0.067610  1.0  -0.8321
  O  O1477  1  0.666667  0.602380  0.083330  1.0  -0.8865
  O  O1478  1  0.666667  0.783580  0.083330  1.0  -0.7525
  O  O1479  1  0.397620  0.064280  0.083330  1.0  -0.8837
  O  O1480  1  0.216420  0.883080  0.083330  1.0  -0.7543
  O  O1481  1  0.935720  0.333333  0.083330  1.0  -0.8795
  O  O1482  1  0.116920  0.333333  0.083330  1.0  -0.7461
  O  O1483  1  0.602380  0.666667  0.416670  1.0  -0.8795
  O  O1484  1  0.783580  0.666667  0.416670  1.0  -0.7471
  O  O1485  1  0.269050  0.000000  0.750000  1.0  -0.8795
  O  O1486  1  0.450250  0.000000  0.750000  1.0  -0.7471
  O  O1487  1  0.064280  0.397620  0.416670  1.0  -0.8838
  O  O1488  1  0.883080  0.216420  0.416670  1.0  -0.7542
  O  O1489  1  0.730950  0.730950  0.750000  1.0  -0.8836
  O  O1490  1  0.549750  0.549750  0.750000  1.0  -0.7542
  O  O1491  1  0.333333  0.935720  0.416670  1.0  -0.8867
  O  O1492  1  0.333333  0.116920  0.416670  1.0  -0.7512
  O  O1493  1  0.000000  0.269050  0.750000  1.0  -0.8867
  O  O1494  1  0.000000  0.450250  0.750000  1.0  -0.7525
  O  O1495  1  0.456500  0.376100  0.967250  1.0  -0.6337
  O  O1496  1  0.484910  0.441600  0.942020  1.0  -0.6361
  O  O1497  1  0.375200  0.407200  0.956780  1.0  -0.8004
  O  O1498  1  0.370800  0.262000  0.957040  1.0  -0.661
  O  O1499  1  0.387150  0.339890  0.934100  1.0  -0.9653
  O  O1500  1  0.284000  0.293200  0.959970  1.0  -0.8728
  O  O1501  1  0.437260  0.413770  0.901570  1.0  -0.8291
  O  O1502  1  0.430000  0.315820  0.900940  1.0  -0.8271
  O  O1503  1  0.123170  0.709430  0.300580  1.0  -0.6337
  O  O1504  1  0.151580  0.774930  0.275350  1.0  -0.6361
  O  O1505  1  0.041870  0.740530  0.290110  1.0  -0.8004
  O  O1506  1  0.037470  0.595330  0.290370  1.0  -0.661
  O  O1507  1  0.053820  0.673220  0.267430  1.0  -0.9652
  O  O1508  1  0.950670  0.626530  0.293300  1.0  -0.8728
  O  O1509  1  0.103930  0.747100  0.234900  1.0  -0.8291
  O  O1510  1  0.096670  0.649150  0.234270  1.0  -0.8265
  O  O1511  1  0.789830  0.042770  0.633920  1.0  -0.6337
  O  O1512  1  0.818240  0.108270  0.608690  1.0  -0.6361
  O  O1513  1  0.708530  0.073870  0.623450  1.0  -0.8005
  O  O1514  1  0.704130  0.928670  0.623710  1.0  -0.661
  O  O1515  1  0.720480  0.006560  0.600770  1.0  -0.963
  O  O1516  1  0.617330  0.959870  0.626640  1.0  -0.8728
  O  O1517  1  0.770590  0.080440  0.568240  1.0  -0.829
  O  O1518  1  0.763330  0.982490  0.567610  1.0  -0.8272
  O  O1519  1  0.623900  0.080400  0.967250  1.0  -0.6362
  O  O1520  1  0.558400  0.043310  0.942020  1.0  -0.6378
  O  O1521  1  0.592800  0.968000  0.956780  1.0  -0.7977
  O  O1522  1  0.738000  0.108800  0.957040  1.0  -0.6609
  O  O1523  1  0.660110  0.047260  0.934100  1.0  -0.9635
  O  O1524  1  0.706800  0.990800  0.959970  1.0  -0.8721
  O  O1525  1  0.586230  0.023490  0.901570  1.0  -0.8263
  O  O1526  1  0.684180  0.114180  0.900940  1.0  -0.8314
  O  O1527  1  0.290570  0.413730  0.300580  1.0  -0.6362
  O  O1528  1  0.225070  0.376640  0.275350  1.0  -0.6378
  O  O1529  1  0.259470  0.301330  0.290110  1.0  -0.7979
  O  O1530  1  0.404670  0.442130  0.290370  1.0  -0.6619
  O  O1531  1  0.326780  0.380590  0.267430  1.0  -0.9638
  O  O1532  1  0.373470  0.324130  0.293300  1.0  -0.8713
  O  O1533  1  0.252900  0.356820  0.234900  1.0  -0.8264
  O  O1534  1  0.350850  0.447510  0.234270  1.0  -0.8314
  O  O1535  1  0.957230  0.747070  0.633920  1.0  -0.6361
  O  O1536  1  0.891730  0.709980  0.608690  1.0  -0.6378
  O  O1537  1  0.926130  0.634670  0.623450  1.0  -0.7977
  O  O1538  1  0.071330  0.775470  0.623710  1.0  -0.6609
  O  O1539  1  0.993440  0.713930  0.600770  1.0  -0.9615
  O  O1540  1  0.040130  0.657470  0.626640  1.0  -0.8721
  O  O1541  1  0.919560  0.690160  0.568240  1.0  -0.8263
  O  O1542  1  0.017510  0.780850  0.567610  1.0  -0.831
  O  O1543  1  0.919600  0.543500  0.967250  1.0  -0.6355
  O  O1544  1  0.956690  0.515090  0.942020  1.0  -0.6371
  O  O1545  1  0.032000  0.624800  0.956780  1.0  -0.8011
  O  O1546  1  0.891200  0.629200  0.957040  1.0  -0.6631
  O  O1547  1  0.952740  0.612850  0.934100  1.0  -0.9643
  O  O1548  1  0.009200  0.716000  0.959970  1.0  -0.8726
  O  O1549  1  0.976510  0.562740  0.901570  1.0  -0.8253
  O  O1550  1  0.885820  0.570000  0.900940  1.0  -0.825
  O  O1551  1  0.586270  0.876830  0.300580  1.0  -0.6355
  O  O1552  1  0.623360  0.848420  0.275350  1.0  -0.6371
  O  O1553  1  0.698670  0.958130  0.290110  1.0  -0.8011
  O  O1554  1  0.557870  0.962530  0.290370  1.0  -0.6631
  O  O1555  1  0.619410  0.946180  0.267430  1.0  -0.9645
  O  O1556  1  0.675870  0.049330  0.293300  1.0  -0.8726
  O  O1557  1  0.643180  0.896070  0.234900  1.0  -0.8253
  O  O1558  1  0.552490  0.903330  0.234270  1.0  -0.8244
  O  O1559  1  0.252930  0.210170  0.633920  1.0  -0.6354
  O  O1560  1  0.290020  0.181760  0.608690  1.0  -0.6371
  O  O1561  1  0.365330  0.291470  0.623450  1.0  -0.8012
  O  O1562  1  0.224530  0.295870  0.623710  1.0  -0.6631
  O  O1563  1  0.286070  0.279520  0.600770  1.0  -0.9619
  O  O1564  1  0.342530  0.382670  0.626640  1.0  -0.8727
  O  O1565  1  0.309840  0.229410  0.568240  1.0  -0.825
  O  O1566  1  0.219150  0.236670  0.567610  1.0  -0.8251
  O  O1567  1  0.376100  0.456500  0.532750  1.0  -0.6351
  O  O1568  1  0.441600  0.484910  0.557980  1.0  -0.6367
  O  O1569  1  0.407200  0.375200  0.543220  1.0  -0.8017
  O  O1570  1  0.262000  0.370800  0.542960  1.0  -0.6629
  O  O1571  1  0.339890  0.387150  0.565900  1.0  -0.964
  O  O1572  1  0.293200  0.284000  0.540030  1.0  -0.8734
  O  O1573  1  0.413770  0.437260  0.598430  1.0  -0.8248
  O  O1574  1  0.315820  0.430000  0.599060  1.0  -0.8266
  O  O1575  1  0.042770  0.789830  0.866080  1.0  -0.635
  O  O1576  1  0.108270  0.818240  0.891310  1.0  -0.6367
  O  O1577  1  0.073870  0.708530  0.876550  1.0  -0.8018
  O  O1578  1  0.928670  0.704130  0.876290  1.0  -0.6628
  O  O1579  1  0.006560  0.720480  0.899230  1.0  -0.9617
  O  O1580  1  0.959870  0.617330  0.873360  1.0  -0.8733
  O  O1581  1  0.080440  0.770590  0.931760  1.0  -0.8248
  O  O1582  1  0.982490  0.763330  0.932390  1.0  -0.8268
  O  O1583  1  0.709430  0.123170  0.199420  1.0  -0.6351
  O  O1584  1  0.774930  0.151580  0.224650  1.0  -0.6367
  O  O1585  1  0.740530  0.041870  0.209890  1.0  -0.8017
  O  O1586  1  0.595330  0.037470  0.209630  1.0  -0.6629
  O  O1587  1  0.673220  0.053820  0.232570  1.0  -0.964
  O  O1588  1  0.626530  0.950670  0.206700  1.0  -0.8733
  O  O1589  1  0.747100  0.103930  0.265100  1.0  -0.8248
  O  O1590  1  0.649150  0.096670  0.265730  1.0  -0.826
  O  O1591  1  0.080400  0.623900  0.532750  1.0  -0.634
  O  O1592  1  0.043310  0.558400  0.557980  1.0  -0.6351
  O  O1593  1  0.968000  0.592800  0.543220  1.0  -0.7986
  O  O1594  1  0.108800  0.738000  0.542960  1.0  -0.661
  O  O1595  1  0.047260  0.660110  0.565900  1.0  -0.9653
  O  O1596  1  0.990800  0.706800  0.540030  1.0  -0.875
  O  O1597  1  0.023490  0.586230  0.598430  1.0  -0.8277
  O  O1598  1  0.114180  0.684180  0.599060  1.0  -0.8262
  O  O1599  1  0.747070  0.957230  0.866080  1.0  -0.6339
  O  O1600  1  0.709980  0.891730  0.891310  1.0  -0.6351
  O  O1601  1  0.634670  0.926130  0.876550  1.0  -0.7986
  O  O1602  1  0.775470  0.071330  0.876290  1.0  -0.6609
  O  O1603  1  0.713930  0.993440  0.899230  1.0  -0.9633
  O  O1604  1  0.657470  0.040130  0.873360  1.0  -0.8749
  O  O1605  1  0.690160  0.919560  0.931760  1.0  -0.8277
  O  O1606  1  0.780850  0.017510  0.932390  1.0  -0.8257
  O  O1607  1  0.413730  0.290570  0.199420  1.0  -0.6339
  O  O1608  1  0.376640  0.225070  0.224650  1.0  -0.6351
  O  O1609  1  0.301330  0.259470  0.209890  1.0  -0.7988
  O  O1610  1  0.442130  0.404670  0.209630  1.0  -0.662
  O  O1611  1  0.380590  0.326780  0.232570  1.0  -0.9655
  O  O1612  1  0.324130  0.373470  0.206700  1.0  -0.8742
  O  O1613  1  0.356820  0.252900  0.265100  1.0  -0.8279
  O  O1614  1  0.447510  0.350850  0.265730  1.0  -0.8262
  O  O1615  1  0.543500  0.919600  0.532750  1.0  -0.6364
  O  O1616  1  0.515090  0.956690  0.557980  1.0  -0.638
  O  O1617  1  0.624800  0.032000  0.543220  1.0  -0.7998
  O  O1618  1  0.629200  0.891200  0.542960  1.0  -0.6609
  O  O1619  1  0.612850  0.952740  0.565900  1.0  -0.9639
  O  O1620  1  0.716000  0.009200  0.540030  1.0  -0.8736
  O  O1621  1  0.562740  0.976510  0.598430  1.0  -0.8262
  O  O1622  1  0.570000  0.885820  0.599060  1.0  -0.8275
  O  O1623  1  0.210170  0.252930  0.866080  1.0  -0.6363
  O  O1624  1  0.181760  0.290020  0.891310  1.0  -0.638
  O  O1625  1  0.291470  0.365330  0.876550  1.0  -0.7998
  O  O1626  1  0.295870  0.224530  0.876290  1.0  -0.6608
  O  O1627  1  0.279520  0.286070  0.899230  1.0  -0.9615
  O  O1628  1  0.382670  0.342530  0.873360  1.0  -0.8736
  O  O1629  1  0.229410  0.309840  0.931760  1.0  -0.8261
  O  O1630  1  0.236670  0.219150  0.932390  1.0  -0.8276
  O  O1631  1  0.876830  0.586270  0.199420  1.0  -0.6364
  O  O1632  1  0.848420  0.623360  0.224650  1.0  -0.638
  O  O1633  1  0.958130  0.698670  0.209890  1.0  -0.7998
  O  O1634  1  0.962530  0.557870  0.209630  1.0  -0.6609
  O  O1635  1  0.946180  0.619410  0.232570  1.0  -0.9641
  O  O1636  1  0.049330  0.675870  0.206700  1.0  -0.8736
  O  O1637  1  0.896070  0.643180  0.265100  1.0  -0.8262
  O  O1638  1  0.903330  0.552490  0.265730  1.0  -0.8268
  O  O1639  1  0.333333  0.397620  0.916670  1.0  -0.8852
  O  O1640  1  0.333333  0.216420  0.916670  1.0  -0.7532
  O  O1641  1  0.000000  0.730950  0.250000  1.0  -0.8852
  O  O1642  1  0.000000  0.549750  0.250000  1.0  -0.7532
  O  O1643  1  0.602380  0.935720  0.916670  1.0  -0.8882
  O  O1644  1  0.783580  0.116920  0.916670  1.0  -0.7521
  O  O1645  1  0.269050  0.269050  0.250000  1.0  -0.888
  O  O1646  1  0.450250  0.450250  0.250000  1.0  -0.7521
  O  O1647  1  0.064280  0.666667  0.916670  1.0  -0.8788
  O  O1648  1  0.883080  0.666667  0.916670  1.0  -0.7487
  O  O1649  1  0.730950  0.000000  0.250000  1.0  -0.8788
  O  O1650  1  0.549750  0.000000  0.250000  1.0  -0.7497
  O  O1651  1  0.397620  0.333333  0.583330  1.0  -0.8787
  O  O1652  1  0.216420  0.333333  0.583330  1.0  -0.7497
  O  O1653  1  0.935720  0.602380  0.583330  1.0  -0.8881
  O  O1654  1  0.116920  0.783580  0.583330  1.0  -0.7521
  O  O1655  1  0.666667  0.064280  0.583330  1.0  -0.8853
  O  O1656  1  0.666667  0.883080  0.583330  1.0  -0.7522
