# generated using pymatgen
data_Cd4Cu6H55C46(N2O11)2
_symmetry_space_group_name_H-M   'P 1'
_cell_length_a   26.34300000
_cell_length_b   27.15800000
_cell_length_c   27.15800000
_cell_angle_alpha   90.00000000
_cell_angle_beta   90.00000000
_cell_angle_gamma   90.00000000
_symmetry_Int_Tables_number   1
_chemical_formula_structural   Cd4Cu6H55C46(N2O11)2
_chemical_formula_sum   'Cd32 Cu48 H440 C368 N32 O176'
_cell_volume   19429.46310265
_cell_formula_units_Z   8
loop_
 _symmetry_equiv_pos_site_id
 _symmetry_equiv_pos_as_xyz
  1  'x, y, z'
loop_
 _atom_site_type_symbol
 _atom_site_label
 _atom_site_symmetry_multiplicity
 _atom_site_fract_x
 _atom_site_fract_y
 _atom_site_fract_z
 _atom_site_occupancy
 _atom_site_charge
  Cd  Cd1  1  0.634200  0.340210  0.187520  1.0  0.8768
  Cd  Cd2  1  0.698280  0.142190  0.325250  1.0  0.9628
  Cd  Cd3  1  0.831830  0.199190  0.124330  1.0  0.8062
  Cd  Cd4  1  0.596350  0.111470  0.099020  1.0  0.8529
  Cd  Cd5  1  0.865800  0.659790  0.687520  1.0  0.8723
  Cd  Cd6  1  0.801720  0.857810  0.825250  1.0  0.9642
  Cd  Cd7  1  0.668170  0.800810  0.624330  1.0  0.8037
  Cd  Cd8  1  0.903650  0.888530  0.599020  1.0  0.8544
  Cd  Cd9  1  0.365800  0.840210  0.312480  1.0  0.875
  Cd  Cd10  1  0.301720  0.642190  0.174750  1.0  0.967
  Cd  Cd11  1  0.168170  0.699190  0.375670  1.0  0.7986
  Cd  Cd12  1  0.403650  0.611470  0.400980  1.0  0.8569
  Cd  Cd13  1  0.134200  0.159790  0.812480  1.0  0.8768
  Cd  Cd14  1  0.198280  0.357810  0.674750  1.0  0.9678
  Cd  Cd15  1  0.331830  0.300810  0.875670  1.0  0.8008
  Cd  Cd16  1  0.096350  0.388530  0.900980  1.0  0.8569
  Cd  Cd17  1  0.365800  0.659790  0.812480  1.0  0.8714
  Cd  Cd18  1  0.301720  0.857810  0.674750  1.0  0.9675
  Cd  Cd19  1  0.168170  0.800810  0.875670  1.0  0.7989
  Cd  Cd20  1  0.403650  0.888530  0.900980  1.0  0.8568
  Cd  Cd21  1  0.134200  0.340210  0.312480  1.0  0.8784
  Cd  Cd22  1  0.198280  0.142190  0.174750  1.0  0.9667
  Cd  Cd23  1  0.331830  0.199190  0.375670  1.0  0.7992
  Cd  Cd24  1  0.096350  0.111470  0.400980  1.0  0.8573
  Cd  Cd25  1  0.634200  0.159790  0.687520  1.0  0.8763
  Cd  Cd26  1  0.698280  0.357810  0.825250  1.0  0.964
  Cd  Cd27  1  0.831830  0.300810  0.624330  1.0  0.8063
  Cd  Cd28  1  0.596350  0.388530  0.599020  1.0  0.8515
  Cd  Cd29  1  0.865800  0.840210  0.187520  1.0  0.8753
  Cd  Cd30  1  0.801720  0.642190  0.325250  1.0  0.9632
  Cd  Cd31  1  0.668170  0.699190  0.124330  1.0  0.8048
  Cd  Cd32  1  0.903650  0.611470  0.099020  1.0  0.8558
  Cu  Cu33  1  0.618710  0.223660  0.145300  1.0  0.6978
  Cu  Cu34  1  0.758090  0.171620  0.225260  1.0  0.8485
  Cu  Cu35  1  0.665420  0.241660  0.251340  1.0  0.7738
  Cu  Cu36  1  0.645300  0.132320  0.212780  1.0  0.7023
  Cu  Cu37  1  0.732050  0.263450  0.157210  1.0  0.8638
  Cu  Cu38  1  0.711880  0.154270  0.118660  1.0  0.8804
  Cu  Cu39  1  0.881290  0.776340  0.645300  1.0  0.6997
  Cu  Cu40  1  0.741910  0.828380  0.725260  1.0  0.8485
  Cu  Cu41  1  0.834580  0.758340  0.751340  1.0  0.7739
  Cu  Cu42  1  0.854700  0.867680  0.712780  1.0  0.7042
  Cu  Cu43  1  0.767950  0.736550  0.657210  1.0  0.8642
  Cu  Cu44  1  0.788120  0.845730  0.618660  1.0  0.8811
  Cu  Cu45  1  0.381290  0.723660  0.354700  1.0  0.7002
  Cu  Cu46  1  0.241910  0.671620  0.274740  1.0  0.8476
  Cu  Cu47  1  0.334580  0.741660  0.248660  1.0  0.7732
  Cu  Cu48  1  0.354700  0.632320  0.287220  1.0  0.7042
  Cu  Cu49  1  0.267950  0.763450  0.342790  1.0  0.8652
  Cu  Cu50  1  0.288120  0.654270  0.381340  1.0  0.8813
  Cu  Cu51  1  0.118710  0.276340  0.854700  1.0  0.6976
  Cu  Cu52  1  0.258090  0.328380  0.774740  1.0  0.8489
  Cu  Cu53  1  0.165420  0.258340  0.748660  1.0  0.7734
  Cu  Cu54  1  0.145300  0.367680  0.787220  1.0  0.7008
  Cu  Cu55  1  0.232050  0.236550  0.842790  1.0  0.8657
  Cu  Cu56  1  0.211880  0.345730  0.881340  1.0  0.8826
  Cu  Cu57  1  0.381290  0.776340  0.854700  1.0  0.7003
  Cu  Cu58  1  0.241910  0.828380  0.774740  1.0  0.8481
  Cu  Cu59  1  0.334580  0.758340  0.748660  1.0  0.7733
  Cu  Cu60  1  0.354700  0.867680  0.787220  1.0  0.704
  Cu  Cu61  1  0.267950  0.736550  0.842790  1.0  0.8657
  Cu  Cu62  1  0.288120  0.845730  0.881340  1.0  0.8824
  Cu  Cu63  1  0.118710  0.223660  0.354700  1.0  0.6975
  Cu  Cu64  1  0.258090  0.171620  0.274740  1.0  0.8484
  Cu  Cu65  1  0.165420  0.241660  0.248660  1.0  0.7733
  Cu  Cu66  1  0.145300  0.132320  0.287220  1.0  0.7021
  Cu  Cu67  1  0.232050  0.263450  0.342790  1.0  0.8653
  Cu  Cu68  1  0.211880  0.154270  0.381340  1.0  0.8815
  Cu  Cu69  1  0.618710  0.276340  0.645300  1.0  0.6978
  Cu  Cu70  1  0.758090  0.328380  0.725260  1.0  0.8494
  Cu  Cu71  1  0.665420  0.258340  0.751340  1.0  0.7739
  Cu  Cu72  1  0.645300  0.367680  0.712780  1.0  0.7012
  Cu  Cu73  1  0.732050  0.236550  0.657210  1.0  0.8643
  Cu  Cu74  1  0.711880  0.345730  0.618660  1.0  0.8814
  Cu  Cu75  1  0.881290  0.723660  0.145300  1.0  0.6998
  Cu  Cu76  1  0.741910  0.671620  0.225260  1.0  0.8478
  Cu  Cu77  1  0.834580  0.741660  0.251340  1.0  0.7737
  Cu  Cu78  1  0.854700  0.632320  0.212780  1.0  0.7043
  Cu  Cu79  1  0.767950  0.763450  0.157210  1.0  0.8636
  Cu  Cu80  1  0.788120  0.654270  0.118660  1.0  0.8801
  H  H81  1  0.644300  0.264300  0.880100  1.0  0.0806
  H  H82  1  0.739000  0.358500  0.928000  1.0  0.0671
  H  H83  1  0.735100  0.329300  0.005000  1.0  0.1306
  H  H84  1  0.786500  0.228500  0.319700  1.0  0.1073
  H  H85  1  0.739900  0.263200  0.328900  1.0  0.1066
  H  H86  1  0.530500  0.135900  0.209200  1.0  0.1038
  H  H87  1  0.518400  0.181700  0.176200  1.0  0.1298
  H  H88  1  0.580700  0.204200  0.311700  1.0  0.1194
  H  H89  1  0.570600  0.150300  0.294300  1.0  0.1205
  H  H90  1  0.616800  0.216200  0.036300  1.0  0.0961
  H  H91  1  0.662300  0.182200  0.021600  1.0  0.0861
  H  H92  1  0.639900  0.225700  0.956700  1.0  0.1301
  H  H93  1  0.727000  0.338800  0.270800  1.0  0.086
  H  H94  1  0.761200  0.342300  0.223700  1.0  0.1156
  H  H95  1  0.830800  0.286200  0.209000  1.0  0.0876
  H  H96  1  0.841000  0.240700  0.243000  1.0  0.0913
  H  H97  1  0.703700  0.043200  0.122400  1.0  0.1059
  H  H98  1  0.671000  0.031600  0.169100  1.0  0.137
  H  H99  1  0.705300  0.045600  0.251100  1.0  0.1045
  H  H100  1  0.760600  0.065600  0.257600  1.0  0.1009
  H  H101  1  0.814300  0.083900  0.185400  1.0  0.1118
  H  H102  1  0.793300  0.074900  0.132100  1.0  0.1152
  H  H103  1  0.534300  0.265300  0.206700  1.0  0.1136
  H  H104  1  0.558400  0.274000  0.258600  1.0  0.1119
  H  H105  1  0.750900  0.209400  0.031500  1.0  0.1101
  H  H106  1  0.763300  0.262500  0.050700  1.0  0.0911
  H  H107  1  0.768900  0.352500  0.336000  1.0  0.0963
  H  H108  1  0.934600  0.330400  0.335900  1.0  0.1005
  H  H109  1  0.883500  0.290900  0.282500  1.0  0.0969
  H  H110  1  0.819100  0.391300  0.392900  1.0  0.1087
  H  H111  1  0.611400  0.393100  0.350500  1.0  0.1451
  H  H112  1  0.652200  0.358800  0.374700  1.0  0.1395
  H  H113  1  0.594900  0.343400  0.375000  1.0  0.1471
  H  H114  1  0.476900  0.132000  0.266000  1.0  0.1158
  H  H115  1  0.492000  0.272900  0.292100  1.0  0.1617
  H  H116  1  0.873600  0.360000  0.074200  1.0  0.1492
  H  H117  1  0.842600  0.392400  0.111300  1.0  0.1584
  H  H118  1  0.819000  0.378000  0.060300  1.0  0.155
  H  H119  1  0.418100  0.268600  0.334600  1.0  0.0713
  H  H120  1  0.400700  0.132100  0.306100  1.0  0.1131
  H  H121  1  0.754300  0.987100  0.116800  1.0  0.117
  H  H122  1  0.778100  0.997300  0.257300  1.0  0.1604
  H  H123  1  0.823400  0.921300  0.255700  1.0  0.1073
  H  H124  1  0.788800  0.907100  0.121300  1.0  0.0778
  H  H125  1  0.872200  0.122400  0.370700  1.0  0.1466
  H  H126  1  0.894900  0.160200  0.332900  1.0  0.1501
  H  H127  1  0.895500  0.103700  0.320900  1.0  0.1488
  H  H128  1  0.638800  0.985100  0.369300  1.0  0.147
  H  H129  1  0.597000  0.018500  0.393200  1.0  0.1501
  H  H130  1  0.648900  0.010400  0.420200  1.0  0.152
  H  H131  1  0.689900  0.320300  0.074000  1.0  0.0873
  H  H132  1  0.633700  0.302700  0.066800  1.0  0.1124
  H  H133  1  0.759000  0.092700  0.971000  1.0  0.1561
  H  H134  1  0.705000  0.102100  0.948600  1.0  0.1442
  H  H135  1  0.721100  0.048800  0.964400  1.0  0.17
  H  H136  1  0.855700  0.735700  0.380100  1.0  0.0807
  H  H137  1  0.761000  0.641500  0.428000  1.0  0.068
  H  H138  1  0.764900  0.670700  0.505000  1.0  0.13
  H  H139  1  0.713500  0.771500  0.819700  1.0  0.1066
  H  H140  1  0.760100  0.736800  0.828900  1.0  0.1073
  H  H141  1  0.969500  0.864100  0.709200  1.0  0.1047
  H  H142  1  0.981600  0.818300  0.676200  1.0  0.1314
  H  H143  1  0.919300  0.795800  0.811700  1.0  0.1192
  H  H144  1  0.929400  0.849700  0.794300  1.0  0.1179
  H  H145  1  0.883200  0.783800  0.536300  1.0  0.0912
  H  H146  1  0.837700  0.817800  0.521600  1.0  0.0887
  H  H147  1  0.860100  0.774300  0.456700  1.0  0.1315
  H  H148  1  0.773000  0.661200  0.770800  1.0  0.0871
  H  H149  1  0.738800  0.657700  0.723700  1.0  0.1157
  H  H150  1  0.669200  0.713800  0.709000  1.0  0.0885
  H  H151  1  0.659000  0.759300  0.743000  1.0  0.0912
  H  H152  1  0.796300  0.956800  0.622400  1.0  0.1063
  H  H153  1  0.829000  0.968400  0.669100  1.0  0.1387
  H  H154  1  0.794700  0.954400  0.751100  1.0  0.1025
  H  H155  1  0.739400  0.934400  0.757600  1.0  0.0989
  H  H156  1  0.685700  0.916100  0.685400  1.0  0.1129
  H  H157  1  0.706700  0.925100  0.632100  1.0  0.1146
  H  H158  1  0.965700  0.734700  0.706700  1.0  0.1128
  H  H159  1  0.941600  0.726000  0.758600  1.0  0.1114
  H  H160  1  0.749100  0.790600  0.531500  1.0  0.1108
  H  H161  1  0.736700  0.737500  0.550700  1.0  0.0907
  H  H162  1  0.731100  0.647500  0.836000  1.0  0.0957
  H  H163  1  0.565400  0.669600  0.835900  1.0  0.101
  H  H164  1  0.616500  0.709100  0.782500  1.0  0.0965
  H  H165  1  0.680900  0.608700  0.892900  1.0  0.1087
  H  H166  1  0.888600  0.606900  0.850500  1.0  0.1437
  H  H167  1  0.847800  0.641200  0.874700  1.0  0.1392
  H  H168  1  0.905100  0.656600  0.875000  1.0  0.147
  H  H169  1  0.023100  0.868000  0.766000  1.0  0.116
  H  H170  1  0.008000  0.727100  0.792100  1.0  0.1608
  H  H171  1  0.626400  0.640000  0.574200  1.0  0.1475
  H  H172  1  0.657400  0.607600  0.611300  1.0  0.1579
  H  H173  1  0.681000  0.622000  0.560300  1.0  0.1525
  H  H174  1  0.081900  0.731400  0.834600  1.0  0.0715
  H  H175  1  0.099300  0.867900  0.806100  1.0  0.1122
  H  H176  1  0.745700  0.012900  0.616800  1.0  0.1169
  H  H177  1  0.721900  0.002700  0.757300  1.0  0.1621
  H  H178  1  0.676600  0.078700  0.755700  1.0  0.1072
  H  H179  1  0.711200  0.092900  0.621300  1.0  0.0786
  H  H180  1  0.627800  0.877600  0.870700  1.0  0.1479
  H  H181  1  0.605100  0.839800  0.832900  1.0  0.1501
  H  H182  1  0.604500  0.896300  0.820900  1.0  0.1493
  H  H183  1  0.861200  0.014900  0.869300  1.0  0.1484
  H  H184  1  0.903000  0.981500  0.893200  1.0  0.1497
  H  H185  1  0.851100  0.989600  0.920200  1.0  0.1522
  H  H186  1  0.810100  0.679700  0.574000  1.0  0.089
  H  H187  1  0.866300  0.697300  0.566800  1.0  0.1106
  H  H188  1  0.741000  0.907300  0.471000  1.0  0.1512
  H  H189  1  0.795000  0.897900  0.448600  1.0  0.1441
  H  H190  1  0.778900  0.951200  0.464400  1.0  0.1698
  H  H191  1  0.355700  0.764300  0.619900  1.0  0.0801
  H  H192  1  0.261000  0.858500  0.572000  1.0  0.0674
  H  H193  1  0.264900  0.829300  0.495000  1.0  0.1305
  H  H194  1  0.213500  0.728500  0.180300  1.0  0.106
  H  H195  1  0.260100  0.763200  0.171100  1.0  0.106
  H  H196  1  0.469500  0.635900  0.290800  1.0  0.1028
  H  H197  1  0.481600  0.681700  0.323800  1.0  0.1294
  H  H198  1  0.419300  0.704200  0.188300  1.0  0.1197
  H  H199  1  0.429400  0.650300  0.205700  1.0  0.1194
  H  H200  1  0.383200  0.716200  0.463700  1.0  0.0914
  H  H201  1  0.337700  0.682200  0.478400  1.0  0.088
  H  H202  1  0.360100  0.725700  0.543300  1.0  0.1303
  H  H203  1  0.273000  0.838800  0.229200  1.0  0.0859
  H  H204  1  0.238800  0.842300  0.276300  1.0  0.1155
  H  H205  1  0.169200  0.786200  0.291000  1.0  0.0878
  H  H206  1  0.159000  0.740700  0.257000  1.0  0.0903
  H  H207  1  0.296300  0.543200  0.377600  1.0  0.1072
  H  H208  1  0.329000  0.531600  0.330900  1.0  0.1379
  H  H209  1  0.294700  0.545600  0.248900  1.0  0.1028
  H  H210  1  0.239400  0.565600  0.242400  1.0  0.0973
  H  H211  1  0.185700  0.583900  0.314600  1.0  0.112
  H  H212  1  0.206700  0.574900  0.367900  1.0  0.1135
  H  H213  1  0.465700  0.765300  0.293300  1.0  0.1127
  H  H214  1  0.441600  0.774000  0.241400  1.0  0.1105
  H  H215  1  0.249100  0.709400  0.468500  1.0  0.1111
  H  H216  1  0.236700  0.762500  0.449300  1.0  0.0912
  H  H217  1  0.231100  0.852500  0.164000  1.0  0.0955
  H  H218  1  0.065400  0.830400  0.164100  1.0  0.1013
  H  H219  1  0.116500  0.790900  0.217500  1.0  0.0967
  H  H220  1  0.180900  0.891300  0.107100  1.0  0.1078
  H  H221  1  0.388600  0.893100  0.149500  1.0  0.1456
  H  H222  1  0.347800  0.858800  0.125300  1.0  0.1392
  H  H223  1  0.405100  0.843400  0.125000  1.0  0.1481
  H  H224  1  0.523100  0.632000  0.234000  1.0  0.1153
  H  H225  1  0.508000  0.772900  0.207900  1.0  0.1617
  H  H226  1  0.126400  0.860000  0.425800  1.0  0.148
  H  H227  1  0.157400  0.892400  0.388700  1.0  0.1574
  H  H228  1  0.181000  0.878000  0.439700  1.0  0.1518
  H  H229  1  0.581900  0.768600  0.165400  1.0  0.0712
  H  H230  1  0.599300  0.632100  0.193900  1.0  0.113
  H  H231  1  0.245700  0.487100  0.383200  1.0  0.1182
  H  H232  1  0.221900  0.497300  0.242700  1.0  0.1619
  H  H233  1  0.176600  0.421300  0.244300  1.0  0.107
  H  H234  1  0.211200  0.407100  0.378700  1.0  0.0763
  H  H235  1  0.127800  0.622400  0.129300  1.0  0.1461
  H  H236  1  0.105100  0.660200  0.167100  1.0  0.1506
  H  H237  1  0.104500  0.603700  0.179100  1.0  0.1477
  H  H238  1  0.361200  0.485100  0.130700  1.0  0.1476
  H  H239  1  0.403000  0.518500  0.106800  1.0  0.1508
  H  H240  1  0.351100  0.510400  0.079800  1.0  0.152
  H  H241  1  0.310100  0.820300  0.426000  1.0  0.0884
  H  H242  1  0.366300  0.802700  0.433200  1.0  0.1124
  H  H243  1  0.241000  0.592700  0.529000  1.0  0.151
  H  H244  1  0.295000  0.602100  0.551400  1.0  0.1438
  H  H245  1  0.278900  0.548800  0.535600  1.0  0.17
  H  H246  1  0.144300  0.235700  0.119900  1.0  0.0799
  H  H247  1  0.239000  0.141500  0.072000  1.0  0.0674
  H  H248  1  0.235100  0.170700  0.995000  1.0  0.13
  H  H249  1  0.286500  0.271500  0.680300  1.0  0.1067
  H  H250  1  0.239900  0.236800  0.671100  1.0  0.1056
  H  H251  1  0.030500  0.364100  0.790800  1.0  0.1037
  H  H252  1  0.018400  0.318300  0.823800  1.0  0.1308
  H  H253  1  0.080700  0.295800  0.688300  1.0  0.1207
  H  H254  1  0.070600  0.349700  0.705700  1.0  0.1184
  H  H255  1  0.116800  0.283800  0.963700  1.0  0.096
  H  H256  1  0.162300  0.317800  0.978400  1.0  0.0871
  H  H257  1  0.139900  0.274300  0.043300  1.0  0.1302
  H  H258  1  0.227000  0.161200  0.729200  1.0  0.0862
  H  H259  1  0.261200  0.157700  0.776300  1.0  0.1163
  H  H260  1  0.330800  0.213800  0.791000  1.0  0.0874
  H  H261  1  0.341000  0.259300  0.757000  1.0  0.0907
  H  H262  1  0.203700  0.456800  0.877600  1.0  0.1056
  H  H263  1  0.171000  0.468400  0.830900  1.0  0.1375
  H  H264  1  0.205300  0.454400  0.748900  1.0  0.1041
  H  H265  1  0.260600  0.434400  0.742400  1.0  0.0989
  H  H266  1  0.314300  0.416100  0.814600  1.0  0.1123
  H  H267  1  0.293300  0.425100  0.867900  1.0  0.1106
  H  H268  1  0.034300  0.234700  0.793300  1.0  0.1145
  H  H269  1  0.058400  0.226000  0.741400  1.0  0.1091
  H  H270  1  0.250900  0.290600  0.968500  1.0  0.1104
  H  H271  1  0.263300  0.237500  0.949300  1.0  0.0909
  H  H272  1  0.268900  0.147500  0.664000  1.0  0.0957
  H  H273  1  0.434600  0.169600  0.664100  1.0  0.1006
  H  H274  1  0.383500  0.209100  0.717500  1.0  0.0978
  H  H275  1  0.319100  0.108700  0.607100  1.0  0.1083
  H  H276  1  0.111400  0.106900  0.649500  1.0  0.1422
  H  H277  1  0.152200  0.141200  0.625300  1.0  0.14
  H  H278  1  0.094900  0.156600  0.625000  1.0  0.146
  H  H279  1  0.976900  0.368000  0.734000  1.0  0.1159
  H  H280  1  0.992000  0.227100  0.707900  1.0  0.1609
  H  H281  1  0.373600  0.140000  0.925800  1.0  0.1495
  H  H282  1  0.342600  0.107600  0.888700  1.0  0.1576
  H  H283  1  0.319000  0.122000  0.939700  1.0  0.1536
  H  H284  1  0.918100  0.231400  0.665400  1.0  0.0715
  H  H285  1  0.900700  0.367900  0.693900  1.0  0.1135
  H  H286  1  0.254300  0.512900  0.883200  1.0  0.1177
  H  H287  1  0.278100  0.502700  0.742700  1.0  0.1616
  H  H288  1  0.323400  0.578700  0.744300  1.0  0.1062
  H  H289  1  0.288800  0.592900  0.878700  1.0  0.0766
  H  H290  1  0.372200  0.377600  0.629300  1.0  0.1465
  H  H291  1  0.394900  0.339800  0.667100  1.0  0.1497
  H  H292  1  0.395500  0.396300  0.679100  1.0  0.1484
  H  H293  1  0.138800  0.514900  0.630700  1.0  0.1476
  H  H294  1  0.097000  0.481500  0.606800  1.0  0.1505
  H  H295  1  0.148900  0.489600  0.579800  1.0  0.1511
  H  H296  1  0.189900  0.179700  0.926000  1.0  0.0884
  H  H297  1  0.133700  0.197300  0.933200  1.0  0.1115
  H  H298  1  0.259000  0.407300  0.029000  1.0  0.1553
  H  H299  1  0.205000  0.397900  0.051400  1.0  0.1439
  H  H300  1  0.221100  0.451200  0.035600  1.0  0.1692
  H  H301  1  0.355700  0.735700  0.119900  1.0  0.0802
  H  H302  1  0.261000  0.641500  0.072000  1.0  0.0676
  H  H303  1  0.264900  0.670700  0.995000  1.0  0.1301
  H  H304  1  0.213500  0.771500  0.680300  1.0  0.1065
  H  H305  1  0.260100  0.736800  0.671100  1.0  0.1058
  H  H306  1  0.469500  0.864100  0.790800  1.0  0.103
  H  H307  1  0.481600  0.818300  0.823800  1.0  0.1297
  H  H308  1  0.419300  0.795800  0.688300  1.0  0.1208
  H  H309  1  0.429400  0.849700  0.705700  1.0  0.1183
  H  H310  1  0.383200  0.783800  0.963700  1.0  0.0911
  H  H311  1  0.337700  0.817800  0.978400  1.0  0.0879
  H  H312  1  0.360100  0.774300  0.043300  1.0  0.1304
  H  H313  1  0.273000  0.661200  0.729200  1.0  0.0862
  H  H314  1  0.238800  0.657700  0.776300  1.0  0.1164
  H  H315  1  0.169200  0.713800  0.791000  1.0  0.0891
  H  H316  1  0.159000  0.759300  0.757000  1.0  0.0907
  H  H317  1  0.296300  0.956800  0.877600  1.0  0.1064
  H  H318  1  0.329000  0.968400  0.830900  1.0  0.1388
  H  H319  1  0.294700  0.954400  0.748900  1.0  0.1031
  H  H320  1  0.239400  0.934400  0.742400  1.0  0.0981
  H  H321  1  0.185700  0.916100  0.814600  1.0  0.1125
  H  H322  1  0.206700  0.925100  0.867900  1.0  0.113
  H  H323  1  0.465700  0.734700  0.793300  1.0  0.1134
  H  H324  1  0.441600  0.726000  0.741400  1.0  0.1095
  H  H325  1  0.249100  0.790600  0.968500  1.0  0.1111
  H  H326  1  0.236700  0.737500  0.949300  1.0  0.0912
  H  H327  1  0.231100  0.647500  0.664000  1.0  0.0947
  H  H328  1  0.065400  0.669600  0.664100  1.0  0.102
  H  H329  1  0.116500  0.709100  0.717500  1.0  0.0972
  H  H330  1  0.180900  0.608700  0.607100  1.0  0.108
  H  H331  1  0.388600  0.606900  0.649500  1.0  0.1432
  H  H332  1  0.347800  0.641200  0.625300  1.0  0.1403
  H  H333  1  0.405100  0.656600  0.625000  1.0  0.1475
  H  H334  1  0.523100  0.868000  0.734000  1.0  0.1157
  H  H335  1  0.508000  0.727100  0.707900  1.0  0.1604
  H  H336  1  0.126400  0.640000  0.925800  1.0  0.1483
  H  H337  1  0.157400  0.607600  0.888700  1.0  0.1577
  H  H338  1  0.181000  0.622000  0.939700  1.0  0.1527
  H  H339  1  0.581900  0.731400  0.665400  1.0  0.0709
  H  H340  1  0.599300  0.867900  0.693900  1.0  0.1124
  H  H341  1  0.245700  0.012900  0.883200  1.0  0.1175
  H  H342  1  0.221900  0.002700  0.742700  1.0  0.1624
  H  H343  1  0.176600  0.078700  0.744300  1.0  0.1066
  H  H344  1  0.211200  0.092900  0.878700  1.0  0.0766
  H  H345  1  0.127800  0.877600  0.629300  1.0  0.1458
  H  H346  1  0.105100  0.839800  0.667100  1.0  0.1491
  H  H347  1  0.104500  0.896300  0.679100  1.0  0.1475
  H  H348  1  0.361200  0.014900  0.630700  1.0  0.1485
  H  H349  1  0.403000  0.981500  0.606800  1.0  0.1511
  H  H350  1  0.351100  0.989600  0.579800  1.0  0.152
  H  H351  1  0.310100  0.679700  0.926000  1.0  0.0887
  H  H352  1  0.366300  0.697300  0.933200  1.0  0.1105
  H  H353  1  0.241000  0.907300  0.029000  1.0  0.151
  H  H354  1  0.295000  0.897900  0.051400  1.0  0.1438
  H  H355  1  0.278900  0.951200  0.035600  1.0  0.1694
  H  H356  1  0.144300  0.264300  0.619900  1.0  0.08
  H  H357  1  0.239000  0.358500  0.572000  1.0  0.0668
  H  H358  1  0.235100  0.329300  0.495000  1.0  0.1305
  H  H359  1  0.286500  0.228500  0.180300  1.0  0.1063
  H  H360  1  0.239900  0.263200  0.171100  1.0  0.1058
  H  H361  1  0.030500  0.135900  0.290800  1.0  0.1029
  H  H362  1  0.018400  0.181700  0.323800  1.0  0.1305
  H  H363  1  0.080700  0.204200  0.188300  1.0  0.1198
  H  H364  1  0.070600  0.150300  0.205700  1.0  0.1195
  H  H365  1  0.116800  0.216200  0.463700  1.0  0.0961
  H  H366  1  0.162300  0.182200  0.478400  1.0  0.0873
  H  H367  1  0.139900  0.225700  0.543300  1.0  0.13
  H  H368  1  0.227000  0.338800  0.229200  1.0  0.0865
  H  H369  1  0.261200  0.342300  0.276300  1.0  0.1149
  H  H370  1  0.330800  0.286200  0.291000  1.0  0.0864
  H  H371  1  0.341000  0.240700  0.257000  1.0  0.0908
  H  H372  1  0.203700  0.043200  0.377600  1.0  0.1066
  H  H373  1  0.171000  0.031600  0.330900  1.0  0.1372
  H  H374  1  0.205300  0.045600  0.248900  1.0  0.1038
  H  H375  1  0.260600  0.065600  0.242400  1.0  0.0987
  H  H376  1  0.314300  0.083900  0.314600  1.0  0.1117
  H  H377  1  0.293300  0.074900  0.367900  1.0  0.1106
  H  H378  1  0.034300  0.265300  0.293300  1.0  0.113
  H  H379  1  0.058400  0.274000  0.241400  1.0  0.11
  H  H380  1  0.250900  0.209400  0.468500  1.0  0.1111
  H  H381  1  0.263300  0.262500  0.449300  1.0  0.0901
  H  H382  1  0.268900  0.352500  0.164000  1.0  0.0965
  H  H383  1  0.434600  0.330400  0.164100  1.0  0.0999
  H  H384  1  0.383500  0.290900  0.217500  1.0  0.0974
  H  H385  1  0.319100  0.391300  0.107100  1.0  0.1095
  H  H386  1  0.111400  0.393100  0.149500  1.0  0.145
  H  H387  1  0.152200  0.358800  0.125300  1.0  0.1402
  H  H388  1  0.094900  0.343400  0.125000  1.0  0.1455
  H  H389  1  0.976900  0.132000  0.234000  1.0  0.1155
  H  H390  1  0.992000  0.272900  0.207900  1.0  0.1617
  H  H391  1  0.373600  0.360000  0.425800  1.0  0.1487
  H  H392  1  0.342600  0.392400  0.388700  1.0  0.1575
  H  H393  1  0.319000  0.378000  0.439700  1.0  0.1538
  H  H394  1  0.918100  0.268600  0.165400  1.0  0.0713
  H  H395  1  0.900700  0.132100  0.193900  1.0  0.1127
  H  H396  1  0.254300  0.987100  0.383200  1.0  0.1181
  H  H397  1  0.278100  0.997300  0.242700  1.0  0.161
  H  H398  1  0.323400  0.921300  0.244300  1.0  0.1067
  H  H399  1  0.288800  0.907100  0.378700  1.0  0.0761
  H  H400  1  0.372200  0.122400  0.129300  1.0  0.1466
  H  H401  1  0.394900  0.160200  0.167100  1.0  0.1502
  H  H402  1  0.395500  0.103700  0.179100  1.0  0.1487
  H  H403  1  0.138800  0.985100  0.130700  1.0  0.1478
  H  H404  1  0.097000  0.018500  0.106800  1.0  0.151
  H  H405  1  0.148900  0.010400  0.079800  1.0  0.1512
  H  H406  1  0.189900  0.320300  0.426000  1.0  0.0876
  H  H407  1  0.133700  0.302700  0.433200  1.0  0.1124
  H  H408  1  0.259000  0.092700  0.529000  1.0  0.1562
  H  H409  1  0.205000  0.102100  0.551400  1.0  0.1442
  H  H410  1  0.221100  0.048800  0.535600  1.0  0.1702
  H  H411  1  0.644300  0.235700  0.380100  1.0  0.0808
  H  H412  1  0.739000  0.141500  0.428000  1.0  0.068
  H  H413  1  0.735100  0.170700  0.505000  1.0  0.13
  H  H414  1  0.786500  0.271500  0.819700  1.0  0.1068
  H  H415  1  0.739900  0.236800  0.828900  1.0  0.1069
  H  H416  1  0.530500  0.364100  0.709200  1.0  0.1054
  H  H417  1  0.518400  0.318300  0.676200  1.0  0.1303
  H  H418  1  0.580700  0.295800  0.811700  1.0  0.1196
  H  H419  1  0.570600  0.349700  0.794300  1.0  0.1185
  H  H420  1  0.616800  0.283800  0.536300  1.0  0.096
  H  H421  1  0.662300  0.317800  0.521600  1.0  0.0871
  H  H422  1  0.639900  0.274300  0.456700  1.0  0.131
  H  H423  1  0.727000  0.161200  0.770800  1.0  0.0869
  H  H424  1  0.761200  0.157700  0.723700  1.0  0.1157
  H  H425  1  0.830800  0.213800  0.709000  1.0  0.0867
  H  H426  1  0.841000  0.259300  0.743000  1.0  0.0909
  H  H427  1  0.703700  0.456800  0.622400  1.0  0.1055
  H  H428  1  0.671000  0.468400  0.669100  1.0  0.137
  H  H429  1  0.705300  0.454400  0.751100  1.0  0.104
  H  H430  1  0.760600  0.434400  0.757600  1.0  0.1003
  H  H431  1  0.814300  0.416100  0.685400  1.0  0.1123
  H  H432  1  0.793300  0.425100  0.632100  1.0  0.1151
  H  H433  1  0.534300  0.234700  0.706700  1.0  0.1138
  H  H434  1  0.558400  0.226000  0.758600  1.0  0.1112
  H  H435  1  0.750900  0.290600  0.531500  1.0  0.1104
  H  H436  1  0.763300  0.237500  0.550700  1.0  0.0908
  H  H437  1  0.768900  0.147500  0.836000  1.0  0.0959
  H  H438  1  0.934600  0.169600  0.835900  1.0  0.1011
  H  H439  1  0.883500  0.209100  0.782500  1.0  0.0971
  H  H440  1  0.819100  0.108700  0.892900  1.0  0.1087
  H  H441  1  0.611400  0.106900  0.850500  1.0  0.1427
  H  H442  1  0.652200  0.141200  0.874700  1.0  0.1404
  H  H443  1  0.594900  0.156600  0.875000  1.0  0.147
  H  H444  1  0.476900  0.368000  0.766000  1.0  0.116
  H  H445  1  0.492000  0.227100  0.792100  1.0  0.1616
  H  H446  1  0.873600  0.140000  0.574200  1.0  0.1498
  H  H447  1  0.842600  0.107600  0.611300  1.0  0.1581
  H  H448  1  0.819000  0.122000  0.560300  1.0  0.1545
  H  H449  1  0.418100  0.231400  0.834600  1.0  0.0709
  H  H450  1  0.400700  0.367900  0.806100  1.0  0.1123
  H  H451  1  0.754300  0.512900  0.616800  1.0  0.1173
  H  H452  1  0.778100  0.502700  0.757300  1.0  0.1611
  H  H453  1  0.823400  0.578700  0.755700  1.0  0.1067
  H  H454  1  0.788800  0.592900  0.621300  1.0  0.0784
  H  H455  1  0.872200  0.377600  0.870700  1.0  0.1468
  H  H456  1  0.894900  0.339800  0.832900  1.0  0.1503
  H  H457  1  0.895500  0.396300  0.820900  1.0  0.1491
  H  H458  1  0.638800  0.514900  0.869300  1.0  0.147
  H  H459  1  0.597000  0.481500  0.893200  1.0  0.1509
  H  H460  1  0.648900  0.489600  0.920200  1.0  0.1519
  H  H461  1  0.689900  0.179700  0.574000  1.0  0.0884
  H  H462  1  0.633700  0.197300  0.566800  1.0  0.1116
  H  H463  1  0.759000  0.407300  0.471000  1.0  0.1554
  H  H464  1  0.705000  0.397900  0.448600  1.0  0.1439
  H  H465  1  0.721100  0.451200  0.464400  1.0  0.1697
  H  H466  1  0.855700  0.764300  0.880100  1.0  0.0804
  H  H467  1  0.761000  0.858500  0.928000  1.0  0.0674
  H  H468  1  0.764900  0.829300  0.005000  1.0  0.1305
  H  H469  1  0.713500  0.728500  0.319700  1.0  0.1072
  H  H470  1  0.760100  0.763200  0.328900  1.0  0.1071
  H  H471  1  0.969500  0.635900  0.209200  1.0  0.1037
  H  H472  1  0.981600  0.681700  0.176200  1.0  0.1309
  H  H473  1  0.919300  0.704200  0.311700  1.0  0.1191
  H  H474  1  0.929400  0.650300  0.294300  1.0  0.1199
  H  H475  1  0.883200  0.716200  0.036300  1.0  0.0915
  H  H476  1  0.837700  0.682200  0.021600  1.0  0.0875
  H  H477  1  0.860100  0.725700  0.956700  1.0  0.1305
  H  H478  1  0.773000  0.838800  0.270800  1.0  0.0856
  H  H479  1  0.738800  0.842300  0.223700  1.0  0.1163
  H  H480  1  0.669200  0.786200  0.209000  1.0  0.0891
  H  H481  1  0.659000  0.740700  0.243000  1.0  0.0912
  H  H482  1  0.796300  0.543200  0.122400  1.0  0.1061
  H  H483  1  0.829000  0.531600  0.169100  1.0  0.138
  H  H484  1  0.794700  0.545600  0.251100  1.0  0.1029
  H  H485  1  0.739400  0.565600  0.257600  1.0  0.0989
  H  H486  1  0.685700  0.583900  0.185400  1.0  0.112
  H  H487  1  0.706700  0.574900  0.132100  1.0  0.1146
  H  H488  1  0.965700  0.765300  0.206700  1.0  0.1135
  H  H489  1  0.941600  0.774000  0.258600  1.0  0.1124
  H  H490  1  0.749100  0.709400  0.031500  1.0  0.11
  H  H491  1  0.736700  0.762500  0.050700  1.0  0.0918
  H  H492  1  0.731100  0.852500  0.336000  1.0  0.0958
  H  H493  1  0.565400  0.830400  0.335900  1.0  0.1008
  H  H494  1  0.616500  0.790900  0.282500  1.0  0.0959
  H  H495  1  0.680900  0.891300  0.392900  1.0  0.1098
  H  H496  1  0.888600  0.893100  0.350500  1.0  0.1458
  H  H497  1  0.847800  0.858800  0.374700  1.0  0.1394
  H  H498  1  0.905100  0.843400  0.375000  1.0  0.1478
  H  H499  1  0.023100  0.632000  0.266000  1.0  0.1157
  H  H500  1  0.008000  0.772900  0.292100  1.0  0.1616
  H  H501  1  0.626400  0.860000  0.074200  1.0  0.1476
  H  H502  1  0.657400  0.892400  0.111300  1.0  0.1578
  H  H503  1  0.681000  0.878000  0.060300  1.0  0.152
  H  H504  1  0.081900  0.768600  0.334600  1.0  0.0714
  H  H505  1  0.099300  0.632100  0.306100  1.0  0.1123
  H  H506  1  0.745700  0.487100  0.116800  1.0  0.117
  H  H507  1  0.721900  0.497300  0.257300  1.0  0.1614
  H  H508  1  0.676600  0.421300  0.255700  1.0  0.1077
  H  H509  1  0.711200  0.407100  0.121300  1.0  0.0777
  H  H510  1  0.627800  0.622400  0.370700  1.0  0.1476
  H  H511  1  0.605100  0.660200  0.332900  1.0  0.1507
  H  H512  1  0.604500  0.603700  0.320900  1.0  0.1487
  H  H513  1  0.861200  0.485100  0.369300  1.0  0.1473
  H  H514  1  0.903000  0.518500  0.393200  1.0  0.1507
  H  H515  1  0.851100  0.510400  0.420200  1.0  0.1522
  H  H516  1  0.810100  0.820300  0.074000  1.0  0.0886
  H  H517  1  0.866300  0.802700  0.066800  1.0  0.1128
  H  H518  1  0.741000  0.592700  0.971000  1.0  0.1511
  H  H519  1  0.795000  0.602100  0.948600  1.0  0.1439
  H  H520  1  0.778900  0.548800  0.964400  1.0  0.1699
  C  C521  1  0.663500  0.277000  0.905900  1.0  0.1984
  C  C522  1  0.717700  0.331800  0.934000  1.0  0.1928
  C  C523  1  0.716400  0.314200  0.980100  1.0  -0.2481
  C  C524  1  0.686600  0.272800  0.990100  1.0  0.083
  C  C525  1  0.759300  0.246400  0.303600  1.0  -0.0368
  C  C526  1  0.542900  0.168100  0.199100  1.0  -0.0583
  C  C527  1  0.545600  0.201500  0.244500  1.0  0.0736
  C  C528  1  0.582500  0.182400  0.283500  1.0  -0.0288
  C  C529  1  0.685600  0.250600  0.044300  1.0  0.103
  C  C530  1  0.650700  0.206000  0.045800  1.0  -0.0383
  C  C531  1  0.660000  0.253500  0.952400  1.0  -0.2858
  C  C532  1  0.743500  0.319600  0.245300  1.0  -0.015
  C  C533  1  0.782100  0.284300  0.269100  1.0  0.1164
  C  C534  1  0.814400  0.260300  0.227900  1.0  0.0038
  C  C535  1  0.694900  0.054800  0.155100  1.0  -0.054
  C  C536  1  0.741600  0.055100  0.185900  1.0  0.1046
  C  C537  1  0.729900  0.068800  0.238200  1.0  -0.0185
  C  C538  1  0.784500  0.086900  0.164600  1.0  -0.0601
  C  C539  1  0.559700  0.253200  0.229600  1.0  -0.0513
  C  C540  1  0.740900  0.234500  0.055000  1.0  -0.0124
  C  C541  1  0.493900  0.203200  0.271500  1.0  0.1148
  C  C542  1  0.816900  0.318700  0.110600  1.0  0.6795
  C  C543  1  0.764500  0.003400  0.186300  1.0  0.1618
  C  C544  1  0.628200  0.333333  0.307800  1.0  0.729
  C  C545  1  0.819200  0.317600  0.301100  1.0  0.2796
  C  C546  1  0.803700  0.347100  0.334300  1.0  -0.0988
  C  C547  1  0.899900  0.337100  0.336100  1.0  0.1185
  C  C548  1  0.868300  0.312900  0.304200  1.0  -0.1144
  C  C549  1  0.834100  0.372200  0.368500  1.0  0.1163
  C  C550  1  0.621000  0.359500  0.356400  1.0  -0.4823
  C  C551  1  0.465200  0.161500  0.279100  1.0  -0.1105
  C  C552  1  0.475000  0.243000  0.294200  1.0  -0.2666
  C  C553  1  0.840400  0.367100  0.086800  1.0  -0.4568
  C  C554  1  0.430300  0.239700  0.320600  1.0  0.1869
  C  C555  1  0.419800  0.160800  0.305000  1.0  0.1424
  C  C556  1  0.767400  0.975700  0.146500  1.0  -0.1934
  C  C557  1  0.782800  0.981600  0.227200  1.0  -0.1425
  C  C558  1  0.809900  0.934100  0.226700  1.0  0.1449
  C  C559  1  0.791200  0.927100  0.149000  1.0  0.2174
  C  C560  1  0.821700  0.134700  0.310300  1.0  0.6862
  C  C561  1  0.876700  0.129700  0.336300  1.0  -0.3909
  C  C562  1  0.654500  0.058000  0.362800  1.0  0.2296
  C  C563  1  0.632900  0.014100  0.388700  1.0  -0.3904
  C  C564  1  0.701300  0.093200  0.027700  1.0  0.3352
  C  C565  1  0.667200  0.292400  0.077500  1.0  -0.0333
  C  C566  1  0.724000  0.083100  0.972100  1.0  -0.4068
  C  C567  1  0.836500  0.723000  0.405900  1.0  0.1988
  C  C568  1  0.782300  0.668200  0.434000  1.0  0.1926
  C  C569  1  0.783600  0.685800  0.480100  1.0  -0.2474
  C  C570  1  0.813400  0.727200  0.490100  1.0  0.0828
  C  C571  1  0.740700  0.753600  0.803600  1.0  -0.036
  C  C572  1  0.957100  0.831900  0.699100  1.0  -0.0584
  C  C573  1  0.954400  0.798500  0.744500  1.0  0.0732
  C  C574  1  0.917500  0.817600  0.783500  1.0  -0.0277
  C  C575  1  0.814400  0.749400  0.544300  1.0  0.1029
  C  C576  1  0.849300  0.794000  0.545800  1.0  -0.0381
  C  C577  1  0.840000  0.746500  0.452400  1.0  -0.2851
  C  C578  1  0.756500  0.680400  0.745300  1.0  -0.0159
  C  C579  1  0.717900  0.715700  0.769100  1.0  0.1173
  C  C580  1  0.685600  0.739700  0.727900  1.0  0.0039
  C  C581  1  0.805100  0.945200  0.655100  1.0  -0.0524
  C  C582  1  0.758400  0.944900  0.685900  1.0  0.1039
  C  C583  1  0.770100  0.931200  0.738200  1.0  -0.0181
  C  C584  1  0.715500  0.913100  0.664600  1.0  -0.061
  C  C585  1  0.940300  0.746800  0.729600  1.0  -0.0511
  C  C586  1  0.759100  0.765500  0.555000  1.0  -0.0101
  C  C587  1  0.006100  0.796800  0.771500  1.0  0.114
  C  C588  1  0.683100  0.681300  0.610600  1.0  0.6781
  C  C589  1  0.735500  0.996600  0.686300  1.0  0.1625
  C  C590  1  0.871800  0.666667  0.807800  1.0  0.7284
  C  C591  1  0.680800  0.682400  0.801100  1.0  0.2814
  C  C592  1  0.696300  0.652900  0.834300  1.0  -0.0988
  C  C593  1  0.600100  0.662900  0.836100  1.0  0.116
  C  C594  1  0.631700  0.687100  0.804200  1.0  -0.1138
  C  C595  1  0.665900  0.627800  0.868500  1.0  0.1179
  C  C596  1  0.879000  0.640500  0.856400  1.0  -0.4825
  C  C597  1  0.034800  0.838500  0.779100  1.0  -0.1133
  C  C598  1  0.025000  0.757000  0.794200  1.0  -0.2663
  C  C599  1  0.659600  0.632900  0.586800  1.0  -0.458
  C  C600  1  0.069700  0.760300  0.820600  1.0  0.1884
  C  C601  1  0.080200  0.839200  0.805000  1.0  0.1415
  C  C602  1  0.732600  0.024300  0.646500  1.0  -0.1934
  C  C603  1  0.717200  0.018400  0.727200  1.0  -0.1434
  C  C604  1  0.690100  0.065900  0.726700  1.0  0.1455
  C  C605  1  0.708800  0.072900  0.649000  1.0  0.2173
  C  C606  1  0.678300  0.865300  0.810300  1.0  0.6873
  C  C607  1  0.623300  0.870300  0.836300  1.0  -0.3917
  C  C608  1  0.845500  0.942000  0.862800  1.0  0.2291
  C  C609  1  0.867100  0.985900  0.888700  1.0  -0.3905
  C  C610  1  0.798700  0.906800  0.527700  1.0  0.3349
  C  C611  1  0.832800  0.707600  0.577500  1.0  -0.0316
  C  C612  1  0.776000  0.916900  0.472100  1.0  -0.4061
  C  C613  1  0.336500  0.777000  0.594100  1.0  0.1989
  C  C614  1  0.282300  0.831800  0.566000  1.0  0.1913
  C  C615  1  0.283600  0.814200  0.519900  1.0  -0.2494
  C  C616  1  0.313400  0.772800  0.509900  1.0  0.0824
  C  C617  1  0.240700  0.746400  0.196400  1.0  -0.032
  C  C618  1  0.457100  0.668100  0.300900  1.0  -0.0594
  C  C619  1  0.454400  0.701500  0.255500  1.0  0.0737
  C  C620  1  0.417500  0.682400  0.216500  1.0  -0.0253
  C  C621  1  0.314400  0.750600  0.455700  1.0  0.1041
  C  C622  1  0.349300  0.706000  0.454200  1.0  -0.0428
  C  C623  1  0.340000  0.753500  0.547600  1.0  -0.2846
  C  C624  1  0.256500  0.819600  0.254700  1.0  -0.0138
  C  C625  1  0.217900  0.784300  0.230900  1.0  0.1158
  C  C626  1  0.185600  0.760300  0.272100  1.0  0.0037
  C  C627  1  0.305100  0.554800  0.344900  1.0  -0.0512
  C  C628  1  0.258400  0.555100  0.314100  1.0  0.1045
  C  C629  1  0.270100  0.568800  0.261800  1.0  -0.0174
  C  C630  1  0.215500  0.586900  0.335400  1.0  -0.0612
  C  C631  1  0.440300  0.753200  0.270400  1.0  -0.0527
  C  C632  1  0.259100  0.734500  0.445000  1.0  -0.0135
  C  C633  1  0.506100  0.703200  0.228500  1.0  0.1139
  C  C634  1  0.183100  0.818700  0.389400  1.0  0.6752
  C  C635  1  0.235500  0.503400  0.313700  1.0  0.1625
  C  C636  1  0.371800  0.833300  0.192200  1.0  0.7296
  C  C637  1  0.180800  0.817600  0.198900  1.0  0.2814
  C  C638  1  0.196300  0.847100  0.165700  1.0  -0.0992
  C  C639  1  0.100100  0.837100  0.163900  1.0  0.1154
  C  C640  1  0.131700  0.812900  0.195800  1.0  -0.1133
  C  C641  1  0.165900  0.872200  0.131500  1.0  0.1183
  C  C642  1  0.379000  0.859500  0.143600  1.0  -0.4825
  C  C643  1  0.534800  0.661500  0.220900  1.0  -0.1098
  C  C644  1  0.525000  0.743000  0.205800  1.0  -0.2674
  C  C645  1  0.159600  0.867100  0.413200  1.0  -0.4566
  C  C646  1  0.569700  0.739700  0.179400  1.0  0.1893
  C  C647  1  0.580200  0.660800  0.195000  1.0  0.1424
  C  C648  1  0.232600  0.475700  0.353500  1.0  -0.1913
  C  C649  1  0.217200  0.481600  0.272800  1.0  -0.1423
  C  C650  1  0.190100  0.434100  0.273300  1.0  0.1451
  C  C651  1  0.208800  0.427100  0.351000  1.0  0.2175
  C  C652  1  0.178300  0.634700  0.189700  1.0  0.6871
  C  C653  1  0.123300  0.629700  0.163700  1.0  -0.3884
  C  C654  1  0.345500  0.558000  0.137200  1.0  0.229
  C  C655  1  0.367100  0.514100  0.111300  1.0  -0.3916
  C  C656  1  0.298700  0.593200  0.472300  1.0  0.3339
  C  C657  1  0.332800  0.792400  0.422500  1.0  -0.033
  C  C658  1  0.276000  0.583100  0.527900  1.0  -0.4014
  C  C659  1  0.163500  0.223000  0.094100  1.0  0.1991
  C  C660  1  0.217700  0.168200  0.066000  1.0  0.1922
  C  C661  1  0.216400  0.185800  0.019900  1.0  -0.2501
  C  C662  1  0.186600  0.227200  0.009900  1.0  0.0834
  C  C663  1  0.259300  0.253600  0.696400  1.0  -0.0339
  C  C664  1  0.042900  0.331900  0.800900  1.0  -0.0606
  C  C665  1  0.045600  0.298500  0.755500  1.0  0.0735
  C  C666  1  0.082500  0.317600  0.716500  1.0  -0.0254
  C  C667  1  0.185600  0.249400  0.955700  1.0  0.1045
  C  C668  1  0.150700  0.294000  0.954200  1.0  -0.0394
  C  C669  1  0.160000  0.246500  0.047600  1.0  -0.2852
  C  C670  1  0.243500  0.180400  0.754700  1.0  -0.0141
  C  C671  1  0.282100  0.215700  0.730900  1.0  0.1151
  C  C672  1  0.314400  0.239700  0.772100  1.0  0.0045
  C  C673  1  0.194900  0.445200  0.844900  1.0  -0.0513
  C  C674  1  0.241600  0.444900  0.814100  1.0  0.104
  C  C675  1  0.229900  0.431200  0.761800  1.0  -0.0174
  C  C676  1  0.284500  0.413100  0.835400  1.0  -0.0602
  C  C677  1  0.059700  0.246800  0.770400  1.0  -0.0512
  C  C678  1  0.240900  0.265500  0.945000  1.0  -0.0131
  C  C679  1  0.993900  0.296800  0.728500  1.0  0.1149
  C  C680  1  0.316900  0.181300  0.889400  1.0  0.6774
  C  C681  1  0.264500  0.496600  0.813700  1.0  0.1621
  C  C682  1  0.128200  0.166700  0.692200  1.0  0.7319
  C  C683  1  0.319200  0.182400  0.698900  1.0  0.2807
  C  C684  1  0.303700  0.152900  0.665700  1.0  -0.1014
  C  C685  1  0.399900  0.162900  0.663900  1.0  0.1168
  C  C686  1  0.368300  0.187100  0.695800  1.0  -0.1117
  C  C687  1  0.334100  0.127800  0.631500  1.0  0.1205
  C  C688  1  0.121000  0.140500  0.643600  1.0  -0.4781
  C  C689  1  0.965200  0.338500  0.720900  1.0  -0.1109
  C  C690  1  0.975000  0.257000  0.705800  1.0  -0.2651
  C  C691  1  0.340400  0.132900  0.913200  1.0  -0.4582
  C  C692  1  0.930300  0.260300  0.679400  1.0  0.1883
  C  C693  1  0.919800  0.339200  0.695000  1.0  0.1423
  C  C694  1  0.267400  0.524300  0.853500  1.0  -0.1916
  C  C695  1  0.282800  0.518400  0.772800  1.0  -0.1428
  C  C696  1  0.309900  0.565900  0.773300  1.0  0.1465
  C  C697  1  0.291200  0.572900  0.851000  1.0  0.2186
  C  C698  1  0.321700  0.365300  0.689700  1.0  0.687
  C  C699  1  0.376700  0.370300  0.663700  1.0  -0.3912
  C  C700  1  0.154500  0.442000  0.637200  1.0  0.2286
  C  C701  1  0.132900  0.485900  0.611300  1.0  -0.3897
  C  C702  1  0.201300  0.406800  0.972300  1.0  0.3336
  C  C703  1  0.167200  0.207600  0.922500  1.0  -0.0329
  C  C704  1  0.224000  0.416900  0.027900  1.0  -0.4026
  C  C705  1  0.336500  0.723000  0.094100  1.0  0.1985
  C  C706  1  0.282300  0.668200  0.066000  1.0  0.1923
  C  C707  1  0.283600  0.685800  0.019900  1.0  -0.249
  C  C708  1  0.313400  0.727200  0.009900  1.0  0.0827
  C  C709  1  0.240700  0.753600  0.696400  1.0  -0.0325
  C  C710  1  0.457100  0.831900  0.800900  1.0  -0.0598
  C  C711  1  0.454400  0.798500  0.755500  1.0  0.0733
  C  C712  1  0.417500  0.817600  0.716500  1.0  -0.0251
  C  C713  1  0.314400  0.749400  0.955700  1.0  0.1043
  C  C714  1  0.349300  0.794000  0.954200  1.0  -0.0409
  C  C715  1  0.340000  0.746500  0.047600  1.0  -0.2847
  C  C716  1  0.256500  0.680400  0.754700  1.0  -0.0146
  C  C717  1  0.217900  0.715700  0.730900  1.0  0.116
  C  C718  1  0.185600  0.739700  0.772100  1.0  0.0036
  C  C719  1  0.305100  0.945200  0.844900  1.0  -0.0509
  C  C720  1  0.258400  0.944900  0.814100  1.0  0.1039
  C  C721  1  0.270100  0.931200  0.761800  1.0  -0.0184
  C  C722  1  0.215500  0.913100  0.835400  1.0  -0.0609
  C  C723  1  0.440300  0.746800  0.770400  1.0  -0.0511
  C  C724  1  0.259100  0.765500  0.945000  1.0  -0.0132
  C  C725  1  0.506100  0.796800  0.728500  1.0  0.1138
  C  C726  1  0.183100  0.681300  0.889400  1.0  0.6756
  C  C727  1  0.235500  0.996600  0.813700  1.0  0.1626
  C  C728  1  0.371800  0.666667  0.692200  1.0  0.7298
  C  C729  1  0.180800  0.682400  0.698900  1.0  0.2819
  C  C730  1  0.196300  0.652900  0.665700  1.0  -0.1005
  C  C731  1  0.100100  0.662900  0.663900  1.0  0.1163
  C  C732  1  0.131700  0.687100  0.695800  1.0  -0.113
  C  C733  1  0.165900  0.627800  0.631500  1.0  0.119
  C  C734  1  0.379000  0.640500  0.643600  1.0  -0.4813
  C  C735  1  0.534800  0.838500  0.720900  1.0  -0.1117
  C  C736  1  0.525000  0.757000  0.705800  1.0  -0.2663
  C  C737  1  0.159600  0.632900  0.913200  1.0  -0.4582
  C  C738  1  0.569700  0.760300  0.679400  1.0  0.189
  C  C739  1  0.580200  0.839200  0.695000  1.0  0.1431
  C  C740  1  0.232600  0.024300  0.853500  1.0  -0.1922
  C  C741  1  0.217200  0.018400  0.772800  1.0  -0.1424
  C  C742  1  0.190100  0.065900  0.773300  1.0  0.1458
  C  C743  1  0.208800  0.072900  0.851000  1.0  0.2186
  C  C744  1  0.178300  0.865300  0.689700  1.0  0.6889
  C  C745  1  0.123300  0.870300  0.663700  1.0  -0.3908
  C  C746  1  0.345500  0.942000  0.637200  1.0  0.2285
  C  C747  1  0.367100  0.985900  0.611300  1.0  -0.3915
  C  C748  1  0.298700  0.906800  0.972300  1.0  0.3329
  C  C749  1  0.332800  0.707600  0.922500  1.0  -0.0308
  C  C750  1  0.276000  0.916900  0.027900  1.0  -0.4016
  C  C751  1  0.163500  0.277000  0.594100  1.0  0.1991
  C  C752  1  0.217700  0.331800  0.566000  1.0  0.1918
  C  C753  1  0.216400  0.314200  0.519900  1.0  -0.2493
  C  C754  1  0.186600  0.272800  0.509900  1.0  0.083
  C  C755  1  0.259300  0.246400  0.196400  1.0  -0.0337
  C  C756  1  0.042900  0.168100  0.300900  1.0  -0.0593
  C  C757  1  0.045600  0.201500  0.255500  1.0  0.0738
  C  C758  1  0.082500  0.182400  0.216500  1.0  -0.0258
  C  C759  1  0.185600  0.250600  0.455700  1.0  0.1045
  C  C760  1  0.150700  0.206000  0.454200  1.0  -0.0413
  C  C761  1  0.160000  0.253500  0.547600  1.0  -0.2853
  C  C762  1  0.243500  0.319600  0.254700  1.0  -0.0139
  C  C763  1  0.282100  0.284300  0.230900  1.0  0.1148
  C  C764  1  0.314400  0.260300  0.272100  1.0  0.0036
  C  C765  1  0.194900  0.054800  0.344900  1.0  -0.0534
  C  C766  1  0.241600  0.055100  0.314100  1.0  0.1046
  C  C767  1  0.229900  0.068800  0.261800  1.0  -0.0168
  C  C768  1  0.284500  0.086900  0.335400  1.0  -0.0597
  C  C769  1  0.059700  0.253200  0.270400  1.0  -0.0518
  C  C770  1  0.240900  0.234500  0.445000  1.0  -0.0148
  C  C771  1  0.993900  0.203200  0.228500  1.0  0.1148
  C  C772  1  0.316900  0.318700  0.389400  1.0  0.6771
  C  C773  1  0.264500  0.003400  0.313700  1.0  0.162
  C  C774  1  0.128200  0.333333  0.192200  1.0  0.7317
  C  C775  1  0.319200  0.317600  0.198900  1.0  0.2796
  C  C776  1  0.303700  0.347100  0.165700  1.0  -0.1008
  C  C777  1  0.399900  0.337100  0.163900  1.0  0.118
  C  C778  1  0.368300  0.312900  0.195800  1.0  -0.1124
  C  C779  1  0.334100  0.372200  0.131500  1.0  0.1198
  C  C780  1  0.121000  0.359500  0.143600  1.0  -0.4804
  C  C781  1  0.965200  0.161500  0.220900  1.0  -0.1095
  C  C782  1  0.975000  0.243000  0.205800  1.0  -0.266
  C  C783  1  0.340400  0.367100  0.413200  1.0  -0.4573
  C  C784  1  0.930300  0.239700  0.179400  1.0  0.1887
  C  C785  1  0.919800  0.160800  0.195000  1.0  0.1413
  C  C786  1  0.267400  0.975700  0.353500  1.0  -0.1905
  C  C787  1  0.282800  0.981600  0.272800  1.0  -0.1428
  C  C788  1  0.309900  0.934100  0.273300  1.0  0.1463
  C  C789  1  0.291200  0.927100  0.351000  1.0  0.217
  C  C790  1  0.321700  0.134700  0.189700  1.0  0.6857
  C  C791  1  0.376700  0.129700  0.163700  1.0  -0.3919
  C  C792  1  0.154500  0.058000  0.137200  1.0  0.2295
  C  C793  1  0.132900  0.014100  0.111300  1.0  -0.3901
  C  C794  1  0.201300  0.093200  0.472300  1.0  0.3345
  C  C795  1  0.167200  0.292400  0.422500  1.0  -0.0334
  C  C796  1  0.224000  0.083100  0.527900  1.0  -0.4017
  C  C797  1  0.663500  0.223000  0.405900  1.0  0.1988
  C  C798  1  0.717700  0.168200  0.434000  1.0  0.1924
  C  C799  1  0.716400  0.185800  0.480100  1.0  -0.2484
  C  C800  1  0.686600  0.227200  0.490100  1.0  0.0832
  C  C801  1  0.759300  0.253600  0.803600  1.0  -0.0353
  C  C802  1  0.542900  0.331900  0.699100  1.0  -0.058
  C  C803  1  0.545600  0.298500  0.744500  1.0  0.0733
  C  C804  1  0.582500  0.317600  0.783500  1.0  -0.0289
  C  C805  1  0.685600  0.249400  0.544300  1.0  0.1032
  C  C806  1  0.650700  0.294000  0.545800  1.0  -0.0373
  C  C807  1  0.660000  0.246500  0.452400  1.0  -0.2867
  C  C808  1  0.743500  0.180400  0.745300  1.0  -0.0155
  C  C809  1  0.782100  0.215700  0.769100  1.0  0.1165
  C  C810  1  0.814400  0.239700  0.727900  1.0  0.0045
  C  C811  1  0.694900  0.445200  0.655100  1.0  -0.053
  C  C812  1  0.741600  0.444900  0.685900  1.0  0.104
  C  C813  1  0.729900  0.431200  0.738200  1.0  -0.0177
  C  C814  1  0.784500  0.413100  0.664600  1.0  -0.0611
  C  C815  1  0.559700  0.246800  0.729600  1.0  -0.0507
  C  C816  1  0.740900  0.265500  0.555000  1.0  -0.0106
  C  C817  1  0.493900  0.296800  0.771500  1.0  0.1149
  C  C818  1  0.816900  0.181300  0.610600  1.0  0.6793
  C  C819  1  0.764500  0.496600  0.686300  1.0  0.162
  C  C820  1  0.628200  0.166700  0.807800  1.0  0.7295
  C  C821  1  0.819200  0.182400  0.801100  1.0  0.2801
  C  C822  1  0.803700  0.152900  0.834300  1.0  -0.0984
  C  C823  1  0.899900  0.162900  0.836100  1.0  0.1176
  C  C824  1  0.868300  0.187100  0.804200  1.0  -0.1132
  C  C825  1  0.834100  0.127800  0.868500  1.0  0.1181
  C  C826  1  0.621000  0.140500  0.856400  1.0  -0.48
  C  C827  1  0.465200  0.338500  0.779100  1.0  -0.1123
  C  C828  1  0.475000  0.257000  0.794200  1.0  -0.2649
  C  C829  1  0.840400  0.132900  0.586800  1.0  -0.4582
  C  C830  1  0.430300  0.260300  0.820600  1.0  0.1876
  C  C831  1  0.419800  0.339200  0.805000  1.0  0.14
  C  C832  1  0.767400  0.524300  0.646500  1.0  -0.1929
  C  C833  1  0.782800  0.518400  0.727200  1.0  -0.1441
  C  C834  1  0.809900  0.565900  0.726700  1.0  0.1459
  C  C835  1  0.791200  0.572900  0.649000  1.0  0.218
  C  C836  1  0.821700  0.365300  0.810300  1.0  0.6859
  C  C837  1  0.876700  0.370300  0.836300  1.0  -0.3947
  C  C838  1  0.654500  0.442000  0.862800  1.0  0.2288
  C  C839  1  0.632900  0.485900  0.888700  1.0  -0.3898
  C  C840  1  0.701300  0.406800  0.527700  1.0  0.3354
  C  C841  1  0.667200  0.207600  0.577500  1.0  -0.0333
  C  C842  1  0.724000  0.416900  0.472100  1.0  -0.4063
  C  C843  1  0.836500  0.777000  0.905900  1.0  0.1987
  C  C844  1  0.782300  0.831800  0.934000  1.0  0.1923
  C  C845  1  0.783600  0.814200  0.980100  1.0  -0.2484
  C  C846  1  0.813400  0.772800  0.990100  1.0  0.0826
  C  C847  1  0.740700  0.746400  0.303600  1.0  -0.0375
  C  C848  1  0.957100  0.668100  0.199100  1.0  -0.0589
  C  C849  1  0.954400  0.701500  0.244500  1.0  0.0736
  C  C850  1  0.917500  0.682400  0.283500  1.0  -0.0273
  C  C851  1  0.814400  0.750600  0.044300  1.0  0.1024
  C  C852  1  0.849300  0.706000  0.045800  1.0  -0.0392
  C  C853  1  0.840000  0.753500  0.952400  1.0  -0.2841
  C  C854  1  0.756500  0.819600  0.245300  1.0  -0.0149
  C  C855  1  0.717900  0.784300  0.269100  1.0  0.1174
  C  C856  1  0.685600  0.760300  0.227900  1.0  0.0037
  C  C857  1  0.805100  0.554800  0.155100  1.0  -0.0519
  C  C858  1  0.758400  0.555100  0.185900  1.0  0.1045
  C  C859  1  0.770100  0.568800  0.238200  1.0  -0.0188
  C  C860  1  0.715500  0.586900  0.164600  1.0  -0.0608
  C  C861  1  0.940300  0.753200  0.229600  1.0  -0.0523
  C  C862  1  0.759100  0.734500  0.055000  1.0  -0.0101
  C  C863  1  0.006100  0.703200  0.271500  1.0  0.1141
  C  C864  1  0.683100  0.818700  0.110600  1.0  0.678
  C  C865  1  0.735500  0.503400  0.186300  1.0  0.1623
  C  C866  1  0.871800  0.833300  0.307800  1.0  0.7277
  C  C867  1  0.680800  0.817600  0.301100  1.0  0.2811
  C  C868  1  0.696300  0.847100  0.334300  1.0  -0.0986
  C  C869  1  0.600100  0.837100  0.336100  1.0  0.1148
  C  C870  1  0.631700  0.812900  0.304200  1.0  -0.1145
  C  C871  1  0.665900  0.872200  0.368500  1.0  0.116
  C  C872  1  0.879000  0.859500  0.356400  1.0  -0.4836
  C  C873  1  0.034800  0.661500  0.279100  1.0  -0.1105
  C  C874  1  0.025000  0.743000  0.294200  1.0  -0.2679
  C  C875  1  0.659600  0.867100  0.086800  1.0  -0.4555
  C  C876  1  0.069700  0.739700  0.320600  1.0  0.187
  C  C877  1  0.080200  0.660800  0.305000  1.0  0.1439
  C  C878  1  0.732600  0.475700  0.146500  1.0  -0.1941
  C  C879  1  0.717200  0.481600  0.227200  1.0  -0.1422
  C  C880  1  0.690100  0.434100  0.226700  1.0  0.1444
  C  C881  1  0.708800  0.427100  0.149000  1.0  0.2171
  C  C882  1  0.678300  0.634700  0.310300  1.0  0.6877
  C  C883  1  0.623300  0.629700  0.336300  1.0  -0.391
  C  C884  1  0.845500  0.558000  0.362800  1.0  0.2293
  C  C885  1  0.867100  0.514100  0.388700  1.0  -0.3909
  C  C886  1  0.798700  0.593200  0.027700  1.0  0.3354
  C  C887  1  0.832800  0.792400  0.077500  1.0  -0.033
  C  C888  1  0.776000  0.583100  0.972100  1.0  -0.4054
  N  N889  1  0.691600  0.314900  0.896900  1.0  -0.333
  N  N890  1  0.882100  0.368900  0.366000  1.0  -0.3115
  N  N891  1  0.403800  0.200100  0.327800  1.0  -0.3583
  N  N892  1  0.814600  0.910300  0.185600  1.0  -0.2902
  N  N893  1  0.808400  0.685100  0.396900  1.0  -0.3319
  N  N894  1  0.617900  0.631100  0.866000  1.0  -0.3079
  N  N895  1  0.096200  0.799900  0.827800  1.0  -0.3605
  N  N896  1  0.685400  0.089700  0.685600  1.0  -0.2888
  N  N897  1  0.308400  0.814900  0.603100  1.0  -0.3299
  N  N898  1  0.117900  0.868900  0.134000  1.0  -0.3113
  N  N899  1  0.596200  0.700100  0.172200  1.0  -0.3652
  N  N900  1  0.185400  0.410300  0.314400  1.0  -0.2888
  N  N901  1  0.191600  0.185100  0.103100  1.0  -0.3287
  N  N902  1  0.382100  0.131100  0.634000  1.0  -0.3161
  N  N903  1  0.903800  0.299900  0.672200  1.0  -0.3619
  N  N904  1  0.314600  0.589700  0.814400  1.0  -0.2893
  N  N905  1  0.308400  0.685100  0.103100  1.0  -0.3286
  N  N906  1  0.117900  0.631100  0.634000  1.0  -0.3123
  N  N907  1  0.596200  0.799900  0.672200  1.0  -0.3637
  N  N908  1  0.185400  0.089700  0.814400  1.0  -0.2877
  N  N909  1  0.191600  0.314900  0.603100  1.0  -0.3301
  N  N910  1  0.382100  0.368900  0.134000  1.0  -0.3165
  N  N911  1  0.903800  0.200100  0.172200  1.0  -0.3639
  N  N912  1  0.314600  0.910300  0.314400  1.0  -0.2889
  N  N913  1  0.691600  0.185100  0.396900  1.0  -0.332
  N  N914  1  0.882100  0.131100  0.866000  1.0  -0.3102
  N  N915  1  0.403800  0.299900  0.827800  1.0  -0.3588
  N  N916  1  0.814600  0.589700  0.685600  1.0  -0.2906
  N  N917  1  0.808400  0.814900  0.896900  1.0  -0.3323
  N  N918  1  0.617900  0.868900  0.366000  1.0  -0.3074
  N  N919  1  0.096200  0.700100  0.327800  1.0  -0.3596
  N  N920  1  0.685400  0.410300  0.185600  1.0  -0.29
  O  O921  1  0.664700  0.278800  0.128700  1.0  -0.6958
  O  O922  1  0.705500  0.293000  0.217400  1.0  -0.7085
  O  O923  1  0.608700  0.258400  0.207300  1.0  -0.7119
  O  O924  1  0.726900  0.212000  0.278500  1.0  -0.6932
  O  O925  1  0.641200  0.288000  0.310500  1.0  -0.5997
  O  O926  1  0.648000  0.182400  0.092800  1.0  -0.7214
  O  O927  1  0.786800  0.230400  0.195600  1.0  -0.6639
  O  O928  1  0.590200  0.162000  0.174400  1.0  -0.7166
  O  O929  1  0.774700  0.323000  0.127600  1.0  -0.5359
  O  O930  1  0.770200  0.139600  0.161000  1.0  -0.7192
  O  O931  1  0.633500  0.177800  0.269900  1.0  -0.6651
  O  O932  1  0.746600  0.215800  0.103400  1.0  -0.7116
  O  O933  1  0.669800  0.103200  0.150600  1.0  -0.7252
  O  O934  1  0.821300  0.146400  0.264900  1.0  -0.5683
  O  O935  1  0.620100  0.357000  0.269200  1.0  -0.601
  O  O936  1  0.734100  0.112700  0.054600  1.0  -0.5756
  O  O937  1  0.710300  0.118000  0.244400  1.0  -0.7228
  O  O938  1  0.845400  0.282200  0.107200  1.0  -0.6246
  O  O939  1  0.784100  0.132000  0.338000  1.0  -0.631
  O  O940  1  0.632000  0.084600  0.342400  1.0  -0.5981
  O  O941  1  0.697400  0.065200  0.367500  1.0  -0.599
  O  O942  1  0.645300  0.080900  0.037800  1.0  -0.7495
  O  O943  1  0.835300  0.721200  0.628700  1.0  -0.6962
  O  O944  1  0.794500  0.707000  0.717400  1.0  -0.7066
  O  O945  1  0.891300  0.741600  0.707300  1.0  -0.7119
  O  O946  1  0.773100  0.788000  0.778500  1.0  -0.6928
  O  O947  1  0.858800  0.712000  0.810500  1.0  -0.5982
  O  O948  1  0.852000  0.817600  0.592800  1.0  -0.722
  O  O949  1  0.713200  0.769600  0.695600  1.0  -0.6642
  O  O950  1  0.909800  0.838000  0.674400  1.0  -0.7138
  O  O951  1  0.725300  0.677000  0.627600  1.0  -0.5387
  O  O952  1  0.729800  0.860400  0.661000  1.0  -0.7191
  O  O953  1  0.866500  0.822200  0.769900  1.0  -0.6621
  O  O954  1  0.753400  0.784200  0.603400  1.0  -0.7112
  O  O955  1  0.830200  0.896800  0.650600  1.0  -0.7263
  O  O956  1  0.678700  0.853600  0.764900  1.0  -0.5699
  O  O957  1  0.879900  0.643000  0.769200  1.0  -0.5988
  O  O958  1  0.765900  0.887300  0.554600  1.0  -0.5755
  O  O959  1  0.789700  0.882000  0.744400  1.0  -0.7198
  O  O960  1  0.654600  0.717800  0.607200  1.0  -0.6257
  O  O961  1  0.715900  0.868000  0.838000  1.0  -0.6298
  O  O962  1  0.868000  0.915400  0.842400  1.0  -0.6002
  O  O963  1  0.802600  0.934800  0.867500  1.0  -0.5999
  O  O964  1  0.854700  0.919100  0.537800  1.0  -0.7508
  O  O965  1  0.335300  0.778800  0.371300  1.0  -0.6979
  O  O966  1  0.294500  0.793000  0.282600  1.0  -0.7071
  O  O967  1  0.391300  0.758400  0.292700  1.0  -0.7109
  O  O968  1  0.273100  0.712000  0.221500  1.0  -0.6942
  O  O969  1  0.358800  0.788000  0.189500  1.0  -0.5976
  O  O970  1  0.352000  0.682400  0.407200  1.0  -0.7238
  O  O971  1  0.213200  0.730400  0.304400  1.0  -0.6648
  O  O972  1  0.409800  0.662000  0.325600  1.0  -0.7134
  O  O973  1  0.225300  0.823000  0.372400  1.0  -0.538
  O  O974  1  0.229800  0.639600  0.339000  1.0  -0.7186
  O  O975  1  0.366500  0.677800  0.230100  1.0  -0.6652
  O  O976  1  0.253400  0.715800  0.396600  1.0  -0.7142
  O  O977  1  0.330200  0.603200  0.349400  1.0  -0.7263
  O  O978  1  0.178700  0.646400  0.235100  1.0  -0.5687
  O  O979  1  0.379900  0.857000  0.230800  1.0  -0.6
  O  O980  1  0.265900  0.612700  0.445400  1.0  -0.5779
  O  O981  1  0.289700  0.618000  0.255600  1.0  -0.7208
  O  O982  1  0.154600  0.782200  0.392800  1.0  -0.6246
  O  O983  1  0.215900  0.632000  0.162000  1.0  -0.6324
  O  O984  1  0.368000  0.584600  0.157600  1.0  -0.5971
  O  O985  1  0.302600  0.565200  0.132500  1.0  -0.6004
  O  O986  1  0.354700  0.580900  0.462200  1.0  -0.7511
  O  O987  1  0.164700  0.221200  0.871300  1.0  -0.6975
  O  O988  1  0.205500  0.207000  0.782600  1.0  -0.7099
  O  O989  1  0.108700  0.241600  0.792700  1.0  -0.7113
  O  O990  1  0.226900  0.288000  0.721500  1.0  -0.694
  O  O991  1  0.141200  0.212000  0.689500  1.0  -0.5991
  O  O992  1  0.148000  0.317600  0.907200  1.0  -0.7231
  O  O993  1  0.286800  0.269600  0.804400  1.0  -0.6646
  O  O994  1  0.090200  0.338000  0.825600  1.0  -0.7158
  O  O995  1  0.274700  0.177000  0.872400  1.0  -0.5373
  O  O996  1  0.270200  0.360400  0.839000  1.0  -0.7198
  O  O997  1  0.133500  0.322200  0.730100  1.0  -0.6664
  O  O998  1  0.246600  0.284200  0.896600  1.0  -0.7142
  O  O999  1  0.169800  0.396800  0.849400  1.0  -0.7265
  O  O1000  1  0.321300  0.353600  0.735100  1.0  -0.5692
  O  O1001  1  0.120100  0.143000  0.730800  1.0  -0.6024
  O  O1002  1  0.234100  0.387300  0.945400  1.0  -0.5759
  O  O1003  1  0.210300  0.382000  0.755600  1.0  -0.7212
  O  O1004  1  0.345400  0.217800  0.892800  1.0  -0.6247
  O  O1005  1  0.284100  0.368000  0.662000  1.0  -0.632
  O  O1006  1  0.132000  0.415400  0.657600  1.0  -0.597
  O  O1007  1  0.197400  0.434800  0.632500  1.0  -0.6
  O  O1008  1  0.145300  0.419100  0.962200  1.0  -0.7489
  O  O1009  1  0.335300  0.721200  0.871300  1.0  -0.6974
  O  O1010  1  0.294500  0.707000  0.782600  1.0  -0.7077
  O  O1011  1  0.391300  0.741600  0.792700  1.0  -0.7105
  O  O1012  1  0.273100  0.788000  0.721500  1.0  -0.6945
  O  O1013  1  0.358800  0.712000  0.689500  1.0  -0.5982
  O  O1014  1  0.352000  0.817600  0.907200  1.0  -0.7242
  O  O1015  1  0.213200  0.769600  0.804400  1.0  -0.6652
  O  O1016  1  0.409800  0.838000  0.825600  1.0  -0.7128
  O  O1017  1  0.225300  0.677000  0.872400  1.0  -0.5383
  O  O1018  1  0.229800  0.860400  0.839000  1.0  -0.7188
  O  O1019  1  0.366500  0.822200  0.730100  1.0  -0.6639
  O  O1020  1  0.253400  0.784200  0.896600  1.0  -0.7136
  O  O1021  1  0.330200  0.896800  0.849400  1.0  -0.727
  O  O1022  1  0.178700  0.853600  0.735100  1.0  -0.5695
  O  O1023  1  0.379900  0.643000  0.730800  1.0  -0.5991
  O  O1024  1  0.265900  0.887300  0.945400  1.0  -0.577
  O  O1025  1  0.289700  0.882000  0.755600  1.0  -0.7193
  O  O1026  1  0.154600  0.717800  0.892800  1.0  -0.6229
  O  O1027  1  0.215900  0.868000  0.662000  1.0  -0.6323
  O  O1028  1  0.368000  0.915400  0.657600  1.0  -0.5993
  O  O1029  1  0.302600  0.934800  0.632500  1.0  -0.6007
  O  O1030  1  0.354700  0.919100  0.962200  1.0  -0.7505
  O  O1031  1  0.164700  0.278800  0.371300  1.0  -0.697
  O  O1032  1  0.205500  0.293000  0.282600  1.0  -0.7092
  O  O1033  1  0.108700  0.258400  0.292700  1.0  -0.7124
  O  O1034  1  0.226900  0.212000  0.221500  1.0  -0.6944
  O  O1035  1  0.141200  0.288000  0.189500  1.0  -0.5985
  O  O1036  1  0.148000  0.182400  0.407200  1.0  -0.7226
  O  O1037  1  0.286800  0.230400  0.304400  1.0  -0.664
  O  O1038  1  0.090200  0.162000  0.325600  1.0  -0.7165
  O  O1039  1  0.274700  0.323000  0.372400  1.0  -0.5365
  O  O1040  1  0.270200  0.139600  0.339000  1.0  -0.719
  O  O1041  1  0.133500  0.177800  0.230100  1.0  -0.667
  O  O1042  1  0.246600  0.215800  0.396600  1.0  -0.7142
  O  O1043  1  0.169800  0.103200  0.349400  1.0  -0.7254
  O  O1044  1  0.321300  0.146400  0.235100  1.0  -0.5685
  O  O1045  1  0.120100  0.357000  0.230800  1.0  -0.6011
  O  O1046  1  0.234100  0.112700  0.445400  1.0  -0.5771
  O  O1047  1  0.210300  0.118000  0.255600  1.0  -0.723
  O  O1048  1  0.345400  0.282200  0.392800  1.0  -0.6239
  O  O1049  1  0.284100  0.132000  0.162000  1.0  -0.6327
  O  O1050  1  0.132000  0.084600  0.157600  1.0  -0.5966
  O  O1051  1  0.197400  0.065200  0.132500  1.0  -0.5995
  O  O1052  1  0.145300  0.080900  0.462200  1.0  -0.7499
  O  O1053  1  0.664700  0.221200  0.628700  1.0  -0.6966
  O  O1054  1  0.705500  0.207000  0.717400  1.0  -0.709
  O  O1055  1  0.608700  0.241600  0.707300  1.0  -0.711
  O  O1056  1  0.726900  0.288000  0.778500  1.0  -0.6924
  O  O1057  1  0.641200  0.212000  0.810500  1.0  -0.5991
  O  O1058  1  0.648000  0.317600  0.592800  1.0  -0.7214
  O  O1059  1  0.786800  0.269600  0.695600  1.0  -0.6637
  O  O1060  1  0.590200  0.338000  0.674400  1.0  -0.7164
  O  O1061  1  0.774700  0.177000  0.627600  1.0  -0.5371
  O  O1062  1  0.770200  0.360400  0.661000  1.0  -0.7204
  O  O1063  1  0.633500  0.322200  0.769900  1.0  -0.665
  O  O1064  1  0.746600  0.284200  0.603400  1.0  -0.7122
  O  O1065  1  0.669800  0.396800  0.650600  1.0  -0.7263
  O  O1066  1  0.821300  0.353600  0.764900  1.0  -0.5693
  O  O1067  1  0.620100  0.143000  0.769200  1.0  -0.6025
  O  O1068  1  0.734100  0.387300  0.554600  1.0  -0.5742
  O  O1069  1  0.710300  0.382000  0.744400  1.0  -0.7213
  O  O1070  1  0.845400  0.217800  0.607200  1.0  -0.6238
  O  O1071  1  0.784100  0.368000  0.838000  1.0  -0.6295
  O  O1072  1  0.632000  0.415400  0.842400  1.0  -0.5977
  O  O1073  1  0.697400  0.434800  0.867500  1.0  -0.5993
  O  O1074  1  0.645300  0.419100  0.537800  1.0  -0.7499
  O  O1075  1  0.835300  0.778800  0.128700  1.0  -0.6964
  O  O1076  1  0.794500  0.793000  0.217400  1.0  -0.7059
  O  O1077  1  0.891300  0.758400  0.207300  1.0  -0.7118
  O  O1078  1  0.773100  0.712000  0.278500  1.0  -0.693
  O  O1079  1  0.858800  0.788000  0.310500  1.0  -0.5987
  O  O1080  1  0.852000  0.682400  0.092800  1.0  -0.7217
  O  O1081  1  0.713200  0.730400  0.195600  1.0  -0.6644
  O  O1082  1  0.909800  0.662000  0.174400  1.0  -0.7149
  O  O1083  1  0.725300  0.823000  0.127600  1.0  -0.5381
  O  O1084  1  0.729800  0.639600  0.161000  1.0  -0.7184
  O  O1085  1  0.866500  0.677800  0.269900  1.0  -0.6632
  O  O1086  1  0.753400  0.715800  0.103400  1.0  -0.7111
  O  O1087  1  0.830200  0.603200  0.150600  1.0  -0.7254
  O  O1088  1  0.678700  0.646400  0.264900  1.0  -0.5686
  O  O1089  1  0.879900  0.857000  0.269200  1.0  -0.6001
  O  O1090  1  0.765900  0.612700  0.054600  1.0  -0.5763
  O  O1091  1  0.789700  0.618000  0.244400  1.0  -0.7211
  O  O1092  1  0.654600  0.782200  0.107200  1.0  -0.6251
  O  O1093  1  0.715900  0.632000  0.338000  1.0  -0.6315
  O  O1094  1  0.868000  0.584600  0.342400  1.0  -0.5989
  O  O1095  1  0.802600  0.565200  0.367500  1.0  -0.5995
  O  O1096  1  0.854700  0.580900  0.037800  1.0  -0.75
