# generated using pymatgen
data_Mn4Mo2H85C74N34O
_symmetry_space_group_name_H-M   'P 1'
_cell_length_a   25.69650000
_cell_length_b   25.69650000
_cell_length_c   25.69650000
_cell_angle_alpha   77.27390000
_cell_angle_beta   77.27390000
_cell_angle_gamma   77.27390000
_symmetry_Int_Tables_number   1
_chemical_formula_structural   Mn4Mo2H85C74N34O
_chemical_formula_sum   'Mn24 Mo12 H510 C444 N204 O6'
_cell_volume   15879.01547994
_cell_formula_units_Z   6
loop_
 _symmetry_equiv_pos_site_id
 _symmetry_equiv_pos_as_xyz
  1  'x, y, z'
loop_
 _atom_site_type_symbol
 _atom_site_label
 _atom_site_symmetry_multiplicity
 _atom_site_fract_x
 _atom_site_fract_y
 _atom_site_fract_z
 _atom_site_occupancy
 _atom_site_charge
  Mn  Mn1  1  0.059690  0.483790  0.291880  1.0  0.8828
  Mn  Mn2  1  0.207270  0.769570  0.988510  1.0  0.881
  Mn  Mn3  1  0.173580  0.502630  0.991510  1.0  0.8909
  Mn  Mn4  1  0.255320  0.513830  0.691300  1.0  0.9138
  Mn  Mn5  1  0.291880  0.059690  0.483790  1.0  0.8844
  Mn  Mn6  1  0.988510  0.207270  0.769570  1.0  0.88
  Mn  Mn7  1  0.991510  0.173580  0.502630  1.0  0.8911
  Mn  Mn8  1  0.691300  0.255320  0.513830  1.0  0.915
  Mn  Mn9  1  0.483790  0.291880  0.059690  1.0  0.8811
  Mn  Mn10  1  0.769570  0.988510  0.207270  1.0  0.881
  Mn  Mn11  1  0.502630  0.991510  0.173580  1.0  0.8905
  Mn  Mn12  1  0.513830  0.691300  0.255320  1.0  0.9142
  Mn  Mn13  1  0.940310  0.516210  0.708120  1.0  0.8843
  Mn  Mn14  1  0.792730  0.230430  0.011490  1.0  0.8828
  Mn  Mn15  1  0.826420  0.497370  0.008490  1.0  0.8893
  Mn  Mn16  1  0.744680  0.486170  0.308700  1.0  0.9149
  Mn  Mn17  1  0.708120  0.940310  0.516210  1.0  0.8852
  Mn  Mn18  1  0.011490  0.792730  0.230430  1.0  0.882
  Mn  Mn19  1  0.008490  0.826420  0.497370  1.0  0.8904
  Mn  Mn20  1  0.308700  0.744680  0.486170  1.0  0.9154
  Mn  Mn21  1  0.516210  0.708120  0.940310  1.0  0.8816
  Mn  Mn22  1  0.230430  0.011490  0.792730  1.0  0.8815
  Mn  Mn23  1  0.497370  0.008490  0.826420  1.0  0.8912
  Mn  Mn24  1  0.486170  0.308700  0.744680  1.0  0.9149
  Mo  Mo25  1  0.079870  0.640590  0.117270  1.0  0.6835
  Mo  Mo26  1  0.357560  0.451610  0.853510  1.0  0.5737
  Mo  Mo27  1  0.117270  0.079870  0.640590  1.0  0.6839
  Mo  Mo28  1  0.853510  0.357560  0.451610  1.0  0.5721
  Mo  Mo29  1  0.640590  0.117270  0.079870  1.0  0.6826
  Mo  Mo30  1  0.451610  0.853510  0.357560  1.0  0.575
  Mo  Mo31  1  0.920130  0.359410  0.882730  1.0  0.6816
  Mo  Mo32  1  0.642440  0.548390  0.146490  1.0  0.5722
  Mo  Mo33  1  0.882730  0.920130  0.359410  1.0  0.6827
  Mo  Mo34  1  0.146490  0.642440  0.548390  1.0  0.5741
  Mo  Mo35  1  0.359410  0.882730  0.920130  1.0  0.6834
  Mo  Mo36  1  0.548390  0.146490  0.642440  1.0  0.573
  H  H37  1  0.047300  0.402200  0.375600  1.0  0.3847
  H  H38  1  0.136800  0.415600  0.165900  1.0  0.0884
  H  H39  1  0.112200  0.384200  0.222200  1.0  0.0837
  H  H40  1  0.055200  0.474800  0.161000  1.0  0.0916
  H  H41  1  0.044800  0.415100  0.171100  1.0  0.0966
  H  H42  1  0.945700  0.472500  0.216700  1.0  0.085
  H  H43  1  0.973500  0.521500  0.215200  1.0  0.0962
  H  H44  1  0.905300  0.523600  0.281300  1.0  0.0609
  H  H45  1  0.920900  0.461500  0.303800  1.0  0.0824
  H  H46  1  0.883800  0.521400  0.422300  1.0  0.1213
  H  H47  1  0.880200  0.578000  0.383400  1.0  0.1368
  H  H48  1  0.870600  0.527600  0.364200  1.0  0.1125
  H  H49  1  0.944900  0.565000  0.455600  1.0  0.1066
  H  H50  1  0.018100  0.578000  0.491200  1.0  0.0987
  H  H51  1  0.107600  0.549500  0.449700  1.0  0.1294
  H  H52  1  0.203700  0.541300  0.352800  1.0  0.1307
  H  H53  1  0.186400  0.508000  0.410600  1.0  0.1096
  H  H54  1  0.217900  0.477900  0.363000  1.0  0.0942
  H  H55  1  0.218000  0.448800  0.298100  1.0  0.0661
  H  H56  1  0.201900  0.498300  0.252700  1.0  0.1069
  H  H57  1  0.169900  0.398000  0.274300  1.0  0.0837
  H  H58  1  0.206400  0.422100  0.221200  1.0  0.0787
  H  H59  1  0.343700  0.663700  0.994100  1.0  0.0901
  H  H60  1  0.354500  0.723200  0.984700  1.0  0.0926
  H  H61  1  0.323400  0.701700  0.075700  1.0  0.0987
  H  H62  1  0.275900  0.677400  0.066500  1.0  0.1
  H  H63  1  0.211500  0.737500  0.121200  1.0  0.0914
  H  H64  1  0.248700  0.776200  0.126600  1.0  0.097
  H  H65  1  0.197300  0.850100  0.073200  1.0  0.0818
  H  H66  1  0.159700  0.826700  0.126400  1.0  0.0705
  H  H67  1  0.084300  0.863300  0.068600  1.0  0.0772
  H  H68  1  0.129900  0.879700  0.019500  1.0  0.0783
  H  H69  1  0.060800  0.862700  0.983500  1.0  0.0874
  H  H70  1  0.061200  0.806000  0.022100  1.0  0.1067
  H  H71  1  0.065600  0.846400  0.867200  1.0  0.1312
  H  H72  1  0.057300  0.785900  0.882900  1.0  0.1272
  H  H73  1  0.034000  0.825000  0.924700  1.0  0.1136
  H  H74  1  0.134600  0.773300  0.815500  1.0  0.1223
  H  H75  1  0.217100  0.730900  0.767900  1.0  0.1085
  H  H76  1  0.291800  0.708200  0.805900  1.0  0.1202
  H  H77  1  0.382800  0.711700  0.887500  1.0  0.1088
  H  H78  1  0.366100  0.655000  0.894300  1.0  0.1171
  H  H79  1  0.358100  0.698900  0.842200  1.0  0.1072
  H  H80  1  0.306500  0.511400  0.044700  1.0  0.0928
  H  H81  1  0.246300  0.532600  0.070800  1.0  0.1042
  H  H82  1  0.288000  0.552800  0.959400  1.0  0.0634
  H  H83  1  0.276000  0.596000  0.997500  1.0  0.0773
  H  H84  1  0.213600  0.647200  0.931900  1.0  0.0801
  H  H85  1  0.226100  0.596300  0.903700  1.0  0.0805
  H  H86  1  0.139700  0.640000  0.890000  1.0  0.0698
  H  H87  1  0.121200  0.646600  0.951100  1.0  0.0989
  H  H88  1  0.056900  0.637500  0.881700  1.0  0.1107
  H  H89  1  0.030800  0.591300  0.872400  1.0  0.1198
  H  H90  1  0.009100  0.616500  0.925000  1.0  0.1281
  H  H91  1  0.997900  0.511800  0.917600  1.0  0.1239
  H  H92  1  0.997400  0.421200  0.942400  1.0  0.0783
  H  H93  1  0.058900  0.362400  0.990400  1.0  0.1258
  H  H94  1  0.144200  0.311300  0.061800  1.0  0.126
  H  H95  1  0.124900  0.317700  0.006600  1.0  0.1172
  H  H96  1  0.187000  0.308700  0.008100  1.0  0.1372
  H  H97  1  0.253100  0.369500  0.031200  1.0  0.1023
  H  H98  1  0.213400  0.360000  0.087000  1.0  0.086
  H  H99  1  0.217800  0.440200  0.104100  1.0  0.0866
  H  H100  1  0.277800  0.410800  0.087000  1.0  0.0921
  H  H101  1  0.321300  0.430300  0.532300  1.0  0.1036
  H  H102  1  0.323000  0.372500  0.568600  1.0  0.1406
  H  H103  1  0.269400  0.403700  0.548400  1.0  0.1319
  H  H104  1  0.245700  0.336300  0.632300  1.0  0.1357
  H  H105  1  0.193800  0.301500  0.710600  1.0  0.0951
  H  H106  1  0.165800  0.346300  0.781700  1.0  0.1347
  H  H107  1  0.124400  0.415100  0.842500  1.0  0.1176
  H  H108  1  0.182000  0.391500  0.857400  1.0  0.1273
  H  H109  1  0.152900  0.449900  0.866800  1.0  0.1159
  H  H110  1  0.139700  0.540900  0.818400  1.0  0.0826
  H  H111  1  0.197500  0.527600  0.833900  1.0  0.0887
  H  H112  1  0.186200  0.615600  0.794100  1.0  0.0965
  H  H113  1  0.163900  0.603900  0.746500  1.0  0.0961
  H  H114  1  0.232900  0.651700  0.681900  1.0  0.094
  H  H115  1  0.269900  0.655600  0.721700  1.0  0.0955
  H  H116  1  0.340600  0.595000  0.680700  1.0  0.0948
  H  H117  1  0.323200  0.645400  0.636900  1.0  0.0883
  H  H118  1  0.361900  0.575600  0.569000  1.0  0.0959
  H  H119  1  0.371600  0.530200  0.619700  1.0  0.0967
  H  H120  1  0.358000  0.487600  0.554700  1.0  0.0733
  H  H121  1  0.304800  0.529800  0.545600  1.0  0.105
  H  H122  1  0.375600  0.047300  0.402200  1.0  0.387
  H  H123  1  0.165900  0.136800  0.415600  1.0  0.0894
  H  H124  1  0.222200  0.112200  0.384200  1.0  0.0892
  H  H125  1  0.161000  0.055200  0.474800  1.0  0.0929
  H  H126  1  0.171100  0.044800  0.415100  1.0  0.0978
  H  H127  1  0.216700  0.945700  0.472500  1.0  0.0875
  H  H128  1  0.215200  0.973500  0.521500  1.0  0.0964
  H  H129  1  0.281300  0.905300  0.523600  1.0  0.0609
  H  H130  1  0.303800  0.920900  0.461500  1.0  0.0859
  H  H131  1  0.422300  0.883800  0.521400  1.0  0.1233
  H  H132  1  0.383400  0.880200  0.578000  1.0  0.1342
  H  H133  1  0.364200  0.870600  0.527600  1.0  0.1126
  H  H134  1  0.455600  0.944900  0.565000  1.0  0.1067
  H  H135  1  0.491200  0.018100  0.578000  1.0  0.0979
  H  H136  1  0.449700  0.107600  0.549500  1.0  0.1282
  H  H137  1  0.352800  0.203700  0.541300  1.0  0.13
  H  H138  1  0.410600  0.186400  0.508000  1.0  0.1125
  H  H139  1  0.363000  0.217900  0.477900  1.0  0.095
  H  H140  1  0.298100  0.218000  0.448800  1.0  0.0686
  H  H141  1  0.252700  0.201900  0.498300  1.0  0.1055
  H  H142  1  0.274300  0.169900  0.398000  1.0  0.0839
  H  H143  1  0.221200  0.206400  0.422100  1.0  0.0798
  H  H144  1  0.994100  0.343700  0.663700  1.0  0.0892
  H  H145  1  0.984700  0.354500  0.723200  1.0  0.0917
  H  H146  1  0.075700  0.323400  0.701700  1.0  0.0986
  H  H147  1  0.066500  0.275900  0.677400  1.0  0.0991
  H  H148  1  0.121200  0.211500  0.737500  1.0  0.0903
  H  H149  1  0.126600  0.248700  0.776200  1.0  0.0973
  H  H150  1  0.073200  0.197300  0.850100  1.0  0.083
  H  H151  1  0.126400  0.159700  0.826700  1.0  0.0717
  H  H152  1  0.068600  0.084300  0.863300  1.0  0.0776
  H  H153  1  0.019500  0.129900  0.879700  1.0  0.0776
  H  H154  1  0.983500  0.060800  0.862700  1.0  0.089
  H  H155  1  0.022100  0.061200  0.806000  1.0  0.102
  H  H156  1  0.867200  0.065600  0.846400  1.0  0.1304
  H  H157  1  0.882900  0.057300  0.785900  1.0  0.1279
  H  H158  1  0.924700  0.034000  0.825000  1.0  0.1138
  H  H159  1  0.815500  0.134600  0.773300  1.0  0.1212
  H  H160  1  0.767900  0.217100  0.730900  1.0  0.1091
  H  H161  1  0.805900  0.291800  0.708200  1.0  0.1214
  H  H162  1  0.887500  0.382800  0.711700  1.0  0.1086
  H  H163  1  0.894300  0.366100  0.655000  1.0  0.1145
  H  H164  1  0.842200  0.358100  0.698900  1.0  0.1092
  H  H165  1  0.044700  0.306500  0.511400  1.0  0.1036
  H  H166  1  0.070800  0.246300  0.532600  1.0  0.0998
  H  H167  1  0.959400  0.288000  0.552800  1.0  0.0654
  H  H168  1  0.997500  0.276000  0.596000  1.0  0.0798
  H  H169  1  0.931900  0.213600  0.647200  1.0  0.084
  H  H170  1  0.903700  0.226100  0.596300  1.0  0.0807
  H  H171  1  0.890000  0.139700  0.640000  1.0  0.0696
  H  H172  1  0.951100  0.121200  0.646600  1.0  0.1002
  H  H173  1  0.881700  0.056900  0.637500  1.0  0.1115
  H  H174  1  0.872400  0.030800  0.591300  1.0  0.1195
  H  H175  1  0.925000  0.009100  0.616500  1.0  0.1305
  H  H176  1  0.917600  0.997900  0.511800  1.0  0.1237
  H  H177  1  0.942400  0.997400  0.421200  1.0  0.0781
  H  H178  1  0.990400  0.058900  0.362400  1.0  0.1266
  H  H179  1  0.061800  0.144200  0.311300  1.0  0.1255
  H  H180  1  0.006600  0.124900  0.317700  1.0  0.119
  H  H181  1  0.008100  0.187000  0.308700  1.0  0.1402
  H  H182  1  0.031200  0.253100  0.369500  1.0  0.1057
  H  H183  1  0.087000  0.213400  0.360000  1.0  0.0831
  H  H184  1  0.104100  0.217800  0.440200  1.0  0.0872
  H  H185  1  0.087000  0.277800  0.410800  1.0  0.0961
  H  H186  1  0.532300  0.321300  0.430300  1.0  0.1041
  H  H187  1  0.568600  0.323000  0.372500  1.0  0.1377
  H  H188  1  0.548400  0.269400  0.403700  1.0  0.133
  H  H189  1  0.632300  0.245700  0.336300  1.0  0.1353
  H  H190  1  0.710600  0.193800  0.301500  1.0  0.095
  H  H191  1  0.781700  0.165800  0.346300  1.0  0.1342
  H  H192  1  0.842500  0.124400  0.415100  1.0  0.1184
  H  H193  1  0.857400  0.182000  0.391500  1.0  0.1257
  H  H194  1  0.866800  0.152900  0.449900  1.0  0.1156
  H  H195  1  0.818400  0.139700  0.540900  1.0  0.0865
  H  H196  1  0.833900  0.197500  0.527600  1.0  0.0881
  H  H197  1  0.794100  0.186200  0.615600  1.0  0.0981
  H  H198  1  0.746500  0.163900  0.603900  1.0  0.0964
  H  H199  1  0.681900  0.232900  0.651700  1.0  0.0944
  H  H200  1  0.721700  0.269900  0.655600  1.0  0.0952
  H  H201  1  0.680700  0.340600  0.595000  1.0  0.0934
  H  H202  1  0.636900  0.323200  0.645400  1.0  0.0884
  H  H203  1  0.569000  0.361900  0.575600  1.0  0.0944
  H  H204  1  0.619700  0.371600  0.530200  1.0  0.0953
  H  H205  1  0.554700  0.358000  0.487600  1.0  0.0708
  H  H206  1  0.545600  0.304800  0.529800  1.0  0.1063
  H  H207  1  0.402200  0.375600  0.047300  1.0  0.3852
  H  H208  1  0.415600  0.165900  0.136800  1.0  0.093
  H  H209  1  0.384200  0.222200  0.112200  1.0  0.0871
  H  H210  1  0.474800  0.161000  0.055200  1.0  0.093
  H  H211  1  0.415100  0.171100  0.044800  1.0  0.0986
  H  H212  1  0.472500  0.216700  0.945700  1.0  0.0857
  H  H213  1  0.521500  0.215200  0.973500  1.0  0.0957
  H  H214  1  0.523600  0.281300  0.905300  1.0  0.0615
  H  H215  1  0.461500  0.303800  0.920900  1.0  0.0851
  H  H216  1  0.521400  0.422300  0.883800  1.0  0.1201
  H  H217  1  0.578000  0.383400  0.880200  1.0  0.1351
  H  H218  1  0.527600  0.364200  0.870600  1.0  0.1112
  H  H219  1  0.565000  0.455600  0.944900  1.0  0.1064
  H  H220  1  0.578000  0.491200  0.018100  1.0  0.0984
  H  H221  1  0.549500  0.449700  0.107600  1.0  0.1298
  H  H222  1  0.541300  0.352800  0.203700  1.0  0.1315
  H  H223  1  0.508000  0.410600  0.186400  1.0  0.1107
  H  H224  1  0.477900  0.363000  0.217900  1.0  0.0936
  H  H225  1  0.448800  0.298100  0.218000  1.0  0.068
  H  H226  1  0.498300  0.252700  0.201900  1.0  0.1099
  H  H227  1  0.398000  0.274300  0.169900  1.0  0.0821
  H  H228  1  0.422100  0.221200  0.206400  1.0  0.0816
  H  H229  1  0.663700  0.994100  0.343700  1.0  0.0877
  H  H230  1  0.723200  0.984700  0.354500  1.0  0.0917
  H  H231  1  0.701700  0.075700  0.323400  1.0  0.0986
  H  H232  1  0.677400  0.066500  0.275900  1.0  0.0999
  H  H233  1  0.737500  0.121200  0.211500  1.0  0.0912
  H  H234  1  0.776200  0.126600  0.248700  1.0  0.0971
  H  H235  1  0.850100  0.073200  0.197300  1.0  0.0814
  H  H236  1  0.826700  0.126400  0.159700  1.0  0.0704
  H  H237  1  0.863300  0.068600  0.084300  1.0  0.077
  H  H238  1  0.879700  0.019500  0.129900  1.0  0.0796
  H  H239  1  0.862700  0.983500  0.060800  1.0  0.0889
  H  H240  1  0.806000  0.022100  0.061200  1.0  0.1052
  H  H241  1  0.846400  0.867200  0.065600  1.0  0.1321
  H  H242  1  0.785900  0.882900  0.057300  1.0  0.1263
  H  H243  1  0.825000  0.924700  0.034000  1.0  0.1143
  H  H244  1  0.773300  0.815500  0.134600  1.0  0.1242
  H  H245  1  0.730900  0.767900  0.217100  1.0  0.1081
  H  H246  1  0.708200  0.805900  0.291800  1.0  0.1206
  H  H247  1  0.711700  0.887500  0.382800  1.0  0.108
  H  H248  1  0.655000  0.894300  0.366100  1.0  0.1151
  H  H249  1  0.698900  0.842200  0.358100  1.0  0.1058
  H  H250  1  0.511400  0.044700  0.306500  1.0  0.1002
  H  H251  1  0.532600  0.070800  0.246300  1.0  0.1013
  H  H252  1  0.552800  0.959400  0.288000  1.0  0.066
  H  H253  1  0.596000  0.997500  0.276000  1.0  0.0786
  H  H254  1  0.647200  0.931900  0.213600  1.0  0.0828
  H  H255  1  0.596300  0.903700  0.226100  1.0  0.0817
  H  H256  1  0.640000  0.890000  0.139700  1.0  0.0711
  H  H257  1  0.646600  0.951100  0.121200  1.0  0.1007
  H  H258  1  0.637500  0.881700  0.056900  1.0  0.1123
  H  H259  1  0.591300  0.872400  0.030800  1.0  0.1223
  H  H260  1  0.616500  0.925000  0.009100  1.0  0.1307
  H  H261  1  0.511800  0.917600  0.997900  1.0  0.1245
  H  H262  1  0.421200  0.942400  0.997400  1.0  0.0802
  H  H263  1  0.362400  0.990400  0.058900  1.0  0.125
  H  H264  1  0.311300  0.061800  0.144200  1.0  0.125
  H  H265  1  0.317700  0.006600  0.124900  1.0  0.1178
  H  H266  1  0.308700  0.008100  0.187000  1.0  0.1395
  H  H267  1  0.369500  0.031200  0.253100  1.0  0.1053
  H  H268  1  0.360000  0.087000  0.213400  1.0  0.0827
  H  H269  1  0.440200  0.104100  0.217800  1.0  0.0863
  H  H270  1  0.410800  0.087000  0.277800  1.0  0.0983
  H  H271  1  0.430300  0.532300  0.321300  1.0  0.1043
  H  H272  1  0.372500  0.568600  0.323000  1.0  0.1374
  H  H273  1  0.403700  0.548400  0.269400  1.0  0.1339
  H  H274  1  0.336300  0.632300  0.245700  1.0  0.1366
  H  H275  1  0.301500  0.710600  0.193800  1.0  0.095
  H  H276  1  0.346300  0.781700  0.165800  1.0  0.1357
  H  H277  1  0.415100  0.842500  0.124400  1.0  0.1187
  H  H278  1  0.391500  0.857400  0.182000  1.0  0.1267
  H  H279  1  0.449900  0.866800  0.152900  1.0  0.1152
  H  H280  1  0.540900  0.818400  0.139700  1.0  0.0884
  H  H281  1  0.527600  0.833900  0.197500  1.0  0.0878
  H  H282  1  0.615600  0.794100  0.186200  1.0  0.0981
  H  H283  1  0.603900  0.746500  0.163900  1.0  0.0952
  H  H284  1  0.651700  0.681900  0.232900  1.0  0.0927
  H  H285  1  0.655600  0.721700  0.269900  1.0  0.0962
  H  H286  1  0.595000  0.680700  0.340600  1.0  0.0959
  H  H287  1  0.645400  0.636900  0.323200  1.0  0.0893
  H  H288  1  0.575600  0.569000  0.361900  1.0  0.0961
  H  H289  1  0.530200  0.619700  0.371600  1.0  0.0963
  H  H290  1  0.487600  0.554700  0.358000  1.0  0.0729
  H  H291  1  0.529800  0.545600  0.304800  1.0  0.1038
  H  H292  1  0.952700  0.597800  0.624400  1.0  0.3847
  H  H293  1  0.863200  0.584400  0.834100  1.0  0.0912
  H  H294  1  0.887800  0.615800  0.777800  1.0  0.0884
  H  H295  1  0.944800  0.525200  0.839000  1.0  0.0926
  H  H296  1  0.955200  0.584900  0.828900  1.0  0.0951
  H  H297  1  0.054300  0.527500  0.783300  1.0  0.0859
  H  H298  1  0.026500  0.478500  0.784800  1.0  0.0958
  H  H299  1  0.094700  0.476400  0.718700  1.0  0.0621
  H  H300  1  0.079100  0.538500  0.696200  1.0  0.083
  H  H301  1  0.116200  0.478600  0.577700  1.0  0.1221
  H  H302  1  0.119800  0.422000  0.616600  1.0  0.1363
  H  H303  1  0.129400  0.472400  0.635800  1.0  0.1126
  H  H304  1  0.055100  0.435000  0.544400  1.0  0.1071
  H  H305  1  0.981900  0.422000  0.508800  1.0  0.0984
  H  H306  1  0.892400  0.450500  0.550300  1.0  0.1287
  H  H307  1  0.796300  0.458700  0.647200  1.0  0.1307
  H  H308  1  0.813600  0.492000  0.589400  1.0  0.1093
  H  H309  1  0.782100  0.522100  0.637000  1.0  0.0936
  H  H310  1  0.782000  0.551200  0.701900  1.0  0.0718
  H  H311  1  0.798100  0.501700  0.747300  1.0  0.1068
  H  H312  1  0.830100  0.602000  0.725700  1.0  0.0828
  H  H313  1  0.793600  0.577900  0.778800  1.0  0.0784
  H  H314  1  0.656300  0.336300  0.005900  1.0  0.0901
  H  H315  1  0.645500  0.276800  0.015300  1.0  0.0925
  H  H316  1  0.676600  0.298300  0.924300  1.0  0.0971
  H  H317  1  0.724100  0.322600  0.933500  1.0  0.0983
  H  H318  1  0.788500  0.262500  0.878800  1.0  0.0901
  H  H319  1  0.751300  0.223800  0.873400  1.0  0.0974
  H  H320  1  0.802700  0.149900  0.926800  1.0  0.0828
  H  H321  1  0.840300  0.173300  0.873600  1.0  0.0715
  H  H322  1  0.915700  0.136700  0.931400  1.0  0.0748
  H  H323  1  0.870100  0.120300  0.980500  1.0  0.0793
  H  H324  1  0.939200  0.137300  0.016500  1.0  0.0887
  H  H325  1  0.938800  0.194000  0.977900  1.0  0.1055
  H  H326  1  0.934400  0.153600  0.132800  1.0  0.1308
  H  H327  1  0.942700  0.214100  0.117100  1.0  0.1274
  H  H328  1  0.966000  0.175000  0.075300  1.0  0.1138
  H  H329  1  0.865400  0.226700  0.184500  1.0  0.1243
  H  H330  1  0.782900  0.269100  0.232100  1.0  0.1083
  H  H331  1  0.708200  0.291800  0.194100  1.0  0.1208
  H  H332  1  0.617200  0.288300  0.112500  1.0  0.11
  H  H333  1  0.633900  0.345000  0.105700  1.0  0.1191
  H  H334  1  0.641900  0.301100  0.157800  1.0  0.1072
  H  H335  1  0.693500  0.488600  0.955300  1.0  0.0934
  H  H336  1  0.753700  0.467400  0.929200  1.0  0.1024
  H  H337  1  0.712000  0.447200  0.040600  1.0  0.0641
  H  H338  1  0.724000  0.404000  0.002500  1.0  0.0776
  H  H339  1  0.786400  0.352800  0.068100  1.0  0.0809
  H  H340  1  0.773900  0.403700  0.096300  1.0  0.0811
  H  H341  1  0.860300  0.360000  0.110000  1.0  0.0701
  H  H342  1  0.878800  0.353400  0.048900  1.0  0.0984
  H  H343  1  0.943100  0.362500  0.118300  1.0  0.1129
  H  H344  1  0.969200  0.408700  0.127600  1.0  0.1198
  H  H345  1  0.990900  0.383500  0.075000  1.0  0.1314
  H  H346  1  0.002100  0.488200  0.082400  1.0  0.1239
  H  H347  1  0.002600  0.578800  0.057600  1.0  0.0789
  H  H348  1  0.941100  0.637600  0.009600  1.0  0.1272
  H  H349  1  0.855800  0.688700  0.938200  1.0  0.1277
  H  H350  1  0.875100  0.682300  0.993400  1.0  0.118
  H  H351  1  0.813000  0.691300  0.991900  1.0  0.1354
  H  H352  1  0.746900  0.630500  0.968800  1.0  0.1029
  H  H353  1  0.786600  0.640000  0.913000  1.0  0.0847
  H  H354  1  0.782200  0.559800  0.895900  1.0  0.0859
  H  H355  1  0.722200  0.589200  0.913000  1.0  0.0924
  H  H356  1  0.678700  0.569700  0.467700  1.0  0.1054
  H  H357  1  0.677000  0.627500  0.431400  1.0  0.1395
  H  H358  1  0.730600  0.596300  0.451600  1.0  0.1311
  H  H359  1  0.754300  0.663700  0.367700  1.0  0.1366
  H  H360  1  0.806200  0.698500  0.289400  1.0  0.0949
  H  H361  1  0.834200  0.653700  0.218300  1.0  0.1344
  H  H362  1  0.875600  0.584900  0.157500  1.0  0.1212
  H  H363  1  0.818000  0.608500  0.142600  1.0  0.1268
  H  H364  1  0.847100  0.550100  0.133200  1.0  0.1146
  H  H365  1  0.860300  0.459100  0.181600  1.0  0.0867
  H  H366  1  0.802500  0.472400  0.166100  1.0  0.0897
  H  H367  1  0.813800  0.384400  0.205900  1.0  0.0963
  H  H368  1  0.836100  0.396100  0.253500  1.0  0.096
  H  H369  1  0.767100  0.348300  0.318100  1.0  0.0938
  H  H370  1  0.730100  0.344400  0.278300  1.0  0.0934
  H  H371  1  0.659400  0.405000  0.319300  1.0  0.0953
  H  H372  1  0.676800  0.354600  0.363100  1.0  0.0891
  H  H373  1  0.638100  0.424400  0.431000  1.0  0.0962
  H  H374  1  0.628400  0.469800  0.380300  1.0  0.0967
  H  H375  1  0.642000  0.512400  0.445300  1.0  0.0723
  H  H376  1  0.695200  0.470200  0.454400  1.0  0.1076
  H  H377  1  0.624400  0.952700  0.597800  1.0  0.3872
  H  H378  1  0.834100  0.863200  0.584400  1.0  0.0899
  H  H379  1  0.777800  0.887800  0.615800  1.0  0.0892
  H  H380  1  0.839000  0.944800  0.525200  1.0  0.0911
  H  H381  1  0.828900  0.955200  0.584900  1.0  0.0965
  H  H382  1  0.783300  0.054300  0.527500  1.0  0.0867
  H  H383  1  0.784800  0.026500  0.478500  1.0  0.0957
  H  H384  1  0.718700  0.094700  0.476400  1.0  0.0618
  H  H385  1  0.696200  0.079100  0.538500  1.0  0.086
  H  H386  1  0.577700  0.116200  0.478600  1.0  0.1229
  H  H387  1  0.616600  0.119800  0.422000  1.0  0.1347
  H  H388  1  0.635800  0.129400  0.472400  1.0  0.1124
  H  H389  1  0.544400  0.055100  0.435000  1.0  0.1069
  H  H390  1  0.508800  0.981900  0.422000  1.0  0.0979
  H  H391  1  0.550300  0.892400  0.450500  1.0  0.1287
  H  H392  1  0.647200  0.796300  0.458700  1.0  0.1304
  H  H393  1  0.589400  0.813600  0.492000  1.0  0.1128
  H  H394  1  0.637000  0.782100  0.522100  1.0  0.0941
  H  H395  1  0.701900  0.782000  0.551200  1.0  0.0649
  H  H396  1  0.747300  0.798100  0.501700  1.0  0.1052
  H  H397  1  0.725700  0.830100  0.602000  1.0  0.0857
  H  H398  1  0.778800  0.793600  0.577900  1.0  0.0789
  H  H399  1  0.005900  0.656300  0.336300  1.0  0.0888
  H  H400  1  0.015300  0.645500  0.276800  1.0  0.0915
  H  H401  1  0.924300  0.676600  0.298300  1.0  0.099
  H  H402  1  0.933500  0.724100  0.322600  1.0  0.0998
  H  H403  1  0.878800  0.788500  0.262500  1.0  0.0907
  H  H404  1  0.873400  0.751300  0.223800  1.0  0.0972
  H  H405  1  0.926800  0.802700  0.149900  1.0  0.0835
  H  H406  1  0.873600  0.840300  0.173300  1.0  0.072
  H  H407  1  0.931400  0.915700  0.136700  1.0  0.0791
  H  H408  1  0.980500  0.870100  0.120300  1.0  0.0772
  H  H409  1  0.016500  0.939200  0.137300  1.0  0.0878
  H  H410  1  0.977900  0.938800  0.194000  1.0  0.1021
  H  H411  1  0.132800  0.934400  0.153600  1.0  0.132
  H  H412  1  0.117100  0.942700  0.214100  1.0  0.1272
  H  H413  1  0.075300  0.966000  0.175000  1.0  0.1154
  H  H414  1  0.184500  0.865400  0.226700  1.0  0.1227
  H  H415  1  0.232100  0.782900  0.269100  1.0  0.11
  H  H416  1  0.194100  0.708200  0.291800  1.0  0.1213
  H  H417  1  0.112500  0.617200  0.288300  1.0  0.1085
  H  H418  1  0.105700  0.633900  0.345000  1.0  0.1154
  H  H419  1  0.157800  0.641900  0.301100  1.0  0.1091
  H  H420  1  0.955300  0.693500  0.488600  1.0  0.103
  H  H421  1  0.929200  0.753700  0.467400  1.0  0.0997
  H  H422  1  0.040600  0.712000  0.447200  1.0  0.0657
  H  H423  1  0.002500  0.724000  0.404000  1.0  0.0796
  H  H424  1  0.068100  0.786400  0.352800  1.0  0.0845
  H  H425  1  0.096300  0.773900  0.403700  1.0  0.0804
  H  H426  1  0.110000  0.860300  0.360000  1.0  0.0723
  H  H427  1  0.048900  0.878800  0.353400  1.0  0.1006
  H  H428  1  0.118300  0.943100  0.362500  1.0  0.1107
  H  H429  1  0.127600  0.969200  0.408700  1.0  0.119
  H  H430  1  0.075000  0.990900  0.383500  1.0  0.1315
  H  H431  1  0.082400  0.002100  0.488200  1.0  0.1243
  H  H432  1  0.057600  0.002600  0.578800  1.0  0.0791
  H  H433  1  0.009600  0.941100  0.637600  1.0  0.1284
  H  H434  1  0.938200  0.855800  0.688700  1.0  0.1253
  H  H435  1  0.993400  0.875100  0.682300  1.0  0.1193
  H  H436  1  0.991900  0.813000  0.691300  1.0  0.1397
  H  H437  1  0.968800  0.746900  0.630500  1.0  0.1076
  H  H438  1  0.913000  0.786600  0.640000  1.0  0.0832
  H  H439  1  0.895900  0.782200  0.559800  1.0  0.0873
  H  H440  1  0.913000  0.722200  0.589200  1.0  0.0973
  H  H441  1  0.467700  0.678700  0.569700  1.0  0.1046
  H  H442  1  0.431400  0.677000  0.627500  1.0  0.1386
  H  H443  1  0.451600  0.730600  0.596300  1.0  0.1323
  H  H444  1  0.367700  0.754300  0.663700  1.0  0.1362
  H  H445  1  0.289400  0.806200  0.698500  1.0  0.0943
  H  H446  1  0.218300  0.834200  0.653700  1.0  0.1349
  H  H447  1  0.157500  0.875600  0.584900  1.0  0.119
  H  H448  1  0.142600  0.818000  0.608500  1.0  0.1273
  H  H449  1  0.133200  0.847100  0.550100  1.0  0.1148
  H  H450  1  0.181600  0.860300  0.459100  1.0  0.0877
  H  H451  1  0.166100  0.802500  0.472400  1.0  0.088
  H  H452  1  0.205900  0.813800  0.384400  1.0  0.0966
  H  H453  1  0.253500  0.836100  0.396100  1.0  0.0953
  H  H454  1  0.318100  0.767100  0.348300  1.0  0.0941
  H  H455  1  0.278300  0.730100  0.344400  1.0  0.0955
  H  H456  1  0.319300  0.659400  0.405000  1.0  0.0947
  H  H457  1  0.363100  0.676800  0.354600  1.0  0.088
  H  H458  1  0.431000  0.638100  0.424400  1.0  0.0949
  H  H459  1  0.380300  0.628400  0.469800  1.0  0.0963
  H  H460  1  0.445300  0.642000  0.512400  1.0  0.0719
  H  H461  1  0.454400  0.695200  0.470200  1.0  0.1052
  H  H462  1  0.597800  0.624400  0.952700  1.0  0.3824
  H  H463  1  0.584400  0.834100  0.863200  1.0  0.0919
  H  H464  1  0.615800  0.777800  0.887800  1.0  0.0859
  H  H465  1  0.525200  0.839000  0.944800  1.0  0.0939
  H  H466  1  0.584900  0.828900  0.955200  1.0  0.0959
  H  H467  1  0.527500  0.783300  0.054300  1.0  0.0863
  H  H468  1  0.478500  0.784800  0.026500  1.0  0.0947
  H  H469  1  0.476400  0.718700  0.094700  1.0  0.0611
  H  H470  1  0.538500  0.696200  0.079100  1.0  0.0847
  H  H471  1  0.478600  0.577700  0.116200  1.0  0.1172
  H  H472  1  0.422000  0.616600  0.119800  1.0  0.1361
  H  H473  1  0.472400  0.635800  0.129400  1.0  0.1114
  H  H474  1  0.435000  0.544400  0.055100  1.0  0.107
  H  H475  1  0.422000  0.508800  0.981900  1.0  0.0983
  H  H476  1  0.450500  0.550300  0.892400  1.0  0.1291
  H  H477  1  0.458700  0.647200  0.796300  1.0  0.1298
  H  H478  1  0.492000  0.589400  0.813600  1.0  0.1095
  H  H479  1  0.522100  0.637000  0.782100  1.0  0.0923
  H  H480  1  0.551200  0.701900  0.782000  1.0  0.0693
  H  H481  1  0.501700  0.747300  0.798100  1.0  0.111
  H  H482  1  0.602000  0.725700  0.830100  1.0  0.0819
  H  H483  1  0.577900  0.778800  0.793600  1.0  0.0808
  H  H484  1  0.336300  0.005900  0.656300  1.0  0.0893
  H  H485  1  0.276800  0.015300  0.645500  1.0  0.092
  H  H486  1  0.298300  0.924300  0.676600  1.0  0.0988
  H  H487  1  0.322600  0.933500  0.724100  1.0  0.099
  H  H488  1  0.262500  0.878800  0.788500  1.0  0.0911
  H  H489  1  0.223800  0.873400  0.751300  1.0  0.0965
  H  H490  1  0.149900  0.926800  0.802700  1.0  0.0805
  H  H491  1  0.173300  0.873600  0.840300  1.0  0.0709
  H  H492  1  0.136700  0.931400  0.915700  1.0  0.0783
  H  H493  1  0.120300  0.980500  0.870100  1.0  0.0798
  H  H494  1  0.137300  0.016500  0.939200  1.0  0.0898
  H  H495  1  0.194000  0.977900  0.938800  1.0  0.1055
  H  H496  1  0.153600  0.132800  0.934400  1.0  0.1323
  H  H497  1  0.214100  0.117100  0.942700  1.0  0.1277
  H  H498  1  0.175000  0.075300  0.966000  1.0  0.115
  H  H499  1  0.226700  0.184500  0.865400  1.0  0.1244
  H  H500  1  0.269100  0.232100  0.782900  1.0  0.1083
  H  H501  1  0.291800  0.194100  0.708200  1.0  0.1208
  H  H502  1  0.288300  0.112500  0.617200  1.0  0.1086
  H  H503  1  0.345000  0.105700  0.633900  1.0  0.1163
  H  H504  1  0.301100  0.157800  0.641900  1.0  0.1062
  H  H505  1  0.488600  0.955300  0.693500  1.0  0.1008
  H  H506  1  0.467400  0.929200  0.753700  1.0  0.1032
  H  H507  1  0.447200  0.040600  0.712000  1.0  0.0653
  H  H508  1  0.404000  0.002500  0.724000  1.0  0.077
  H  H509  1  0.352800  0.068100  0.786400  1.0  0.081
  H  H510  1  0.403700  0.096300  0.773900  1.0  0.0817
  H  H511  1  0.360000  0.110000  0.860300  1.0  0.0703
  H  H512  1  0.353400  0.048900  0.878800  1.0  0.102
  H  H513  1  0.362500  0.118300  0.943100  1.0  0.1133
  H  H514  1  0.408700  0.127600  0.969200  1.0  0.1205
  H  H515  1  0.383500  0.075000  0.990900  1.0  0.1276
  H  H516  1  0.488200  0.082400  0.002100  1.0  0.1242
  H  H517  1  0.578800  0.057600  0.002600  1.0  0.0789
  H  H518  1  0.637600  0.009600  0.941100  1.0  0.1237
  H  H519  1  0.688700  0.938200  0.855800  1.0  0.1246
  H  H520  1  0.682300  0.993400  0.875100  1.0  0.1183
  H  H521  1  0.691300  0.991900  0.813000  1.0  0.1393
  H  H522  1  0.630500  0.968800  0.746900  1.0  0.1048
  H  H523  1  0.640000  0.913000  0.786600  1.0  0.0829
  H  H524  1  0.559800  0.895900  0.782200  1.0  0.0867
  H  H525  1  0.589200  0.913000  0.722200  1.0  0.0986
  H  H526  1  0.569700  0.467700  0.678700  1.0  0.106
  H  H527  1  0.627500  0.431400  0.677000  1.0  0.1364
  H  H528  1  0.596300  0.451600  0.730600  1.0  0.1331
  H  H529  1  0.663700  0.367700  0.754300  1.0  0.1365
  H  H530  1  0.698500  0.289400  0.806200  1.0  0.0945
  H  H531  1  0.653700  0.218300  0.834200  1.0  0.1348
  H  H532  1  0.584900  0.157500  0.875600  1.0  0.1189
  H  H533  1  0.608500  0.142600  0.818000  1.0  0.1264
  H  H534  1  0.550100  0.133200  0.847100  1.0  0.1145
  H  H535  1  0.459100  0.181600  0.860300  1.0  0.0878
  H  H536  1  0.472400  0.166100  0.802500  1.0  0.0884
  H  H537  1  0.384400  0.205900  0.813800  1.0  0.0966
  H  H538  1  0.396100  0.253500  0.836100  1.0  0.0965
  H  H539  1  0.348300  0.318100  0.767100  1.0  0.0924
  H  H540  1  0.344400  0.278300  0.730100  1.0  0.0956
  H  H541  1  0.405000  0.319300  0.659400  1.0  0.0956
  H  H542  1  0.354600  0.363100  0.676800  1.0  0.0896
  H  H543  1  0.424400  0.431000  0.638100  1.0  0.0972
  H  H544  1  0.469800  0.380300  0.628400  1.0  0.095
  H  H545  1  0.512400  0.445300  0.642000  1.0  0.0717
  H  H546  1  0.470200  0.454400  0.695200  1.0  0.1032
  C  C547  1  0.141680  0.674480  0.056880  1.0  0.1448
  C  C548  1  0.104580  0.565980  0.086680  1.0  0.0522
  C  C549  1  0.150600  0.626800  0.153300  1.0  0.1061
  C  C550  1  0.065650  0.590950  0.194450  1.0  0.1703
  C  C551  1  0.993100  0.641100  0.141400  1.0  0.0737
  C  C552  1  0.059550  0.717350  0.142550  1.0  0.083
  C  C553  1  0.044710  0.676910  0.045010  1.0  0.1443
  C  C554  1  0.274840  0.473240  0.892640  1.0  0.1721
  C  C555  1  0.339600  0.539700  0.841700  1.0  0.1231
  C  C556  1  0.337400  0.466400  0.773200  1.0  0.066
  C  C557  1  0.434600  0.479500  0.819800  1.0  0.1342
  C  C558  1  0.417480  0.382980  0.831080  1.0  0.158
  C  C559  1  0.320900  0.385000  0.869000  1.0  -0.0092
  C  C560  1  0.376000  0.437100  0.931900  1.0  -0.0166
  C  C561  1  0.111800  0.419800  0.199600  1.0  0.0584
  C  C562  1  0.055800  0.441100  0.186900  1.0  -0.0129
  C  C563  1  0.966500  0.486400  0.236000  1.0  0.0599
  C  C564  1  0.935500  0.493900  0.286200  1.0  0.0424
  C  C565  1  0.949000  0.526500  0.363400  1.0  0.2847
  C  C566  1  0.890900  0.539400  0.385200  1.0  -0.3631
  C  C567  1  0.990300  0.533900  0.391200  1.0  0.1864
  C  C568  1  0.980400  0.555300  0.438200  1.0  -0.1177
  C  C569  1  0.025200  0.562400  0.460400  1.0  -0.0952
  C  C570  1  0.078000  0.546100  0.436200  1.0  -0.1315
  C  C571  1  0.083400  0.524700  0.390100  1.0  0.1464
  C  C572  1  0.137700  0.506600  0.357500  1.0  0.2142
  C  C573  1  0.191400  0.508600  0.372300  1.0  -0.3358
  C  C574  1  0.189300  0.467700  0.278200  1.0  0.0225
  C  C575  1  0.175600  0.431300  0.249100  1.0  0.0972
  C  C576  1  0.326400  0.701000  0.995400  1.0  -0.0221
  C  C577  1  0.297100  0.706000  0.052400  1.0  -0.0028
  C  C578  1  0.227300  0.769200  0.103100  1.0  0.0315
  C  C579  1  0.181800  0.818500  0.092400  1.0  0.0188
  C  C580  1  0.111100  0.850400  0.039100  1.0  0.0597
  C  C581  1  0.083800  0.831800  0.001300  1.0  0.0269
  C  C582  1  0.116300  0.799700  0.917800  1.0  0.2153
  C  C583  1  0.063400  0.815800  0.896100  1.0  -0.359
  C  C584  1  0.164480  0.772480  0.882380  1.0  0.1273
  C  C585  1  0.165600  0.763200  0.830900  1.0  -0.1326
  C  C586  1  0.215400  0.737700  0.802400  1.0  -0.1007
  C  C587  1  0.259000  0.723900  0.824800  1.0  -0.1775
  C  C588  1  0.256000  0.733000  0.877800  1.0  0.1761
  C  C589  1  0.301200  0.715100  0.908100  1.0  0.2534
  C  C590  1  0.357100  0.693100  0.880500  1.0  -0.3597
  C  C591  1  0.269300  0.520700  0.038700  1.0  -0.0026
  C  C592  1  0.264800  0.564500  0.991600  1.0  0.0815
  C  C593  1  0.203100  0.612800  0.933300  1.0  0.0403
  C  C594  1  0.143200  0.622700  0.926900  1.0  0.035
  C  C595  1  0.081200  0.564000  0.927900  1.0  0.1743
  C  C596  1  0.040800  0.606200  0.899100  1.0  -0.3541
  C  C597  1  0.070500  0.507700  0.945400  1.0  0.1269
  C  C598  1  0.024900  0.488300  0.934500  1.0  -0.1872
  C  C599  1  0.024700  0.434800  0.950700  1.0  -0.0927
  C  C600  1  0.061800  0.398800  0.978400  1.0  -0.2078
  C  C601  1  0.103200  0.419500  0.987100  1.0  0.1166
  C  C602  1  0.148100  0.388900  0.014500  1.0  0.1711
  C  C603  1  0.151400  0.325400  0.023700  1.0  -0.3552
  C  C604  1  0.224300  0.387400  0.056200  1.0  0.0269
  C  C605  1  0.244000  0.427000  0.074300  1.0  0.037
  C  C606  1  0.283800  0.432600  0.610100  1.0  0.2533
  C  C607  1  0.300900  0.407600  0.560400  1.0  -0.3742
  C  C608  1  0.250140  0.404340  0.658040  1.0  0.1108
  C  C609  1  0.234800  0.354900  0.661200  1.0  -0.1719
  C  C610  1  0.204000  0.334800  0.707600  1.0  -0.056
  C  C611  1  0.187000  0.361300  0.750000  1.0  -0.2462
  C  C612  1  0.202120  0.411320  0.745520  1.0  0.184
  C  C613  1  0.184500  0.447200  0.786900  1.0  0.2375
  C  C614  1  0.158600  0.423900  0.843600  1.0  -0.3769
  C  C615  1  0.178110  0.537610  0.803710  1.0  0.0047
  C  C616  1  0.190000  0.589800  0.770500  1.0  0.0353
  C  C617  1  0.261800  0.631700  0.701200  1.0  -0.0028
  C  C618  1  0.311500  0.613900  0.661500  1.0  -0.003
  C  C619  1  0.345000  0.549600  0.597500  1.0  0.0281
  C  C620  1  0.326700  0.510200  0.572400  1.0  0.0407
  C  C621  1  0.056880  0.141680  0.674480  1.0  0.1437
  C  C622  1  0.086680  0.104580  0.565980  1.0  0.0504
  C  C623  1  0.153300  0.150600  0.626800  1.0  0.1076
  C  C624  1  0.194450  0.065650  0.590950  1.0  0.1726
  C  C625  1  0.141400  0.993100  0.641100  1.0  0.0742
  C  C626  1  0.142550  0.059550  0.717350  1.0  0.0812
  C  C627  1  0.045010  0.044710  0.676910  1.0  0.1468
  C  C628  1  0.892640  0.274840  0.473240  1.0  0.1714
  C  C629  1  0.841700  0.339600  0.539700  1.0  0.1237
  C  C630  1  0.773200  0.337400  0.466400  1.0  0.0657
  C  C631  1  0.819800  0.434600  0.479500  1.0  0.1333
  C  C632  1  0.831080  0.417480  0.382980  1.0  0.1578
  C  C633  1  0.869000  0.320900  0.385000  1.0  -0.011
  C  C634  1  0.931900  0.376000  0.437100  1.0  -0.0139
  C  C635  1  0.199600  0.111800  0.419800  1.0  0.0537
  C  C636  1  0.186900  0.055800  0.441100  1.0  -0.0145
  C  C637  1  0.236000  0.966500  0.486400  1.0  0.0587
  C  C638  1  0.286200  0.935500  0.493900  1.0  0.0397
  C  C639  1  0.363400  0.949000  0.526500  1.0  0.2825
  C  C640  1  0.385200  0.890900  0.539400  1.0  -0.3654
  C  C641  1  0.391200  0.990300  0.533900  1.0  0.1861
  C  C642  1  0.438200  0.980400  0.555300  1.0  -0.1199
  C  C643  1  0.460400  0.025200  0.562400  1.0  -0.096
  C  C644  1  0.436200  0.078000  0.546100  1.0  -0.1316
  C  C645  1  0.390100  0.083400  0.524700  1.0  0.1455
  C  C646  1  0.357500  0.137700  0.506600  1.0  0.2155
  C  C647  1  0.372300  0.191400  0.508600  1.0  -0.3384
  C  C648  1  0.278200  0.189300  0.467700  1.0  0.0217
  C  C649  1  0.249100  0.175600  0.431300  1.0  0.0928
  C  C650  1  0.995400  0.326400  0.701000  1.0  -0.0301
  C  C651  1  0.052400  0.297100  0.706000  1.0  -0.0029
  C  C652  1  0.103100  0.227300  0.769200  1.0  0.0388
  C  C653  1  0.092400  0.181800  0.818500  1.0  0.0149
  C  C654  1  0.039100  0.111100  0.850400  1.0  0.0591
  C  C655  1  0.001300  0.083800  0.831800  1.0  0.0243
  C  C656  1  0.917800  0.116300  0.799700  1.0  0.2099
  C  C657  1  0.896100  0.063400  0.815800  1.0  -0.357
  C  C658  1  0.882380  0.164480  0.772480  1.0  0.1257
  C  C659  1  0.830900  0.165600  0.763200  1.0  -0.1316
  C  C660  1  0.802400  0.215400  0.737700  1.0  -0.1016
  C  C661  1  0.824800  0.259000  0.723900  1.0  -0.1762
  C  C662  1  0.877800  0.256000  0.733000  1.0  0.1739
  C  C663  1  0.908100  0.301200  0.715100  1.0  0.2526
  C  C664  1  0.880500  0.357100  0.693100  1.0  -0.3601
  C  C665  1  0.038700  0.269300  0.520700  1.0  0.0046
  C  C666  1  0.991600  0.264800  0.564500  1.0  0.08
  C  C667  1  0.933300  0.203100  0.612800  1.0  0.0421
  C  C668  1  0.926900  0.143200  0.622700  1.0  0.0348
  C  C669  1  0.927900  0.081200  0.564000  1.0  0.1776
  C  C670  1  0.899100  0.040800  0.606200  1.0  -0.3544
  C  C671  1  0.945400  0.070500  0.507700  1.0  0.1274
  C  C672  1  0.934500  0.024900  0.488300  1.0  -0.1853
  C  C673  1  0.950700  0.024700  0.434800  1.0  -0.0916
  C  C674  1  0.978400  0.061800  0.398800  1.0  -0.209
  C  C675  1  0.987100  0.103200  0.419500  1.0  0.1176
  C  C676  1  0.014500  0.148100  0.388900  1.0  0.1757
  C  C677  1  0.023700  0.151400  0.325400  1.0  -0.3577
  C  C678  1  0.056200  0.224300  0.387400  1.0  0.0251
  C  C679  1  0.074300  0.244000  0.427000  1.0  0.0435
  C  C680  1  0.610100  0.283800  0.432600  1.0  0.255
  C  C681  1  0.560400  0.300900  0.407600  1.0  -0.3734
  C  C682  1  0.658040  0.250140  0.404340  1.0  0.113
  C  C683  1  0.661200  0.234800  0.354900  1.0  -0.1765
  C  C684  1  0.707600  0.204000  0.334800  1.0  -0.0573
  C  C685  1  0.750000  0.187000  0.361300  1.0  -0.2475
  C  C686  1  0.745520  0.202120  0.411320  1.0  0.1839
  C  C687  1  0.786900  0.184500  0.447200  1.0  0.2368
  C  C688  1  0.843600  0.158600  0.423900  1.0  -0.3795
  C  C689  1  0.803710  0.178110  0.537610  1.0  0.0055
  C  C690  1  0.770500  0.190000  0.589800  1.0  0.0357
  C  C691  1  0.701200  0.261800  0.631700  1.0  -0.0039
  C  C692  1  0.661500  0.311500  0.613900  1.0  -0.0043
  C  C693  1  0.597500  0.345000  0.549600  1.0  0.0197
  C  C694  1  0.572400  0.326700  0.510200  1.0  0.0413
  C  C695  1  0.674480  0.056880  0.141680  1.0  0.1435
  C  C696  1  0.565980  0.086680  0.104580  1.0  0.0529
  C  C697  1  0.626800  0.153300  0.150600  1.0  0.1071
  C  C698  1  0.590950  0.194450  0.065650  1.0  0.1713
  C  C699  1  0.641100  0.141400  0.993100  1.0  0.076
  C  C700  1  0.717350  0.142550  0.059550  1.0  0.0855
  C  C701  1  0.676910  0.045010  0.044710  1.0  0.1457
  C  C702  1  0.473240  0.892640  0.274840  1.0  0.1696
  C  C703  1  0.539700  0.841700  0.339600  1.0  0.1253
  C  C704  1  0.466400  0.773200  0.337400  1.0  0.066
  C  C705  1  0.479500  0.819800  0.434600  1.0  0.1333
  C  C706  1  0.382980  0.831080  0.417480  1.0  0.1589
  C  C707  1  0.385000  0.869000  0.320900  1.0  -0.0111
  C  C708  1  0.437100  0.931900  0.376000  1.0  -0.017
  C  C709  1  0.419800  0.199600  0.111800  1.0  0.0611
  C  C710  1  0.441100  0.186900  0.055800  1.0  -0.0152
  C  C711  1  0.486400  0.236000  0.966500  1.0  0.0571
  C  C712  1  0.493900  0.286200  0.935500  1.0  0.0368
  C  C713  1  0.526500  0.363400  0.949000  1.0  0.282
  C  C714  1  0.539400  0.385200  0.890900  1.0  -0.3639
  C  C715  1  0.533900  0.391200  0.990300  1.0  0.1854
  C  C716  1  0.555300  0.438200  0.980400  1.0  -0.1203
  C  C717  1  0.562400  0.460400  0.025200  1.0  -0.0952
  C  C718  1  0.546100  0.436200  0.078000  1.0  -0.135
  C  C719  1  0.524700  0.390100  0.083400  1.0  0.1429
  C  C720  1  0.506600  0.357500  0.137700  1.0  0.2157
  C  C721  1  0.508600  0.372300  0.191400  1.0  -0.3416
  C  C722  1  0.467700  0.278200  0.189300  1.0  0.0157
  C  C723  1  0.431300  0.249100  0.175600  1.0  0.0925
  C  C724  1  0.701000  0.995400  0.326400  1.0  -0.028
  C  C725  1  0.706000  0.052400  0.297100  1.0  -0.0055
  C  C726  1  0.769200  0.103100  0.227300  1.0  0.0385
  C  C727  1  0.818500  0.092400  0.181800  1.0  0.023
  C  C728  1  0.850400  0.039100  0.111100  1.0  0.0638
  C  C729  1  0.831800  0.001300  0.083800  1.0  0.0259
  C  C730  1  0.799700  0.917800  0.116300  1.0  0.2126
  C  C731  1  0.815800  0.896100  0.063400  1.0  -0.3581
  C  C732  1  0.772480  0.882380  0.164480  1.0  0.1279
  C  C733  1  0.763200  0.830900  0.165600  1.0  -0.1381
  C  C734  1  0.737700  0.802400  0.215400  1.0  -0.0992
  C  C735  1  0.723900  0.824800  0.259000  1.0  -0.1806
  C  C736  1  0.733000  0.877800  0.256000  1.0  0.1743
  C  C737  1  0.715100  0.908100  0.301200  1.0  0.2547
  C  C738  1  0.693100  0.880500  0.357100  1.0  -0.3581
  C  C739  1  0.520700  0.038700  0.269300  1.0  0.0019
  C  C740  1  0.564500  0.991600  0.264800  1.0  0.0785
  C  C741  1  0.612800  0.933300  0.203100  1.0  0.0408
  C  C742  1  0.622700  0.926900  0.143200  1.0  0.0371
  C  C743  1  0.564000  0.927900  0.081200  1.0  0.1765
  C  C744  1  0.606200  0.899100  0.040800  1.0  -0.3551
  C  C745  1  0.507700  0.945400  0.070500  1.0  0.127
  C  C746  1  0.488300  0.934500  0.024900  1.0  -0.1877
  C  C747  1  0.434800  0.950700  0.024700  1.0  -0.0917
  C  C748  1  0.398800  0.978400  0.061800  1.0  -0.208
  C  C749  1  0.419500  0.987100  0.103200  1.0  0.117
  C  C750  1  0.388900  0.014500  0.148100  1.0  0.1736
  C  C751  1  0.325400  0.023700  0.151400  1.0  -0.3525
  C  C752  1  0.387400  0.056200  0.224300  1.0  0.0327
  C  C753  1  0.427000  0.074300  0.244000  1.0  0.0396
  C  C754  1  0.432600  0.610100  0.283800  1.0  0.25
  C  C755  1  0.407600  0.560400  0.300900  1.0  -0.3734
  C  C756  1  0.404340  0.658040  0.250140  1.0  0.111
  C  C757  1  0.354900  0.661200  0.234800  1.0  -0.1731
  C  C758  1  0.334800  0.707600  0.204000  1.0  -0.0569
  C  C759  1  0.361300  0.750000  0.187000  1.0  -0.2479
  C  C760  1  0.411320  0.745520  0.202120  1.0  0.1846
  C  C761  1  0.447200  0.786900  0.184500  1.0  0.2346
  C  C762  1  0.423900  0.843600  0.158600  1.0  -0.3779
  C  C763  1  0.537610  0.803710  0.178110  1.0  0.0029
  C  C764  1  0.589800  0.770500  0.190000  1.0  0.037
  C  C765  1  0.631700  0.701200  0.261800  1.0  0.002
  C  C766  1  0.613900  0.661500  0.311500  1.0  -0.0049
  C  C767  1  0.549600  0.597500  0.345000  1.0  0.0241
  C  C768  1  0.510200  0.572400  0.326700  1.0  0.0357
  C  C769  1  0.858320  0.325520  0.943120  1.0  0.1438
  C  C770  1  0.895420  0.434020  0.913320  1.0  0.0526
  C  C771  1  0.849400  0.373200  0.846700  1.0  0.1058
  C  C772  1  0.934350  0.409050  0.805550  1.0  0.1718
  C  C773  1  0.006900  0.358900  0.858600  1.0  0.0778
  C  C774  1  0.940450  0.282650  0.857450  1.0  0.0828
  C  C775  1  0.955290  0.323090  0.954990  1.0  0.1454
  C  C776  1  0.725160  0.526760  0.107360  1.0  0.1708
  C  C777  1  0.660400  0.460300  0.158300  1.0  0.1236
  C  C778  1  0.662600  0.533600  0.226800  1.0  0.0654
  C  C779  1  0.565400  0.520500  0.180200  1.0  0.1336
  C  C780  1  0.582520  0.617020  0.168920  1.0  0.1581
  C  C781  1  0.679100  0.615000  0.131000  1.0  -0.0067
  C  C782  1  0.624000  0.562900  0.068100  1.0  -0.0183
  C  C783  1  0.888200  0.580200  0.800400  1.0  0.0575
  C  C784  1  0.944200  0.558900  0.813100  1.0  -0.0177
  C  C785  1  0.033500  0.513600  0.764000  1.0  0.0594
  C  C786  1  0.064500  0.506100  0.713800  1.0  0.0418
  C  C787  1  0.051000  0.473500  0.636600  1.0  0.2829
  C  C788  1  0.109100  0.460600  0.614800  1.0  -0.3637
  C  C789  1  0.009700  0.466100  0.608800  1.0  0.1873
  C  C790  1  0.019600  0.444700  0.561800  1.0  -0.1188
  C  C791  1  0.974800  0.437600  0.539600  1.0  -0.0965
  C  C792  1  0.922000  0.453900  0.563800  1.0  -0.1324
  C  C793  1  0.916600  0.475300  0.609900  1.0  0.1443
  C  C794  1  0.862300  0.493400  0.642500  1.0  0.2161
  C  C795  1  0.808600  0.491400  0.627700  1.0  -0.3403
  C  C796  1  0.810700  0.532300  0.721800  1.0  0.0207
  C  C797  1  0.824400  0.568700  0.750900  1.0  0.0939
  C  C798  1  0.673600  0.299000  0.004600  1.0  -0.024
  C  C799  1  0.702900  0.294000  0.947600  1.0  -0.0041
  C  C800  1  0.772700  0.230800  0.896900  1.0  0.0302
  C  C801  1  0.818200  0.181500  0.907600  1.0  0.0167
  C  C802  1  0.888900  0.149600  0.960900  1.0  0.0594
  C  C803  1  0.916200  0.168200  0.998700  1.0  0.0288
  C  C804  1  0.883700  0.200300  0.082200  1.0  0.2169
  C  C805  1  0.936600  0.184200  0.103900  1.0  -0.359
  C  C806  1  0.835520  0.227520  0.117620  1.0  0.129
  C  C807  1  0.834400  0.236800  0.169100  1.0  -0.1337
  C  C808  1  0.784600  0.262300  0.197600  1.0  -0.0999
  C  C809  1  0.741000  0.276100  0.175200  1.0  -0.1778
  C  C810  1  0.744000  0.267000  0.122200  1.0  0.1755
  C  C811  1  0.698800  0.284900  0.091900  1.0  0.2526
  C  C812  1  0.642900  0.306900  0.119500  1.0  -0.3594
  C  C813  1  0.730700  0.479300  0.961300  1.0  -0.0023
  C  C814  1  0.735200  0.435500  0.008400  1.0  0.0808
  C  C815  1  0.796900  0.387200  0.066700  1.0  0.0417
  C  C816  1  0.856800  0.377300  0.073100  1.0  0.0347
  C  C817  1  0.918800  0.436000  0.072100  1.0  0.1748
  C  C818  1  0.959200  0.393800  0.100900  1.0  -0.3534
  C  C819  1  0.929500  0.492300  0.054600  1.0  0.1272
  C  C820  1  0.975100  0.511700  0.065500  1.0  -0.1869
  C  C821  1  0.975300  0.565200  0.049300  1.0  -0.0917
  C  C822  1  0.938200  0.601200  0.021600  1.0  -0.2097
  C  C823  1  0.896800  0.580500  0.012900  1.0  0.1169
  C  C824  1  0.851900  0.611100  0.985500  1.0  0.1713
  C  C825  1  0.848600  0.674600  0.976300  1.0  -0.3541
  C  C826  1  0.775700  0.612600  0.943800  1.0  0.0255
  C  C827  1  0.756000  0.573000  0.925700  1.0  0.0362
  C  C828  1  0.716200  0.567400  0.389900  1.0  0.2526
  C  C829  1  0.699100  0.592400  0.439600  1.0  -0.3717
  C  C830  1  0.749860  0.595660  0.341960  1.0  0.1116
  C  C831  1  0.765200  0.645100  0.338800  1.0  -0.1726
  C  C832  1  0.796000  0.665200  0.292400  1.0  -0.0546
  C  C833  1  0.813000  0.638700  0.250000  1.0  -0.2473
  C  C834  1  0.797880  0.588680  0.254480  1.0  0.184
  C  C835  1  0.815500  0.552800  0.213100  1.0  0.2351
  C  C836  1  0.841400  0.576100  0.156400  1.0  -0.3755
  C  C837  1  0.821890  0.462390  0.196290  1.0  0.009
  C  C838  1  0.810000  0.410200  0.229500  1.0  0.0364
  C  C839  1  0.738200  0.368300  0.298800  1.0  -0.001
  C  C840  1  0.688500  0.386100  0.338500  1.0  -0.0038
  C  C841  1  0.655000  0.450400  0.402500  1.0  0.0277
  C  C842  1  0.673300  0.489800  0.427600  1.0  0.0358
  C  C843  1  0.943120  0.858320  0.325520  1.0  0.1433
  C  C844  1  0.913320  0.895420  0.434020  1.0  0.0524
  C  C845  1  0.846700  0.849400  0.373200  1.0  0.1068
  C  C846  1  0.805550  0.934350  0.409050  1.0  0.1718
  C  C847  1  0.858600  0.006900  0.358900  1.0  0.074
  C  C848  1  0.857450  0.940450  0.282650  1.0  0.0823
  C  C849  1  0.954990  0.955290  0.323090  1.0  0.1495
  C  C850  1  0.107360  0.725160  0.526760  1.0  0.1719
  C  C851  1  0.158300  0.660400  0.460300  1.0  0.125
  C  C852  1  0.226800  0.662600  0.533600  1.0  0.0692
  C  C853  1  0.180200  0.565400  0.520500  1.0  0.1332
  C  C854  1  0.168920  0.582520  0.617020  1.0  0.1575
  C  C855  1  0.131000  0.679100  0.615000  1.0  -0.0114
  C  C856  1  0.068100  0.624000  0.562900  1.0  -0.0164
  C  C857  1  0.800400  0.888200  0.580200  1.0  0.0553
  C  C858  1  0.813100  0.944200  0.558900  1.0  -0.0159
  C  C859  1  0.764000  0.033500  0.513600  1.0  0.0604
  C  C860  1  0.713800  0.064500  0.506100  1.0  0.0393
  C  C861  1  0.636600  0.051000  0.473500  1.0  0.2793
  C  C862  1  0.614800  0.109100  0.460600  1.0  -0.3641
  C  C863  1  0.608800  0.009700  0.466100  1.0  0.1857
  C  C864  1  0.561800  0.019600  0.444700  1.0  -0.1205
  C  C865  1  0.539600  0.974800  0.437600  1.0  -0.0967
  C  C866  1  0.563800  0.922000  0.453900  1.0  -0.1318
  C  C867  1  0.609900  0.916600  0.475300  1.0  0.1443
  C  C868  1  0.642500  0.862300  0.493400  1.0  0.2127
  C  C869  1  0.627700  0.808600  0.491400  1.0  -0.3384
  C  C870  1  0.721800  0.810700  0.532300  1.0  0.02
  C  C871  1  0.750900  0.824400  0.568700  1.0  0.0943
  C  C872  1  0.004600  0.673600  0.299000  1.0  -0.0286
  C  C873  1  0.947600  0.702900  0.294000  1.0  -0.004
  C  C874  1  0.896900  0.772700  0.230800  1.0  0.0389
  C  C875  1  0.907600  0.818200  0.181500  1.0  0.0147
  C  C876  1  0.960900  0.888900  0.149600  1.0  0.0597
  C  C877  1  0.998700  0.916200  0.168200  1.0  0.0196
  C  C878  1  0.082200  0.883700  0.200300  1.0  0.2106
  C  C879  1  0.103900  0.936600  0.184200  1.0  -0.3596
  C  C880  1  0.117620  0.835520  0.227520  1.0  0.1255
  C  C881  1  0.169100  0.834400  0.236800  1.0  -0.1333
  C  C882  1  0.197600  0.784600  0.262300  1.0  -0.1016
  C  C883  1  0.175200  0.741000  0.276100  1.0  -0.1774
  C  C884  1  0.122200  0.744000  0.267000  1.0  0.1752
  C  C885  1  0.091900  0.698800  0.284900  1.0  0.2561
  C  C886  1  0.119500  0.642900  0.306900  1.0  -0.3631
  C  C887  1  0.961300  0.730700  0.479300  1.0  0.0063
  C  C888  1  0.008400  0.735200  0.435500  1.0  0.0791
  C  C889  1  0.066700  0.796900  0.387200  1.0  0.0424
  C  C890  1  0.073100  0.856800  0.377300  1.0  0.0352
  C  C891  1  0.072100  0.918800  0.436000  1.0  0.175
  C  C892  1  0.100900  0.959200  0.393800  1.0  -0.3555
  C  C893  1  0.054600  0.929500  0.492300  1.0  0.1272
  C  C894  1  0.065500  0.975100  0.511700  1.0  -0.1861
  C  C895  1  0.049300  0.975300  0.565200  1.0  -0.0912
  C  C896  1  0.021600  0.938200  0.601200  1.0  -0.2079
  C  C897  1  0.012900  0.896800  0.580500  1.0  0.1171
  C  C898  1  0.985500  0.851900  0.611100  1.0  0.1749
  C  C899  1  0.976300  0.848600  0.674600  1.0  -0.3542
  C  C900  1  0.943800  0.775700  0.612600  1.0  0.0233
  C  C901  1  0.925700  0.756000  0.573000  1.0  0.0463
  C  C902  1  0.389900  0.716200  0.567400  1.0  0.2559
  C  C903  1  0.439600  0.699100  0.592400  1.0  -0.3753
  C  C904  1  0.341960  0.749860  0.595660  1.0  0.1134
  C  C905  1  0.338800  0.765200  0.645100  1.0  -0.1748
  C  C906  1  0.292400  0.796000  0.665200  1.0  -0.057
  C  C907  1  0.250000  0.813000  0.638700  1.0  -0.2465
  C  C908  1  0.254480  0.797880  0.588680  1.0  0.1843
  C  C909  1  0.213100  0.815500  0.552800  1.0  0.2384
  C  C910  1  0.156400  0.841400  0.576100  1.0  -0.3785
  C  C911  1  0.196290  0.821890  0.462390  1.0  0.0043
  C  C912  1  0.229500  0.810000  0.410200  1.0  0.0352
  C  C913  1  0.298800  0.738200  0.368300  1.0  -0.0007
  C  C914  1  0.338500  0.688500  0.386100  1.0  -0.0058
  C  C915  1  0.402500  0.655000  0.450400  1.0  0.024
  C  C916  1  0.427600  0.673300  0.489800  1.0  0.0434
  C  C917  1  0.325520  0.943120  0.858320  1.0  0.1431
  C  C918  1  0.434020  0.913320  0.895420  1.0  0.0517
  C  C919  1  0.373200  0.846700  0.849400  1.0  0.1066
  C  C920  1  0.409050  0.805550  0.934350  1.0  0.1723
  C  C921  1  0.358900  0.858600  0.006900  1.0  0.074
  C  C922  1  0.282650  0.857450  0.940450  1.0  0.0833
  C  C923  1  0.323090  0.954990  0.955290  1.0  0.1453
  C  C924  1  0.526760  0.107360  0.725160  1.0  0.1692
  C  C925  1  0.460300  0.158300  0.660400  1.0  0.1248
  C  C926  1  0.533600  0.226800  0.662600  1.0  0.0683
  C  C927  1  0.520500  0.180200  0.565400  1.0  0.1318
  C  C928  1  0.617020  0.168920  0.582520  1.0  0.1588
  C  C929  1  0.615000  0.131000  0.679100  1.0  -0.0072
  C  C930  1  0.562900  0.068100  0.624000  1.0  -0.0171
  C  C931  1  0.580200  0.800400  0.888200  1.0  0.0642
  C  C932  1  0.558900  0.813100  0.944200  1.0  -0.0156
  C  C933  1  0.513600  0.764000  0.033500  1.0  0.0585
  C  C934  1  0.506100  0.713800  0.064500  1.0  0.0346
  C  C935  1  0.473500  0.636600  0.051000  1.0  0.2829
  C  C936  1  0.460600  0.614800  0.109100  1.0  -0.362
  C  C937  1  0.466100  0.608800  0.009700  1.0  0.1854
  C  C938  1  0.444700  0.561800  0.019600  1.0  -0.117
  C  C939  1  0.437600  0.539600  0.974800  1.0  -0.097
  C  C940  1  0.453900  0.563800  0.922000  1.0  -0.1337
  C  C941  1  0.475300  0.609900  0.916600  1.0  0.1441
  C  C942  1  0.493400  0.642500  0.862300  1.0  0.2158
  C  C943  1  0.491400  0.627700  0.808600  1.0  -0.3387
  C  C944  1  0.532300  0.721800  0.810700  1.0  0.02
  C  C945  1  0.568700  0.750900  0.824400  1.0  0.095
  C  C946  1  0.299000  0.004600  0.673600  1.0  -0.0264
  C  C947  1  0.294000  0.947600  0.702900  1.0  -0.0065
  C  C948  1  0.230800  0.896900  0.772700  1.0  0.0354
  C  C949  1  0.181500  0.907600  0.818200  1.0  0.0207
  C  C950  1  0.149600  0.960900  0.888900  1.0  0.0609
  C  C951  1  0.168200  0.998700  0.916200  1.0  0.0237
  C  C952  1  0.200300  0.082200  0.883700  1.0  0.2133
  C  C953  1  0.184200  0.103900  0.936600  1.0  -0.3559
  C  C954  1  0.227520  0.117620  0.835520  1.0  0.1287
  C  C955  1  0.236800  0.169100  0.834400  1.0  -0.1366
  C  C956  1  0.262300  0.197600  0.784600  1.0  -0.0987
  C  C957  1  0.276100  0.175200  0.741000  1.0  -0.179
  C  C958  1  0.267000  0.122200  0.744000  1.0  0.1728
  C  C959  1  0.284900  0.091900  0.698800  1.0  0.2538
  C  C960  1  0.306900  0.119500  0.642900  1.0  -0.358
  C  C961  1  0.479300  0.961300  0.730700  1.0  -0.0007
  C  C962  1  0.435500  0.008400  0.735200  1.0  0.0789
  C  C963  1  0.387200  0.066700  0.796900  1.0  0.0404
  C  C964  1  0.377300  0.073100  0.856800  1.0  0.0366
  C  C965  1  0.436000  0.072100  0.918800  1.0  0.1753
  C  C966  1  0.393800  0.100900  0.959200  1.0  -0.3535
  C  C967  1  0.492300  0.054600  0.929500  1.0  0.1277
  C  C968  1  0.511700  0.065500  0.975100  1.0  -0.1902
  C  C969  1  0.565200  0.049300  0.975300  1.0  -0.0913
  C  C970  1  0.601200  0.021600  0.938200  1.0  -0.2061
  C  C971  1  0.580500  0.012900  0.896800  1.0  0.1204
  C  C972  1  0.611100  0.985500  0.851900  1.0  0.1772
  C  C973  1  0.674600  0.976300  0.848600  1.0  -0.3526
  C  C974  1  0.612600  0.943800  0.775700  1.0  0.0321
  C  C975  1  0.573000  0.925700  0.756000  1.0  0.039
  C  C976  1  0.567400  0.389900  0.716200  1.0  0.2511
  C  C977  1  0.592400  0.439600  0.699100  1.0  -0.3761
  C  C978  1  0.595660  0.341960  0.749860  1.0  0.111
  C  C979  1  0.645100  0.338800  0.765200  1.0  -0.1739
  C  C980  1  0.665200  0.292400  0.796000  1.0  -0.0566
  C  C981  1  0.638700  0.250000  0.813000  1.0  -0.2492
  C  C982  1  0.588680  0.254480  0.797880  1.0  0.1841
  C  C983  1  0.552800  0.213100  0.815500  1.0  0.2381
  C  C984  1  0.576100  0.156400  0.841400  1.0  -0.3808
  C  C985  1  0.462390  0.196290  0.821890  1.0  0.0048
  C  C986  1  0.410200  0.229500  0.810000  1.0  0.0367
  C  C987  1  0.368300  0.298800  0.738200  1.0  0.0011
  C  C988  1  0.386100  0.338500  0.688500  1.0  -0.0037
  C  C989  1  0.450400  0.402500  0.655000  1.0  0.0261
  C  C990  1  0.489800  0.427600  0.673300  1.0  0.034
  N  N991  1  0.175160  0.693460  0.025660  1.0  -0.4795
  N  N992  1  0.121260  0.527160  0.068260  1.0  -0.4657
  N  N993  1  0.189300  0.618300  0.172000  1.0  -0.4556
  N  N994  1  0.059460  0.562060  0.235260  1.0  -0.4629
  N  N995  1  0.946800  0.645100  0.156700  1.0  -0.508
  N  N996  1  0.047770  0.760670  0.153670  1.0  -0.4911
  N  N997  1  0.025190  0.697390  0.007090  1.0  -0.4716
  N  N998  1  0.231400  0.483400  0.916800  1.0  -0.4618
  N  N999  1  0.330700  0.586400  0.831500  1.0  -0.4666
  N  N1000  1  0.326270  0.476170  0.730670  1.0  -0.4795
  N  N1001  1  0.474610  0.493810  0.800910  1.0  -0.4424
  N  N1002  1  0.447680  0.348480  0.816180  1.0  -0.4348
  N  N1003  1  0.299300  0.343600  0.879500  1.0  -0.394
  N  N1004  1  0.384800  0.425000  0.976600  1.0  -0.402
  N  N1005  1  0.130600  0.451500  0.225300  1.0  -0.2864
  N  N1006  1  0.017500  0.450100  0.238400  1.0  -0.3896
  N  N1007  1  0.968400  0.506300  0.321300  1.0  -0.355
  N  N1008  1  0.042900  0.518600  0.368600  1.0  -0.3441
  N  N1009  1  0.138800  0.487300  0.316900  1.0  -0.3613
  N  N1010  1  0.261340  0.759040  0.052940  1.0  -0.3402
  N  N1011  1  0.148710  0.805110  0.059710  1.0  -0.3253
  N  N1012  1  0.124470  0.806870  0.961170  1.0  -0.3519
  N  N1013  1  0.209880  0.757180  0.903880  1.0  -0.3201
  N  N1014  1  0.288110  0.718910  0.958210  1.0  -0.3802
  N  N1015  1  0.177800  0.412700  0.029100  1.0  -0.3285
  N  N1016  1  0.105560  0.473760  0.971760  1.0  -0.3537
  N  N1017  1  0.125000  0.572600  0.939400  1.0  -0.3981
  N  N1018  1  0.210690  0.577690  0.984190  1.0  -0.3453
  N  N1019  1  0.252600  0.472000  0.029100  1.0  -0.383
  N  N1020  1  0.299100  0.577700  0.630300  1.0  -0.3694
  N  N1021  1  0.244340  0.583840  0.738440  1.0  -0.3435
  N  N1022  1  0.194840  0.495440  0.770140  1.0  -0.3813
  N  N1023  1  0.233470  0.431570  0.700070  1.0  -0.3247
  N  N1024  1  0.295370  0.477070  0.615470  1.0  -0.3899
  N  N1025  1  0.025660  0.175160  0.693460  1.0  -0.4821
  N  N1026  1  0.068260  0.121260  0.527160  1.0  -0.4675
  N  N1027  1  0.172000  0.189300  0.618300  1.0  -0.4534
  N  N1028  1  0.235260  0.059460  0.562060  1.0  -0.4623
  N  N1029  1  0.156700  0.946800  0.645100  1.0  -0.5093
  N  N1030  1  0.153670  0.047770  0.760670  1.0  -0.4893
  N  N1031  1  0.007090  0.025190  0.697390  1.0  -0.469
  N  N1032  1  0.916800  0.231400  0.483400  1.0  -0.4641
  N  N1033  1  0.831500  0.330700  0.586400  1.0  -0.4648
  N  N1034  1  0.730670  0.326270  0.476170  1.0  -0.4803
  N  N1035  1  0.800910  0.474610  0.493810  1.0  -0.4405
  N  N1036  1  0.816180  0.447680  0.348480  1.0  -0.4344
  N  N1037  1  0.879500  0.299300  0.343600  1.0  -0.3914
  N  N1038  1  0.976600  0.384800  0.425000  1.0  -0.4009
  N  N1039  1  0.225300  0.130600  0.451500  1.0  -0.2872
  N  N1040  1  0.238400  0.017500  0.450100  1.0  -0.3875
  N  N1041  1  0.321300  0.968400  0.506300  1.0  -0.3545
  N  N1042  1  0.368600  0.042900  0.518600  1.0  -0.3421
  N  N1043  1  0.316900  0.138800  0.487300  1.0  -0.36
  N  N1044  1  0.052940  0.261340  0.759040  1.0  -0.3382
  N  N1045  1  0.059710  0.148710  0.805110  1.0  -0.3207
  N  N1046  1  0.961170  0.124470  0.806870  1.0  -0.3515
  N  N1047  1  0.903880  0.209880  0.757180  1.0  -0.3198
  N  N1048  1  0.958210  0.288110  0.718910  1.0  -0.3799
  N  N1049  1  0.029100  0.177800  0.412700  1.0  -0.3285
  N  N1050  1  0.971760  0.105560  0.473760  1.0  -0.3541
  N  N1051  1  0.939400  0.125000  0.572600  1.0  -0.3955
  N  N1052  1  0.984190  0.210690  0.577690  1.0  -0.3454
  N  N1053  1  0.029100  0.252600  0.472000  1.0  -0.3853
  N  N1054  1  0.630300  0.299100  0.577700  1.0  -0.3705
  N  N1055  1  0.738440  0.244340  0.583840  1.0  -0.3449
  N  N1056  1  0.770140  0.194840  0.495440  1.0  -0.3797
  N  N1057  1  0.700070  0.233470  0.431570  1.0  -0.3281
  N  N1058  1  0.615470  0.295370  0.477070  1.0  -0.391
  N  N1059  1  0.693460  0.025660  0.175160  1.0  -0.481
  N  N1060  1  0.527160  0.068260  0.121260  1.0  -0.4661
  N  N1061  1  0.618300  0.172000  0.189300  1.0  -0.4552
  N  N1062  1  0.562060  0.235260  0.059460  1.0  -0.463
  N  N1063  1  0.645100  0.156700  0.946800  1.0  -0.5066
  N  N1064  1  0.760670  0.153670  0.047770  1.0  -0.4902
  N  N1065  1  0.697390  0.007090  0.025190  1.0  -0.4722
  N  N1066  1  0.483400  0.916800  0.231400  1.0  -0.4606
  N  N1067  1  0.586400  0.831500  0.330700  1.0  -0.4691
  N  N1068  1  0.476170  0.730670  0.326270  1.0  -0.4806
  N  N1069  1  0.493810  0.800910  0.474610  1.0  -0.4401
  N  N1070  1  0.348480  0.816180  0.447680  1.0  -0.4364
  N  N1071  1  0.343600  0.879500  0.299300  1.0  -0.3954
  N  N1072  1  0.425000  0.976600  0.384800  1.0  -0.403
  N  N1073  1  0.451500  0.225300  0.130600  1.0  -0.2813
  N  N1074  1  0.450100  0.238400  0.017500  1.0  -0.3898
  N  N1075  1  0.506300  0.321300  0.968400  1.0  -0.3546
  N  N1076  1  0.518600  0.368600  0.042900  1.0  -0.3407
  N  N1077  1  0.487300  0.316900  0.138800  1.0  -0.3616
  N  N1078  1  0.759040  0.052940  0.261340  1.0  -0.3371
  N  N1079  1  0.805110  0.059710  0.148710  1.0  -0.3205
  N  N1080  1  0.806870  0.961170  0.124470  1.0  -0.3533
  N  N1081  1  0.757180  0.903880  0.209880  1.0  -0.318
  N  N1082  1  0.718910  0.958210  0.288110  1.0  -0.38
  N  N1083  1  0.412700  0.029100  0.177800  1.0  -0.3269
  N  N1084  1  0.473760  0.971760  0.105560  1.0  -0.356
  N  N1085  1  0.572600  0.939400  0.125000  1.0  -0.3963
  N  N1086  1  0.577690  0.984190  0.210690  1.0  -0.342
  N  N1087  1  0.472000  0.029100  0.252600  1.0  -0.3859
  N  N1088  1  0.577700  0.630300  0.299100  1.0  -0.3675
  N  N1089  1  0.583840  0.738440  0.244340  1.0  -0.3457
  N  N1090  1  0.495440  0.770140  0.194840  1.0  -0.3813
  N  N1091  1  0.431570  0.700070  0.233470  1.0  -0.3262
  N  N1092  1  0.477070  0.615470  0.295370  1.0  -0.3887
  N  N1093  1  0.824840  0.306540  0.974340  1.0  -0.4803
  N  N1094  1  0.878740  0.472840  0.931740  1.0  -0.4675
  N  N1095  1  0.810700  0.381700  0.828000  1.0  -0.4539
  N  N1096  1  0.940540  0.437940  0.764740  1.0  -0.4624
  N  N1097  1  0.053200  0.354900  0.843300  1.0  -0.5097
  N  N1098  1  0.952230  0.239330  0.846330  1.0  -0.4911
  N  N1099  1  0.974810  0.302610  0.992910  1.0  -0.47
  N  N1100  1  0.768600  0.516600  0.083200  1.0  -0.4632
  N  N1101  1  0.669300  0.413600  0.168500  1.0  -0.4657
  N  N1102  1  0.673730  0.523830  0.269330  1.0  -0.4798
  N  N1103  1  0.525390  0.506190  0.199090  1.0  -0.4423
  N  N1104  1  0.552320  0.651520  0.183820  1.0  -0.4359
  N  N1105  1  0.700700  0.656400  0.120500  1.0  -0.3935
  N  N1106  1  0.615200  0.575000  0.023400  1.0  -0.4023
  N  N1107  1  0.869400  0.548500  0.774700  1.0  -0.2881
  N  N1108  1  0.982500  0.549900  0.761600  1.0  -0.3909
  N  N1109  1  0.031600  0.493700  0.678700  1.0  -0.3545
  N  N1110  1  0.957100  0.481400  0.631400  1.0  -0.3427
  N  N1111  1  0.861200  0.512700  0.683100  1.0  -0.362
  N  N1112  1  0.738660  0.240960  0.947060  1.0  -0.3381
  N  N1113  1  0.851290  0.194890  0.940290  1.0  -0.3235
  N  N1114  1  0.875530  0.193130  0.038830  1.0  -0.3508
  N  N1115  1  0.790120  0.242820  0.096120  1.0  -0.3216
  N  N1116  1  0.711890  0.281090  0.041790  1.0  -0.3818
  N  N1117  1  0.822200  0.587300  0.970900  1.0  -0.325
  N  N1118  1  0.894440  0.526240  0.028240  1.0  -0.3563
  N  N1119  1  0.875000  0.427400  0.060600  1.0  -0.3952
  N  N1120  1  0.789310  0.422310  0.015810  1.0  -0.3443
  N  N1121  1  0.747400  0.528000  0.970900  1.0  -0.3847
  N  N1122  1  0.700900  0.422300  0.369700  1.0  -0.3692
  N  N1123  1  0.755660  0.416160  0.261560  1.0  -0.343
  N  N1124  1  0.805160  0.504560  0.229860  1.0  -0.3791
  N  N1125  1  0.766530  0.568430  0.299930  1.0  -0.3267
  N  N1126  1  0.704630  0.522930  0.384530  1.0  -0.39
  N  N1127  1  0.974340  0.824840  0.306540  1.0  -0.4823
  N  N1128  1  0.931740  0.878740  0.472840  1.0  -0.4664
  N  N1129  1  0.828000  0.810700  0.381700  1.0  -0.4526
  N  N1130  1  0.764740  0.940540  0.437940  1.0  -0.462
  N  N1131  1  0.843300  0.053200  0.354900  1.0  -0.5106
  N  N1132  1  0.846330  0.952230  0.239330  1.0  -0.4887
  N  N1133  1  0.992910  0.974810  0.302610  1.0  -0.473
  N  N1134  1  0.083200  0.768600  0.516600  1.0  -0.4627
  N  N1135  1  0.168500  0.669300  0.413600  1.0  -0.4622
  N  N1136  1  0.269330  0.673730  0.523830  1.0  -0.4809
  N  N1137  1  0.199090  0.525390  0.506190  1.0  -0.4412
  N  N1138  1  0.183820  0.552320  0.651520  1.0  -0.4357
  N  N1139  1  0.120500  0.700700  0.656400  1.0  -0.3939
  N  N1140  1  0.023400  0.615200  0.575000  1.0  -0.4017
  N  N1141  1  0.774700  0.869400  0.548500  1.0  -0.2848
  N  N1142  1  0.761600  0.982500  0.549900  1.0  -0.3927
  N  N1143  1  0.678700  0.031600  0.493700  1.0  -0.3573
  N  N1144  1  0.631400  0.957100  0.481400  1.0  -0.3422
  N  N1145  1  0.683100  0.861200  0.512700  1.0  -0.3616
  N  N1146  1  0.947060  0.738660  0.240960  1.0  -0.3393
  N  N1147  1  0.940290  0.851290  0.194890  1.0  -0.3228
  N  N1148  1  0.038830  0.875530  0.193130  1.0  -0.3521
  N  N1149  1  0.096120  0.790120  0.242820  1.0  -0.3186
  N  N1150  1  0.041790  0.711890  0.281090  1.0  -0.3793
  N  N1151  1  0.970900  0.822200  0.587300  1.0  -0.329
  N  N1152  1  0.028240  0.894440  0.526240  1.0  -0.3545
  N  N1153  1  0.060600  0.875000  0.427400  1.0  -0.3956
  N  N1154  1  0.015810  0.789310  0.422310  1.0  -0.3475
  N  N1155  1  0.970900  0.747400  0.528000  1.0  -0.3856
  N  N1156  1  0.369700  0.700900  0.422300  1.0  -0.3689
  N  N1157  1  0.261560  0.755660  0.416160  1.0  -0.3419
  N  N1158  1  0.229860  0.805160  0.504560  1.0  -0.3815
  N  N1159  1  0.299930  0.766530  0.568430  1.0  -0.3309
  N  N1160  1  0.384530  0.704630  0.522930  1.0  -0.3878
  N  N1161  1  0.306540  0.974340  0.824840  1.0  -0.481
  N  N1162  1  0.472840  0.931740  0.878740  1.0  -0.4643
  N  N1163  1  0.381700  0.828000  0.810700  1.0  -0.4537
  N  N1164  1  0.437940  0.764740  0.940540  1.0  -0.4642
  N  N1165  1  0.354900  0.843300  0.053200  1.0  -0.5063
  N  N1166  1  0.239330  0.846330  0.952230  1.0  -0.49
  N  N1167  1  0.302610  0.992910  0.974810  1.0  -0.4735
  N  N1168  1  0.516600  0.083200  0.768600  1.0  -0.4632
  N  N1169  1  0.413600  0.168500  0.669300  1.0  -0.4686
  N  N1170  1  0.523830  0.269330  0.673730  1.0  -0.4796
  N  N1171  1  0.506190  0.199090  0.525390  1.0  -0.4395
  N  N1172  1  0.651520  0.183820  0.552320  1.0  -0.4351
  N  N1173  1  0.656400  0.120500  0.700700  1.0  -0.395
  N  N1174  1  0.575000  0.023400  0.615200  1.0  -0.4017
  N  N1175  1  0.548500  0.774700  0.869400  1.0  -0.2826
  N  N1176  1  0.549900  0.761600  0.982500  1.0  -0.3878
  N  N1177  1  0.493700  0.678700  0.031600  1.0  -0.3541
  N  N1178  1  0.481400  0.631400  0.957100  1.0  -0.3384
  N  N1179  1  0.512700  0.683100  0.861200  1.0  -0.3604
  N  N1180  1  0.240960  0.947060  0.738660  1.0  -0.3388
  N  N1181  1  0.194890  0.940290  0.851290  1.0  -0.3207
  N  N1182  1  0.193130  0.038830  0.875530  1.0  -0.3532
  N  N1183  1  0.242820  0.096120  0.790120  1.0  -0.3198
  N  N1184  1  0.281090  0.041790  0.711890  1.0  -0.3801
  N  N1185  1  0.587300  0.970900  0.822200  1.0  -0.3253
  N  N1186  1  0.526240  0.028240  0.894440  1.0  -0.3584
  N  N1187  1  0.427400  0.060600  0.875000  1.0  -0.3969
  N  N1188  1  0.422310  0.015810  0.789310  1.0  -0.3401
  N  N1189  1  0.528000  0.970900  0.747400  1.0  -0.3838
  N  N1190  1  0.422300  0.369700  0.700900  1.0  -0.369
  N  N1191  1  0.416160  0.261560  0.755660  1.0  -0.3457
  N  N1192  1  0.504560  0.229860  0.805160  1.0  -0.3798
  N  N1193  1  0.568430  0.299930  0.766530  1.0  -0.3276
  N  N1194  1  0.522930  0.384530  0.704630  1.0  -0.3886
  O  O1195  1  0.064400  0.399500  0.345000  1.0  -0.732
  O  O1196  1  0.345000  0.064400  0.399500  1.0  -0.7305
  O  O1197  1  0.399500  0.345000  0.064400  1.0  -0.7337
  O  O1198  1  0.935600  0.600500  0.655000  1.0  -0.731
  O  O1199  1  0.655000  0.935600  0.600500  1.0  -0.7326
  O  O1200  1  0.600500  0.655000  0.935600  1.0  -0.727
