# generated using pymatgen
data_Na2Cd3H24(C2O)24
_symmetry_space_group_name_H-M   'P 1'
_cell_length_a   29.37000000
_cell_length_b   20.99800000
_cell_length_c   27.36000000
_cell_angle_alpha   90.00000000
_cell_angle_beta   90.00000000
_cell_angle_gamma   90.00000000
_symmetry_Int_Tables_number   1
_chemical_formula_structural   Na2Cd3H24(C2O)24
_chemical_formula_sum   'Na16 Cd24 H192 C384 O192'
_cell_volume   16873.22007360
_cell_formula_units_Z   8
loop_
 _symmetry_equiv_pos_site_id
 _symmetry_equiv_pos_as_xyz
  1  'x, y, z'
loop_
 _atom_site_type_symbol
 _atom_site_label
 _atom_site_symmetry_multiplicity
 _atom_site_fract_x
 _atom_site_fract_y
 _atom_site_fract_z
 _atom_site_occupancy
 _atom_site_charge
  Na  Na1  1  0.032670  0.124170  0.134530  1.0  0.9701
  Na  Na2  1  0.032670  0.624170  0.634530  1.0  0.9701
  Na  Na3  1  0.532670  0.124170  0.634530  1.0  0.9701
  Na  Na4  1  0.532670  0.624170  0.134530  1.0  0.9701
  Na  Na5  1  0.967330  0.875830  0.134530  1.0  0.9697
  Na  Na6  1  0.967330  0.375830  0.634530  1.0  0.9697
  Na  Na7  1  0.467330  0.875830  0.634530  1.0  0.9697
  Na  Na8  1  0.467330  0.375830  0.134530  1.0  0.9697
  Na  Na9  1  0.282670  0.125830  0.384530  1.0  0.9699
  Na  Na10  1  0.282670  0.625830  0.884530  1.0  0.9699
  Na  Na11  1  0.782670  0.125830  0.884530  1.0  0.9699
  Na  Na12  1  0.782670  0.625830  0.384530  1.0  0.9699
  Na  Na13  1  0.217330  0.374170  0.384530  1.0  0.9699
  Na  Na14  1  0.217330  0.874170  0.884530  1.0  0.9699
  Na  Na15  1  0.717330  0.374170  0.884530  1.0  0.9699
  Na  Na16  1  0.717330  0.874170  0.384530  1.0  0.9699
  Cd  Cd17  1  0.070520  0.251510  0.068940  1.0  1.0841
  Cd  Cd18  1  0.070520  0.751510  0.568940  1.0  1.0841
  Cd  Cd19  1  0.570520  0.251510  0.568940  1.0  1.0841
  Cd  Cd20  1  0.570520  0.751510  0.068940  1.0  1.0841
  Cd  Cd21  1  0.929480  0.748490  0.068940  1.0  1.0848
  Cd  Cd22  1  0.929480  0.248490  0.568940  1.0  1.0848
  Cd  Cd23  1  0.429480  0.748490  0.568940  1.0  1.0848
  Cd  Cd24  1  0.429480  0.248490  0.068940  1.0  1.0848
  Cd  Cd25  1  0.320520  0.998490  0.318940  1.0  1.0839
  Cd  Cd26  1  0.320520  0.498490  0.818940  1.0  1.0839
  Cd  Cd27  1  0.820520  0.998490  0.818940  1.0  1.0839
  Cd  Cd28  1  0.820520  0.498490  0.318940  1.0  1.0839
  Cd  Cd29  1  0.179480  0.501510  0.318940  1.0  1.0847
  Cd  Cd30  1  0.179480  0.001510  0.818940  1.0  1.0847
  Cd  Cd31  1  0.679480  0.501510  0.818940  1.0  1.0847
  Cd  Cd32  1  0.679480  0.001510  0.318940  1.0  1.0847
  Cd  Cd33  1  0.000000  0.000000  0.204710  1.0  1.0089
  Cd  Cd34  1  0.000000  0.500000  0.704710  1.0  1.0089
  Cd  Cd35  1  0.500000  0.000000  0.704710  1.0  1.0089
  Cd  Cd36  1  0.500000  0.500000  0.204710  1.0  1.0089
  Cd  Cd37  1  0.250000  0.250000  0.454710  1.0  1.0086
  Cd  Cd38  1  0.250000  0.750000  0.954710  1.0  1.0086
  Cd  Cd39  1  0.750000  0.250000  0.954710  1.0  1.0086
  Cd  Cd40  1  0.750000  0.750000  0.454710  1.0  1.0086
  H  H41  1  0.170100  0.091100  0.371800  1.0  0.1253
  H  H42  1  0.127500  0.256800  0.310800  1.0  0.152
  H  H43  1  0.118900  0.035500  0.322000  1.0  0.1518
  H  H44  1  0.988800  0.403400  0.147200  1.0  0.1462
  H  H45  1  0.078600  0.196600  0.259400  1.0  0.1263
  H  H46  1  0.889500  0.298800  0.250400  1.0  0.1501
  H  H47  1  0.239800  0.192800  0.251700  1.0  0.1281
  H  H48  1  0.142900  0.078300  0.154500  1.0  0.1192
  H  H49  1  0.196800  0.244000  0.196500  1.0  0.1187
  H  H50  1  0.191100  0.027000  0.207300  1.0  0.0974
  H  H51  1  0.936400  0.252000  0.194800  1.0  0.0953
  H  H52  1  0.936900  0.462700  0.201200  1.0  0.1261
  H  H53  1  0.170100  0.591100  0.871800  1.0  0.1253
  H  H54  1  0.127500  0.756800  0.810800  1.0  0.152
  H  H55  1  0.118900  0.535500  0.822000  1.0  0.1518
  H  H56  1  0.988800  0.903400  0.647200  1.0  0.1462
  H  H57  1  0.078600  0.696600  0.759400  1.0  0.1263
  H  H58  1  0.889500  0.798800  0.750400  1.0  0.1501
  H  H59  1  0.239800  0.692800  0.751700  1.0  0.1281
  H  H60  1  0.142900  0.578300  0.654500  1.0  0.1192
  H  H61  1  0.196800  0.744000  0.696500  1.0  0.1187
  H  H62  1  0.191100  0.527000  0.707300  1.0  0.0974
  H  H63  1  0.936400  0.752000  0.694800  1.0  0.0953
  H  H64  1  0.936900  0.962700  0.701200  1.0  0.1261
  H  H65  1  0.670100  0.091100  0.871800  1.0  0.1253
  H  H66  1  0.627500  0.256800  0.810800  1.0  0.152
  H  H67  1  0.618900  0.035500  0.822000  1.0  0.1518
  H  H68  1  0.488800  0.403400  0.647200  1.0  0.1462
  H  H69  1  0.578600  0.196600  0.759400  1.0  0.1263
  H  H70  1  0.389500  0.298800  0.750400  1.0  0.1501
  H  H71  1  0.739800  0.192800  0.751700  1.0  0.1281
  H  H72  1  0.642900  0.078300  0.654500  1.0  0.1192
  H  H73  1  0.696800  0.244000  0.696500  1.0  0.1187
  H  H74  1  0.691100  0.027000  0.707300  1.0  0.0974
  H  H75  1  0.436400  0.252000  0.694800  1.0  0.0953
  H  H76  1  0.436900  0.462700  0.701200  1.0  0.1261
  H  H77  1  0.670100  0.591100  0.371800  1.0  0.1253
  H  H78  1  0.627500  0.756800  0.310800  1.0  0.152
  H  H79  1  0.618900  0.535500  0.322000  1.0  0.1518
  H  H80  1  0.488800  0.903400  0.147200  1.0  0.1462
  H  H81  1  0.578600  0.696600  0.259400  1.0  0.1263
  H  H82  1  0.389500  0.798800  0.250400  1.0  0.1501
  H  H83  1  0.739800  0.692800  0.251700  1.0  0.1281
  H  H84  1  0.642900  0.578300  0.154500  1.0  0.1192
  H  H85  1  0.696800  0.744000  0.196500  1.0  0.1187
  H  H86  1  0.691100  0.527000  0.207300  1.0  0.0974
  H  H87  1  0.436400  0.752000  0.194800  1.0  0.0953
  H  H88  1  0.436900  0.962700  0.201200  1.0  0.1261
  H  H89  1  0.829900  0.908900  0.371800  1.0  0.1249
  H  H90  1  0.872500  0.743200  0.310800  1.0  0.1506
  H  H91  1  0.881100  0.964500  0.322000  1.0  0.1532
  H  H92  1  0.011200  0.596600  0.147200  1.0  0.1456
  H  H93  1  0.921400  0.803400  0.259400  1.0  0.1253
  H  H94  1  0.110500  0.701200  0.250400  1.0  0.15
  H  H95  1  0.760200  0.807200  0.251700  1.0  0.1281
  H  H96  1  0.857100  0.921700  0.154500  1.0  0.1192
  H  H97  1  0.803200  0.756000  0.196500  1.0  0.1191
  H  H98  1  0.808900  0.973000  0.207300  1.0  0.0969
  H  H99  1  0.063600  0.748000  0.194800  1.0  0.0956
  H  H100  1  0.063100  0.537300  0.201200  1.0  0.1277
  H  H101  1  0.829900  0.408900  0.871800  1.0  0.1249
  H  H102  1  0.872500  0.243200  0.810800  1.0  0.1506
  H  H103  1  0.881100  0.464500  0.822000  1.0  0.1532
  H  H104  1  0.011200  0.096600  0.647200  1.0  0.1456
  H  H105  1  0.921400  0.303400  0.759400  1.0  0.1253
  H  H106  1  0.110500  0.201200  0.750400  1.0  0.15
  H  H107  1  0.760200  0.307200  0.751700  1.0  0.1281
  H  H108  1  0.857100  0.421700  0.654500  1.0  0.1192
  H  H109  1  0.803200  0.256000  0.696500  1.0  0.1191
  H  H110  1  0.808900  0.473000  0.707300  1.0  0.0969
  H  H111  1  0.063600  0.248000  0.694800  1.0  0.0956
  H  H112  1  0.063100  0.037300  0.701200  1.0  0.1277
  H  H113  1  0.329900  0.908900  0.871800  1.0  0.1249
  H  H114  1  0.372500  0.743200  0.810800  1.0  0.1506
  H  H115  1  0.381100  0.964500  0.822000  1.0  0.1532
  H  H116  1  0.511200  0.596600  0.647200  1.0  0.1456
  H  H117  1  0.421400  0.803400  0.759400  1.0  0.1253
  H  H118  1  0.610500  0.701200  0.750400  1.0  0.15
  H  H119  1  0.260200  0.807200  0.751700  1.0  0.1281
  H  H120  1  0.357100  0.921700  0.654500  1.0  0.1192
  H  H121  1  0.303200  0.756000  0.696500  1.0  0.1191
  H  H122  1  0.308900  0.973000  0.707300  1.0  0.0969
  H  H123  1  0.563600  0.748000  0.694800  1.0  0.0956
  H  H124  1  0.563100  0.537300  0.701200  1.0  0.1277
  H  H125  1  0.329900  0.408900  0.371800  1.0  0.1249
  H  H126  1  0.372500  0.243200  0.310800  1.0  0.1506
  H  H127  1  0.381100  0.464500  0.322000  1.0  0.1532
  H  H128  1  0.511200  0.096600  0.147200  1.0  0.1456
  H  H129  1  0.421400  0.303400  0.259400  1.0  0.1253
  H  H130  1  0.610500  0.201200  0.250400  1.0  0.15
  H  H131  1  0.260200  0.307200  0.251700  1.0  0.1281
  H  H132  1  0.357100  0.421700  0.154500  1.0  0.1192
  H  H133  1  0.303200  0.256000  0.196500  1.0  0.1191
  H  H134  1  0.308900  0.473000  0.207300  1.0  0.0969
  H  H135  1  0.563600  0.248000  0.194800  1.0  0.0956
  H  H136  1  0.563100  0.037300  0.201200  1.0  0.1277
  H  H137  1  0.420100  0.158900  0.621800  1.0  0.1247
  H  H138  1  0.377500  0.993200  0.560800  1.0  0.1501
  H  H139  1  0.368900  0.214500  0.572000  1.0  0.1527
  H  H140  1  0.238800  0.846600  0.397200  1.0  0.1455
  H  H141  1  0.328600  0.053400  0.509400  1.0  0.1258
  H  H142  1  0.139500  0.951200  0.500400  1.0  0.1503
  H  H143  1  0.489800  0.057200  0.501700  1.0  0.1283
  H  H144  1  0.392900  0.171700  0.404500  1.0  0.1193
  H  H145  1  0.446800  0.006000  0.446500  1.0  0.119
  H  H146  1  0.441100  0.223000  0.457300  1.0  0.0963
  H  H147  1  0.186400  0.998000  0.444800  1.0  0.0961
  H  H148  1  0.186900  0.787300  0.451200  1.0  0.1281
  H  H149  1  0.420100  0.658900  0.121800  1.0  0.1247
  H  H150  1  0.377500  0.493200  0.060800  1.0  0.1501
  H  H151  1  0.368900  0.714500  0.072000  1.0  0.1527
  H  H152  1  0.238800  0.346600  0.897200  1.0  0.1455
  H  H153  1  0.328600  0.553400  0.009400  1.0  0.1258
  H  H154  1  0.139500  0.451200  0.000400  1.0  0.1503
  H  H155  1  0.489800  0.557200  0.001700  1.0  0.1283
  H  H156  1  0.392900  0.671700  0.904500  1.0  0.1193
  H  H157  1  0.446800  0.506000  0.946500  1.0  0.119
  H  H158  1  0.441100  0.723000  0.957300  1.0  0.0963
  H  H159  1  0.186400  0.498000  0.944800  1.0  0.0961
  H  H160  1  0.186900  0.287300  0.951200  1.0  0.1281
  H  H161  1  0.920100  0.158900  0.121800  1.0  0.1247
  H  H162  1  0.877500  0.993200  0.060800  1.0  0.1501
  H  H163  1  0.868900  0.214500  0.072000  1.0  0.1527
  H  H164  1  0.738800  0.846600  0.897200  1.0  0.1455
  H  H165  1  0.828600  0.053400  0.009400  1.0  0.1258
  H  H166  1  0.639500  0.951200  0.000400  1.0  0.1503
  H  H167  1  0.989800  0.057200  0.001700  1.0  0.1283
  H  H168  1  0.892900  0.171700  0.904500  1.0  0.1193
  H  H169  1  0.946800  0.006000  0.946500  1.0  0.119
  H  H170  1  0.941100  0.223000  0.957300  1.0  0.0963
  H  H171  1  0.686400  0.998000  0.944800  1.0  0.0961
  H  H172  1  0.686900  0.787300  0.951200  1.0  0.1281
  H  H173  1  0.920100  0.658900  0.621800  1.0  0.1247
  H  H174  1  0.877500  0.493200  0.560800  1.0  0.1501
  H  H175  1  0.868900  0.714500  0.572000  1.0  0.1527
  H  H176  1  0.738800  0.346600  0.397200  1.0  0.1455
  H  H177  1  0.828600  0.553400  0.509400  1.0  0.1258
  H  H178  1  0.639500  0.451200  0.500400  1.0  0.1503
  H  H179  1  0.989800  0.557200  0.501700  1.0  0.1283
  H  H180  1  0.892900  0.671700  0.404500  1.0  0.1193
  H  H181  1  0.946800  0.506000  0.446500  1.0  0.119
  H  H182  1  0.941100  0.723000  0.457300  1.0  0.0963
  H  H183  1  0.686400  0.498000  0.444800  1.0  0.0961
  H  H184  1  0.686900  0.287300  0.451200  1.0  0.1281
  H  H185  1  0.079900  0.341100  0.621800  1.0  0.1253
  H  H186  1  0.122500  0.506800  0.560800  1.0  0.1515
  H  H187  1  0.131100  0.285500  0.572000  1.0  0.1522
  H  H188  1  0.261200  0.653400  0.397200  1.0  0.1464
  H  H189  1  0.171400  0.446600  0.509400  1.0  0.1262
  H  H190  1  0.360500  0.548800  0.500400  1.0  0.1497
  H  H191  1  0.010200  0.442800  0.501700  1.0  0.128
  H  H192  1  0.107100  0.328300  0.404500  1.0  0.119
  H  H193  1  0.053200  0.494000  0.446500  1.0  0.1187
  H  H194  1  0.058900  0.277000  0.457300  1.0  0.0972
  H  H195  1  0.313600  0.502000  0.444800  1.0  0.0955
  H  H196  1  0.313100  0.712700  0.451200  1.0  0.1262
  H  H197  1  0.079900  0.841100  0.121800  1.0  0.1253
  H  H198  1  0.122500  0.006800  0.060800  1.0  0.1515
  H  H199  1  0.131100  0.785500  0.072000  1.0  0.1522
  H  H200  1  0.261200  0.153400  0.897200  1.0  0.1464
  H  H201  1  0.171400  0.946600  0.009400  1.0  0.1262
  H  H202  1  0.360500  0.048800  0.000400  1.0  0.1497
  H  H203  1  0.010200  0.942800  0.001700  1.0  0.128
  H  H204  1  0.107100  0.828300  0.904500  1.0  0.119
  H  H205  1  0.053200  0.994000  0.946500  1.0  0.1187
  H  H206  1  0.058900  0.777000  0.957300  1.0  0.0972
  H  H207  1  0.313600  0.002000  0.944800  1.0  0.0955
  H  H208  1  0.313100  0.212700  0.951200  1.0  0.1262
  H  H209  1  0.579900  0.341100  0.121800  1.0  0.1253
  H  H210  1  0.622500  0.506800  0.060800  1.0  0.1515
  H  H211  1  0.631100  0.285500  0.072000  1.0  0.1522
  H  H212  1  0.761200  0.653400  0.897200  1.0  0.1464
  H  H213  1  0.671400  0.446600  0.009400  1.0  0.1262
  H  H214  1  0.860500  0.548800  0.000400  1.0  0.1497
  H  H215  1  0.510200  0.442800  0.001700  1.0  0.128
  H  H216  1  0.607100  0.328300  0.904500  1.0  0.119
  H  H217  1  0.553200  0.494000  0.946500  1.0  0.1187
  H  H218  1  0.558900  0.277000  0.957300  1.0  0.0972
  H  H219  1  0.813600  0.502000  0.944800  1.0  0.0955
  H  H220  1  0.813100  0.712700  0.951200  1.0  0.1262
  H  H221  1  0.579900  0.841100  0.621800  1.0  0.1253
  H  H222  1  0.622500  0.006800  0.560800  1.0  0.1515
  H  H223  1  0.631100  0.785500  0.572000  1.0  0.1522
  H  H224  1  0.761200  0.153400  0.397200  1.0  0.1464
  H  H225  1  0.671400  0.946600  0.509400  1.0  0.1262
  H  H226  1  0.860500  0.048800  0.500400  1.0  0.1497
  H  H227  1  0.510200  0.942800  0.501700  1.0  0.128
  H  H228  1  0.607100  0.828300  0.404500  1.0  0.119
  H  H229  1  0.553200  0.994000  0.446500  1.0  0.1187
  H  H230  1  0.558900  0.777000  0.457300  1.0  0.0972
  H  H231  1  0.813600  0.002000  0.444800  1.0  0.0955
  H  H232  1  0.813100  0.212700  0.451200  1.0  0.1262
  C  C233  1  0.151800  0.113000  0.349700  1.0  0.0193
  C  C234  1  0.003400  0.282500  0.142600  1.0  0.5715
  C  C235  1  0.186500  0.215300  0.376700  1.0  0.6927
  C  C236  1  0.126500  0.212700  0.312800  1.0  -0.047
  C  C237  1  0.909900  0.388700  0.233200  1.0  -0.0479
  C  C238  1  0.154900  0.178100  0.346500  1.0  -0.0894
  C  C239  1  0.121500  0.079500  0.320000  1.0  -0.014
  C  C240  1  0.970000  0.382200  0.169200  1.0  -0.0838
  C  C241  1  0.131600  0.201900  0.137100  1.0  0.7143
  C  C242  1  0.095200  0.114600  0.287200  1.0  -0.0543
  C  C243  1  0.060400  0.073300  0.255800  1.0  0.6844
  C  C244  1  0.096800  0.176400  0.282500  1.0  0.028
  C  C245  1  0.223900  0.098700  0.229300  1.0  -0.0433
  C  C246  1  0.258300  0.057200  0.263800  1.0  0.6274
  C  C247  1  0.909100  0.323100  0.231200  1.0  -0.1129
  C  C248  1  0.970500  0.318900  0.172800  1.0  0.0527
  C  C249  1  0.221900  0.169900  0.229900  1.0  -0.0933
  C  C250  1  0.162900  0.167000  0.170500  1.0  -0.0718
  C  C251  1  0.874900  0.428900  0.261800  1.0  0.7092
  C  C252  1  0.163100  0.102000  0.173400  1.0  -0.1014
  C  C253  1  0.194800  0.200000  0.199200  1.0  0.0188
  C  C254  1  0.193400  0.071000  0.204500  1.0  -0.053
  C  C255  1  0.939700  0.295800  0.198300  1.0  -0.0404
  C  C256  1  0.937400  0.418500  0.202500  1.0  -0.0365
  C  C257  1  0.151800  0.613000  0.849700  1.0  0.0193
  C  C258  1  0.003400  0.782500  0.642600  1.0  0.5715
  C  C259  1  0.186500  0.715300  0.876700  1.0  0.6927
  C  C260  1  0.126500  0.712700  0.812800  1.0  -0.047
  C  C261  1  0.909900  0.888700  0.733200  1.0  -0.0479
  C  C262  1  0.154900  0.678100  0.846500  1.0  -0.0894
  C  C263  1  0.121500  0.579500  0.820000  1.0  -0.014
  C  C264  1  0.970000  0.882200  0.669200  1.0  -0.0838
  C  C265  1  0.131600  0.701900  0.637100  1.0  0.7143
  C  C266  1  0.095200  0.614600  0.787200  1.0  -0.0543
  C  C267  1  0.060400  0.573300  0.755800  1.0  0.6844
  C  C268  1  0.096800  0.676400  0.782500  1.0  0.028
  C  C269  1  0.223900  0.598700  0.729300  1.0  -0.0433
  C  C270  1  0.258300  0.557200  0.763800  1.0  0.6274
  C  C271  1  0.909100  0.823100  0.731200  1.0  -0.1129
  C  C272  1  0.970500  0.818900  0.672800  1.0  0.0527
  C  C273  1  0.221900  0.669900  0.729900  1.0  -0.0933
  C  C274  1  0.162900  0.667000  0.670500  1.0  -0.0718
  C  C275  1  0.874900  0.928900  0.761800  1.0  0.7092
  C  C276  1  0.163100  0.602000  0.673400  1.0  -0.1014
  C  C277  1  0.194800  0.700000  0.699200  1.0  0.0188
  C  C278  1  0.193400  0.571000  0.704500  1.0  -0.053
  C  C279  1  0.939700  0.795800  0.698300  1.0  -0.0404
  C  C280  1  0.937400  0.918500  0.702500  1.0  -0.0365
  C  C281  1  0.651800  0.113000  0.849700  1.0  0.0193
  C  C282  1  0.503400  0.282500  0.642600  1.0  0.5715
  C  C283  1  0.686500  0.215300  0.876700  1.0  0.6927
  C  C284  1  0.626500  0.212700  0.812800  1.0  -0.047
  C  C285  1  0.409900  0.388700  0.733200  1.0  -0.0479
  C  C286  1  0.654900  0.178100  0.846500  1.0  -0.0894
  C  C287  1  0.621500  0.079500  0.820000  1.0  -0.014
  C  C288  1  0.470000  0.382200  0.669200  1.0  -0.0838
  C  C289  1  0.631600  0.201900  0.637100  1.0  0.7143
  C  C290  1  0.595200  0.114600  0.787200  1.0  -0.0543
  C  C291  1  0.560400  0.073300  0.755800  1.0  0.6844
  C  C292  1  0.596800  0.176400  0.782500  1.0  0.028
  C  C293  1  0.723900  0.098700  0.729300  1.0  -0.0433
  C  C294  1  0.758300  0.057200  0.763800  1.0  0.6274
  C  C295  1  0.409100  0.323100  0.731200  1.0  -0.1129
  C  C296  1  0.470500  0.318900  0.672800  1.0  0.0527
  C  C297  1  0.721900  0.169900  0.729900  1.0  -0.0933
  C  C298  1  0.662900  0.167000  0.670500  1.0  -0.0718
  C  C299  1  0.374900  0.428900  0.761800  1.0  0.7092
  C  C300  1  0.663100  0.102000  0.673400  1.0  -0.1014
  C  C301  1  0.694800  0.200000  0.699200  1.0  0.0188
  C  C302  1  0.693400  0.071000  0.704500  1.0  -0.053
  C  C303  1  0.439700  0.295800  0.698300  1.0  -0.0404
  C  C304  1  0.437400  0.418500  0.702500  1.0  -0.0365
  C  C305  1  0.651800  0.613000  0.349700  1.0  0.0193
  C  C306  1  0.503400  0.782500  0.142600  1.0  0.5715
  C  C307  1  0.686500  0.715300  0.376700  1.0  0.6927
  C  C308  1  0.626500  0.712700  0.312800  1.0  -0.047
  C  C309  1  0.409900  0.888700  0.233200  1.0  -0.0479
  C  C310  1  0.654900  0.678100  0.346500  1.0  -0.0894
  C  C311  1  0.621500  0.579500  0.320000  1.0  -0.014
  C  C312  1  0.470000  0.882200  0.169200  1.0  -0.0838
  C  C313  1  0.631600  0.701900  0.137100  1.0  0.7143
  C  C314  1  0.595200  0.614600  0.287200  1.0  -0.0543
  C  C315  1  0.560400  0.573300  0.255800  1.0  0.6844
  C  C316  1  0.596800  0.676400  0.282500  1.0  0.028
  C  C317  1  0.723900  0.598700  0.229300  1.0  -0.0433
  C  C318  1  0.758300  0.557200  0.263800  1.0  0.6274
  C  C319  1  0.409100  0.823100  0.231200  1.0  -0.1129
  C  C320  1  0.470500  0.818900  0.172800  1.0  0.0527
  C  C321  1  0.721900  0.669900  0.229900  1.0  -0.0933
  C  C322  1  0.662900  0.667000  0.170500  1.0  -0.0718
  C  C323  1  0.374900  0.928900  0.261800  1.0  0.7092
  C  C324  1  0.663100  0.602000  0.173400  1.0  -0.1014
  C  C325  1  0.694800  0.700000  0.199200  1.0  0.0188
  C  C326  1  0.693400  0.571000  0.204500  1.0  -0.053
  C  C327  1  0.439700  0.795800  0.198300  1.0  -0.0404
  C  C328  1  0.437400  0.918500  0.202500  1.0  -0.0365
  C  C329  1  0.848200  0.887000  0.349700  1.0  0.0203
  C  C330  1  0.996600  0.717500  0.142600  1.0  0.5702
  C  C331  1  0.813500  0.784700  0.376700  1.0  0.6949
  C  C332  1  0.873500  0.787300  0.312800  1.0  -0.0455
  C  C333  1  0.090100  0.611300  0.233200  1.0  -0.0481
  C  C334  1  0.845100  0.821900  0.346500  1.0  -0.0894
  C  C335  1  0.878500  0.920500  0.320000  1.0  -0.0152
  C  C336  1  0.030000  0.617800  0.169200  1.0  -0.0846
  C  C337  1  0.868400  0.798100  0.137100  1.0  0.7124
  C  C338  1  0.904800  0.885400  0.287200  1.0  -0.0562
  C  C339  1  0.939600  0.926700  0.255800  1.0  0.6862
  C  C340  1  0.903200  0.823600  0.282500  1.0  0.0291
  C  C341  1  0.776100  0.901300  0.229300  1.0  -0.0397
  C  C342  1  0.741700  0.942800  0.263800  1.0  0.627
  C  C343  1  0.090900  0.676900  0.231200  1.0  -0.1126
  C  C344  1  0.029500  0.681100  0.172800  1.0  0.047
  C  C345  1  0.778100  0.830100  0.229900  1.0  -0.0919
  C  C346  1  0.837100  0.833000  0.170500  1.0  -0.0763
  C  C347  1  0.125100  0.571100  0.261800  1.0  0.7081
  C  C348  1  0.836900  0.898000  0.173400  1.0  -0.1013
  C  C349  1  0.805200  0.800000  0.199200  1.0  0.0186
  C  C350  1  0.806600  0.929000  0.204500  1.0  -0.0524
  C  C351  1  0.060300  0.704200  0.198300  1.0  -0.0405
  C  C352  1  0.062600  0.581500  0.202500  1.0  -0.0355
  C  C353  1  0.848200  0.387000  0.849700  1.0  0.0203
  C  C354  1  0.996600  0.217500  0.642600  1.0  0.5702
  C  C355  1  0.813500  0.284700  0.876700  1.0  0.6949
  C  C356  1  0.873500  0.287300  0.812800  1.0  -0.0455
  C  C357  1  0.090100  0.111300  0.733200  1.0  -0.0481
  C  C358  1  0.845100  0.321900  0.846500  1.0  -0.0894
  C  C359  1  0.878500  0.420500  0.820000  1.0  -0.0152
  C  C360  1  0.030000  0.117800  0.669200  1.0  -0.0846
  C  C361  1  0.868400  0.298100  0.637100  1.0  0.7124
  C  C362  1  0.904800  0.385400  0.787200  1.0  -0.0562
  C  C363  1  0.939600  0.426700  0.755800  1.0  0.6862
  C  C364  1  0.903200  0.323600  0.782500  1.0  0.0291
  C  C365  1  0.776100  0.401300  0.729300  1.0  -0.0397
  C  C366  1  0.741700  0.442800  0.763800  1.0  0.627
  C  C367  1  0.090900  0.176900  0.731200  1.0  -0.1126
  C  C368  1  0.029500  0.181100  0.672800  1.0  0.047
  C  C369  1  0.778100  0.330100  0.729900  1.0  -0.0919
  C  C370  1  0.837100  0.333000  0.670500  1.0  -0.0763
  C  C371  1  0.125100  0.071100  0.761800  1.0  0.7081
  C  C372  1  0.836900  0.398000  0.673400  1.0  -0.1013
  C  C373  1  0.805200  0.300000  0.699200  1.0  0.0186
  C  C374  1  0.806600  0.429000  0.704500  1.0  -0.0524
  C  C375  1  0.060300  0.204200  0.698300  1.0  -0.0405
  C  C376  1  0.062600  0.081500  0.702500  1.0  -0.0355
  C  C377  1  0.348200  0.887000  0.849700  1.0  0.0203
  C  C378  1  0.496600  0.717500  0.642600  1.0  0.5702
  C  C379  1  0.313500  0.784700  0.876700  1.0  0.6949
  C  C380  1  0.373500  0.787300  0.812800  1.0  -0.0455
  C  C381  1  0.590100  0.611300  0.733200  1.0  -0.0481
  C  C382  1  0.345100  0.821900  0.846500  1.0  -0.0894
  C  C383  1  0.378500  0.920500  0.820000  1.0  -0.0152
  C  C384  1  0.530000  0.617800  0.669200  1.0  -0.0846
  C  C385  1  0.368400  0.798100  0.637100  1.0  0.7124
  C  C386  1  0.404800  0.885400  0.787200  1.0  -0.0562
  C  C387  1  0.439600  0.926700  0.755800  1.0  0.6862
  C  C388  1  0.403200  0.823600  0.782500  1.0  0.0291
  C  C389  1  0.276100  0.901300  0.729300  1.0  -0.0397
  C  C390  1  0.241700  0.942800  0.763800  1.0  0.627
  C  C391  1  0.590900  0.676900  0.731200  1.0  -0.1126
  C  C392  1  0.529500  0.681100  0.672800  1.0  0.047
  C  C393  1  0.278100  0.830100  0.729900  1.0  -0.0919
  C  C394  1  0.337100  0.833000  0.670500  1.0  -0.0763
  C  C395  1  0.625100  0.571100  0.761800  1.0  0.7081
  C  C396  1  0.336900  0.898000  0.673400  1.0  -0.1013
  C  C397  1  0.305200  0.800000  0.699200  1.0  0.0186
  C  C398  1  0.306600  0.929000  0.704500  1.0  -0.0524
  C  C399  1  0.560300  0.704200  0.698300  1.0  -0.0405
  C  C400  1  0.562600  0.581500  0.702500  1.0  -0.0355
  C  C401  1  0.348200  0.387000  0.349700  1.0  0.0203
  C  C402  1  0.496600  0.217500  0.142600  1.0  0.5702
  C  C403  1  0.313500  0.284700  0.376700  1.0  0.6949
  C  C404  1  0.373500  0.287300  0.312800  1.0  -0.0455
  C  C405  1  0.590100  0.111300  0.233200  1.0  -0.0481
  C  C406  1  0.345100  0.321900  0.346500  1.0  -0.0894
  C  C407  1  0.378500  0.420500  0.320000  1.0  -0.0152
  C  C408  1  0.530000  0.117800  0.169200  1.0  -0.0846
  C  C409  1  0.368400  0.298100  0.137100  1.0  0.7124
  C  C410  1  0.404800  0.385400  0.287200  1.0  -0.0562
  C  C411  1  0.439600  0.426700  0.255800  1.0  0.6862
  C  C412  1  0.403200  0.323600  0.282500  1.0  0.0291
  C  C413  1  0.276100  0.401300  0.229300  1.0  -0.0397
  C  C414  1  0.241700  0.442800  0.263800  1.0  0.627
  C  C415  1  0.590900  0.176900  0.231200  1.0  -0.1126
  C  C416  1  0.529500  0.181100  0.172800  1.0  0.047
  C  C417  1  0.278100  0.330100  0.229900  1.0  -0.0919
  C  C418  1  0.337100  0.333000  0.170500  1.0  -0.0763
  C  C419  1  0.625100  0.071100  0.261800  1.0  0.7081
  C  C420  1  0.336900  0.398000  0.173400  1.0  -0.1013
  C  C421  1  0.305200  0.300000  0.199200  1.0  0.0186
  C  C422  1  0.306600  0.429000  0.204500  1.0  -0.0524
  C  C423  1  0.560300  0.204200  0.198300  1.0  -0.0405
  C  C424  1  0.562600  0.081500  0.202500  1.0  -0.0355
  C  C425  1  0.401800  0.137000  0.599700  1.0  0.0196
  C  C426  1  0.253400  0.967500  0.392600  1.0  0.5723
  C  C427  1  0.436500  0.034700  0.626700  1.0  0.6932
  C  C428  1  0.376500  0.037300  0.562800  1.0  -0.0455
  C  C429  1  0.159900  0.861300  0.483200  1.0  -0.0478
  C  C430  1  0.404900  0.071900  0.596500  1.0  -0.0885
  C  C431  1  0.371500  0.170500  0.570000  1.0  -0.016
  C  C432  1  0.220000  0.867800  0.419200  1.0  -0.0846
  C  C433  1  0.381600  0.048100  0.387100  1.0  0.7128
  C  C434  1  0.345200  0.135400  0.537200  1.0  -0.0548
  C  C435  1  0.310400  0.176700  0.505800  1.0  0.6858
  C  C436  1  0.346800  0.073600  0.532500  1.0  0.0295
  C  C437  1  0.473900  0.151300  0.479300  1.0  -0.0426
  C  C438  1  0.508300  0.192800  0.513800  1.0  0.6278
  C  C439  1  0.159100  0.926900  0.481200  1.0  -0.1135
  C  C440  1  0.220500  0.931100  0.422800  1.0  0.0535
  C  C441  1  0.471900  0.080100  0.479900  1.0  -0.0925
  C  C442  1  0.412900  0.083000  0.420500  1.0  -0.0736
  C  C443  1  0.124900  0.821100  0.511800  1.0  0.7092
  C  C444  1  0.413100  0.148000  0.423400  1.0  -0.1013
  C  C445  1  0.444800  0.050000  0.449200  1.0  0.0191
  C  C446  1  0.443400  0.179000  0.454500  1.0  -0.0531
  C  C447  1  0.189700  0.954200  0.448300  1.0  -0.0414
  C  C448  1  0.187400  0.831500  0.452500  1.0  -0.0352
  C  C449  1  0.401800  0.637000  0.099700  1.0  0.0196
  C  C450  1  0.253400  0.467500  0.892600  1.0  0.5723
  C  C451  1  0.436500  0.534700  0.126700  1.0  0.6932
  C  C452  1  0.376500  0.537300  0.062800  1.0  -0.0455
  C  C453  1  0.159900  0.361300  0.983200  1.0  -0.0478
  C  C454  1  0.404900  0.571900  0.096500  1.0  -0.0885
  C  C455  1  0.371500  0.670500  0.070000  1.0  -0.016
  C  C456  1  0.220000  0.367800  0.919200  1.0  -0.0846
  C  C457  1  0.381600  0.548100  0.887100  1.0  0.7128
  C  C458  1  0.345200  0.635400  0.037200  1.0  -0.0548
  C  C459  1  0.310400  0.676700  0.005800  1.0  0.6858
  C  C460  1  0.346800  0.573600  0.032500  1.0  0.0295
  C  C461  1  0.473900  0.651300  0.979300  1.0  -0.0426
  C  C462  1  0.508300  0.692800  0.013800  1.0  0.6278
  C  C463  1  0.159100  0.426900  0.981200  1.0  -0.1135
  C  C464  1  0.220500  0.431100  0.922800  1.0  0.0535
  C  C465  1  0.471900  0.580100  0.979900  1.0  -0.0925
  C  C466  1  0.412900  0.583000  0.920500  1.0  -0.0736
  C  C467  1  0.124900  0.321100  0.011800  1.0  0.7092
  C  C468  1  0.413100  0.648000  0.923400  1.0  -0.1013
  C  C469  1  0.444800  0.550000  0.949200  1.0  0.0191
  C  C470  1  0.443400  0.679000  0.954500  1.0  -0.0531
  C  C471  1  0.189700  0.454200  0.948300  1.0  -0.0414
  C  C472  1  0.187400  0.331500  0.952500  1.0  -0.0352
  C  C473  1  0.901800  0.137000  0.099700  1.0  0.0196
  C  C474  1  0.753400  0.967500  0.892600  1.0  0.5723
  C  C475  1  0.936500  0.034700  0.126700  1.0  0.6932
  C  C476  1  0.876500  0.037300  0.062800  1.0  -0.0455
  C  C477  1  0.659900  0.861300  0.983200  1.0  -0.0478
  C  C478  1  0.904900  0.071900  0.096500  1.0  -0.0885
  C  C479  1  0.871500  0.170500  0.070000  1.0  -0.016
  C  C480  1  0.720000  0.867800  0.919200  1.0  -0.0846
  C  C481  1  0.881600  0.048100  0.887100  1.0  0.7128
  C  C482  1  0.845200  0.135400  0.037200  1.0  -0.0548
  C  C483  1  0.810400  0.176700  0.005800  1.0  0.6858
  C  C484  1  0.846800  0.073600  0.032500  1.0  0.0295
  C  C485  1  0.973900  0.151300  0.979300  1.0  -0.0426
  C  C486  1  0.008300  0.192800  0.013800  1.0  0.6278
  C  C487  1  0.659100  0.926900  0.981200  1.0  -0.1135
  C  C488  1  0.720500  0.931100  0.922800  1.0  0.0535
  C  C489  1  0.971900  0.080100  0.979900  1.0  -0.0925
  C  C490  1  0.912900  0.083000  0.920500  1.0  -0.0736
  C  C491  1  0.624900  0.821100  0.011800  1.0  0.7092
  C  C492  1  0.913100  0.148000  0.923400  1.0  -0.1013
  C  C493  1  0.944800  0.050000  0.949200  1.0  0.0191
  C  C494  1  0.943400  0.179000  0.954500  1.0  -0.0531
  C  C495  1  0.689700  0.954200  0.948300  1.0  -0.0414
  C  C496  1  0.687400  0.831500  0.952500  1.0  -0.0352
  C  C497  1  0.901800  0.637000  0.599700  1.0  0.0196
  C  C498  1  0.753400  0.467500  0.392600  1.0  0.5723
  C  C499  1  0.936500  0.534700  0.626700  1.0  0.6932
  C  C500  1  0.876500  0.537300  0.562800  1.0  -0.0455
  C  C501  1  0.659900  0.361300  0.483200  1.0  -0.0478
  C  C502  1  0.904900  0.571900  0.596500  1.0  -0.0885
  C  C503  1  0.871500  0.670500  0.570000  1.0  -0.016
  C  C504  1  0.720000  0.367800  0.419200  1.0  -0.0846
  C  C505  1  0.881600  0.548100  0.387100  1.0  0.7128
  C  C506  1  0.845200  0.635400  0.537200  1.0  -0.0548
  C  C507  1  0.810400  0.676700  0.505800  1.0  0.6858
  C  C508  1  0.846800  0.573600  0.532500  1.0  0.0295
  C  C509  1  0.973900  0.651300  0.479300  1.0  -0.0426
  C  C510  1  0.008300  0.692800  0.513800  1.0  0.6278
  C  C511  1  0.659100  0.426900  0.481200  1.0  -0.1135
  C  C512  1  0.720500  0.431100  0.422800  1.0  0.0535
  C  C513  1  0.971900  0.580100  0.479900  1.0  -0.0925
  C  C514  1  0.912900  0.583000  0.420500  1.0  -0.0736
  C  C515  1  0.624900  0.321100  0.511800  1.0  0.7092
  C  C516  1  0.913100  0.648000  0.423400  1.0  -0.1013
  C  C517  1  0.944800  0.550000  0.449200  1.0  0.0191
  C  C518  1  0.943400  0.679000  0.454500  1.0  -0.0531
  C  C519  1  0.689700  0.454200  0.448300  1.0  -0.0414
  C  C520  1  0.687400  0.331500  0.452500  1.0  -0.0352
  C  C521  1  0.098200  0.363000  0.599700  1.0  0.0202
  C  C522  1  0.246600  0.532500  0.392600  1.0  0.5692
  C  C523  1  0.063500  0.465300  0.626700  1.0  0.6945
  C  C524  1  0.123500  0.462700  0.562800  1.0  -0.0478
  C  C525  1  0.340100  0.638700  0.483200  1.0  -0.0485
  C  C526  1  0.095100  0.428100  0.596500  1.0  -0.0906
  C  C527  1  0.128500  0.329500  0.570000  1.0  -0.0136
  C  C528  1  0.280000  0.632200  0.419200  1.0  -0.085
  C  C529  1  0.118400  0.451900  0.387100  1.0  0.7133
  C  C530  1  0.154800  0.364600  0.537200  1.0  -0.055
  C  C531  1  0.189600  0.323300  0.505800  1.0  0.685
  C  C532  1  0.153200  0.426400  0.532500  1.0  0.0279
  C  C533  1  0.026100  0.348700  0.479300  1.0  -0.0412
  C  C534  1  0.991700  0.307200  0.513800  1.0  0.6266
  C  C535  1  0.340900  0.573100  0.481200  1.0  -0.112
  C  C536  1  0.279500  0.568900  0.422800  1.0  0.0468
  C  C537  1  0.028100  0.419900  0.479900  1.0  -0.0919
  C  C538  1  0.087100  0.417000  0.420500  1.0  -0.0749
  C  C539  1  0.375100  0.678900  0.511800  1.0  0.7083
  C  C540  1  0.086900  0.352000  0.423400  1.0  -0.1009
  C  C541  1  0.055200  0.450000  0.449200  1.0  0.0187
  C  C542  1  0.056600  0.321000  0.454500  1.0  -0.053
  C  C543  1  0.310300  0.545800  0.448300  1.0  -0.0394
  C  C544  1  0.312600  0.668500  0.452500  1.0  -0.0366
  C  C545  1  0.098200  0.863000  0.099700  1.0  0.0202
  C  C546  1  0.246600  0.032500  0.892600  1.0  0.5692
  C  C547  1  0.063500  0.965300  0.126700  1.0  0.6945
  C  C548  1  0.123500  0.962700  0.062800  1.0  -0.0478
  C  C549  1  0.340100  0.138700  0.983200  1.0  -0.0485
  C  C550  1  0.095100  0.928100  0.096500  1.0  -0.0906
  C  C551  1  0.128500  0.829500  0.070000  1.0  -0.0136
  C  C552  1  0.280000  0.132200  0.919200  1.0  -0.085
  C  C553  1  0.118400  0.951900  0.887100  1.0  0.7133
  C  C554  1  0.154800  0.864600  0.037200  1.0  -0.055
  C  C555  1  0.189600  0.823300  0.005800  1.0  0.685
  C  C556  1  0.153200  0.926400  0.032500  1.0  0.0279
  C  C557  1  0.026100  0.848700  0.979300  1.0  -0.0412
  C  C558  1  0.991700  0.807200  0.013800  1.0  0.6266
  C  C559  1  0.340900  0.073100  0.981200  1.0  -0.112
  C  C560  1  0.279500  0.068900  0.922800  1.0  0.0468
  C  C561  1  0.028100  0.919900  0.979900  1.0  -0.0919
  C  C562  1  0.087100  0.917000  0.920500  1.0  -0.0749
  C  C563  1  0.375100  0.178900  0.011800  1.0  0.7083
  C  C564  1  0.086900  0.852000  0.923400  1.0  -0.1009
  C  C565  1  0.055200  0.950000  0.949200  1.0  0.0187
  C  C566  1  0.056600  0.821000  0.954500  1.0  -0.053
  C  C567  1  0.310300  0.045800  0.948300  1.0  -0.0394
  C  C568  1  0.312600  0.168500  0.952500  1.0  -0.0366
  C  C569  1  0.598200  0.363000  0.099700  1.0  0.0202
  C  C570  1  0.746600  0.532500  0.892600  1.0  0.5692
  C  C571  1  0.563500  0.465300  0.126700  1.0  0.6945
  C  C572  1  0.623500  0.462700  0.062800  1.0  -0.0478
  C  C573  1  0.840100  0.638700  0.983200  1.0  -0.0485
  C  C574  1  0.595100  0.428100  0.096500  1.0  -0.0906
  C  C575  1  0.628500  0.329500  0.070000  1.0  -0.0136
  C  C576  1  0.780000  0.632200  0.919200  1.0  -0.085
  C  C577  1  0.618400  0.451900  0.887100  1.0  0.7133
  C  C578  1  0.654800  0.364600  0.037200  1.0  -0.055
  C  C579  1  0.689600  0.323300  0.005800  1.0  0.685
  C  C580  1  0.653200  0.426400  0.032500  1.0  0.0279
  C  C581  1  0.526100  0.348700  0.979300  1.0  -0.0412
  C  C582  1  0.491700  0.307200  0.013800  1.0  0.6266
  C  C583  1  0.840900  0.573100  0.981200  1.0  -0.112
  C  C584  1  0.779500  0.568900  0.922800  1.0  0.0468
  C  C585  1  0.528100  0.419900  0.979900  1.0  -0.0919
  C  C586  1  0.587100  0.417000  0.920500  1.0  -0.0749
  C  C587  1  0.875100  0.678900  0.011800  1.0  0.7083
  C  C588  1  0.586900  0.352000  0.923400  1.0  -0.1009
  C  C589  1  0.555200  0.450000  0.949200  1.0  0.0187
  C  C590  1  0.556600  0.321000  0.954500  1.0  -0.053
  C  C591  1  0.810300  0.545800  0.948300  1.0  -0.0394
  C  C592  1  0.812600  0.668500  0.952500  1.0  -0.0366
  C  C593  1  0.598200  0.863000  0.599700  1.0  0.0202
  C  C594  1  0.746600  0.032500  0.392600  1.0  0.5692
  C  C595  1  0.563500  0.965300  0.626700  1.0  0.6945
  C  C596  1  0.623500  0.962700  0.562800  1.0  -0.0478
  C  C597  1  0.840100  0.138700  0.483200  1.0  -0.0485
  C  C598  1  0.595100  0.928100  0.596500  1.0  -0.0906
  C  C599  1  0.628500  0.829500  0.570000  1.0  -0.0136
  C  C600  1  0.780000  0.132200  0.419200  1.0  -0.085
  C  C601  1  0.618400  0.951900  0.387100  1.0  0.7133
  C  C602  1  0.654800  0.864600  0.537200  1.0  -0.055
  C  C603  1  0.689600  0.823300  0.505800  1.0  0.685
  C  C604  1  0.653200  0.926400  0.532500  1.0  0.0279
  C  C605  1  0.526100  0.848700  0.479300  1.0  -0.0412
  C  C606  1  0.491700  0.807200  0.513800  1.0  0.6266
  C  C607  1  0.840900  0.073100  0.481200  1.0  -0.112
  C  C608  1  0.779500  0.068900  0.422800  1.0  0.0468
  C  C609  1  0.528100  0.919900  0.479900  1.0  -0.0919
  C  C610  1  0.587100  0.917000  0.420500  1.0  -0.0749
  C  C611  1  0.875100  0.178900  0.511800  1.0  0.7083
  C  C612  1  0.586900  0.852000  0.423400  1.0  -0.1009
  C  C613  1  0.555200  0.950000  0.449200  1.0  0.0187
  C  C614  1  0.556600  0.821000  0.454500  1.0  -0.053
  C  C615  1  0.810300  0.045800  0.448300  1.0  -0.0394
  C  C616  1  0.812600  0.168500  0.452500  1.0  -0.0366
  O  O617  1  0.186900  0.273100  0.375900  1.0  -0.6748
  O  O618  1  0.001400  0.222300  0.144000  1.0  -0.6409
  O  O619  1  0.214500  0.179400  0.404200  1.0  -0.6397
  O  O620  1  0.136300  0.262300  0.131900  1.0  -0.5895
  O  O621  1  0.874800  0.488300  0.256600  1.0  -0.6182
  O  O622  1  0.102700  0.169300  0.112700  1.0  -0.6348
  O  O623  1  0.262800  0.003300  0.260000  1.0  -0.5056
  O  O624  1  0.028600  0.307900  0.119600  1.0  -0.565
  O  O625  1  0.039500  0.107400  0.220700  1.0  -0.6758
  O  O626  1  0.850400  0.401000  0.287500  1.0  -0.5737
  O  O627  1  0.276300  0.094600  0.296800  1.0  -0.6732
  O  O628  1  0.057400  0.017600  0.259800  1.0  -0.532
  O  O629  1  0.186900  0.773100  0.875900  1.0  -0.6748
  O  O630  1  0.001400  0.722300  0.644000  1.0  -0.6409
  O  O631  1  0.214500  0.679400  0.904200  1.0  -0.6397
  O  O632  1  0.136300  0.762300  0.631900  1.0  -0.5895
  O  O633  1  0.874800  0.988300  0.756600  1.0  -0.6182
  O  O634  1  0.102700  0.669300  0.612700  1.0  -0.6348
  O  O635  1  0.262800  0.503300  0.760000  1.0  -0.5056
  O  O636  1  0.028600  0.807900  0.619600  1.0  -0.565
  O  O637  1  0.039500  0.607400  0.720700  1.0  -0.6758
  O  O638  1  0.850400  0.901000  0.787500  1.0  -0.5737
  O  O639  1  0.276300  0.594600  0.796800  1.0  -0.6732
  O  O640  1  0.057400  0.517600  0.759800  1.0  -0.532
  O  O641  1  0.686900  0.273100  0.875900  1.0  -0.6748
  O  O642  1  0.501400  0.222300  0.644000  1.0  -0.6409
  O  O643  1  0.714500  0.179400  0.904200  1.0  -0.6397
  O  O644  1  0.636300  0.262300  0.631900  1.0  -0.5895
  O  O645  1  0.374800  0.488300  0.756600  1.0  -0.6183
  O  O646  1  0.602700  0.169300  0.612700  1.0  -0.6348
  O  O647  1  0.762800  0.003300  0.760000  1.0  -0.5056
  O  O648  1  0.528600  0.307900  0.619600  1.0  -0.565
  O  O649  1  0.539500  0.107400  0.720700  1.0  -0.6758
  O  O650  1  0.350400  0.401000  0.787500  1.0  -0.5737
  O  O651  1  0.776300  0.094600  0.796800  1.0  -0.6732
  O  O652  1  0.557400  0.017600  0.759800  1.0  -0.532
  O  O653  1  0.686900  0.773100  0.375900  1.0  -0.6748
  O  O654  1  0.501400  0.722300  0.144000  1.0  -0.6409
  O  O655  1  0.714500  0.679400  0.404200  1.0  -0.6397
  O  O656  1  0.636300  0.762300  0.131900  1.0  -0.5895
  O  O657  1  0.374800  0.988300  0.256600  1.0  -0.6183
  O  O658  1  0.602700  0.669300  0.112700  1.0  -0.6348
  O  O659  1  0.762800  0.503300  0.260000  1.0  -0.5056
  O  O660  1  0.528600  0.807900  0.119600  1.0  -0.565
  O  O661  1  0.539500  0.607400  0.220700  1.0  -0.6758
  O  O662  1  0.350400  0.901000  0.287500  1.0  -0.5737
  O  O663  1  0.776300  0.594600  0.296800  1.0  -0.6732
  O  O664  1  0.557400  0.517600  0.259800  1.0  -0.532
  O  O665  1  0.813100  0.726900  0.375900  1.0  -0.6735
  O  O666  1  0.998600  0.777700  0.144000  1.0  -0.6412
  O  O667  1  0.785500  0.820600  0.404200  1.0  -0.6395
  O  O668  1  0.863700  0.737700  0.131900  1.0  -0.5856
  O  O669  1  0.125200  0.511700  0.256600  1.0  -0.6165
  O  O670  1  0.897300  0.830700  0.112700  1.0  -0.6349
  O  O671  1  0.737200  0.996700  0.260000  1.0  -0.507
  O  O672  1  0.971400  0.692100  0.119600  1.0  -0.5635
  O  O673  1  0.960500  0.892600  0.220700  1.0  -0.6777
  O  O674  1  0.149600  0.599000  0.287500  1.0  -0.5739
  O  O675  1  0.723700  0.905400  0.296800  1.0  -0.6748
  O  O676  1  0.942600  0.982400  0.259800  1.0  -0.5306
  O  O677  1  0.813100  0.226900  0.875900  1.0  -0.6735
  O  O678  1  0.998600  0.277700  0.644000  1.0  -0.6412
  O  O679  1  0.785500  0.320600  0.904200  1.0  -0.6395
  O  O680  1  0.863700  0.237700  0.631900  1.0  -0.5856
  O  O681  1  0.125200  0.011700  0.756600  1.0  -0.6165
  O  O682  1  0.897300  0.330700  0.612700  1.0  -0.6349
  O  O683  1  0.737200  0.496700  0.760000  1.0  -0.507
  O  O684  1  0.971400  0.192100  0.619600  1.0  -0.5635
  O  O685  1  0.960500  0.392600  0.720700  1.0  -0.6777
  O  O686  1  0.149600  0.099000  0.787500  1.0  -0.5739
  O  O687  1  0.723700  0.405400  0.796800  1.0  -0.6748
  O  O688  1  0.942600  0.482400  0.759800  1.0  -0.5306
  O  O689  1  0.313100  0.726900  0.875900  1.0  -0.6735
  O  O690  1  0.498600  0.777700  0.644000  1.0  -0.6412
  O  O691  1  0.285500  0.820600  0.904200  1.0  -0.6395
  O  O692  1  0.363700  0.737700  0.631900  1.0  -0.5856
  O  O693  1  0.625200  0.511700  0.756600  1.0  -0.6166
  O  O694  1  0.397300  0.830700  0.612700  1.0  -0.6349
  O  O695  1  0.237200  0.996700  0.760000  1.0  -0.507
  O  O696  1  0.471400  0.692100  0.619600  1.0  -0.5635
  O  O697  1  0.460500  0.892600  0.720700  1.0  -0.6777
  O  O698  1  0.649600  0.599000  0.787500  1.0  -0.5739
  O  O699  1  0.223700  0.905400  0.796800  1.0  -0.6748
  O  O700  1  0.442600  0.982400  0.759800  1.0  -0.5306
  O  O701  1  0.313100  0.226900  0.375900  1.0  -0.6735
  O  O702  1  0.498600  0.277700  0.144000  1.0  -0.6412
  O  O703  1  0.285500  0.320600  0.404200  1.0  -0.6395
  O  O704  1  0.363700  0.237700  0.131900  1.0  -0.5856
  O  O705  1  0.625200  0.011700  0.256600  1.0  -0.6166
  O  O706  1  0.397300  0.330700  0.112700  1.0  -0.6349
  O  O707  1  0.237200  0.496700  0.260000  1.0  -0.507
  O  O708  1  0.471400  0.192100  0.119600  1.0  -0.5635
  O  O709  1  0.460500  0.392600  0.220700  1.0  -0.6777
  O  O710  1  0.649600  0.099000  0.287500  1.0  -0.5739
  O  O711  1  0.223700  0.405400  0.296800  1.0  -0.6748
  O  O712  1  0.442600  0.482400  0.259800  1.0  -0.5306
  O  O713  1  0.436900  0.976900  0.625900  1.0  -0.6743
  O  O714  1  0.251400  0.027700  0.394000  1.0  -0.6414
  O  O715  1  0.464500  0.070600  0.654200  1.0  -0.6406
  O  O716  1  0.386300  0.987700  0.381900  1.0  -0.5863
  O  O717  1  0.124800  0.761700  0.506600  1.0  -0.6171
  O  O718  1  0.352700  0.080700  0.362700  1.0  -0.6341
  O  O719  1  0.512800  0.246700  0.510000  1.0  -0.5053
  O  O720  1  0.278600  0.942100  0.369600  1.0  -0.5637
  O  O721  1  0.289500  0.142600  0.470700  1.0  -0.6767
  O  O722  1  0.100400  0.849000  0.537500  1.0  -0.5722
  O  O723  1  0.526300  0.155400  0.546800  1.0  -0.6746
  O  O724  1  0.307400  0.232400  0.509800  1.0  -0.5324
  O  O725  1  0.436900  0.476900  0.125900  1.0  -0.6743
  O  O726  1  0.251400  0.527700  0.894000  1.0  -0.6414
  O  O727  1  0.464500  0.570600  0.154200  1.0  -0.6406
  O  O728  1  0.386300  0.487700  0.881900  1.0  -0.5863
  O  O729  1  0.124800  0.261700  0.006600  1.0  -0.6171
  O  O730  1  0.352700  0.580700  0.862700  1.0  -0.6341
  O  O731  1  0.512800  0.746700  0.010000  1.0  -0.5053
  O  O732  1  0.278600  0.442100  0.869600  1.0  -0.5637
  O  O733  1  0.289500  0.642600  0.970700  1.0  -0.6767
  O  O734  1  0.100400  0.349000  0.037500  1.0  -0.5722
  O  O735  1  0.526300  0.655400  0.046800  1.0  -0.6746
  O  O736  1  0.307400  0.732400  0.009800  1.0  -0.5324
  O  O737  1  0.936900  0.976900  0.125900  1.0  -0.6743
  O  O738  1  0.751400  0.027700  0.894000  1.0  -0.6414
  O  O739  1  0.964500  0.070600  0.154200  1.0  -0.6406
  O  O740  1  0.886300  0.987700  0.881900  1.0  -0.5863
  O  O741  1  0.624800  0.761700  0.006600  1.0  -0.6174
  O  O742  1  0.852700  0.080700  0.862700  1.0  -0.6341
  O  O743  1  0.012800  0.246700  0.010000  1.0  -0.5053
  O  O744  1  0.778600  0.942100  0.869600  1.0  -0.5637
  O  O745  1  0.789500  0.142600  0.970700  1.0  -0.6767
  O  O746  1  0.600400  0.849000  0.037500  1.0  -0.5722
  O  O747  1  0.026300  0.155400  0.046800  1.0  -0.6746
  O  O748  1  0.807400  0.232400  0.009800  1.0  -0.5324
  O  O749  1  0.936900  0.476900  0.625900  1.0  -0.6743
  O  O750  1  0.751400  0.527700  0.394000  1.0  -0.6414
  O  O751  1  0.964500  0.570600  0.654200  1.0  -0.6406
  O  O752  1  0.886300  0.487700  0.381900  1.0  -0.5863
  O  O753  1  0.624800  0.261700  0.506600  1.0  -0.6174
  O  O754  1  0.852700  0.580700  0.362700  1.0  -0.6341
  O  O755  1  0.012800  0.746700  0.510000  1.0  -0.5053
  O  O756  1  0.778600  0.442100  0.369600  1.0  -0.5637
  O  O757  1  0.789500  0.642600  0.470700  1.0  -0.6767
  O  O758  1  0.600400  0.349000  0.537500  1.0  -0.5722
  O  O759  1  0.026300  0.655400  0.546800  1.0  -0.6746
  O  O760  1  0.807400  0.732400  0.509800  1.0  -0.5324
  O  O761  1  0.063100  0.523100  0.625900  1.0  -0.6753
  O  O762  1  0.248600  0.472300  0.394000  1.0  -0.6407
  O  O763  1  0.035500  0.429400  0.654200  1.0  -0.6387
  O  O764  1  0.113700  0.512300  0.381900  1.0  -0.5906
  O  O765  1  0.375200  0.738300  0.506600  1.0  -0.6176
  O  O766  1  0.147300  0.419300  0.362700  1.0  -0.6352
  O  O767  1  0.987200  0.253300  0.510000  1.0  -0.5068
  O  O768  1  0.221400  0.557900  0.369600  1.0  -0.5642
  O  O769  1  0.210500  0.357400  0.470700  1.0  -0.6766
  O  O770  1  0.399600  0.651000  0.537500  1.0  -0.5744
  O  O771  1  0.973700  0.344600  0.546800  1.0  -0.6736
  O  O772  1  0.192600  0.267600  0.509800  1.0  -0.5316
  O  O773  1  0.063100  0.023100  0.125900  1.0  -0.6753
  O  O774  1  0.248600  0.972300  0.894000  1.0  -0.6407
  O  O775  1  0.035500  0.929400  0.154200  1.0  -0.6387
  O  O776  1  0.113700  0.012300  0.881900  1.0  -0.5906
  O  O777  1  0.375200  0.238300  0.006600  1.0  -0.6176
  O  O778  1  0.147300  0.919300  0.862700  1.0  -0.6352
  O  O779  1  0.987200  0.753300  0.010000  1.0  -0.5068
  O  O780  1  0.221400  0.057900  0.869600  1.0  -0.5642
  O  O781  1  0.210500  0.857400  0.970700  1.0  -0.6766
  O  O782  1  0.399600  0.151000  0.037500  1.0  -0.5744
  O  O783  1  0.973700  0.844600  0.046800  1.0  -0.6736
  O  O784  1  0.192600  0.767600  0.009800  1.0  -0.5316
  O  O785  1  0.563100  0.523100  0.125900  1.0  -0.6753
  O  O786  1  0.748600  0.472300  0.894000  1.0  -0.6407
  O  O787  1  0.535500  0.429400  0.154200  1.0  -0.6387
  O  O788  1  0.613700  0.512300  0.881900  1.0  -0.5906
  O  O789  1  0.875200  0.738300  0.006600  1.0  -0.6179
  O  O790  1  0.647300  0.419300  0.862700  1.0  -0.6352
  O  O791  1  0.487200  0.253300  0.010000  1.0  -0.5068
  O  O792  1  0.721400  0.557900  0.869600  1.0  -0.5642
  O  O793  1  0.710500  0.357400  0.970700  1.0  -0.6766
  O  O794  1  0.899600  0.651000  0.037500  1.0  -0.5744
  O  O795  1  0.473700  0.344600  0.046800  1.0  -0.6736
  O  O796  1  0.692600  0.267600  0.009800  1.0  -0.5316
  O  O797  1  0.563100  0.023100  0.625900  1.0  -0.6753
  O  O798  1  0.748600  0.972300  0.394000  1.0  -0.6407
  O  O799  1  0.535500  0.929400  0.654200  1.0  -0.6387
  O  O800  1  0.613700  0.012300  0.381900  1.0  -0.5906
  O  O801  1  0.875200  0.238300  0.506600  1.0  -0.6179
  O  O802  1  0.647300  0.919300  0.362700  1.0  -0.6352
  O  O803  1  0.487200  0.753300  0.510000  1.0  -0.5068
  O  O804  1  0.721400  0.057900  0.369600  1.0  -0.5642
  O  O805  1  0.710500  0.857400  0.470700  1.0  -0.6766
  O  O806  1  0.899600  0.151000  0.537500  1.0  -0.5744
  O  O807  1  0.473700  0.844600  0.546800  1.0  -0.6736
  O  O808  1  0.692600  0.767600  0.509800  1.0  -0.5316
