# generated using pymatgen
data_Cu2H8C17O8
_symmetry_space_group_name_H-M   'P 1'
_cell_length_a   22.62700000
_cell_length_b   32.86800000
_cell_length_c   32.86800000
_cell_angle_alpha   90.00000000
_cell_angle_beta   90.00000000
_cell_angle_gamma   90.00000000
_symmetry_Int_Tables_number   1
_chemical_formula_structural   Cu2H8C17O8
_chemical_formula_sum   'Cu48 H192 C408 O192'
_cell_volume   24444.07082885
_cell_formula_units_Z   24
loop_
 _symmetry_equiv_pos_site_id
 _symmetry_equiv_pos_as_xyz
  1  'x, y, z'
loop_
 _atom_site_type_symbol
 _atom_site_label
 _atom_site_symmetry_multiplicity
 _atom_site_fract_x
 _atom_site_fract_y
 _atom_site_fract_z
 _atom_site_occupancy
 _atom_site_charge
  Cu  Cu1  1  0.750190  0.829860  0.000000  1.0  0.9011
  Cu  Cu2  1  0.830950  0.772700  0.000000  1.0  0.8832
  Cu  Cu3  1  0.750190  0.170140  0.000000  1.0  0.9017
  Cu  Cu4  1  0.830950  0.227300  0.000000  1.0  0.8848
  Cu  Cu5  1  0.750190  0.000000  0.829860  1.0  0.9009
  Cu  Cu6  1  0.830950  0.000000  0.772700  1.0  0.8819
  Cu  Cu7  1  0.750190  0.000000  0.170140  1.0  0.901
  Cu  Cu8  1  0.830950  0.000000  0.227300  1.0  0.882
  Cu  Cu9  1  0.249810  0.170140  0.000000  1.0  0.9009
  Cu  Cu10  1  0.169050  0.227300  0.000000  1.0  0.8837
  Cu  Cu11  1  0.249810  0.829860  0.000000  1.0  0.901
  Cu  Cu12  1  0.169050  0.772700  0.000000  1.0  0.8833
  Cu  Cu13  1  0.249810  0.000000  0.829860  1.0  0.901
  Cu  Cu14  1  0.169050  0.000000  0.772700  1.0  0.8826
  Cu  Cu15  1  0.249810  0.000000  0.170140  1.0  0.9
  Cu  Cu16  1  0.169050  0.000000  0.227300  1.0  0.8817
  Cu  Cu17  1  0.500000  0.770220  0.770220  1.0  0.8479
  Cu  Cu18  1  0.500000  0.826800  0.826800  1.0  0.9064
  Cu  Cu19  1  0.500000  0.229780  0.229780  1.0  0.8485
  Cu  Cu20  1  0.500000  0.173200  0.173200  1.0  0.9054
  Cu  Cu21  1  0.500000  0.229780  0.770220  1.0  0.8482
  Cu  Cu22  1  0.500000  0.173200  0.826800  1.0  0.9051
  Cu  Cu23  1  0.500000  0.770220  0.229780  1.0  0.8475
  Cu  Cu24  1  0.500000  0.826800  0.173200  1.0  0.9062
  Cu  Cu25  1  0.831920  0.661510  0.661510  1.0  0.911
  Cu  Cu26  1  0.752050  0.620710  0.620710  1.0  0.9129
  Cu  Cu27  1  0.831920  0.338490  0.338490  1.0  0.9103
  Cu  Cu28  1  0.752050  0.379290  0.379290  1.0  0.9144
  Cu  Cu29  1  0.831920  0.338490  0.661510  1.0  0.9103
  Cu  Cu30  1  0.752050  0.379290  0.620710  1.0  0.9144
  Cu  Cu31  1  0.831920  0.661510  0.338490  1.0  0.9118
  Cu  Cu32  1  0.752050  0.620710  0.379290  1.0  0.914
  Cu  Cu33  1  0.168080  0.338490  0.661510  1.0  0.9114
  Cu  Cu34  1  0.247950  0.379290  0.620710  1.0  0.9147
  Cu  Cu35  1  0.168080  0.661510  0.338490  1.0  0.9114
  Cu  Cu36  1  0.247950  0.620710  0.379290  1.0  0.9134
  Cu  Cu37  1  0.168080  0.661510  0.661510  1.0  0.9109
  Cu  Cu38  1  0.247950  0.620710  0.620710  1.0  0.9124
  Cu  Cu39  1  0.168080  0.338490  0.338490  1.0  0.911
  Cu  Cu40  1  0.247950  0.379290  0.379290  1.0  0.9148
  Cu  Cu41  1  0.500000  0.500000  0.740690  1.0  0.8907
  Cu  Cu42  1  0.500000  0.500000  0.820480  1.0  0.9098
  Cu  Cu43  1  0.500000  0.500000  0.259310  1.0  0.8898
  Cu  Cu44  1  0.500000  0.500000  0.179520  1.0  0.9102
  Cu  Cu45  1  0.500000  0.259310  0.500000  1.0  0.8885
  Cu  Cu46  1  0.500000  0.179520  0.500000  1.0  0.9092
  Cu  Cu47  1  0.500000  0.740690  0.500000  1.0  0.8901
  Cu  Cu48  1  0.500000  0.820480  0.500000  1.0  0.9089
  H  H49  1  0.641600  0.786900  0.902000  1.0  0.1255
  H  H50  1  0.632100  0.688000  0.827700  1.0  0.0976
  H  H51  1  0.754500  0.693000  0.914500  1.0  0.1171
  H  H52  1  0.641300  0.583000  0.719900  1.0  0.1209
  H  H53  1  0.629000  0.590800  0.842000  1.0  0.1282
  H  H54  1  0.755100  0.652700  0.781000  1.0  0.1187
  H  H55  1  0.704300  0.622200  0.880700  1.0  0.1261
  H  H56  1  0.761300  0.639500  0.860100  1.0  0.1243
  H  H57  1  0.941000  0.813900  0.098600  1.0  0.1268
  H  H58  1  0.934700  0.561900  0.708500  1.0  0.1303
  H  H59  1  0.641600  0.213100  0.098000  1.0  0.1258
  H  H60  1  0.632100  0.312000  0.172300  1.0  0.0985
  H  H61  1  0.754500  0.307000  0.085500  1.0  0.1174
  H  H62  1  0.641300  0.417000  0.280100  1.0  0.121
  H  H63  1  0.629000  0.409200  0.158000  1.0  0.1282
  H  H64  1  0.755100  0.347300  0.219000  1.0  0.1186
  H  H65  1  0.704300  0.377800  0.119300  1.0  0.1246
  H  H66  1  0.761300  0.360500  0.139900  1.0  0.1247
  H  H67  1  0.941000  0.186100  0.901400  1.0  0.1271
  H  H68  1  0.934700  0.438100  0.291500  1.0  0.1307
  H  H69  1  0.641600  0.098000  0.786900  1.0  0.1243
  H  H70  1  0.632100  0.172300  0.688000  1.0  0.0972
  H  H71  1  0.754500  0.085500  0.693000  1.0  0.1169
  H  H72  1  0.641300  0.280100  0.583000  1.0  0.1207
  H  H73  1  0.629000  0.158000  0.590800  1.0  0.1269
  H  H74  1  0.755100  0.219000  0.652700  1.0  0.1197
  H  H75  1  0.704300  0.119300  0.622200  1.0  0.1244
  H  H76  1  0.761300  0.139900  0.639500  1.0  0.1242
  H  H77  1  0.941000  0.901400  0.813900  1.0  0.1277
  H  H78  1  0.934700  0.291500  0.561900  1.0  0.1289
  H  H79  1  0.641600  0.902000  0.213100  1.0  0.124
  H  H80  1  0.632100  0.827700  0.312000  1.0  0.0969
  H  H81  1  0.754500  0.914500  0.307000  1.0  0.1172
  H  H82  1  0.641300  0.719900  0.417000  1.0  0.1201
  H  H83  1  0.629000  0.842000  0.409200  1.0  0.1277
  H  H84  1  0.755100  0.781000  0.347300  1.0  0.1193
  H  H85  1  0.704300  0.880700  0.377800  1.0  0.1247
  H  H86  1  0.761300  0.860100  0.360500  1.0  0.124
  H  H87  1  0.941000  0.098600  0.186100  1.0  0.128
  H  H88  1  0.934700  0.708500  0.438100  1.0  0.1291
  H  H89  1  0.358400  0.213100  0.902000  1.0  0.1255
  H  H90  1  0.367900  0.312000  0.827700  1.0  0.0977
  H  H91  1  0.245500  0.307000  0.914500  1.0  0.1172
  H  H92  1  0.358700  0.417000  0.719900  1.0  0.1207
  H  H93  1  0.371000  0.409200  0.842000  1.0  0.1284
  H  H94  1  0.244900  0.347300  0.781000  1.0  0.1187
  H  H95  1  0.295700  0.377800  0.880700  1.0  0.1257
  H  H96  1  0.238700  0.360500  0.860100  1.0  0.1272
  H  H97  1  0.059000  0.186100  0.098600  1.0  0.1273
  H  H98  1  0.065300  0.438100  0.708500  1.0  0.1308
  H  H99  1  0.358400  0.786900  0.098000  1.0  0.125
  H  H100  1  0.367900  0.688000  0.172300  1.0  0.0983
  H  H101  1  0.245500  0.693000  0.085500  1.0  0.1178
  H  H102  1  0.358700  0.583000  0.280100  1.0  0.1208
  H  H103  1  0.371000  0.590800  0.158000  1.0  0.1278
  H  H104  1  0.244900  0.652700  0.219000  1.0  0.1189
  H  H105  1  0.295700  0.622200  0.119300  1.0  0.1242
  H  H106  1  0.238700  0.639500  0.139900  1.0  0.1272
  H  H107  1  0.059000  0.813900  0.901400  1.0  0.1271
  H  H108  1  0.065300  0.561900  0.291500  1.0  0.1305
  H  H109  1  0.358400  0.902000  0.786900  1.0  0.1238
  H  H110  1  0.367900  0.827700  0.688000  1.0  0.097
  H  H111  1  0.245500  0.914500  0.693000  1.0  0.1175
  H  H112  1  0.358700  0.719900  0.583000  1.0  0.1202
  H  H113  1  0.371000  0.842000  0.590800  1.0  0.1275
  H  H114  1  0.244900  0.781000  0.652700  1.0  0.1197
  H  H115  1  0.295700  0.880700  0.622200  1.0  0.1237
  H  H116  1  0.238700  0.860100  0.639500  1.0  0.1276
  H  H117  1  0.059000  0.098600  0.813900  1.0  0.1283
  H  H118  1  0.065300  0.708500  0.561900  1.0  0.1294
  H  H119  1  0.358400  0.098000  0.213100  1.0  0.1238
  H  H120  1  0.367900  0.172300  0.312000  1.0  0.097
  H  H121  1  0.245500  0.085500  0.307000  1.0  0.1171
  H  H122  1  0.358700  0.280100  0.417000  1.0  0.12
  H  H123  1  0.371000  0.158000  0.409200  1.0  0.1273
  H  H124  1  0.244900  0.219000  0.347300  1.0  0.1196
  H  H125  1  0.295700  0.119300  0.377800  1.0  0.1253
  H  H126  1  0.238700  0.139900  0.360500  1.0  0.1273
  H  H127  1  0.059000  0.901400  0.186100  1.0  0.128
  H  H128  1  0.065300  0.291500  0.438100  1.0  0.1297
  H  H129  1  0.358400  0.213100  0.098000  1.0  0.1257
  H  H130  1  0.367900  0.312000  0.172300  1.0  0.0981
  H  H131  1  0.245500  0.307000  0.085500  1.0  0.1175
  H  H132  1  0.358700  0.417000  0.280100  1.0  0.1209
  H  H133  1  0.371000  0.409200  0.158000  1.0  0.1282
  H  H134  1  0.244900  0.347300  0.219000  1.0  0.1188
  H  H135  1  0.295700  0.377800  0.119300  1.0  0.1236
  H  H136  1  0.238700  0.360500  0.139900  1.0  0.1274
  H  H137  1  0.059000  0.186100  0.901400  1.0  0.1274
  H  H138  1  0.065300  0.438100  0.291500  1.0  0.1308
  H  H139  1  0.358400  0.786900  0.902000  1.0  0.1253
  H  H140  1  0.367900  0.688000  0.827700  1.0  0.0976
  H  H141  1  0.245500  0.693000  0.914500  1.0  0.1175
  H  H142  1  0.358700  0.583000  0.719900  1.0  0.1207
  H  H143  1  0.371000  0.590800  0.842000  1.0  0.128
  H  H144  1  0.244900  0.652700  0.781000  1.0  0.1188
  H  H145  1  0.295700  0.622200  0.880700  1.0  0.1264
  H  H146  1  0.238700  0.639500  0.860100  1.0  0.1275
  H  H147  1  0.059000  0.813900  0.098600  1.0  0.1269
  H  H148  1  0.065300  0.561900  0.708500  1.0  0.1309
  H  H149  1  0.358400  0.902000  0.213100  1.0  0.1239
  H  H150  1  0.367900  0.827700  0.312000  1.0  0.097
  H  H151  1  0.245500  0.914500  0.307000  1.0  0.1172
  H  H152  1  0.358700  0.719900  0.417000  1.0  0.12
  H  H153  1  0.371000  0.842000  0.409200  1.0  0.1276
  H  H154  1  0.244900  0.781000  0.347300  1.0  0.1194
  H  H155  1  0.295700  0.880700  0.377800  1.0  0.1243
  H  H156  1  0.238700  0.860100  0.360500  1.0  0.1269
  H  H157  1  0.059000  0.098600  0.186100  1.0  0.1284
  H  H158  1  0.065300  0.708500  0.438100  1.0  0.1296
  H  H159  1  0.358400  0.098000  0.786900  1.0  0.1239
  H  H160  1  0.367900  0.172300  0.688000  1.0  0.097
  H  H161  1  0.245500  0.085500  0.693000  1.0  0.1174
  H  H162  1  0.358700  0.280100  0.583000  1.0  0.1203
  H  H163  1  0.371000  0.158000  0.590800  1.0  0.1273
  H  H164  1  0.244900  0.219000  0.652700  1.0  0.1197
  H  H165  1  0.295700  0.119300  0.622200  1.0  0.1242
  H  H166  1  0.238700  0.139900  0.639500  1.0  0.1275
  H  H167  1  0.059000  0.901400  0.813900  1.0  0.1279
  H  H168  1  0.065300  0.291500  0.561900  1.0  0.1292
  H  H169  1  0.641600  0.786900  0.098000  1.0  0.1254
  H  H170  1  0.632100  0.688000  0.172300  1.0  0.0987
  H  H171  1  0.754500  0.693000  0.085500  1.0  0.1171
  H  H172  1  0.641300  0.583000  0.280100  1.0  0.121
  H  H173  1  0.629000  0.590800  0.158000  1.0  0.1278
  H  H174  1  0.755100  0.652700  0.219000  1.0  0.1187
  H  H175  1  0.704300  0.622200  0.119300  1.0  0.1244
  H  H176  1  0.761300  0.639500  0.139900  1.0  0.1241
  H  H177  1  0.941000  0.813900  0.901400  1.0  0.1269
  H  H178  1  0.934700  0.561900  0.291500  1.0  0.1298
  H  H179  1  0.641600  0.213100  0.902000  1.0  0.1256
  H  H180  1  0.632100  0.312000  0.827700  1.0  0.0977
  H  H181  1  0.754500  0.307000  0.914500  1.0  0.1173
  H  H182  1  0.641300  0.417000  0.719900  1.0  0.1209
  H  H183  1  0.629000  0.409200  0.842000  1.0  0.1284
  H  H184  1  0.755100  0.347300  0.781000  1.0  0.1187
  H  H185  1  0.704300  0.377800  0.880700  1.0  0.1258
  H  H186  1  0.761300  0.360500  0.860100  1.0  0.1243
  H  H187  1  0.941000  0.186100  0.098600  1.0  0.1271
  H  H188  1  0.934700  0.438100  0.708500  1.0  0.1306
  H  H189  1  0.641600  0.098000  0.213100  1.0  0.124
  H  H190  1  0.632100  0.172300  0.312000  1.0  0.0973
  H  H191  1  0.754500  0.085500  0.307000  1.0  0.1167
  H  H192  1  0.641300  0.280100  0.417000  1.0  0.1202
  H  H193  1  0.629000  0.158000  0.409200  1.0  0.127
  H  H194  1  0.755100  0.219000  0.347300  1.0  0.1193
  H  H195  1  0.704300  0.119300  0.377800  1.0  0.1251
  H  H196  1  0.761300  0.139900  0.360500  1.0  0.124
  H  H197  1  0.941000  0.901400  0.186100  1.0  0.1277
  H  H198  1  0.934700  0.291500  0.438100  1.0  0.1292
  H  H199  1  0.641600  0.902000  0.786900  1.0  0.1241
  H  H200  1  0.632100  0.827700  0.688000  1.0  0.097
  H  H201  1  0.754500  0.914500  0.693000  1.0  0.1175
  H  H202  1  0.641300  0.719900  0.583000  1.0  0.1203
  H  H203  1  0.629000  0.842000  0.590800  1.0  0.1277
  H  H204  1  0.755100  0.781000  0.652700  1.0  0.1198
  H  H205  1  0.704300  0.880700  0.622200  1.0  0.1246
  H  H206  1  0.761300  0.860100  0.639500  1.0  0.1246
  H  H207  1  0.941000  0.098600  0.813900  1.0  0.1281
  H  H208  1  0.934700  0.708500  0.561900  1.0  0.1292
  H  H209  1  0.817600  0.904800  0.095200  1.0  0.1251
  H  H210  1  0.817600  0.095200  0.904800  1.0  0.1255
  H  H211  1  0.817600  0.904800  0.904800  1.0  0.125
  H  H212  1  0.817600  0.095200  0.095200  1.0  0.1255
  H  H213  1  0.182400  0.095200  0.095200  1.0  0.1253
  H  H214  1  0.182400  0.904800  0.904800  1.0  0.125
  H  H215  1  0.182400  0.095200  0.904800  1.0  0.1251
  H  H216  1  0.182400  0.904800  0.095200  1.0  0.1252
  H  H217  1  0.000000  0.838600  0.195200  1.0  0.0998
  H  H218  1  0.000000  0.523900  0.753600  1.0  0.0993
  H  H219  1  0.000000  0.161400  0.804800  1.0  0.0988
  H  H220  1  0.000000  0.476100  0.246400  1.0  0.0974
  H  H221  1  0.000000  0.804800  0.838600  1.0  0.0993
  H  H222  1  0.000000  0.246400  0.523900  1.0  0.099
  H  H223  1  0.000000  0.195200  0.161400  1.0  0.1013
  H  H224  1  0.000000  0.753600  0.476100  1.0  0.0983
  H  H225  1  0.000000  0.161400  0.195200  1.0  0.0996
  H  H226  1  0.000000  0.476100  0.753600  1.0  0.0997
  H  H227  1  0.000000  0.838600  0.804800  1.0  0.0991
  H  H228  1  0.000000  0.523900  0.246400  1.0  0.0978
  H  H229  1  0.000000  0.195200  0.838600  1.0  0.1022
  H  H230  1  0.000000  0.753600  0.523900  1.0  0.0988
  H  H231  1  0.000000  0.804800  0.161400  1.0  0.0981
  H  H232  1  0.000000  0.246400  0.476100  1.0  0.0983
  H  H233  1  0.815600  0.500000  0.636100  1.0  0.1305
  H  H234  1  0.815600  0.500000  0.363900  1.0  0.1309
  H  H235  1  0.815600  0.363900  0.500000  1.0  0.1307
  H  H236  1  0.815600  0.636100  0.500000  1.0  0.1306
  H  H237  1  0.184400  0.500000  0.636100  1.0  0.1313
  H  H238  1  0.184400  0.500000  0.363900  1.0  0.1315
  H  H239  1  0.184400  0.636100  0.500000  1.0  0.1316
  H  H240  1  0.184400  0.363900  0.500000  1.0  0.1315
  C  C241  1  0.704100  0.742900  0.912200  1.0  -0.1415
  C  C242  1  0.655900  0.761900  0.893200  1.0  -0.0235
  C  C243  1  0.629500  0.740700  0.859400  1.0  -0.1589
  C  C244  1  0.650600  0.701900  0.848800  1.0  -0.0403
  C  C245  1  0.697500  0.683400  0.868100  1.0  0.0867
  C  C246  1  0.723300  0.704900  0.900500  1.0  -0.0147
  C  C247  1  0.703200  0.617800  0.744000  1.0  -0.1009
  C  C248  1  0.656800  0.593100  0.744100  1.0  -0.0041
  C  C249  1  0.631700  0.582500  0.781500  1.0  -0.1251
  C  C250  1  0.649500  0.597200  0.818400  1.0  -0.0839
  C  C251  1  0.699700  0.622400  0.819700  1.0  0.1006
  C  C252  1  0.724300  0.634000  0.781400  1.0  -0.0621
  C  C253  1  0.718500  0.639800  0.859100  1.0  -0.3188
  C  C254  1  0.733400  0.765700  0.946200  1.0  0.6909
  C  C255  1  0.580700  0.761700  0.836100  1.0  0.6955
  C  C256  1  0.738500  0.627900  0.706400  1.0  0.6789
  C  C257  1  0.578600  0.552500  0.781200  1.0  0.6844
  C  C258  1  0.842900  0.837100  0.055200  1.0  0.7094
  C  C259  1  0.872200  0.855500  0.094300  1.0  -0.1486
  C  C260  1  0.923300  0.836200  0.111100  1.0  -0.0763
  C  C261  1  0.842900  0.576400  0.655300  1.0  0.6605
  C  C262  1  0.873900  0.536800  0.669300  1.0  -0.1531
  C  C263  1  0.920800  0.537500  0.697800  1.0  -0.0875
  C  C264  1  0.704100  0.257100  0.087800  1.0  -0.1415
  C  C265  1  0.655900  0.238100  0.106800  1.0  -0.0222
  C  C266  1  0.629500  0.259300  0.140600  1.0  -0.1591
  C  C267  1  0.650600  0.298100  0.151200  1.0  -0.0396
  C  C268  1  0.697500  0.316600  0.131900  1.0  0.0869
  C  C269  1  0.723300  0.295100  0.099500  1.0  -0.0153
  C  C270  1  0.703200  0.382200  0.256000  1.0  -0.1021
  C  C271  1  0.656800  0.406900  0.255900  1.0  -0.0053
  C  C272  1  0.631700  0.417500  0.218500  1.0  -0.1249
  C  C273  1  0.649500  0.402800  0.181600  1.0  -0.0852
  C  C274  1  0.699700  0.377600  0.180300  1.0  0.1015
  C  C275  1  0.724300  0.366000  0.218600  1.0  -0.0618
  C  C276  1  0.718500  0.360200  0.140900  1.0  -0.3192
  C  C277  1  0.733400  0.234300  0.053800  1.0  0.6908
  C  C278  1  0.580700  0.238300  0.163900  1.0  0.6957
  C  C279  1  0.738500  0.372100  0.293600  1.0  0.6791
  C  C280  1  0.578600  0.447500  0.218800  1.0  0.6846
  C  C281  1  0.842900  0.162900  0.944800  1.0  0.7107
  C  C282  1  0.872200  0.144500  0.905700  1.0  -0.1492
  C  C283  1  0.923300  0.163800  0.888900  1.0  -0.0769
  C  C284  1  0.842900  0.423600  0.344700  1.0  0.6604
  C  C285  1  0.873900  0.463200  0.330700  1.0  -0.1535
  C  C286  1  0.920800  0.462500  0.302200  1.0  -0.0869
  C  C287  1  0.704100  0.087800  0.742900  1.0  -0.1401
  C  C288  1  0.655900  0.106800  0.761900  1.0  -0.0228
  C  C289  1  0.629500  0.140600  0.740700  1.0  -0.1593
  C  C290  1  0.650600  0.151200  0.701900  1.0  -0.0385
  C  C291  1  0.697500  0.131900  0.683400  1.0  0.087
  C  C292  1  0.723300  0.099500  0.704900  1.0  -0.0154
  C  C293  1  0.703200  0.256000  0.617800  1.0  -0.1002
  C  C294  1  0.656800  0.255900  0.593100  1.0  -0.0029
  C  C295  1  0.631700  0.218500  0.582500  1.0  -0.1254
  C  C296  1  0.649500  0.181600  0.597200  1.0  -0.0836
  C  C297  1  0.699700  0.180300  0.622400  1.0  0.1032
  C  C298  1  0.724300  0.218600  0.634000  1.0  -0.0614
  C  C299  1  0.718500  0.140900  0.639800  1.0  -0.3188
  C  C300  1  0.733400  0.053800  0.765700  1.0  0.6906
  C  C301  1  0.580700  0.163900  0.761700  1.0  0.6954
  C  C302  1  0.738500  0.293600  0.627900  1.0  0.6784
  C  C303  1  0.578600  0.218800  0.552500  1.0  0.6846
  C  C304  1  0.842900  0.944800  0.837100  1.0  0.7083
  C  C305  1  0.872200  0.905700  0.855500  1.0  -0.1473
  C  C306  1  0.923300  0.888900  0.836200  1.0  -0.0773
  C  C307  1  0.842900  0.344700  0.576400  1.0  0.6609
  C  C308  1  0.873900  0.330700  0.536800  1.0  -0.1543
  C  C309  1  0.920800  0.302200  0.537500  1.0  -0.0861
  C  C310  1  0.704100  0.912200  0.257100  1.0  -0.1408
  C  C311  1  0.655900  0.893200  0.238100  1.0  -0.0216
  C  C312  1  0.629500  0.859400  0.259300  1.0  -0.1596
  C  C313  1  0.650600  0.848800  0.298100  1.0  -0.0397
  C  C314  1  0.697500  0.868100  0.316600  1.0  0.0872
  C  C315  1  0.723300  0.900500  0.295100  1.0  -0.0151
  C  C316  1  0.703200  0.744000  0.382200  1.0  -0.1001
  C  C317  1  0.656800  0.744100  0.406900  1.0  -0.0023
  C  C318  1  0.631700  0.781500  0.417500  1.0  -0.126
  C  C319  1  0.649500  0.818400  0.402800  1.0  -0.085
  C  C320  1  0.699700  0.819700  0.377600  1.0  0.103
  C  C321  1  0.724300  0.781400  0.366000  1.0  -0.0605
  C  C322  1  0.718500  0.859100  0.360200  1.0  -0.3206
  C  C323  1  0.733400  0.946200  0.234300  1.0  0.6906
  C  C324  1  0.580700  0.836100  0.238300  1.0  0.6952
  C  C325  1  0.738500  0.706400  0.372100  1.0  0.6786
  C  C326  1  0.578600  0.781200  0.447500  1.0  0.6845
  C  C327  1  0.842900  0.055200  0.162900  1.0  0.7085
  C  C328  1  0.872200  0.094300  0.144500  1.0  -0.1477
  C  C329  1  0.923300  0.111100  0.163800  1.0  -0.0752
  C  C330  1  0.842900  0.655300  0.423600  1.0  0.6612
  C  C331  1  0.873900  0.669300  0.463200  1.0  -0.1543
  C  C332  1  0.920800  0.697800  0.462500  1.0  -0.0866
  C  C333  1  0.295900  0.257100  0.912200  1.0  -0.141
  C  C334  1  0.344100  0.238100  0.893200  1.0  -0.0212
  C  C335  1  0.370500  0.259300  0.859400  1.0  -0.1579
  C  C336  1  0.349400  0.298100  0.848800  1.0  -0.0401
  C  C337  1  0.302500  0.316600  0.868100  1.0  0.0858
  C  C338  1  0.276700  0.295100  0.900500  1.0  -0.0149
  C  C339  1  0.296800  0.382200  0.744000  1.0  -0.1017
  C  C340  1  0.343200  0.406900  0.744100  1.0  -0.0064
  C  C341  1  0.368300  0.417500  0.781500  1.0  -0.1252
  C  C342  1  0.350500  0.402800  0.818400  1.0  -0.0854
  C  C343  1  0.300300  0.377600  0.819700  1.0  0.1024
  C  C344  1  0.275700  0.366000  0.781400  1.0  -0.0606
  C  C345  1  0.281500  0.360200  0.859100  1.0  -0.3195
  C  C346  1  0.266600  0.234300  0.946200  1.0  0.6923
  C  C347  1  0.419300  0.238300  0.836100  1.0  0.6948
  C  C348  1  0.261500  0.372100  0.706400  1.0  0.6798
  C  C349  1  0.421400  0.447500  0.781200  1.0  0.6832
  C  C350  1  0.157100  0.162900  0.055200  1.0  0.7092
  C  C351  1  0.127800  0.144500  0.094300  1.0  -0.1478
  C  C352  1  0.076700  0.163800  0.111100  1.0  -0.077
  C  C353  1  0.157100  0.423600  0.655300  1.0  0.6597
  C  C354  1  0.126100  0.463200  0.669300  1.0  -0.1537
  C  C355  1  0.079200  0.462500  0.697800  1.0  -0.0875
  C  C356  1  0.295900  0.742900  0.087800  1.0  -0.1418
  C  C357  1  0.344100  0.761900  0.106800  1.0  -0.0227
  C  C358  1  0.370500  0.740700  0.140600  1.0  -0.1579
  C  C359  1  0.349400  0.701900  0.151200  1.0  -0.0399
  C  C360  1  0.302500  0.683400  0.131900  1.0  0.0864
  C  C361  1  0.276700  0.704900  0.099500  1.0  -0.0156
  C  C362  1  0.296800  0.617800  0.256000  1.0  -0.1023
  C  C363  1  0.343200  0.593100  0.255900  1.0  -0.0046
  C  C364  1  0.368300  0.582500  0.218500  1.0  -0.1244
  C  C365  1  0.350500  0.597200  0.181600  1.0  -0.0839
  C  C366  1  0.300300  0.622400  0.180300  1.0  0.0999
  C  C367  1  0.275700  0.634000  0.218600  1.0  -0.0615
  C  C368  1  0.281500  0.639800  0.140900  1.0  -0.3181
  C  C369  1  0.266600  0.765700  0.053800  1.0  0.6921
  C  C370  1  0.419300  0.761700  0.163900  1.0  0.6951
  C  C371  1  0.261500  0.627900  0.293600  1.0  0.6795
  C  C372  1  0.421400  0.552500  0.218800  1.0  0.6831
  C  C373  1  0.157100  0.837100  0.944800  1.0  0.7099
  C  C374  1  0.127800  0.855500  0.905700  1.0  -0.149
  C  C375  1  0.076700  0.836200  0.888900  1.0  -0.0764
  C  C376  1  0.157100  0.576400  0.344700  1.0  0.6606
  C  C377  1  0.126100  0.536800  0.330700  1.0  -0.1536
  C  C378  1  0.079200  0.537500  0.302200  1.0  -0.0873
  C  C379  1  0.295900  0.912200  0.742900  1.0  -0.1405
  C  C380  1  0.344100  0.893200  0.761900  1.0  -0.0215
  C  C381  1  0.370500  0.859400  0.740700  1.0  -0.1584
  C  C382  1  0.349400  0.848800  0.701900  1.0  -0.0388
  C  C383  1  0.302500  0.868100  0.683400  1.0  0.086
  C  C384  1  0.276700  0.900500  0.704900  1.0  -0.0138
  C  C385  1  0.296800  0.744000  0.617800  1.0  -0.1008
  C  C386  1  0.343200  0.744100  0.593100  1.0  -0.0036
  C  C387  1  0.368300  0.781500  0.582500  1.0  -0.1253
  C  C388  1  0.350500  0.818400  0.597200  1.0  -0.0829
  C  C389  1  0.300300  0.819700  0.622400  1.0  0.1031
  C  C390  1  0.275700  0.781400  0.634000  1.0  -0.0601
  C  C391  1  0.281500  0.859100  0.639800  1.0  -0.3186
  C  C392  1  0.266600  0.946200  0.765700  1.0  0.6921
  C  C393  1  0.419300  0.836100  0.761700  1.0  0.6946
  C  C394  1  0.261500  0.706400  0.627900  1.0  0.6789
  C  C395  1  0.421400  0.781200  0.552500  1.0  0.6831
  C  C396  1  0.157100  0.055200  0.837100  1.0  0.7078
  C  C397  1  0.127800  0.094300  0.855500  1.0  -0.1474
  C  C398  1  0.076700  0.111100  0.836200  1.0  -0.0765
  C  C399  1  0.157100  0.655300  0.576400  1.0  0.6608
  C  C400  1  0.126100  0.669300  0.536800  1.0  -0.1544
  C  C401  1  0.079200  0.697800  0.537500  1.0  -0.0865
  C  C402  1  0.295900  0.087800  0.257100  1.0  -0.1407
  C  C403  1  0.344100  0.106800  0.238100  1.0  -0.0212
  C  C404  1  0.370500  0.140600  0.259300  1.0  -0.1581
  C  C405  1  0.349400  0.151200  0.298100  1.0  -0.0389
  C  C406  1  0.302500  0.131900  0.316600  1.0  0.0868
  C  C407  1  0.276700  0.099500  0.295100  1.0  -0.0157
  C  C408  1  0.296800  0.256000  0.382200  1.0  -0.1003
  C  C409  1  0.343200  0.255900  0.406900  1.0  -0.0036
  C  C410  1  0.368300  0.218500  0.417500  1.0  -0.1266
  C  C411  1  0.350500  0.181600  0.402800  1.0  -0.0831
  C  C412  1  0.300300  0.180300  0.377600  1.0  0.1026
  C  C413  1  0.275700  0.218600  0.366000  1.0  -0.0597
  C  C414  1  0.281500  0.140900  0.360200  1.0  -0.3194
  C  C415  1  0.266600  0.053800  0.234300  1.0  0.6919
  C  C416  1  0.419300  0.163900  0.238300  1.0  0.6947
  C  C417  1  0.261500  0.293600  0.372100  1.0  0.6791
  C  C418  1  0.421400  0.218800  0.447500  1.0  0.6832
  C  C419  1  0.157100  0.944800  0.162900  1.0  0.7081
  C  C420  1  0.127800  0.905700  0.144500  1.0  -0.1476
  C  C421  1  0.076700  0.888900  0.163800  1.0  -0.0762
  C  C422  1  0.157100  0.344700  0.423600  1.0  0.6608
  C  C423  1  0.126100  0.330700  0.463200  1.0  -0.1541
  C  C424  1  0.079200  0.302200  0.462500  1.0  -0.087
  C  C425  1  0.295900  0.257100  0.087800  1.0  -0.1417
  C  C426  1  0.344100  0.238100  0.106800  1.0  -0.0208
  C  C427  1  0.370500  0.259300  0.140600  1.0  -0.1579
  C  C428  1  0.349400  0.298100  0.151200  1.0  -0.0397
  C  C429  1  0.302500  0.316600  0.131900  1.0  0.0861
  C  C430  1  0.276700  0.295100  0.099500  1.0  -0.0152
  C  C431  1  0.296800  0.382200  0.256000  1.0  -0.1019
  C  C432  1  0.343200  0.406900  0.255900  1.0  -0.005
  C  C433  1  0.368300  0.417500  0.218500  1.0  -0.1251
  C  C434  1  0.350500  0.402800  0.181600  1.0  -0.0841
  C  C435  1  0.300300  0.377600  0.180300  1.0  0.1016
  C  C436  1  0.275700  0.366000  0.218600  1.0  -0.0606
  C  C437  1  0.281500  0.360200  0.140900  1.0  -0.3184
  C  C438  1  0.266600  0.234300  0.053800  1.0  0.6921
  C  C439  1  0.419300  0.238300  0.163900  1.0  0.6949
  C  C440  1  0.261500  0.372100  0.293600  1.0  0.6796
  C  C441  1  0.421400  0.447500  0.218800  1.0  0.6832
  C  C442  1  0.157100  0.162900  0.944800  1.0  0.71
  C  C443  1  0.127800  0.144500  0.905700  1.0  -0.1493
  C  C444  1  0.076700  0.163800  0.888900  1.0  -0.0772
  C  C445  1  0.157100  0.423600  0.344700  1.0  0.6601
  C  C446  1  0.126100  0.463200  0.330700  1.0  -0.1538
  C  C447  1  0.079200  0.462500  0.302200  1.0  -0.0869
  C  C448  1  0.295900  0.742900  0.912200  1.0  -0.1416
  C  C449  1  0.344100  0.761900  0.893200  1.0  -0.0225
  C  C450  1  0.370500  0.740700  0.859400  1.0  -0.158
  C  C451  1  0.349400  0.701900  0.848800  1.0  -0.0401
  C  C452  1  0.302500  0.683400  0.868100  1.0  0.0858
  C  C453  1  0.276700  0.704900  0.900500  1.0  -0.0149
  C  C454  1  0.296800  0.617800  0.744000  1.0  -0.1013
  C  C455  1  0.343200  0.593100  0.744100  1.0  -0.0058
  C  C456  1  0.368300  0.582500  0.781500  1.0  -0.1244
  C  C457  1  0.350500  0.597200  0.818400  1.0  -0.0831
  C  C458  1  0.300300  0.622400  0.819700  1.0  0.1005
  C  C459  1  0.275700  0.634000  0.781400  1.0  -0.0615
  C  C460  1  0.281500  0.639800  0.859100  1.0  -0.3193
  C  C461  1  0.266600  0.765700  0.946200  1.0  0.6924
  C  C462  1  0.419300  0.761700  0.836100  1.0  0.695
  C  C463  1  0.261500  0.627900  0.706400  1.0  0.6797
  C  C464  1  0.421400  0.552500  0.781200  1.0  0.6831
  C  C465  1  0.157100  0.837100  0.055200  1.0  0.7091
  C  C466  1  0.127800  0.855500  0.094300  1.0  -0.1481
  C  C467  1  0.076700  0.836200  0.111100  1.0  -0.0764
  C  C468  1  0.157100  0.576400  0.655300  1.0  0.6602
  C  C469  1  0.126100  0.536800  0.669300  1.0  -0.1534
  C  C470  1  0.079200  0.537500  0.697800  1.0  -0.0878
  C  C471  1  0.295900  0.912200  0.257100  1.0  -0.1408
  C  C472  1  0.344100  0.893200  0.238100  1.0  -0.0213
  C  C473  1  0.370500  0.859400  0.259300  1.0  -0.1582
  C  C474  1  0.349400  0.848800  0.298100  1.0  -0.0393
  C  C475  1  0.302500  0.868100  0.316600  1.0  0.0862
  C  C476  1  0.276700  0.900500  0.295100  1.0  -0.0146
  C  C477  1  0.296800  0.744000  0.382200  1.0  -0.1008
  C  C478  1  0.343200  0.744100  0.406900  1.0  -0.0035
  C  C479  1  0.368300  0.781500  0.417500  1.0  -0.126
  C  C480  1  0.350500  0.818400  0.402800  1.0  -0.0838
  C  C481  1  0.300300  0.819700  0.377600  1.0  0.103
  C  C482  1  0.275700  0.781400  0.366000  1.0  -0.0601
  C  C483  1  0.281500  0.859100  0.360200  1.0  -0.3201
  C  C484  1  0.266600  0.946200  0.234300  1.0  0.6919
  C  C485  1  0.419300  0.836100  0.238300  1.0  0.6945
  C  C486  1  0.261500  0.706400  0.372100  1.0  0.6792
  C  C487  1  0.421400  0.781200  0.447500  1.0  0.6832
  C  C488  1  0.157100  0.055200  0.162900  1.0  0.7079
  C  C489  1  0.127800  0.094300  0.144500  1.0  -0.1478
  C  C490  1  0.076700  0.111100  0.163800  1.0  -0.0753
  C  C491  1  0.157100  0.655300  0.423600  1.0  0.6609
  C  C492  1  0.126100  0.669300  0.463200  1.0  -0.1545
  C  C493  1  0.079200  0.697800  0.462500  1.0  -0.0868
  C  C494  1  0.295900  0.087800  0.742900  1.0  -0.1402
  C  C495  1  0.344100  0.106800  0.761900  1.0  -0.0211
  C  C496  1  0.370500  0.140600  0.740700  1.0  -0.1582
  C  C497  1  0.349400  0.151200  0.701900  1.0  -0.0388
  C  C498  1  0.302500  0.131900  0.683400  1.0  0.0862
  C  C499  1  0.276700  0.099500  0.704900  1.0  -0.0152
  C  C500  1  0.296800  0.256000  0.617800  1.0  -0.1003
  C  C501  1  0.343200  0.255900  0.593100  1.0  -0.0035
  C  C502  1  0.368300  0.218500  0.582500  1.0  -0.1255
  C  C503  1  0.350500  0.181600  0.597200  1.0  -0.0828
  C  C504  1  0.300300  0.180300  0.622400  1.0  0.1034
  C  C505  1  0.275700  0.218600  0.634000  1.0  -0.0602
  C  C506  1  0.281500  0.140900  0.639800  1.0  -0.319
  C  C507  1  0.266600  0.053800  0.765700  1.0  0.6921
  C  C508  1  0.419300  0.163900  0.761700  1.0  0.6947
  C  C509  1  0.261500  0.293600  0.627900  1.0  0.6789
  C  C510  1  0.421400  0.218800  0.552500  1.0  0.6832
  C  C511  1  0.157100  0.944800  0.837100  1.0  0.7081
  C  C512  1  0.127800  0.905700  0.855500  1.0  -0.1471
  C  C513  1  0.076700  0.888900  0.836200  1.0  -0.0771
  C  C514  1  0.157100  0.344700  0.576400  1.0  0.6607
  C  C515  1  0.126100  0.330700  0.536800  1.0  -0.1547
  C  C516  1  0.079200  0.302200  0.537500  1.0  -0.0864
  C  C517  1  0.704100  0.742900  0.087800  1.0  -0.1417
  C  C518  1  0.655900  0.761900  0.106800  1.0  -0.0238
  C  C519  1  0.629500  0.740700  0.140600  1.0  -0.1588
  C  C520  1  0.650600  0.701900  0.151200  1.0  -0.0401
  C  C521  1  0.697500  0.683400  0.131900  1.0  0.0872
  C  C522  1  0.723300  0.704900  0.099500  1.0  -0.0157
  C  C523  1  0.703200  0.617800  0.256000  1.0  -0.1023
  C  C524  1  0.656800  0.593100  0.255900  1.0  -0.0044
  C  C525  1  0.631700  0.582500  0.218500  1.0  -0.125
  C  C526  1  0.649500  0.597200  0.181600  1.0  -0.0847
  C  C527  1  0.699700  0.622400  0.180300  1.0  0.1
  C  C528  1  0.724300  0.634000  0.218600  1.0  -0.0625
  C  C529  1  0.718500  0.639800  0.140900  1.0  -0.3185
  C  C530  1  0.733400  0.765700  0.053800  1.0  0.691
  C  C531  1  0.580700  0.761700  0.163900  1.0  0.6957
  C  C532  1  0.738500  0.627900  0.293600  1.0  0.6789
  C  C533  1  0.578600  0.552500  0.218800  1.0  0.6845
  C  C534  1  0.842900  0.837100  0.944800  1.0  0.7106
  C  C535  1  0.872200  0.855500  0.905700  1.0  -0.149
  C  C536  1  0.923300  0.836200  0.888900  1.0  -0.0762
  C  C537  1  0.842900  0.576400  0.344700  1.0  0.6608
  C  C538  1  0.873900  0.536800  0.330700  1.0  -0.1533
  C  C539  1  0.920800  0.537500  0.302200  1.0  -0.087
  C  C540  1  0.704100  0.257100  0.912200  1.0  -0.1409
  C  C541  1  0.655900  0.238100  0.893200  1.0  -0.0223
  C  C542  1  0.629500  0.259300  0.859400  1.0  -0.1592
  C  C543  1  0.650600  0.298100  0.848800  1.0  -0.0401
  C  C544  1  0.697500  0.316600  0.868100  1.0  0.0869
  C  C545  1  0.723300  0.295100  0.900500  1.0  -0.0147
  C  C546  1  0.703200  0.382200  0.744000  1.0  -0.1014
  C  C547  1  0.656800  0.406900  0.744100  1.0  -0.0047
  C  C548  1  0.631700  0.417500  0.781500  1.0  -0.1251
  C  C549  1  0.649500  0.402800  0.818400  1.0  -0.087
  C  C550  1  0.699700  0.377600  0.819700  1.0  0.1022
  C  C551  1  0.724300  0.366000  0.781400  1.0  -0.0615
  C  C552  1  0.718500  0.360200  0.859100  1.0  -0.32
  C  C553  1  0.733400  0.234300  0.946200  1.0  0.6908
  C  C554  1  0.580700  0.238300  0.836100  1.0  0.6956
  C  C555  1  0.738500  0.372100  0.706400  1.0  0.6789
  C  C556  1  0.578600  0.447500  0.781200  1.0  0.6845
  C  C557  1  0.842900  0.162900  0.055200  1.0  0.7094
  C  C558  1  0.872200  0.144500  0.094300  1.0  -0.148
  C  C559  1  0.923300  0.163800  0.111100  1.0  -0.0769
  C  C560  1  0.842900  0.423600  0.655300  1.0  0.6601
  C  C561  1  0.873900  0.463200  0.669300  1.0  -0.1535
  C  C562  1  0.920800  0.462500  0.697800  1.0  -0.0872
  C  C563  1  0.704100  0.087800  0.257100  1.0  -0.1405
  C  C564  1  0.655900  0.106800  0.238100  1.0  -0.0218
  C  C565  1  0.629500  0.140600  0.259300  1.0  -0.1594
  C  C566  1  0.650600  0.151200  0.298100  1.0  -0.0388
  C  C567  1  0.697500  0.131900  0.316600  1.0  0.0875
  C  C568  1  0.723300  0.099500  0.295100  1.0  -0.0159
  C  C569  1  0.703200  0.256000  0.382200  1.0  -0.1003
  C  C570  1  0.656800  0.255900  0.406900  1.0  -0.0033
  C  C571  1  0.631700  0.218500  0.417500  1.0  -0.1261
  C  C572  1  0.649500  0.181600  0.402800  1.0  -0.0841
  C  C573  1  0.699700  0.180300  0.377600  1.0  0.1026
  C  C574  1  0.724300  0.218600  0.366000  1.0  -0.0601
  C  C575  1  0.718500  0.140900  0.360200  1.0  -0.3185
  C  C576  1  0.733400  0.053800  0.234300  1.0  0.6905
  C  C577  1  0.580700  0.163900  0.238300  1.0  0.6954
  C  C578  1  0.738500  0.293600  0.372100  1.0  0.6783
  C  C579  1  0.578600  0.218800  0.447500  1.0  0.6846
  C  C580  1  0.842900  0.944800  0.162900  1.0  0.7086
  C  C581  1  0.872200  0.905700  0.144500  1.0  -0.1472
  C  C582  1  0.923300  0.888900  0.163800  1.0  -0.0762
  C  C583  1  0.842900  0.344700  0.423600  1.0  0.6609
  C  C584  1  0.873900  0.330700  0.463200  1.0  -0.1538
  C  C585  1  0.920800  0.302200  0.462500  1.0  -0.087
  C  C586  1  0.704100  0.912200  0.742900  1.0  -0.1405
  C  C587  1  0.655900  0.893200  0.761900  1.0  -0.0231
  C  C588  1  0.629500  0.859400  0.740700  1.0  -0.1594
  C  C589  1  0.650600  0.848800  0.701900  1.0  -0.0391
  C  C590  1  0.697500  0.868100  0.683400  1.0  0.0868
  C  C591  1  0.723300  0.900500  0.704900  1.0  -0.0143
  C  C592  1  0.703200  0.744000  0.617800  1.0  -0.1001
  C  C593  1  0.656800  0.744100  0.593100  1.0  -0.0024
  C  C594  1  0.631700  0.781500  0.582500  1.0  -0.1256
  C  C595  1  0.649500  0.818400  0.597200  1.0  -0.0835
  C  C596  1  0.699700  0.819700  0.622400  1.0  0.1029
  C  C597  1  0.724300  0.781400  0.634000  1.0  -0.061
  C  C598  1  0.718500  0.859100  0.639800  1.0  -0.3197
  C  C599  1  0.733400  0.946200  0.765700  1.0  0.6907
  C  C600  1  0.580700  0.836100  0.761700  1.0  0.6952
  C  C601  1  0.738500  0.706400  0.627900  1.0  0.6787
  C  C602  1  0.578600  0.781200  0.552500  1.0  0.6845
  C  C603  1  0.842900  0.055200  0.837100  1.0  0.7081
  C  C604  1  0.872200  0.094300  0.855500  1.0  -0.1477
  C  C605  1  0.923300  0.111100  0.836200  1.0  -0.0766
  C  C606  1  0.842900  0.655300  0.576400  1.0  0.6612
  C  C607  1  0.873900  0.669300  0.536800  1.0  -0.1541
  C  C608  1  0.920800  0.697800  0.537500  1.0  -0.0865
  C  C609  1  0.848000  0.891300  0.108700  1.0  -0.0291
  C  C610  1  0.945000  0.852800  0.147200  1.0  0.0091
  C  C611  1  0.848000  0.108700  0.891300  1.0  -0.0285
  C  C612  1  0.945000  0.147200  0.852800  1.0  0.0102
  C  C613  1  0.848000  0.891300  0.891300  1.0  -0.0284
  C  C614  1  0.945000  0.852800  0.852800  1.0  0.0097
  C  C615  1  0.848000  0.108700  0.108700  1.0  -0.0293
  C  C616  1  0.945000  0.147200  0.147200  1.0  0.0097
  C  C617  1  0.152000  0.108700  0.108700  1.0  -0.0302
  C  C618  1  0.055000  0.147200  0.147200  1.0  0.0099
  C  C619  1  0.152000  0.891300  0.891300  1.0  -0.0291
  C  C620  1  0.055000  0.852800  0.852800  1.0  0.0111
  C  C621  1  0.152000  0.108700  0.891300  1.0  -0.0292
  C  C622  1  0.055000  0.147200  0.852800  1.0  0.0108
  C  C623  1  0.152000  0.891300  0.108700  1.0  -0.0301
  C  C624  1  0.055000  0.852800  0.147200  1.0  0.01
  C  C625  1  0.000000  0.833900  0.166100  1.0  -0.2734
  C  C626  1  0.000000  0.166100  0.833900  1.0  -0.2723
  C  C627  1  0.000000  0.833900  0.833900  1.0  -0.2702
  C  C628  1  0.000000  0.166100  0.166100  1.0  -0.2764
  C  C629  1  0.847300  0.500000  0.654100  1.0  -0.0515
  C  C630  1  0.945800  0.500000  0.709600  1.0  -0.0144
  C  C631  1  0.847300  0.500000  0.345900  1.0  -0.0502
  C  C632  1  0.945800  0.500000  0.290400  1.0  -0.0156
  C  C633  1  0.847300  0.345900  0.500000  1.0  -0.0508
  C  C634  1  0.945800  0.290400  0.500000  1.0  -0.0168
  C  C635  1  0.847300  0.654100  0.500000  1.0  -0.0502
  C  C636  1  0.945800  0.709600  0.500000  1.0  -0.0168
  C  C637  1  0.152700  0.500000  0.654100  1.0  -0.0512
  C  C638  1  0.054200  0.500000  0.709600  1.0  -0.0147
  C  C639  1  0.152700  0.500000  0.345900  1.0  -0.0495
  C  C640  1  0.054200  0.500000  0.290400  1.0  -0.016
  C  C641  1  0.152700  0.654100  0.500000  1.0  -0.0504
  C  C642  1  0.054200  0.709600  0.500000  1.0  -0.0168
  C  C643  1  0.152700  0.345900  0.500000  1.0  -0.0501
  C  C644  1  0.054200  0.290400  0.500000  1.0  -0.0168
  C  C645  1  0.000000  0.500000  0.736300  1.0  -0.2635
  C  C646  1  0.000000  0.500000  0.263700  1.0  -0.2573
  C  C647  1  0.000000  0.263700  0.500000  1.0  -0.2517
  C  C648  1  0.000000  0.736300  0.500000  1.0  -0.2569
  O  O649  1  0.710600  0.797300  0.957600  1.0  -0.5429
  O  O650  1  0.779400  0.748000  0.958100  1.0  -0.5858
  O  O651  1  0.562100  0.744100  0.804800  1.0  -0.5568
  O  O652  1  0.559900  0.793800  0.852600  1.0  -0.5654
  O  O653  1  0.783500  0.649100  0.709000  1.0  -0.5599
  O  O654  1  0.714700  0.614700  0.674500  1.0  -0.575
  O  O655  1  0.560600  0.541000  0.816000  1.0  -0.561
  O  O656  1  0.561300  0.541900  0.746200  1.0  -0.5576
  O  O657  1  0.799600  0.854100  0.042600  1.0  -0.5441
  O  O658  1  0.869600  0.804800  0.042800  1.0  -0.5707
  O  O659  1  0.870000  0.608300  0.668800  1.0  -0.5701
  O  O660  1  0.801400  0.574400  0.631700  1.0  -0.5458
  O  O661  1  0.710600  0.202700  0.042400  1.0  -0.5432
  O  O662  1  0.779400  0.252000  0.041900  1.0  -0.5859
  O  O663  1  0.562100  0.255900  0.195200  1.0  -0.5565
  O  O664  1  0.559900  0.206200  0.147400  1.0  -0.5654
  O  O665  1  0.783500  0.350900  0.291000  1.0  -0.56
  O  O666  1  0.714700  0.385300  0.325500  1.0  -0.5744
  O  O667  1  0.560600  0.459000  0.184000  1.0  -0.5601
  O  O668  1  0.561300  0.458100  0.253800  1.0  -0.5574
  O  O669  1  0.799600  0.145900  0.957400  1.0  -0.5451
  O  O670  1  0.869600  0.195200  0.957200  1.0  -0.5694
  O  O671  1  0.870000  0.391700  0.331200  1.0  -0.5696
  O  O672  1  0.801400  0.425600  0.368300  1.0  -0.545
  O  O673  1  0.710600  0.042400  0.797300  1.0  -0.542
  O  O674  1  0.779400  0.041900  0.748000  1.0  -0.5863
  O  O675  1  0.562100  0.195200  0.744100  1.0  -0.5561
  O  O676  1  0.559900  0.147400  0.793800  1.0  -0.5639
  O  O677  1  0.783500  0.291000  0.649100  1.0  -0.5595
  O  O678  1  0.714700  0.325500  0.614700  1.0  -0.5747
  O  O679  1  0.560600  0.184000  0.541000  1.0  -0.5608
  O  O680  1  0.561300  0.253800  0.541900  1.0  -0.5558
  O  O681  1  0.799600  0.957400  0.854100  1.0  -0.5434
  O  O682  1  0.869600  0.957200  0.804800  1.0  -0.5685
  O  O683  1  0.870000  0.331200  0.608300  1.0  -0.5692
  O  O684  1  0.801400  0.368300  0.574400  1.0  -0.5448
  O  O685  1  0.710600  0.957600  0.202700  1.0  -0.5421
  O  O686  1  0.779400  0.958100  0.252000  1.0  -0.5859
  O  O687  1  0.562100  0.804800  0.255900  1.0  -0.557
  O  O688  1  0.559900  0.852600  0.206200  1.0  -0.5655
  O  O689  1  0.783500  0.709000  0.350900  1.0  -0.5596
  O  O690  1  0.714700  0.674500  0.385300  1.0  -0.5743
  O  O691  1  0.560600  0.816000  0.459000  1.0  -0.5597
  O  O692  1  0.561300  0.746200  0.458100  1.0  -0.5584
  O  O693  1  0.799600  0.042600  0.145900  1.0  -0.5441
  O  O694  1  0.869600  0.042800  0.195200  1.0  -0.5701
  O  O695  1  0.870000  0.668800  0.391700  1.0  -0.5691
  O  O696  1  0.801400  0.631700  0.425600  1.0  -0.5463
  O  O697  1  0.289400  0.202700  0.957600  1.0  -0.543
  O  O698  1  0.220600  0.252000  0.958100  1.0  -0.5858
  O  O699  1  0.437900  0.255900  0.804800  1.0  -0.5562
  O  O700  1  0.440100  0.206200  0.852600  1.0  -0.5655
  O  O701  1  0.216500  0.350900  0.709000  1.0  -0.56
  O  O702  1  0.285300  0.385300  0.674500  1.0  -0.5742
  O  O703  1  0.439400  0.459000  0.816000  1.0  -0.5605
  O  O704  1  0.438700  0.458100  0.746200  1.0  -0.5581
  O  O705  1  0.200400  0.145900  0.042600  1.0  -0.546
  O  O706  1  0.130400  0.195200  0.042800  1.0  -0.5691
  O  O707  1  0.130000  0.391700  0.668800  1.0  -0.57
  O  O708  1  0.198600  0.425600  0.631700  1.0  -0.5458
  O  O709  1  0.289400  0.797300  0.042400  1.0  -0.5426
  O  O710  1  0.220600  0.748000  0.041900  1.0  -0.5853
  O  O711  1  0.437900  0.744100  0.195200  1.0  -0.5569
  O  O712  1  0.440100  0.793800  0.147400  1.0  -0.565
  O  O713  1  0.216500  0.649100  0.291000  1.0  -0.5596
  O  O714  1  0.285300  0.614700  0.325500  1.0  -0.5748
  O  O715  1  0.439400  0.541000  0.184000  1.0  -0.5604
  O  O716  1  0.438700  0.541900  0.253800  1.0  -0.5573
  O  O717  1  0.200400  0.854100  0.957400  1.0  -0.5451
  O  O718  1  0.130400  0.804800  0.957200  1.0  -0.5698
  O  O719  1  0.130000  0.608300  0.331200  1.0  -0.5698
  O  O720  1  0.198600  0.574400  0.368300  1.0  -0.5456
  O  O721  1  0.289400  0.957600  0.797300  1.0  -0.5428
  O  O722  1  0.220600  0.958100  0.748000  1.0  -0.5853
  O  O723  1  0.437900  0.804800  0.744100  1.0  -0.5557
  O  O724  1  0.440100  0.852600  0.793800  1.0  -0.5647
  O  O725  1  0.216500  0.709000  0.649100  1.0  -0.5597
  O  O726  1  0.285300  0.674500  0.614700  1.0  -0.5756
  O  O727  1  0.439400  0.816000  0.541000  1.0  -0.5597
  O  O728  1  0.438700  0.746200  0.541900  1.0  -0.5586
  O  O729  1  0.200400  0.042600  0.854100  1.0  -0.5441
  O  O730  1  0.130400  0.042800  0.804800  1.0  -0.5686
  O  O731  1  0.130000  0.668800  0.608300  1.0  -0.5694
  O  O732  1  0.198600  0.631700  0.574400  1.0  -0.5462
  O  O733  1  0.289400  0.042400  0.202700  1.0  -0.5412
  O  O734  1  0.220600  0.041900  0.252000  1.0  -0.5858
  O  O735  1  0.437900  0.195200  0.255900  1.0  -0.5561
  O  O736  1  0.440100  0.147400  0.206200  1.0  -0.5646
  O  O737  1  0.216500  0.291000  0.350900  1.0  -0.5598
  O  O738  1  0.285300  0.325500  0.385300  1.0  -0.5754
  O  O739  1  0.439400  0.184000  0.459000  1.0  -0.5606
  O  O740  1  0.438700  0.253800  0.458100  1.0  -0.5555
  O  O741  1  0.200400  0.957400  0.145900  1.0  -0.5457
  O  O742  1  0.130400  0.957200  0.195200  1.0  -0.5688
  O  O743  1  0.130000  0.331200  0.391700  1.0  -0.5699
  O  O744  1  0.198600  0.368300  0.425600  1.0  -0.5452
  O  O745  1  0.289400  0.202700  0.042400  1.0  -0.5431
  O  O746  1  0.220600  0.252000  0.041900  1.0  -0.5856
  O  O747  1  0.437900  0.255900  0.195200  1.0  -0.5563
  O  O748  1  0.440100  0.206200  0.147400  1.0  -0.565
  O  O749  1  0.216500  0.350900  0.291000  1.0  -0.5602
  O  O750  1  0.285300  0.385300  0.325500  1.0  -0.5752
  O  O751  1  0.439400  0.459000  0.184000  1.0  -0.5598
  O  O752  1  0.438700  0.458100  0.253800  1.0  -0.5574
  O  O753  1  0.200400  0.145900  0.957400  1.0  -0.5459
  O  O754  1  0.130400  0.195200  0.957200  1.0  -0.5696
  O  O755  1  0.130000  0.391700  0.331200  1.0  -0.5696
  O  O756  1  0.198600  0.425600  0.368300  1.0  -0.5451
  O  O757  1  0.289400  0.797300  0.957600  1.0  -0.5428
  O  O758  1  0.220600  0.748000  0.958100  1.0  -0.5852
  O  O759  1  0.437900  0.744100  0.804800  1.0  -0.5566
  O  O760  1  0.440100  0.793800  0.852600  1.0  -0.5649
  O  O761  1  0.216500  0.649100  0.709000  1.0  -0.56
  O  O762  1  0.285300  0.614700  0.674500  1.0  -0.5748
  O  O763  1  0.439400  0.541000  0.816000  1.0  -0.5601
  O  O764  1  0.438700  0.541900  0.746200  1.0  -0.558
  O  O765  1  0.200400  0.854100  0.042600  1.0  -0.5454
  O  O766  1  0.130400  0.804800  0.042800  1.0  -0.5701
  O  O767  1  0.130000  0.608300  0.668800  1.0  -0.5699
  O  O768  1  0.198600  0.574400  0.631700  1.0  -0.5459
  O  O769  1  0.289400  0.957600  0.202700  1.0  -0.5413
  O  O770  1  0.220600  0.958100  0.252000  1.0  -0.5855
  O  O771  1  0.437900  0.804800  0.255900  1.0  -0.5568
  O  O772  1  0.440100  0.852600  0.206200  1.0  -0.5651
  O  O773  1  0.216500  0.709000  0.350900  1.0  -0.5595
  O  O774  1  0.285300  0.674500  0.385300  1.0  -0.5752
  O  O775  1  0.439400  0.816000  0.459000  1.0  -0.5592
  O  O776  1  0.438700  0.746200  0.458100  1.0  -0.5588
  O  O777  1  0.200400  0.042600  0.145900  1.0  -0.5456
  O  O778  1  0.130400  0.042800  0.195200  1.0  -0.5695
  O  O779  1  0.130000  0.668800  0.391700  1.0  -0.5691
  O  O780  1  0.198600  0.631700  0.425600  1.0  -0.5458
  O  O781  1  0.289400  0.042400  0.797300  1.0  -0.5423
  O  O782  1  0.220600  0.041900  0.748000  1.0  -0.5852
  O  O783  1  0.437900  0.195200  0.744100  1.0  -0.5559
  O  O784  1  0.440100  0.147400  0.793800  1.0  -0.5639
  O  O785  1  0.216500  0.291000  0.649100  1.0  -0.5598
  O  O786  1  0.285300  0.325500  0.614700  1.0  -0.5748
  O  O787  1  0.439400  0.184000  0.541000  1.0  -0.5604
  O  O788  1  0.438700  0.253800  0.541900  1.0  -0.556
  O  O789  1  0.200400  0.957400  0.854100  1.0  -0.5442
  O  O790  1  0.130400  0.957200  0.804800  1.0  -0.5687
  O  O791  1  0.130000  0.331200  0.608300  1.0  -0.5691
  O  O792  1  0.198600  0.368300  0.574400  1.0  -0.5447
  O  O793  1  0.710600  0.797300  0.042400  1.0  -0.5429
  O  O794  1  0.779400  0.748000  0.041900  1.0  -0.5856
  O  O795  1  0.562100  0.744100  0.195200  1.0  -0.5574
  O  O796  1  0.559900  0.793800  0.147400  1.0  -0.5651
  O  O797  1  0.783500  0.649100  0.291000  1.0  -0.5599
  O  O798  1  0.714700  0.614700  0.325500  1.0  -0.5738
  O  O799  1  0.560600  0.541000  0.184000  1.0  -0.5606
  O  O800  1  0.561300  0.541900  0.253800  1.0  -0.5578
  O  O801  1  0.799600  0.854100  0.957400  1.0  -0.5442
  O  O802  1  0.869600  0.804800  0.957200  1.0  -0.5708
  O  O803  1  0.870000  0.608300  0.331200  1.0  -0.5694
  O  O804  1  0.801400  0.574400  0.368300  1.0  -0.5449
  O  O805  1  0.710600  0.202700  0.957600  1.0  -0.5427
  O  O806  1  0.779400  0.252000  0.958100  1.0  -0.5856
  O  O807  1  0.562100  0.255900  0.804800  1.0  -0.5567
  O  O808  1  0.559900  0.206200  0.852600  1.0  -0.5653
  O  O809  1  0.783500  0.350900  0.709000  1.0  -0.5601
  O  O810  1  0.714700  0.385300  0.674500  1.0  -0.5744
  O  O811  1  0.560600  0.459000  0.816000  1.0  -0.5603
  O  O812  1  0.561300  0.458100  0.746200  1.0  -0.5576
  O  O813  1  0.799600  0.145900  0.042600  1.0  -0.5453
  O  O814  1  0.869600  0.195200  0.042800  1.0  -0.5695
  O  O815  1  0.870000  0.391700  0.668800  1.0  -0.5697
  O  O816  1  0.801400  0.425600  0.631700  1.0  -0.545
  O  O817  1  0.710600  0.042400  0.202700  1.0  -0.5418
  O  O818  1  0.779400  0.041900  0.252000  1.0  -0.5856
  O  O819  1  0.562100  0.195200  0.255900  1.0  -0.557
  O  O820  1  0.559900  0.147400  0.206200  1.0  -0.5646
  O  O821  1  0.783500  0.291000  0.350900  1.0  -0.5598
  O  O822  1  0.714700  0.325500  0.385300  1.0  -0.5748
  O  O823  1  0.560600  0.184000  0.459000  1.0  -0.5603
  O  O824  1  0.561300  0.253800  0.458100  1.0  -0.5557
  O  O825  1  0.799600  0.957400  0.145900  1.0  -0.5441
  O  O826  1  0.869600  0.957200  0.195200  1.0  -0.5698
  O  O827  1  0.870000  0.331200  0.391700  1.0  -0.5695
  O  O828  1  0.801400  0.368300  0.425600  1.0  -0.5444
  O  O829  1  0.710600  0.957600  0.797300  1.0  -0.5425
  O  O830  1  0.779400  0.958100  0.748000  1.0  -0.586
  O  O831  1  0.562100  0.804800  0.744100  1.0  -0.5564
  O  O832  1  0.559900  0.852600  0.793800  1.0  -0.5647
  O  O833  1  0.783500  0.709000  0.649100  1.0  -0.5596
  O  O834  1  0.714700  0.674500  0.614700  1.0  -0.5753
  O  O835  1  0.560600  0.816000  0.541000  1.0  -0.5596
  O  O836  1  0.561300  0.746200  0.541900  1.0  -0.5587
  O  O837  1  0.799600  0.042600  0.854100  1.0  -0.5434
  O  O838  1  0.869600  0.042800  0.804800  1.0  -0.5696
  O  O839  1  0.870000  0.668800  0.608300  1.0  -0.5688
  O  O840  1  0.801400  0.631700  0.574400  1.0  -0.5458
