# generated using pymatgen
data_Zn4H24C45N3O16
_symmetry_space_group_name_H-M   'P 1'
_cell_length_a   25.38400000
_cell_length_b   25.38400000
_cell_length_c   25.38400000
_cell_angle_alpha   90.00000000
_cell_angle_beta   90.00000000
_cell_angle_gamma   90.00000000
_symmetry_Int_Tables_number   1
_chemical_formula_structural   Zn4H24C45N3O16
_chemical_formula_sum   'Zn32 H192 C360 N24 O128'
_cell_volume   16356.11582310
_cell_formula_units_Z   8
loop_
 _symmetry_equiv_pos_site_id
 _symmetry_equiv_pos_as_xyz
  1  'x, y, z'
loop_
 _atom_site_type_symbol
 _atom_site_label
 _atom_site_symmetry_multiplicity
 _atom_site_fract_x
 _atom_site_fract_y
 _atom_site_fract_z
 _atom_site_occupancy
 _atom_site_charge
  Zn  Zn1  1  0.250660  0.176470  0.272170  1.0  1.0558
  Zn  Zn2  1  0.249340  0.823530  0.772170  1.0  1.0543
  Zn  Zn3  1  0.749340  0.676470  0.227830  1.0  1.0547
  Zn  Zn4  1  0.750660  0.323530  0.727830  1.0  1.0554
  Zn  Zn5  1  0.272170  0.250660  0.176470  1.0  1.0573
  Zn  Zn6  1  0.772170  0.249340  0.823530  1.0  1.0572
  Zn  Zn7  1  0.227830  0.749340  0.676470  1.0  1.0557
  Zn  Zn8  1  0.727830  0.750660  0.323530  1.0  1.0569
  Zn  Zn9  1  0.176470  0.272170  0.250660  1.0  1.0545
  Zn  Zn10  1  0.823530  0.772170  0.249340  1.0  1.0549
  Zn  Zn11  1  0.676470  0.227830  0.749340  1.0  1.0547
  Zn  Zn12  1  0.323530  0.727830  0.750660  1.0  1.0552
  Zn  Zn13  1  0.749340  0.823530  0.727830  1.0  1.0543
  Zn  Zn14  1  0.750660  0.176470  0.227830  1.0  1.0557
  Zn  Zn15  1  0.250660  0.323530  0.772170  1.0  1.0555
  Zn  Zn16  1  0.249340  0.676470  0.272170  1.0  1.0547
  Zn  Zn17  1  0.727830  0.749340  0.823530  1.0  1.0564
  Zn  Zn18  1  0.227830  0.750660  0.176470  1.0  1.0561
  Zn  Zn19  1  0.772170  0.250660  0.323530  1.0  1.0577
  Zn  Zn20  1  0.272170  0.249340  0.676470  1.0  1.0569
  Zn  Zn21  1  0.823530  0.727830  0.749340  1.0  1.055
  Zn  Zn22  1  0.176470  0.227830  0.750660  1.0  1.0546
  Zn  Zn23  1  0.323530  0.772170  0.250660  1.0  1.0551
  Zn  Zn24  1  0.676470  0.272170  0.249340  1.0  1.0546
  Zn  Zn25  1  0.173360  0.173360  0.173360  1.0  0.9937
  Zn  Zn26  1  0.326640  0.826640  0.673360  1.0  0.9914
  Zn  Zn27  1  0.826640  0.673360  0.326640  1.0  0.9934
  Zn  Zn28  1  0.673360  0.326640  0.826640  1.0  0.9937
  Zn  Zn29  1  0.826640  0.826640  0.826640  1.0  0.993
  Zn  Zn30  1  0.673360  0.173360  0.326640  1.0  0.9949
  Zn  Zn31  1  0.173360  0.326640  0.673360  1.0  0.9926
  Zn  Zn32  1  0.326640  0.673360  0.173360  1.0  0.992
  H  H33  1  0.161800  0.171000  0.004900  1.0  0.1192
  H  H34  1  0.270800  0.294000  0.025000  1.0  0.1059
  H  H35  1  0.268100  0.303100  0.928500  1.0  0.0903
  H  H36  1  0.143900  0.183200  0.879900  1.0  0.2985
  H  H37  1  0.103600  0.153300  0.822100  1.0  0.1221
  H  H38  1  0.138200  0.025800  0.910200  1.0  0.1091
  H  H39  1  0.051900  0.111600  0.753100  1.0  0.1563
  H  H40  1  0.085200  0.982500  0.844600  1.0  0.0819
  H  H41  1  0.338200  0.829000  0.504900  1.0  0.1192
  H  H42  1  0.229200  0.706000  0.525000  1.0  0.1059
  H  H43  1  0.231900  0.696900  0.428500  1.0  0.0901
  H  H44  1  0.356100  0.816800  0.379900  1.0  0.2986
  H  H45  1  0.396400  0.846700  0.322100  1.0  0.1216
  H  H46  1  0.361800  0.974200  0.410200  1.0  0.1096
  H  H47  1  0.448100  0.888400  0.253100  1.0  0.1571
  H  H48  1  0.414800  0.017500  0.344600  1.0  0.0826
  H  H49  1  0.838200  0.671000  0.495100  1.0  0.1197
  H  H50  1  0.729200  0.794000  0.475000  1.0  0.1057
  H  H51  1  0.731900  0.803100  0.571500  1.0  0.0907
  H  H52  1  0.856100  0.683200  0.620100  1.0  0.2981
  H  H53  1  0.896400  0.653300  0.677900  1.0  0.1211
  H  H54  1  0.861800  0.525800  0.589800  1.0  0.1081
  H  H55  1  0.948100  0.611600  0.746900  1.0  0.1571
  H  H56  1  0.914800  0.482500  0.655400  1.0  0.0823
  H  H57  1  0.661800  0.329000  0.995100  1.0  0.1197
  H  H58  1  0.770800  0.206000  0.975000  1.0  0.1057
  H  H59  1  0.768100  0.196900  0.071500  1.0  0.0906
  H  H60  1  0.643900  0.316800  0.120100  1.0  0.2988
  H  H61  1  0.603600  0.346700  0.177900  1.0  0.1217
  H  H62  1  0.638200  0.474200  0.089800  1.0  0.108
  H  H63  1  0.551900  0.388400  0.246900  1.0  0.1578
  H  H64  1  0.585200  0.517500  0.155400  1.0  0.0823
  H  H65  1  0.004900  0.161800  0.171000  1.0  0.1189
  H  H66  1  0.025000  0.270800  0.294000  1.0  0.1051
  H  H67  1  0.928500  0.268100  0.303100  1.0  0.0904
  H  H68  1  0.879900  0.143900  0.183200  1.0  0.2976
  H  H69  1  0.822100  0.103600  0.153300  1.0  0.1237
  H  H70  1  0.910200  0.138200  0.025800  1.0  0.108
  H  H71  1  0.753100  0.051900  0.111600  1.0  0.1567
  H  H72  1  0.844600  0.085200  0.982500  1.0  0.0844
  H  H73  1  0.504900  0.338200  0.829000  1.0  0.1188
  H  H74  1  0.525000  0.229200  0.706000  1.0  0.1054
  H  H75  1  0.428500  0.231900  0.696900  1.0  0.0905
  H  H76  1  0.379900  0.356100  0.816800  1.0  0.2972
  H  H77  1  0.322100  0.396400  0.846700  1.0  0.1226
  H  H78  1  0.410200  0.361800  0.974200  1.0  0.1077
  H  H79  1  0.253100  0.448100  0.888400  1.0  0.1577
  H  H80  1  0.344600  0.414800  0.017500  1.0  0.0831
  H  H81  1  0.495100  0.838200  0.671000  1.0  0.1187
  H  H82  1  0.475000  0.729200  0.794000  1.0  0.1049
  H  H83  1  0.571500  0.731900  0.803100  1.0  0.0905
  H  H84  1  0.620100  0.856100  0.683200  1.0  0.2966
  H  H85  1  0.677900  0.896400  0.653300  1.0  0.1233
  H  H86  1  0.589800  0.861800  0.525800  1.0  0.108
  H  H87  1  0.746900  0.948100  0.611600  1.0  0.1575
  H  H88  1  0.655400  0.914800  0.482500  1.0  0.0839
  H  H89  1  0.995100  0.661800  0.329000  1.0  0.1186
  H  H90  1  0.975000  0.770800  0.206000  1.0  0.1046
  H  H91  1  0.071500  0.768100  0.196900  1.0  0.0906
  H  H92  1  0.120100  0.643900  0.316800  1.0  0.2975
  H  H93  1  0.177900  0.603600  0.346700  1.0  0.1226
  H  H94  1  0.089800  0.638200  0.474200  1.0  0.1084
  H  H95  1  0.246900  0.551900  0.388400  1.0  0.1581
  H  H96  1  0.155400  0.585200  0.517500  1.0  0.0835
  H  H97  1  0.171000  0.004900  0.161800  1.0  0.1193
  H  H98  1  0.294000  0.025000  0.270800  1.0  0.1053
  H  H99  1  0.303100  0.928500  0.268100  1.0  0.0905
  H  H100  1  0.183200  0.879900  0.143900  1.0  0.2994
  H  H101  1  0.153300  0.822100  0.103600  1.0  0.1217
  H  H102  1  0.025800  0.910200  0.138200  1.0  0.1075
  H  H103  1  0.111600  0.753100  0.051900  1.0  0.1601
  H  H104  1  0.982500  0.844600  0.085200  1.0  0.0842
  H  H105  1  0.829000  0.504900  0.338200  1.0  0.1197
  H  H106  1  0.706000  0.525000  0.229200  1.0  0.1053
  H  H107  1  0.696900  0.428500  0.231900  1.0  0.09
  H  H108  1  0.816800  0.379900  0.356100  1.0  0.2989
  H  H109  1  0.846700  0.322100  0.396400  1.0  0.1241
  H  H110  1  0.974200  0.410200  0.361800  1.0  0.1069
  H  H111  1  0.888400  0.253100  0.448100  1.0  0.1603
  H  H112  1  0.017500  0.344600  0.414800  1.0  0.0831
  H  H113  1  0.671000  0.495100  0.838200  1.0  0.1198
  H  H114  1  0.794000  0.475000  0.729200  1.0  0.1054
  H  H115  1  0.803100  0.571500  0.731900  1.0  0.0904
  H  H116  1  0.683200  0.620100  0.856100  1.0  0.298
  H  H117  1  0.653300  0.677900  0.896400  1.0  0.122
  H  H118  1  0.525800  0.589800  0.861800  1.0  0.1078
  H  H119  1  0.611600  0.746900  0.948100  1.0  0.1599
  H  H120  1  0.482500  0.655400  0.914800  1.0  0.0837
  H  H121  1  0.329000  0.995100  0.661800  1.0  0.1198
  H  H122  1  0.206000  0.975000  0.770800  1.0  0.1051
  H  H123  1  0.196900  0.071500  0.768100  1.0  0.0902
  H  H124  1  0.316800  0.120100  0.643900  1.0  0.2986
  H  H125  1  0.346700  0.177900  0.603600  1.0  0.1239
  H  H126  1  0.474200  0.089800  0.638200  1.0  0.1081
  H  H127  1  0.388400  0.246900  0.551900  1.0  0.1598
  H  H128  1  0.517500  0.155400  0.585200  1.0  0.0829
  H  H129  1  0.838200  0.829000  0.995100  1.0  0.1199
  H  H130  1  0.729200  0.706000  0.975000  1.0  0.1056
  H  H131  1  0.731900  0.696900  0.071500  1.0  0.0904
  H  H132  1  0.856100  0.816800  0.120100  1.0  0.299
  H  H133  1  0.896400  0.846700  0.177900  1.0  0.1219
  H  H134  1  0.861800  0.974200  0.089800  1.0  0.1082
  H  H135  1  0.948100  0.888400  0.246900  1.0  0.1572
  H  H136  1  0.914800  0.017500  0.155400  1.0  0.0823
  H  H137  1  0.661800  0.171000  0.495100  1.0  0.1194
  H  H138  1  0.770800  0.294000  0.475000  1.0  0.1059
  H  H139  1  0.768100  0.303100  0.571500  1.0  0.0907
  H  H140  1  0.643900  0.183200  0.620100  1.0  0.298
  H  H141  1  0.603600  0.153300  0.677900  1.0  0.1212
  H  H142  1  0.638200  0.025800  0.589800  1.0  0.1078
  H  H143  1  0.551900  0.111600  0.746900  1.0  0.1577
  H  H144  1  0.585200  0.982500  0.655400  1.0  0.0821
  H  H145  1  0.161800  0.329000  0.504900  1.0  0.1192
  H  H146  1  0.270800  0.206000  0.525000  1.0  0.106
  H  H147  1  0.268100  0.196900  0.428500  1.0  0.0903
  H  H148  1  0.143900  0.316800  0.379900  1.0  0.2991
  H  H149  1  0.103600  0.346700  0.322100  1.0  0.1215
  H  H150  1  0.138200  0.474200  0.410200  1.0  0.109
  H  H151  1  0.051900  0.388400  0.253100  1.0  0.1564
  H  H152  1  0.085200  0.517500  0.344600  1.0  0.0826
  H  H153  1  0.338200  0.671000  0.004900  1.0  0.1193
  H  H154  1  0.229200  0.794000  0.025000  1.0  0.1058
  H  H155  1  0.231900  0.803100  0.928500  1.0  0.0904
  H  H156  1  0.356100  0.683200  0.879900  1.0  0.298
  H  H157  1  0.396400  0.653300  0.822100  1.0  0.122
  H  H158  1  0.361800  0.525800  0.910200  1.0  0.1092
  H  H159  1  0.448100  0.611600  0.753100  1.0  0.1568
  H  H160  1  0.414800  0.482500  0.844600  1.0  0.0821
  H  H161  1  0.995100  0.838200  0.829000  1.0  0.1187
  H  H162  1  0.975000  0.729200  0.706000  1.0  0.105
  H  H163  1  0.071500  0.731900  0.696900  1.0  0.0905
  H  H164  1  0.120100  0.856100  0.816800  1.0  0.2969
  H  H165  1  0.177900  0.896400  0.846700  1.0  0.1223
  H  H166  1  0.089800  0.861800  0.974200  1.0  0.1081
  H  H167  1  0.246900  0.948100  0.888400  1.0  0.1582
  H  H168  1  0.155400  0.914800  0.017500  1.0  0.083
  H  H169  1  0.495100  0.661800  0.171000  1.0  0.1182
  H  H170  1  0.475000  0.770800  0.294000  1.0  0.1048
  H  H171  1  0.571500  0.768100  0.303100  1.0  0.0904
  H  H172  1  0.620100  0.643900  0.183200  1.0  0.2977
  H  H173  1  0.677900  0.603600  0.153300  1.0  0.1237
  H  H174  1  0.589800  0.638200  0.025800  1.0  0.1086
  H  H175  1  0.746900  0.551900  0.111600  1.0  0.157
  H  H176  1  0.655400  0.585200  0.982500  1.0  0.0843
  H  H177  1  0.504900  0.161800  0.329000  1.0  0.1186
  H  H178  1  0.525000  0.270800  0.206000  1.0  0.1051
  H  H179  1  0.428500  0.268100  0.196900  1.0  0.0907
  H  H180  1  0.379900  0.143900  0.316800  1.0  0.2977
  H  H181  1  0.322100  0.103600  0.346700  1.0  0.1226
  H  H182  1  0.410200  0.138200  0.474200  1.0  0.1081
  H  H183  1  0.253100  0.051900  0.388400  1.0  0.1578
  H  H184  1  0.344600  0.085200  0.517500  1.0  0.0834
  H  H185  1  0.004900  0.338200  0.671000  1.0  0.1192
  H  H186  1  0.025000  0.229200  0.794000  1.0  0.1052
  H  H187  1  0.928500  0.231900  0.803100  1.0  0.0904
  H  H188  1  0.879900  0.356100  0.683200  1.0  0.2966
  H  H189  1  0.822100  0.396400  0.653300  1.0  0.1234
  H  H190  1  0.910200  0.361800  0.525800  1.0  0.1075
  H  H191  1  0.753100  0.448100  0.611600  1.0  0.1568
  H  H192  1  0.844600  0.414800  0.482500  1.0  0.0841
  H  H193  1  0.829000  0.995100  0.838200  1.0  0.12
  H  H194  1  0.706000  0.975000  0.729200  1.0  0.1052
  H  H195  1  0.696900  0.071500  0.731900  1.0  0.0902
  H  H196  1  0.816800  0.120100  0.856100  1.0  0.2987
  H  H197  1  0.846700  0.177900  0.896400  1.0  0.1241
  H  H198  1  0.974200  0.089800  0.861800  1.0  0.1078
  H  H199  1  0.888400  0.246900  0.948100  1.0  0.1592
  H  H200  1  0.017500  0.155400  0.914800  1.0  0.0825
  H  H201  1  0.171000  0.495100  0.661800  1.0  0.1195
  H  H202  1  0.294000  0.475000  0.770800  1.0  0.1055
  H  H203  1  0.303100  0.571500  0.768100  1.0  0.0903
  H  H204  1  0.183200  0.620100  0.643900  1.0  0.2984
  H  H205  1  0.153300  0.677900  0.603600  1.0  0.1218
  H  H206  1  0.025800  0.589800  0.638200  1.0  0.1079
  H  H207  1  0.111600  0.746900  0.551900  1.0  0.1606
  H  H208  1  0.982500  0.655400  0.585200  1.0  0.0843
  H  H209  1  0.329000  0.504900  0.161800  1.0  0.1196
  H  H210  1  0.206000  0.525000  0.270800  1.0  0.105
  H  H211  1  0.196900  0.428500  0.268100  1.0  0.0902
  H  H212  1  0.316800  0.379900  0.143900  1.0  0.299
  H  H213  1  0.346700  0.322100  0.103600  1.0  0.1238
  H  H214  1  0.474200  0.410200  0.138200  1.0  0.1073
  H  H215  1  0.388400  0.253100  0.051900  1.0  0.1594
  H  H216  1  0.517500  0.344600  0.085200  1.0  0.083
  H  H217  1  0.671000  0.004900  0.338200  1.0  0.1194
  H  H218  1  0.794000  0.025000  0.229200  1.0  0.1054
  H  H219  1  0.803100  0.928500  0.231900  1.0  0.0904
  H  H220  1  0.683200  0.879900  0.356100  1.0  0.2992
  H  H221  1  0.653300  0.822100  0.396400  1.0  0.1222
  H  H222  1  0.525800  0.910200  0.361800  1.0  0.1072
  H  H223  1  0.611600  0.753100  0.448100  1.0  0.1611
  H  H224  1  0.482500  0.844600  0.414800  1.0  0.0838
  C  C225  1  0.183600  0.196400  0.990000  1.0  -0.0604
  C  C226  1  0.251000  0.272200  0.003200  1.0  -0.1267
  C  C227  1  0.211800  0.260900  0.856000  1.0  0.6869
  C  C228  1  0.220400  0.228700  0.021200  1.0  -0.1528
  C  C229  1  0.221900  0.222700  0.080600  1.0  0.3682
  C  C230  1  0.213000  0.246400  0.915500  1.0  -0.1511
  C  C231  1  0.247300  0.278000  0.945400  1.0  -0.0519
  C  C232  1  0.184600  0.207300  0.936600  1.0  0.2042
  C  C233  1  0.097500  0.117200  0.823400  1.0  -0.1192
  C  C234  1  0.118100  0.092200  0.864700  1.0  0.2331
  C  C235  1  0.121000  0.040600  0.881000  1.0  -0.122
  C  C236  1  0.068300  0.096800  0.782300  1.0  -0.0368
  C  C237  1  0.092200  0.018000  0.843000  1.0  -0.0069
  C  C238  1  0.072500  0.047000  0.801000  1.0  0.1867
  C  C239  1  0.147100  0.116000  0.903300  1.0  0.4094
  C  C240  1  0.316400  0.803600  0.490000  1.0  -0.0602
  C  C241  1  0.249000  0.727800  0.503200  1.0  -0.1281
  C  C242  1  0.288200  0.739100  0.356000  1.0  0.6871
  C  C243  1  0.279600  0.771300  0.521200  1.0  -0.1518
  C  C244  1  0.278100  0.777300  0.580600  1.0  0.369
  C  C245  1  0.287000  0.753600  0.415500  1.0  -0.1513
  C  C246  1  0.252700  0.722000  0.445400  1.0  -0.0515
  C  C247  1  0.315400  0.792700  0.436600  1.0  0.2042
  C  C248  1  0.402500  0.882800  0.323400  1.0  -0.1201
  C  C249  1  0.381900  0.907800  0.364700  1.0  0.2331
  C  C250  1  0.379000  0.959400  0.381000  1.0  -0.1238
  C  C251  1  0.431700  0.903200  0.282300  1.0  -0.036
  C  C252  1  0.407800  0.982000  0.343000  1.0  -0.0057
  C  C253  1  0.427500  0.953000  0.301000  1.0  0.1843
  C  C254  1  0.352900  0.884000  0.403300  1.0  0.4077
  C  C255  1  0.816400  0.696400  0.510000  1.0  -0.0599
  C  C256  1  0.749000  0.772200  0.496800  1.0  -0.1278
  C  C257  1  0.788200  0.760900  0.644000  1.0  0.6875
  C  C258  1  0.779600  0.728700  0.478800  1.0  -0.1529
  C  C259  1  0.778100  0.722700  0.419400  1.0  0.3713
  C  C260  1  0.787000  0.746400  0.584500  1.0  -0.1499
  C  C261  1  0.752700  0.778000  0.554600  1.0  -0.052
  C  C262  1  0.815400  0.707300  0.563400  1.0  0.2045
  C  C263  1  0.902500  0.617200  0.676600  1.0  -0.1194
  C  C264  1  0.881900  0.592200  0.635300  1.0  0.233
  C  C265  1  0.879000  0.540600  0.619000  1.0  -0.1257
  C  C266  1  0.931700  0.596800  0.717700  1.0  -0.0346
  C  C267  1  0.907800  0.518000  0.657000  1.0  -0.0048
  C  C268  1  0.927500  0.547000  0.699000  1.0  0.1851
  C  C269  1  0.852900  0.616000  0.596700  1.0  0.4075
  C  C270  1  0.683600  0.303600  0.010000  1.0  -0.0608
  C  C271  1  0.751000  0.227800  0.996800  1.0  -0.1281
  C  C272  1  0.711800  0.239100  0.144000  1.0  0.6886
  C  C273  1  0.720400  0.271300  0.978800  1.0  -0.1518
  C  C274  1  0.721900  0.277300  0.919400  1.0  0.37
  C  C275  1  0.713000  0.253600  0.084500  1.0  -0.1499
  C  C276  1  0.747300  0.222000  0.054600  1.0  -0.0501
  C  C277  1  0.684600  0.292700  0.063400  1.0  0.2045
  C  C278  1  0.597500  0.382800  0.176600  1.0  -0.118
  C  C279  1  0.618100  0.407800  0.135300  1.0  0.2331
  C  C280  1  0.621000  0.459400  0.119000  1.0  -0.1232
  C  C281  1  0.568300  0.403200  0.217700  1.0  -0.0375
  C  C282  1  0.592200  0.482000  0.157000  1.0  -0.0044
  C  C283  1  0.572500  0.453000  0.199000  1.0  0.1823
  C  C284  1  0.647100  0.384000  0.096700  1.0  0.4091
  C  C285  1  0.990000  0.183600  0.196400  1.0  -0.0595
  C  C286  1  0.003200  0.251000  0.272200  1.0  -0.126
  C  C287  1  0.856000  0.211800  0.260900  1.0  0.6811
  C  C288  1  0.021200  0.220400  0.228700  1.0  -0.1514
  C  C289  1  0.080600  0.221900  0.222700  1.0  0.371
  C  C290  1  0.915500  0.213000  0.246400  1.0  -0.1494
  C  C291  1  0.945400  0.247300  0.278000  1.0  -0.0537
  C  C292  1  0.936600  0.184600  0.207300  1.0  0.2042
  C  C293  1  0.823400  0.097500  0.117200  1.0  -0.116
  C  C294  1  0.864700  0.118100  0.092200  1.0  0.2349
  C  C295  1  0.881000  0.121000  0.040600  1.0  -0.1265
  C  C296  1  0.782300  0.068300  0.096800  1.0  -0.0362
  C  C297  1  0.843000  0.092200  0.018000  1.0  -0.001
  C  C298  1  0.801000  0.072500  0.047000  1.0  0.185
  C  C299  1  0.903300  0.147100  0.116000  1.0  0.4024
  C  C300  1  0.490000  0.316400  0.803600  1.0  -0.0592
  C  C301  1  0.503200  0.249000  0.727800  1.0  -0.1272
  C  C302  1  0.356000  0.288200  0.739100  1.0  0.6819
  C  C303  1  0.521200  0.279600  0.771300  1.0  -0.1517
  C  C304  1  0.580600  0.278100  0.777300  1.0  0.3711
  C  C305  1  0.415500  0.287000  0.753600  1.0  -0.1499
  C  C306  1  0.445400  0.252700  0.722000  1.0  -0.0536
  C  C307  1  0.436600  0.315400  0.792700  1.0  0.2045
  C  C308  1  0.323400  0.402500  0.882800  1.0  -0.1182
  C  C309  1  0.364700  0.381900  0.907800  1.0  0.2341
  C  C310  1  0.381000  0.379000  0.959400  1.0  -0.1247
  C  C311  1  0.282300  0.431700  0.903200  1.0  -0.0371
  C  C312  1  0.343000  0.407800  0.982000  1.0  -0.0022
  C  C313  1  0.301000  0.427500  0.953000  1.0  0.1828
  C  C314  1  0.403300  0.352900  0.884000  1.0  0.404
  C  C315  1  0.510000  0.816400  0.696400  1.0  -0.0622
  C  C316  1  0.496800  0.749000  0.772200  1.0  -0.127
  C  C317  1  0.644000  0.788200  0.760900  1.0  0.6818
  C  C318  1  0.478800  0.779600  0.728700  1.0  -0.152
  C  C319  1  0.419400  0.778100  0.722700  1.0  0.3692
  C  C320  1  0.584500  0.787000  0.746400  1.0  -0.149
  C  C321  1  0.554600  0.752700  0.778000  1.0  -0.0529
  C  C322  1  0.563400  0.815400  0.707300  1.0  0.2034
  C  C323  1  0.676600  0.902500  0.617200  1.0  -0.1142
  C  C324  1  0.635300  0.881900  0.592200  1.0  0.2345
  C  C325  1  0.619000  0.879000  0.540600  1.0  -0.1292
  C  C326  1  0.717700  0.931700  0.596800  1.0  -0.035
  C  C327  1  0.657000  0.907800  0.518000  1.0  0.001
  C  C328  1  0.699000  0.927500  0.547000  1.0  0.1836
  C  C329  1  0.596700  0.852900  0.616000  1.0  0.4027
  C  C330  1  0.010000  0.683600  0.303600  1.0  -0.0607
  C  C331  1  0.996800  0.751000  0.227800  1.0  -0.1267
  C  C332  1  0.144000  0.711800  0.239100  1.0  0.6816
  C  C333  1  0.978800  0.720400  0.271300  1.0  -0.1517
  C  C334  1  0.919400  0.721900  0.277300  1.0  0.3695
  C  C335  1  0.084500  0.713000  0.253600  1.0  -0.1492
  C  C336  1  0.054600  0.747300  0.222000  1.0  -0.0539
  C  C337  1  0.063400  0.684600  0.292700  1.0  0.2031
  C  C338  1  0.176600  0.597500  0.382800  1.0  -0.1162
  C  C339  1  0.135300  0.618100  0.407800  1.0  0.2336
  C  C340  1  0.119000  0.621000  0.459400  1.0  -0.1275
  C  C341  1  0.217700  0.568300  0.403200  1.0  -0.0376
  C  C342  1  0.157000  0.592200  0.482000  1.0  -0.002
  C  C343  1  0.199000  0.572500  0.453000  1.0  0.1847
  C  C344  1  0.096700  0.647100  0.384000  1.0  0.4037
  C  C345  1  0.196400  0.990000  0.183600  1.0  -0.0631
  C  C346  1  0.272200  0.003200  0.251000  1.0  -0.1265
  C  C347  1  0.260900  0.856000  0.211800  1.0  0.6835
  C  C348  1  0.228700  0.021200  0.220400  1.0  -0.1524
  C  C349  1  0.222700  0.080600  0.221900  1.0  0.3661
  C  C350  1  0.246400  0.915500  0.213000  1.0  -0.1486
  C  C351  1  0.278000  0.945400  0.247300  1.0  -0.0527
  C  C352  1  0.207300  0.936600  0.184600  1.0  0.2038
  C  C353  1  0.117200  0.823400  0.097500  1.0  -0.1177
  C  C354  1  0.092200  0.864700  0.118100  1.0  0.2349
  C  C355  1  0.040600  0.881000  0.121000  1.0  -0.1273
  C  C356  1  0.096800  0.782300  0.068300  1.0  -0.0362
  C  C357  1  0.018000  0.843000  0.092200  1.0  -0.0006
  C  C358  1  0.047000  0.801000  0.072500  1.0  0.1899
  C  C359  1  0.116000  0.903300  0.147100  1.0  0.407
  C  C360  1  0.803600  0.490000  0.316400  1.0  -0.0612
  C  C361  1  0.727800  0.503200  0.249000  1.0  -0.127
  C  C362  1  0.739100  0.356000  0.288200  1.0  0.6823
  C  C363  1  0.771300  0.521200  0.279600  1.0  -0.1519
  C  C364  1  0.777300  0.580600  0.278100  1.0  0.3669
  C  C365  1  0.753600  0.415500  0.287000  1.0  -0.15
  C  C366  1  0.722000  0.445400  0.252700  1.0  -0.0544
  C  C367  1  0.792700  0.436600  0.315400  1.0  0.2033
  C  C368  1  0.882800  0.323400  0.402500  1.0  -0.1188
  C  C369  1  0.907800  0.364700  0.381900  1.0  0.2343
  C  C370  1  0.959400  0.381000  0.379000  1.0  -0.1235
  C  C371  1  0.903200  0.282300  0.431700  1.0  -0.0345
  C  C372  1  0.982000  0.343000  0.407800  1.0  -0.0028
  C  C373  1  0.953000  0.301000  0.427500  1.0  0.1901
  C  C374  1  0.884000  0.403300  0.352900  1.0  0.4097
  C  C375  1  0.696400  0.510000  0.816400  1.0  -0.0611
  C  C376  1  0.772200  0.496800  0.749000  1.0  -0.1281
  C  C377  1  0.760900  0.644000  0.788200  1.0  0.6837
  C  C378  1  0.728700  0.478800  0.779600  1.0  -0.1531
  C  C379  1  0.722700  0.419400  0.778100  1.0  0.366
  C  C380  1  0.746400  0.584500  0.787000  1.0  -0.1486
  C  C381  1  0.778000  0.554600  0.752700  1.0  -0.0535
  C  C382  1  0.707300  0.563400  0.815400  1.0  0.2033
  C  C383  1  0.617200  0.676600  0.902500  1.0  -0.1184
  C  C384  1  0.592200  0.635300  0.881900  1.0  0.2348
  C  C385  1  0.540600  0.619000  0.879000  1.0  -0.1284
  C  C386  1  0.596800  0.717700  0.931700  1.0  -0.0346
  C  C387  1  0.518000  0.657000  0.907800  1.0  -0.0018
  C  C388  1  0.547000  0.699000  0.927500  1.0  0.185
  C  C389  1  0.616000  0.596700  0.852900  1.0  0.4101
  C  C390  1  0.303600  0.010000  0.683600  1.0  -0.0616
  C  C391  1  0.227800  0.996800  0.751000  1.0  -0.1266
  C  C392  1  0.239100  0.144000  0.711800  1.0  0.6835
  C  C393  1  0.271300  0.978800  0.720400  1.0  -0.152
  C  C394  1  0.277300  0.919400  0.721900  1.0  0.3671
  C  C395  1  0.253600  0.084500  0.713000  1.0  -0.1502
  C  C396  1  0.222000  0.054600  0.747300  1.0  -0.0536
  C  C397  1  0.292700  0.063400  0.684600  1.0  0.2036
  C  C398  1  0.382800  0.176600  0.597500  1.0  -0.1195
  C  C399  1  0.407800  0.135300  0.618100  1.0  0.2341
  C  C400  1  0.459400  0.119000  0.621000  1.0  -0.1242
  C  C401  1  0.403200  0.217700  0.568300  1.0  -0.0347
  C  C402  1  0.482000  0.157000  0.592200  1.0  -0.0025
  C  C403  1  0.453000  0.199000  0.572500  1.0  0.1841
  C  C404  1  0.384000  0.096700  0.647100  1.0  0.4093
  C  C405  1  0.816400  0.803600  0.010000  1.0  -0.0602
  C  C406  1  0.749000  0.727800  0.996800  1.0  -0.1285
  C  C407  1  0.788200  0.739100  0.144000  1.0  0.6884
  C  C408  1  0.779600  0.771300  0.978800  1.0  -0.1515
  C  C409  1  0.778100  0.777300  0.919400  1.0  0.3712
  C  C410  1  0.787000  0.753600  0.084500  1.0  -0.15
  C  C411  1  0.752700  0.722000  0.054600  1.0  -0.0509
  C  C412  1  0.815400  0.792700  0.063400  1.0  0.2044
  C  C413  1  0.902500  0.882800  0.176600  1.0  -0.1195
  C  C414  1  0.881900  0.907800  0.135300  1.0  0.2334
  C  C415  1  0.879000  0.959400  0.119000  1.0  -0.1251
  C  C416  1  0.931700  0.903200  0.217700  1.0  -0.0353
  C  C417  1  0.907800  0.982000  0.157000  1.0  -0.0041
  C  C418  1  0.927500  0.953000  0.199000  1.0  0.1834
  C  C419  1  0.852900  0.884000  0.096700  1.0  0.4076
  C  C420  1  0.683600  0.196400  0.510000  1.0  -0.0601
  C  C421  1  0.751000  0.272200  0.496800  1.0  -0.1275
  C  C422  1  0.711800  0.260900  0.644000  1.0  0.6875
  C  C423  1  0.720400  0.228700  0.478800  1.0  -0.1534
  C  C424  1  0.721900  0.222700  0.419400  1.0  0.37
  C  C425  1  0.713000  0.246400  0.584500  1.0  -0.1497
  C  C426  1  0.747300  0.278000  0.554600  1.0  -0.0513
  C  C427  1  0.684600  0.207300  0.563400  1.0  0.2046
  C  C428  1  0.597500  0.117200  0.676600  1.0  -0.1177
  C  C429  1  0.618100  0.092200  0.635300  1.0  0.2331
  C  C430  1  0.621000  0.040600  0.619000  1.0  -0.1237
  C  C431  1  0.568300  0.096800  0.717700  1.0  -0.0382
  C  C432  1  0.592200  0.018000  0.657000  1.0  -0.0054
  C  C433  1  0.572500  0.047000  0.699000  1.0  0.1848
  C  C434  1  0.647100  0.116000  0.596700  1.0  0.4098
  C  C435  1  0.183600  0.303600  0.490000  1.0  -0.0618
  C  C436  1  0.251000  0.227800  0.503200  1.0  -0.1275
  C  C437  1  0.211800  0.239100  0.356000  1.0  0.6869
  C  C438  1  0.220400  0.271300  0.521200  1.0  -0.1524
  C  C439  1  0.221900  0.277300  0.580600  1.0  0.3681
  C  C440  1  0.213000  0.253600  0.415500  1.0  -0.1513
  C  C441  1  0.247300  0.222000  0.445400  1.0  -0.0507
  C  C442  1  0.184600  0.292700  0.436600  1.0  0.2043
  C  C443  1  0.097500  0.382800  0.323400  1.0  -0.1189
  C  C444  1  0.118100  0.407800  0.364700  1.0  0.2328
  C  C445  1  0.121000  0.459400  0.381000  1.0  -0.1222
  C  C446  1  0.068300  0.403200  0.282300  1.0  -0.037
  C  C447  1  0.092200  0.482000  0.343000  1.0  -0.0061
  C  C448  1  0.072500  0.453000  0.301000  1.0  0.1842
  C  C449  1  0.147100  0.384000  0.403300  1.0  0.4084
  C  C450  1  0.316400  0.696400  0.990000  1.0  -0.0593
  C  C451  1  0.249000  0.772200  0.003200  1.0  -0.1273
  C  C452  1  0.288200  0.760900  0.856000  1.0  0.687
  C  C453  1  0.279600  0.728700  0.021200  1.0  -0.1521
  C  C454  1  0.278100  0.722700  0.080600  1.0  0.3692
  C  C455  1  0.287000  0.746400  0.915500  1.0  -0.1511
  C  C456  1  0.252700  0.778000  0.945400  1.0  -0.0527
  C  C457  1  0.315400  0.707300  0.936600  1.0  0.2041
  C  C458  1  0.402500  0.617200  0.823400  1.0  -0.1207
  C  C459  1  0.381900  0.592200  0.864700  1.0  0.2332
  C  C460  1  0.379000  0.540600  0.881000  1.0  -0.1236
  C  C461  1  0.431700  0.596800  0.782300  1.0  -0.0382
  C  C462  1  0.407800  0.518000  0.843000  1.0  -0.006
  C  C463  1  0.427500  0.547000  0.801000  1.0  0.1863
  C  C464  1  0.352900  0.616000  0.903300  1.0  0.4086
  C  C465  1  0.010000  0.816400  0.803600  1.0  -0.0614
  C  C466  1  0.996800  0.749000  0.727800  1.0  -0.1275
  C  C467  1  0.144000  0.788200  0.739100  1.0  0.6817
  C  C468  1  0.978800  0.779600  0.771300  1.0  -0.1517
  C  C469  1  0.919400  0.778100  0.777300  1.0  0.3696
  C  C470  1  0.084500  0.787000  0.753600  1.0  -0.1492
  C  C471  1  0.054600  0.752700  0.722000  1.0  -0.0531
  C  C472  1  0.063400  0.815400  0.792700  1.0  0.2033
  C  C473  1  0.176600  0.902500  0.882800  1.0  -0.1168
  C  C474  1  0.135300  0.881900  0.907800  1.0  0.2337
  C  C475  1  0.119000  0.879000  0.959400  1.0  -0.1272
  C  C476  1  0.217700  0.931700  0.903200  1.0  -0.0382
  C  C477  1  0.157000  0.907800  0.982000  1.0  -0.0014
  C  C478  1  0.199000  0.927500  0.953000  1.0  0.1846
  C  C479  1  0.096700  0.852900  0.884000  1.0  0.4038
  C  C480  1  0.510000  0.683600  0.196400  1.0  -0.0617
  C  C481  1  0.496800  0.751000  0.272200  1.0  -0.1263
  C  C482  1  0.644000  0.711800  0.260900  1.0  0.6816
  C  C483  1  0.478800  0.720400  0.228700  1.0  -0.1519
  C  C484  1  0.419400  0.721900  0.222700  1.0  0.3692
  C  C485  1  0.584500  0.713000  0.246400  1.0  -0.1491
  C  C486  1  0.554600  0.747300  0.278000  1.0  -0.0536
  C  C487  1  0.563400  0.684600  0.207300  1.0  0.2033
  C  C488  1  0.676600  0.597500  0.117200  1.0  -0.1145
  C  C489  1  0.635300  0.618100  0.092200  1.0  0.2342
  C  C490  1  0.619000  0.621000  0.040600  1.0  -0.1302
  C  C491  1  0.717700  0.568300  0.096800  1.0  -0.037
  C  C492  1  0.657000  0.592200  0.018000  1.0  -0.0012
  C  C493  1  0.699000  0.572500  0.047000  1.0  0.1847
  C  C494  1  0.596700  0.647100  0.116000  1.0  0.4024
  C  C495  1  0.490000  0.183600  0.303600  1.0  -0.0582
  C  C496  1  0.503200  0.251000  0.227800  1.0  -0.1266
  C  C497  1  0.356000  0.211800  0.239100  1.0  0.6816
  C  C498  1  0.521200  0.220400  0.271300  1.0  -0.1516
  C  C499  1  0.580600  0.221900  0.277300  1.0  0.3712
  C  C500  1  0.415500  0.213000  0.253600  1.0  -0.1499
  C  C501  1  0.445400  0.247300  0.222000  1.0  -0.0542
  C  C502  1  0.436600  0.184600  0.292700  1.0  0.2043
  C  C503  1  0.323400  0.097500  0.382800  1.0  -0.1181
  C  C504  1  0.364700  0.118100  0.407800  1.0  0.234
  C  C505  1  0.381000  0.121000  0.459400  1.0  -0.1247
  C  C506  1  0.282300  0.068300  0.403200  1.0  -0.0378
  C  C507  1  0.343000  0.092200  0.482000  1.0  -0.0014
  C  C508  1  0.301000  0.072500  0.453000  1.0  0.1839
  C  C509  1  0.403300  0.147100  0.384000  1.0  0.4023
  C  C510  1  0.990000  0.316400  0.696400  1.0  -0.0603
  C  C511  1  0.003200  0.249000  0.772200  1.0  -0.1265
  C  C512  1  0.856000  0.288200  0.760900  1.0  0.6814
  C  C513  1  0.021200  0.279600  0.728700  1.0  -0.1517
  C  C514  1  0.080600  0.278100  0.722700  1.0  0.3708
  C  C515  1  0.915500  0.287000  0.746400  1.0  -0.1494
  C  C516  1  0.945400  0.252700  0.778000  1.0  -0.0533
  C  C517  1  0.936600  0.315400  0.707300  1.0  0.2044
  C  C518  1  0.823400  0.402500  0.617200  1.0  -0.1153
  C  C519  1  0.864700  0.381900  0.592200  1.0  0.2351
  C  C520  1  0.881000  0.379000  0.540600  1.0  -0.1256
  C  C521  1  0.782300  0.431700  0.596800  1.0  -0.0374
  C  C522  1  0.843000  0.407800  0.518000  1.0  0.0007
  C  C523  1  0.801000  0.427500  0.547000  1.0  0.1836
  C  C524  1  0.903300  0.352900  0.616000  1.0  0.4041
  C  C525  1  0.803600  0.010000  0.816400  1.0  -0.0597
  C  C526  1  0.727800  0.996800  0.749000  1.0  -0.1279
  C  C527  1  0.739100  0.144000  0.788200  1.0  0.6832
  C  C528  1  0.771300  0.978800  0.779600  1.0  -0.1522
  C  C529  1  0.777300  0.919400  0.778100  1.0  0.367
  C  C530  1  0.753600  0.084500  0.787000  1.0  -0.15
  C  C531  1  0.722000  0.054600  0.752700  1.0  -0.0543
  C  C532  1  0.792700  0.063400  0.815400  1.0  0.2031
  C  C533  1  0.882800  0.176600  0.902500  1.0  -0.1193
  C  C534  1  0.907800  0.135300  0.881900  1.0  0.234
  C  C535  1  0.959400  0.119000  0.879000  1.0  -0.1246
  C  C536  1  0.903200  0.217700  0.931700  1.0  -0.0355
  C  C537  1  0.982000  0.157000  0.907800  1.0  -0.003
  C  C538  1  0.953000  0.199000  0.927500  1.0  0.1862
  C  C539  1  0.884000  0.096700  0.852900  1.0  0.4104
  C  C540  1  0.196400  0.510000  0.683600  1.0  -0.0626
  C  C541  1  0.272200  0.496800  0.751000  1.0  -0.1272
  C  C542  1  0.260900  0.644000  0.711800  1.0  0.6841
  C  C543  1  0.228700  0.478800  0.720400  1.0  -0.1528
  C  C544  1  0.222700  0.419400  0.721900  1.0  0.3661
  C  C545  1  0.246400  0.584500  0.713000  1.0  -0.1488
  C  C546  1  0.278000  0.554600  0.747300  1.0  -0.0526
  C  C547  1  0.207300  0.563400  0.684600  1.0  0.2037
  C  C548  1  0.117200  0.676600  0.597500  1.0  -0.1183
  C  C549  1  0.092200  0.635300  0.618100  1.0  0.2349
  C  C550  1  0.040600  0.619000  0.621000  1.0  -0.1284
  C  C551  1  0.096800  0.717700  0.568300  1.0  -0.0349
  C  C552  1  0.018000  0.657000  0.592200  1.0  -0.001
  C  C553  1  0.047000  0.699000  0.572500  1.0  0.1849
  C  C554  1  0.116000  0.596700  0.647100  1.0  0.4092
  C  C555  1  0.303600  0.490000  0.183600  1.0  -0.0621
  C  C556  1  0.227800  0.503200  0.251000  1.0  -0.1261
  C  C557  1  0.239100  0.356000  0.211800  1.0  0.6831
  C  C558  1  0.271300  0.521200  0.220400  1.0  -0.1519
  C  C559  1  0.277300  0.580600  0.221900  1.0  0.3671
  C  C560  1  0.253600  0.415500  0.213000  1.0  -0.1501
  C  C561  1  0.222000  0.445400  0.247300  1.0  -0.0537
  C  C562  1  0.292700  0.436600  0.184600  1.0  0.2036
  C  C563  1  0.382800  0.323400  0.097500  1.0  -0.1189
  C  C564  1  0.407800  0.364700  0.118100  1.0  0.2342
  C  C565  1  0.459400  0.381000  0.121000  1.0  -0.1232
  C  C566  1  0.403200  0.282300  0.068300  1.0  -0.0361
  C  C567  1  0.482000  0.343000  0.092200  1.0  -0.0027
  C  C568  1  0.453000  0.301000  0.072500  1.0  0.1894
  C  C569  1  0.384000  0.403300  0.147100  1.0  0.4075
  C  C570  1  0.696400  0.990000  0.316400  1.0  -0.0628
  C  C571  1  0.772200  0.003200  0.249000  1.0  -0.127
  C  C572  1  0.760900  0.856000  0.288200  1.0  0.6828
  C  C573  1  0.728700  0.021200  0.279600  1.0  -0.1523
  C  C574  1  0.722700  0.080600  0.278100  1.0  0.366
  C  C575  1  0.746400  0.915500  0.287000  1.0  -0.1485
  C  C576  1  0.778000  0.945400  0.252700  1.0  -0.0535
  C  C577  1  0.707300  0.936600  0.315400  1.0  0.2035
  C  C578  1  0.617200  0.823400  0.402500  1.0  -0.118
  C  C579  1  0.592200  0.864700  0.381900  1.0  0.235
  C  C580  1  0.540600  0.881000  0.379000  1.0  -0.1272
  C  C581  1  0.596800  0.782300  0.431700  1.0  -0.0366
  C  C582  1  0.518000  0.843000  0.407800  1.0  -0.0006
  C  C583  1  0.547000  0.801000  0.427500  1.0  0.1892
  C  C584  1  0.616000  0.903300  0.352900  1.0  0.4091
  N  N585  1  0.158300  0.167900  0.906500  1.0  -0.4153
  N  N586  1  0.341700  0.832100  0.406500  1.0  -0.4164
  N  N587  1  0.841700  0.667900  0.593500  1.0  -0.4156
  N  N588  1  0.658300  0.332100  0.093500  1.0  -0.4152
  N  N589  1  0.906500  0.158300  0.167900  1.0  -0.4164
  N  N590  1  0.406500  0.341700  0.832100  1.0  -0.4169
  N  N591  1  0.593500  0.841700  0.667900  1.0  -0.4163
  N  N592  1  0.093500  0.658300  0.332100  1.0  -0.417
  N  N593  1  0.167900  0.906500  0.158300  1.0  -0.4162
  N  N594  1  0.832100  0.406500  0.341700  1.0  -0.4152
  N  N595  1  0.667900  0.593500  0.841700  1.0  -0.4152
  N  N596  1  0.332100  0.093500  0.658300  1.0  -0.4163
  N  N597  1  0.841700  0.832100  0.093500  1.0  -0.416
  N  N598  1  0.658300  0.167900  0.593500  1.0  -0.4149
  N  N599  1  0.158300  0.332100  0.406500  1.0  -0.4157
  N  N600  1  0.341700  0.667900  0.906500  1.0  -0.4161
  N  N601  1  0.093500  0.841700  0.832100  1.0  -0.417
  N  N602  1  0.593500  0.658300  0.167900  1.0  -0.4162
  N  N603  1  0.406500  0.158300  0.332100  1.0  -0.417
  N  N604  1  0.906500  0.341700  0.667900  1.0  -0.4163
  N  N605  1  0.832100  0.093500  0.841700  1.0  -0.4153
  N  N606  1  0.167900  0.593500  0.658300  1.0  -0.4162
  N  N607  1  0.332100  0.406500  0.158300  1.0  -0.4164
  N  N608  1  0.667900  0.906500  0.341700  1.0  -0.4151
  O  O609  1  0.183100  0.188900  0.098000  1.0  -0.5928
  O  O610  1  0.187800  0.229800  0.827700  1.0  -0.6038
  O  O611  1  0.236800  0.302100  0.844000  1.0  -0.5814
  O  O612  1  0.266200  0.245100  0.103200  1.0  -0.5894
  O  O613  1  0.167600  0.088000  0.943700  1.0  -0.5295
  O  O614  1  0.316900  0.811100  0.598000  1.0  -0.5929
  O  O615  1  0.312200  0.770200  0.327700  1.0  -0.6037
  O  O616  1  0.263200  0.697900  0.344000  1.0  -0.5829
  O  O617  1  0.233800  0.754900  0.603200  1.0  -0.5908
  O  O618  1  0.332400  0.912000  0.443700  1.0  -0.5306
  O  O619  1  0.816900  0.688900  0.402000  1.0  -0.5934
  O  O620  1  0.812200  0.729800  0.672300  1.0  -0.6041
  O  O621  1  0.763200  0.802100  0.656000  1.0  -0.5821
  O  O622  1  0.733800  0.745100  0.396800  1.0  -0.59
  O  O623  1  0.832400  0.588000  0.556300  1.0  -0.5291
  O  O624  1  0.683100  0.311100  0.902000  1.0  -0.5923
  O  O625  1  0.687800  0.270200  0.172300  1.0  -0.6039
  O  O626  1  0.736800  0.197900  0.156000  1.0  -0.5816
  O  O627  1  0.766200  0.254900  0.896800  1.0  -0.5904
  O  O628  1  0.667600  0.412000  0.056300  1.0  -0.5326
  O  O629  1  0.098000  0.183100  0.188900  1.0  -0.5954
  O  O630  1  0.827700  0.187800  0.229800  1.0  -0.6053
  O  O631  1  0.844000  0.236800  0.302100  1.0  -0.5804
  O  O632  1  0.103200  0.266200  0.245100  1.0  -0.5938
  O  O633  1  0.943700  0.167600  0.088000  1.0  -0.5285
  O  O634  1  0.598000  0.316900  0.811100  1.0  -0.5955
  O  O635  1  0.327700  0.312200  0.770200  1.0  -0.6046
  O  O636  1  0.344000  0.263200  0.697900  1.0  -0.5816
  O  O637  1  0.603200  0.233800  0.754900  1.0  -0.5937
  O  O638  1  0.443700  0.332400  0.912000  1.0  -0.5251
  O  O639  1  0.402000  0.816900  0.688900  1.0  -0.5959
  O  O640  1  0.672300  0.812200  0.729800  1.0  -0.6051
  O  O641  1  0.656000  0.763200  0.802100  1.0  -0.5815
  O  O642  1  0.396800  0.733800  0.745100  1.0  -0.5924
  O  O643  1  0.556300  0.832400  0.588000  1.0  -0.5253
  O  O644  1  0.902000  0.683100  0.311100  1.0  -0.596
  O  O645  1  0.172300  0.687800  0.270200  1.0  -0.6045
  O  O646  1  0.156000  0.736800  0.197900  1.0  -0.5813
  O  O647  1  0.896800  0.766200  0.254900  1.0  -0.5921
  O  O648  1  0.056300  0.667600  0.412000  1.0  -0.5245
  O  O649  1  0.188900  0.098000  0.183100  1.0  -0.5943
  O  O650  1  0.229800  0.827700  0.187800  1.0  -0.6064
  O  O651  1  0.302100  0.844000  0.236800  1.0  -0.5835
  O  O652  1  0.245100  0.103200  0.266200  1.0  -0.593
  O  O653  1  0.088000  0.943700  0.167600  1.0  -0.5275
  O  O654  1  0.811100  0.598000  0.316900  1.0  -0.5933
  O  O655  1  0.770200  0.327700  0.312200  1.0  -0.6054
  O  O656  1  0.697900  0.344000  0.263200  1.0  -0.5842
  O  O657  1  0.754900  0.603200  0.233800  1.0  -0.5933
  O  O658  1  0.912000  0.443700  0.332400  1.0  -0.53
  O  O659  1  0.688900  0.402000  0.816900  1.0  -0.5942
  O  O660  1  0.729800  0.672300  0.812200  1.0  -0.6066
  O  O661  1  0.802100  0.656000  0.763200  1.0  -0.5834
  O  O662  1  0.745100  0.396800  0.733800  1.0  -0.5939
  O  O663  1  0.588000  0.556300  0.832400  1.0  -0.5256
  O  O664  1  0.311100  0.902000  0.683100  1.0  -0.5951
  O  O665  1  0.270200  0.172300  0.687800  1.0  -0.6054
  O  O666  1  0.197900  0.156000  0.736800  1.0  -0.5838
  O  O667  1  0.254900  0.896800  0.766200  1.0  -0.5938
  O  O668  1  0.412000  0.056300  0.667600  1.0  -0.5264
  O  O669  1  0.816900  0.811100  0.902000  1.0  -0.5927
  O  O670  1  0.812200  0.770200  0.172300  1.0  -0.6037
  O  O671  1  0.763200  0.697900  0.156000  1.0  -0.5827
  O  O672  1  0.733800  0.754900  0.896800  1.0  -0.5902
  O  O673  1  0.832400  0.912000  0.056300  1.0  -0.5309
  O  O674  1  0.683100  0.188900  0.402000  1.0  -0.5931
  O  O675  1  0.687800  0.229800  0.672300  1.0  -0.6043
  O  O676  1  0.736800  0.302100  0.656000  1.0  -0.5813
  O  O677  1  0.766200  0.245100  0.396800  1.0  -0.5889
  O  O678  1  0.667600  0.088000  0.556300  1.0  -0.5308
  O  O679  1  0.183100  0.311100  0.598000  1.0  -0.5922
  O  O680  1  0.187800  0.270200  0.327700  1.0  -0.6038
  O  O681  1  0.236800  0.197900  0.344000  1.0  -0.5819
  O  O682  1  0.266200  0.254900  0.603200  1.0  -0.59
  O  O683  1  0.167600  0.412000  0.443700  1.0  -0.5297
  O  O684  1  0.316900  0.688900  0.098000  1.0  -0.5936
  O  O685  1  0.312200  0.729800  0.827700  1.0  -0.6039
  O  O686  1  0.263200  0.802100  0.844000  1.0  -0.5822
  O  O687  1  0.233800  0.745100  0.103200  1.0  -0.5892
  O  O688  1  0.332400  0.588000  0.943700  1.0  -0.5299
  O  O689  1  0.902000  0.816900  0.811100  1.0  -0.5952
  O  O690  1  0.172300  0.812200  0.770200  1.0  -0.6045
  O  O691  1  0.156000  0.763200  0.697900  1.0  -0.5818
  O  O692  1  0.896800  0.733800  0.754900  1.0  -0.5921
  O  O693  1  0.056300  0.832400  0.912000  1.0  -0.5244
  O  O694  1  0.402000  0.683100  0.188900  1.0  -0.5958
  O  O695  1  0.672300  0.687800  0.229800  1.0  -0.6051
  O  O696  1  0.656000  0.736800  0.302100  1.0  -0.5805
  O  O697  1  0.396800  0.766200  0.245100  1.0  -0.5922
  O  O698  1  0.556300  0.667600  0.088000  1.0  -0.5252
  O  O699  1  0.598000  0.183100  0.311100  1.0  -0.5956
  O  O700  1  0.327700  0.187800  0.270200  1.0  -0.6045
  O  O701  1  0.344000  0.236800  0.197900  1.0  -0.5813
  O  O702  1  0.603200  0.266200  0.254900  1.0  -0.5931
  O  O703  1  0.443700  0.167600  0.412000  1.0  -0.5267
  O  O704  1  0.098000  0.316900  0.688900  1.0  -0.5959
  O  O705  1  0.827700  0.312200  0.729800  1.0  -0.6055
  O  O706  1  0.844000  0.263200  0.802100  1.0  -0.5813
  O  O707  1  0.103200  0.233800  0.745100  1.0  -0.593
  O  O708  1  0.943700  0.332400  0.588000  1.0  -0.5263
  O  O709  1  0.811100  0.902000  0.816900  1.0  -0.5935
  O  O710  1  0.770200  0.172300  0.812200  1.0  -0.6057
  O  O711  1  0.697900  0.156000  0.763200  1.0  -0.5836
  O  O712  1  0.754900  0.896800  0.733800  1.0  -0.5933
  O  O713  1  0.912000  0.056300  0.832400  1.0  -0.5271
  O  O714  1  0.188900  0.402000  0.683100  1.0  -0.5942
  O  O715  1  0.229800  0.672300  0.687800  1.0  -0.6063
  O  O716  1  0.302100  0.656000  0.736800  1.0  -0.5833
  O  O717  1  0.245100  0.396800  0.766200  1.0  -0.593
  O  O718  1  0.088000  0.556300  0.667600  1.0  -0.5261
  O  O719  1  0.311100  0.598000  0.183100  1.0  -0.5946
  O  O720  1  0.270200  0.327700  0.187800  1.0  -0.6054
  O  O721  1  0.197900  0.344000  0.236800  1.0  -0.5841
  O  O722  1  0.254900  0.603200  0.266200  1.0  -0.5928
  O  O723  1  0.412000  0.443700  0.167600  1.0  -0.5268
  O  O724  1  0.688900  0.098000  0.316900  1.0  -0.5941
  O  O725  1  0.729800  0.827700  0.312200  1.0  -0.6065
  O  O726  1  0.802100  0.844000  0.263200  1.0  -0.5837
  O  O727  1  0.745100  0.103200  0.233800  1.0  -0.5931
  O  O728  1  0.588000  0.943700  0.332400  1.0  -0.5292
  O  O729  1  0.218000  0.218000  0.218000  1.0  -1.2366
  O  O730  1  0.282000  0.782000  0.718000  1.0  -1.2366
  O  O731  1  0.782000  0.718000  0.282000  1.0  -1.2367
  O  O732  1  0.718000  0.282000  0.782000  1.0  -1.2359
  O  O733  1  0.782000  0.782000  0.782000  1.0  -1.2363
  O  O734  1  0.718000  0.218000  0.282000  1.0  -1.2363
  O  O735  1  0.218000  0.282000  0.718000  1.0  -1.2362
  O  O736  1  0.282000  0.718000  0.218000  1.0  -1.2368
