# generated using pymatgen
data_Na2Mn3H28C16O13
_symmetry_space_group_name_H-M   'P 1'
_cell_length_a   24.42520000
_cell_length_b   19.04250000
_cell_length_c   26.71530000
_cell_angle_alpha   90.00000000
_cell_angle_beta   90.00000000
_cell_angle_gamma   90.00000000
_symmetry_Int_Tables_number   1
_chemical_formula_structural   Na2Mn3H28C16O13
_chemical_formula_sum   'Na32 Mn48 H448 C256 O208'
_cell_volume   12425.73674383
_cell_formula_units_Z   16
loop_
 _symmetry_equiv_pos_site_id
 _symmetry_equiv_pos_as_xyz
  1  'x, y, z'
loop_
 _atom_site_type_symbol
 _atom_site_label
 _atom_site_symmetry_multiplicity
 _atom_site_fract_x
 _atom_site_fract_y
 _atom_site_fract_z
 _atom_site_occupancy
 _atom_site_charge
  Na  Na1  1  0.939100  0.815330  0.774560  1.0  1.0324
  Na  Na2  1  0.968090  0.923240  0.011920  1.0  0.9155
  Na  Na3  1  0.725000  0.981930  0.889830  1.0  0.9626
  Na  Na4  1  0.810520  0.646050  0.956650  1.0  0.9649
  Na  Na5  1  0.560900  0.684670  0.274560  1.0  1.0295
  Na  Na6  1  0.531910  0.576760  0.511920  1.0  0.9151
  Na  Na7  1  0.775000  0.518070  0.389830  1.0  0.9625
  Na  Na8  1  0.689480  0.853950  0.456650  1.0  0.9639
  Na  Na9  1  0.060900  0.815330  0.725440  1.0  1.0311
  Na  Na10  1  0.031910  0.923240  0.488080  1.0  0.915
  Na  Na11  1  0.275000  0.981930  0.610170  1.0  0.9625
  Na  Na12  1  0.189480  0.646050  0.543350  1.0  0.967
  Na  Na13  1  0.439100  0.684670  0.225440  1.0  1.0365
  Na  Na14  1  0.468090  0.576760  0.988080  1.0  0.9162
  Na  Na15  1  0.225000  0.518070  0.110170  1.0  0.9633
  Na  Na16  1  0.310520  0.853950  0.043350  1.0  0.9635
  Na  Na17  1  0.060900  0.184670  0.225440  1.0  1.0321
  Na  Na18  1  0.031910  0.076760  0.988080  1.0  0.9161
  Na  Na19  1  0.275000  0.018070  0.110170  1.0  0.9626
  Na  Na20  1  0.189480  0.353950  0.043350  1.0  0.9643
  Na  Na21  1  0.439100  0.315330  0.725440  1.0  1.0351
  Na  Na22  1  0.468090  0.423240  0.488080  1.0  0.9162
  Na  Na23  1  0.225000  0.481930  0.610170  1.0  0.9628
  Na  Na24  1  0.310520  0.146050  0.543350  1.0  0.9659
  Na  Na25  1  0.939100  0.184670  0.274560  1.0  1.0331
  Na  Na26  1  0.968090  0.076760  0.511920  1.0  0.9163
  Na  Na27  1  0.725000  0.018070  0.389830  1.0  0.9634
  Na  Na28  1  0.810520  0.353950  0.456650  1.0  0.9653
  Na  Na29  1  0.560900  0.315330  0.774560  1.0  1.0293
  Na  Na30  1  0.531910  0.423240  0.011920  1.0  0.9153
  Na  Na31  1  0.775000  0.481930  0.889830  1.0  0.9622
  Na  Na32  1  0.689480  0.146050  0.956650  1.0  0.964
  Mn  Mn33  1  0.869110  0.739500  0.870220  1.0  0.6788
  Mn  Mn34  1  0.772050  0.819870  0.924490  1.0  0.7065
  Mn  Mn35  1  0.848520  0.950660  0.946100  1.0  0.6364
  Mn  Mn36  1  0.832230  0.891140  0.839000  1.0  0.724
  Mn  Mn37  1  0.945780  0.871060  0.890320  1.0  0.693
  Mn  Mn38  1  0.885830  0.796400  0.982590  1.0  0.8796
  Mn  Mn39  1  0.630890  0.760500  0.370220  1.0  0.6795
  Mn  Mn40  1  0.727950  0.680130  0.424490  1.0  0.704
  Mn  Mn41  1  0.651480  0.549340  0.446100  1.0  0.6349
  Mn  Mn42  1  0.667770  0.608860  0.339000  1.0  0.7225
  Mn  Mn43  1  0.554220  0.628940  0.390320  1.0  0.6938
  Mn  Mn44  1  0.614170  0.703600  0.482590  1.0  0.8789
  Mn  Mn45  1  0.130890  0.739500  0.629780  1.0  0.6808
  Mn  Mn46  1  0.227950  0.819870  0.575510  1.0  0.7047
  Mn  Mn47  1  0.151480  0.950660  0.553900  1.0  0.6359
  Mn  Mn48  1  0.167770  0.891140  0.661000  1.0  0.7241
  Mn  Mn49  1  0.054220  0.871060  0.609680  1.0  0.695
  Mn  Mn50  1  0.114170  0.796400  0.517410  1.0  0.8815
  Mn  Mn51  1  0.369110  0.760500  0.129780  1.0  0.6795
  Mn  Mn52  1  0.272050  0.680130  0.075510  1.0  0.706
  Mn  Mn53  1  0.348520  0.549340  0.053900  1.0  0.6348
  Mn  Mn54  1  0.332230  0.608860  0.161000  1.0  0.7238
  Mn  Mn55  1  0.445780  0.628940  0.109680  1.0  0.6931
  Mn  Mn56  1  0.385830  0.703600  0.017410  1.0  0.8788
  Mn  Mn57  1  0.130890  0.260500  0.129780  1.0  0.6803
  Mn  Mn58  1  0.227950  0.180130  0.075510  1.0  0.7042
  Mn  Mn59  1  0.151480  0.049340  0.053900  1.0  0.6346
  Mn  Mn60  1  0.167770  0.108860  0.161000  1.0  0.7231
  Mn  Mn61  1  0.054220  0.128940  0.109680  1.0  0.6947
  Mn  Mn62  1  0.114170  0.203600  0.017410  1.0  0.88
  Mn  Mn63  1  0.369110  0.239500  0.629780  1.0  0.6796
  Mn  Mn64  1  0.272050  0.319870  0.575510  1.0  0.7067
  Mn  Mn65  1  0.348520  0.450660  0.553900  1.0  0.6359
  Mn  Mn66  1  0.332230  0.391140  0.661000  1.0  0.7248
  Mn  Mn67  1  0.445780  0.371060  0.609680  1.0  0.6935
  Mn  Mn68  1  0.385830  0.296400  0.517410  1.0  0.8802
  Mn  Mn69  1  0.869110  0.260500  0.370220  1.0  0.6788
  Mn  Mn70  1  0.772050  0.180130  0.424490  1.0  0.7058
  Mn  Mn71  1  0.848520  0.049340  0.446100  1.0  0.6353
  Mn  Mn72  1  0.832230  0.108860  0.339000  1.0  0.7229
  Mn  Mn73  1  0.945780  0.128940  0.390320  1.0  0.6925
  Mn  Mn74  1  0.885830  0.203600  0.482590  1.0  0.8777
  Mn  Mn75  1  0.630890  0.239500  0.870220  1.0  0.6799
  Mn  Mn76  1  0.727950  0.319870  0.924490  1.0  0.7045
  Mn  Mn77  1  0.651480  0.450660  0.946100  1.0  0.6362
  Mn  Mn78  1  0.667770  0.391140  0.839000  1.0  0.7236
  Mn  Mn79  1  0.554220  0.371060  0.890320  1.0  0.6942
  Mn  Mn80  1  0.614170  0.296400  0.982590  1.0  0.8806
  H  H81  1  0.938800  0.625700  0.923200  1.0  0.1171
  H  H82  1  0.945100  0.657800  0.978200  1.0  0.1214
  H  H83  1  0.023500  0.751800  0.860200  1.0  0.1151
  H  H84  1  0.985200  0.685100  0.850800  1.0  0.1239
  H  H85  1  0.008000  0.761300  0.992100  1.0  0.1146
  H  H86  1  0.037800  0.797200  0.945400  1.0  0.122
  H  H87  1  0.074900  0.683000  0.920100  1.0  0.1382
  H  H88  1  0.035100  0.617000  0.913300  1.0  0.1418
  H  H89  1  0.045800  0.648900  0.967900  1.0  0.1395
  H  H90  1  0.908000  0.993300  0.782900  1.0  0.1289
  H  H91  1  0.966800  0.982300  0.807800  1.0  0.131
  H  H92  1  0.846600  0.085500  0.884500  1.0  0.11
  H  H93  1  0.835300  0.057000  0.829200  1.0  0.1153
  H  H94  1  0.983100  0.022200  0.895900  1.0  0.1133
  H  H95  1  0.936400  0.064400  0.925000  1.0  0.1079
  H  H96  1  0.917200  0.118100  0.799900  1.0  0.1358
  H  H97  1  0.975000  0.104900  0.826600  1.0  0.1299
  H  H98  1  0.927600  0.146100  0.855600  1.0  0.1334
  H  H99  1  0.717300  0.697700  0.868600  1.0  0.121
  H  H100  1  0.765700  0.655600  0.841700  1.0  0.1194
  H  H101  1  0.722700  0.850400  0.791300  1.0  0.1189
  H  H102  1  0.688400  0.814700  0.835500  1.0  0.1214
  H  H103  1  0.815400  0.710500  0.768600  1.0  0.1258
  H  H104  1  0.798200  0.787300  0.750400  1.0  0.1272
  H  H105  1  0.672300  0.713200  0.786800  1.0  0.1327
  H  H106  1  0.721300  0.668400  0.763000  1.0  0.1362
  H  H107  1  0.706500  0.744000  0.740600  1.0  0.1398
  H  H108  1  0.710300  0.908900  0.003200  1.0  0.115
  H  H109  1  0.748900  0.974900  0.014200  1.0  0.1146
  H  H110  1  0.837400  0.958500  0.059200  1.0  0.1287
  H  H111  1  0.855600  0.881800  0.076800  1.0  0.1334
  H  H112  1  0.793900  0.778200  0.060600  1.0  0.1296
  H  H113  1  0.736300  0.789600  0.033600  1.0  0.1169
  H  H114  1  0.755200  0.943500  0.104800  1.0  0.139
  H  H115  1  0.766300  0.863300  0.119500  1.0  0.1436
  H  H116  1  0.711200  0.884500  0.090900  1.0  0.14
  H  H117  1  0.788900  0.158800  0.040200  1.0  0.1445
  H  H118  1  0.819200  0.196900  0.994500  1.0  0.1492
  H  H119  1  0.853800  0.150900  0.033400  1.0  0.1471
  H  H120  1  0.131600  0.889300  0.808800  1.0  0.1596
  H  H121  1  0.129300  0.900000  0.868100  1.0  0.1567
  H  H122  1  0.113000  0.963200  0.831600  1.0  0.1657
  H  H123  1  0.886300  0.478800  0.841100  1.0  0.1664
  H  H124  1  0.930400  0.529600  0.815500  1.0  0.165
  H  H125  1  0.872000  0.517900  0.789700  1.0  0.1745
  H  H126  1  0.743800  0.051000  0.721200  1.0  0.138
  H  H127  1  0.755800  0.976000  0.696300  1.0  0.1595
  H  H128  1  0.805500  0.027000  0.710500  1.0  0.1409
  H  H129  1  0.944300  0.772600  0.157000  1.0  0.179
  H  H130  1  0.993200  0.731400  0.130000  1.0  0.1681
  H  H131  1  0.933000  0.698200  0.131100  1.0  0.1753
  H  H132  1  0.567700  0.834900  0.927100  1.0  0.1657
  H  H133  1  0.594400  0.769600  0.955800  1.0  0.1514
  H  H134  1  0.594200  0.771800  0.895900  1.0  0.1513
  H  H135  1  0.951300  0.060800  0.058300  1.0  0.4336
  H  H136  1  0.918500  0.052900  0.018200  1.0  0.4091
  H  H137  1  0.561200  0.874300  0.423200  1.0  0.1176
  H  H138  1  0.554900  0.842200  0.478200  1.0  0.1213
  H  H139  1  0.476500  0.748200  0.360200  1.0  0.1148
  H  H140  1  0.514800  0.814900  0.350800  1.0  0.1234
  H  H141  1  0.492000  0.738700  0.492100  1.0  0.1148
  H  H142  1  0.462200  0.702800  0.445400  1.0  0.1228
  H  H143  1  0.425100  0.817000  0.420100  1.0  0.1365
  H  H144  1  0.464900  0.883000  0.413300  1.0  0.1447
  H  H145  1  0.454200  0.851100  0.467900  1.0  0.1382
  H  H146  1  0.592000  0.506700  0.282900  1.0  0.1293
  H  H147  1  0.533200  0.517700  0.307800  1.0  0.1299
  H  H148  1  0.653400  0.414500  0.384500  1.0  0.111
  H  H149  1  0.664700  0.443000  0.329200  1.0  0.1161
  H  H150  1  0.516900  0.477800  0.395900  1.0  0.1128
  H  H151  1  0.563600  0.435600  0.425000  1.0  0.1093
  H  H152  1  0.582800  0.381900  0.299900  1.0  0.1355
  H  H153  1  0.525000  0.395100  0.326600  1.0  0.1295
  H  H154  1  0.572400  0.353900  0.355600  1.0  0.1352
  H  H155  1  0.782700  0.802300  0.368600  1.0  0.1205
  H  H156  1  0.734300  0.844400  0.341700  1.0  0.1186
  H  H157  1  0.777300  0.649600  0.291300  1.0  0.1184
  H  H158  1  0.811600  0.685300  0.335500  1.0  0.1211
  H  H159  1  0.684600  0.789500  0.268600  1.0  0.1268
  H  H160  1  0.701800  0.712700  0.250400  1.0  0.1283
  H  H161  1  0.827700  0.786800  0.286800  1.0  0.1342
  H  H162  1  0.778700  0.831600  0.263000  1.0  0.1361
  H  H163  1  0.793500  0.756000  0.240600  1.0  0.1405
  H  H164  1  0.789700  0.591100  0.503200  1.0  0.1127
  H  H165  1  0.751100  0.525100  0.514200  1.0  0.1146
  H  H166  1  0.662600  0.541500  0.559200  1.0  0.129
  H  H167  1  0.644400  0.618200  0.576800  1.0  0.1333
  H  H168  1  0.706100  0.721800  0.560600  1.0  0.129
  H  H169  1  0.763700  0.710400  0.533600  1.0  0.1169
  H  H170  1  0.744800  0.556500  0.604800  1.0  0.1398
  H  H171  1  0.733700  0.636700  0.619500  1.0  0.1433
  H  H172  1  0.788800  0.615500  0.590900  1.0  0.1382
  H  H173  1  0.711100  0.341200  0.540200  1.0  0.1443
  H  H174  1  0.680800  0.303100  0.494500  1.0  0.149
  H  H175  1  0.646200  0.349100  0.533400  1.0  0.1452
  H  H176  1  0.368400  0.610700  0.308800  1.0  0.1599
  H  H177  1  0.370700  0.600000  0.368100  1.0  0.1573
  H  H178  1  0.387000  0.536800  0.331600  1.0  0.165
  H  H179  1  0.613700  0.021200  0.341100  1.0  0.167
  H  H180  1  0.569600  0.970400  0.315500  1.0  0.1634
  H  H181  1  0.628000  0.982100  0.289700  1.0  0.1716
  H  H182  1  0.756200  0.449000  0.221200  1.0  0.1385
  H  H183  1  0.744200  0.524000  0.196300  1.0  0.1604
  H  H184  1  0.694500  0.473000  0.210500  1.0  0.14
  H  H185  1  0.555700  0.727400  0.657000  1.0  0.1785
  H  H186  1  0.506800  0.768600  0.630000  1.0  0.1686
  H  H187  1  0.567000  0.801800  0.631100  1.0  0.1779
  H  H188  1  0.932300  0.665100  0.427100  1.0  0.1661
  H  H189  1  0.905600  0.730400  0.455800  1.0  0.1517
  H  H190  1  0.905800  0.728200  0.395900  1.0  0.151
  H  H191  1  0.548700  0.439200  0.558300  1.0  0.4331
  H  H192  1  0.581500  0.447100  0.518200  1.0  0.4085
  H  H193  1  0.061200  0.625700  0.576800  1.0  0.1178
  H  H194  1  0.054900  0.657800  0.521800  1.0  0.1227
  H  H195  1  0.976500  0.751800  0.639800  1.0  0.1148
  H  H196  1  0.014800  0.685100  0.649200  1.0  0.1247
  H  H197  1  0.992000  0.761300  0.507900  1.0  0.1151
  H  H198  1  0.962200  0.797200  0.554600  1.0  0.1226
  H  H199  1  0.925100  0.683000  0.579900  1.0  0.1385
  H  H200  1  0.964900  0.617000  0.586700  1.0  0.1415
  H  H201  1  0.954200  0.648900  0.532100  1.0  0.1383
  H  H202  1  0.092000  0.993300  0.717100  1.0  0.128
  H  H203  1  0.033200  0.982300  0.692200  1.0  0.1296
  H  H204  1  0.153400  0.085500  0.615500  1.0  0.1106
  H  H205  1  0.164700  0.057000  0.670800  1.0  0.1143
  H  H206  1  0.016900  0.022200  0.604100  1.0  0.1128
  H  H207  1  0.063600  0.064400  0.575000  1.0  0.1087
  H  H208  1  0.082800  0.118100  0.700100  1.0  0.1368
  H  H209  1  0.025000  0.104900  0.673400  1.0  0.1316
  H  H210  1  0.072400  0.146100  0.644400  1.0  0.134
  H  H211  1  0.282700  0.697700  0.631400  1.0  0.1219
  H  H212  1  0.234300  0.655600  0.658300  1.0  0.1199
  H  H213  1  0.277300  0.850400  0.708700  1.0  0.1204
  H  H214  1  0.311600  0.814700  0.664500  1.0  0.1209
  H  H215  1  0.184600  0.710500  0.731400  1.0  0.127
  H  H216  1  0.201800  0.787300  0.749600  1.0  0.1268
  H  H217  1  0.327700  0.713200  0.713200  1.0  0.1325
  H  H218  1  0.278700  0.668400  0.737000  1.0  0.137
  H  H219  1  0.293500  0.744000  0.759400  1.0  0.14
  H  H220  1  0.289700  0.908900  0.496800  1.0  0.113
  H  H221  1  0.251100  0.974900  0.485800  1.0  0.1151
  H  H222  1  0.162600  0.958500  0.440800  1.0  0.1301
  H  H223  1  0.144400  0.881800  0.423200  1.0  0.1326
  H  H224  1  0.206100  0.778200  0.439400  1.0  0.1291
  H  H225  1  0.263700  0.789600  0.466400  1.0  0.1176
  H  H226  1  0.244800  0.943500  0.395200  1.0  0.1393
  H  H227  1  0.233700  0.863300  0.380500  1.0  0.1421
  H  H228  1  0.288800  0.884500  0.409100  1.0  0.1392
  H  H229  1  0.211100  0.158800  0.459800  1.0  0.1442
  H  H230  1  0.180800  0.196900  0.505500  1.0  0.1493
  H  H231  1  0.146200  0.150900  0.466600  1.0  0.1459
  H  H232  1  0.868400  0.889300  0.691200  1.0  0.1604
  H  H233  1  0.870700  0.900000  0.631900  1.0  0.1574
  H  H234  1  0.887000  0.963200  0.668400  1.0  0.1657
  H  H235  1  0.113700  0.478800  0.658900  1.0  0.1683
  H  H236  1  0.069600  0.529600  0.684500  1.0  0.1658
  H  H237  1  0.128000  0.517900  0.710300  1.0  0.1734
  H  H238  1  0.256200  0.051000  0.778800  1.0  0.137
  H  H239  1  0.244200  0.976000  0.803700  1.0  0.1605
  H  H240  1  0.194500  0.027000  0.789500  1.0  0.1409
  H  H241  1  0.055700  0.772600  0.343000  1.0  0.1774
  H  H242  1  0.006800  0.731400  0.370000  1.0  0.168
  H  H243  1  0.067000  0.698200  0.368900  1.0  0.1753
  H  H244  1  0.432300  0.834900  0.572900  1.0  0.1656
  H  H245  1  0.405600  0.769600  0.544200  1.0  0.1519
  H  H246  1  0.405800  0.771800  0.604100  1.0  0.1499
  H  H247  1  0.048700  0.060800  0.441700  1.0  0.4323
  H  H248  1  0.081500  0.052900  0.481800  1.0  0.4087
  H  H249  1  0.438800  0.874300  0.076800  1.0  0.117
  H  H250  1  0.445100  0.842200  0.021800  1.0  0.1244
  H  H251  1  0.523500  0.748200  0.139800  1.0  0.1142
  H  H252  1  0.485200  0.814900  0.149200  1.0  0.1221
  H  H253  1  0.508000  0.738700  0.007900  1.0  0.1161
  H  H254  1  0.537800  0.702800  0.054600  1.0  0.1218
  H  H255  1  0.574900  0.817000  0.079900  1.0  0.1374
  H  H256  1  0.535100  0.883000  0.086700  1.0  0.143
  H  H257  1  0.545800  0.851100  0.032100  1.0  0.1387
  H  H258  1  0.408000  0.506700  0.217100  1.0  0.129
  H  H259  1  0.466800  0.517700  0.192200  1.0  0.1305
  H  H260  1  0.346600  0.414500  0.115500  1.0  0.1101
  H  H261  1  0.335300  0.443000  0.170800  1.0  0.1154
  H  H262  1  0.483100  0.477800  0.104100  1.0  0.1131
  H  H263  1  0.436400  0.435600  0.075000  1.0  0.1082
  H  H264  1  0.417200  0.381900  0.200100  1.0  0.1362
  H  H265  1  0.475000  0.395100  0.173400  1.0  0.1296
  H  H266  1  0.427600  0.353900  0.144400  1.0  0.134
  H  H267  1  0.217300  0.802300  0.131400  1.0  0.1215
  H  H268  1  0.265700  0.844400  0.158300  1.0  0.1189
  H  H269  1  0.222700  0.649600  0.208700  1.0  0.1203
  H  H270  1  0.188400  0.685300  0.164500  1.0  0.1221
  H  H271  1  0.315400  0.789500  0.231400  1.0  0.1257
  H  H272  1  0.298200  0.712700  0.249600  1.0  0.1276
  H  H273  1  0.172300  0.786800  0.213200  1.0  0.1336
  H  H274  1  0.221300  0.831600  0.237000  1.0  0.1359
  H  H275  1  0.206500  0.756000  0.259400  1.0  0.1412
  H  H276  1  0.210300  0.591100  0.996800  1.0  0.1145
  H  H277  1  0.248900  0.525100  0.985800  1.0  0.1127
  H  H278  1  0.337400  0.541500  0.940800  1.0  0.129
  H  H279  1  0.355600  0.618200  0.923200  1.0  0.1332
  H  H280  1  0.293900  0.721800  0.939400  1.0  0.1293
  H  H281  1  0.236300  0.710400  0.966400  1.0  0.117
  H  H282  1  0.255200  0.556500  0.895200  1.0  0.1374
  H  H283  1  0.266300  0.636700  0.880500  1.0  0.1421
  H  H284  1  0.211200  0.615500  0.909100  1.0  0.1392
  H  H285  1  0.288900  0.341200  0.959800  1.0  0.1442
  H  H286  1  0.319200  0.303100  0.005500  1.0  0.1493
  H  H287  1  0.353800  0.349100  0.966600  1.0  0.1459
  H  H288  1  0.631600  0.610700  0.191200  1.0  0.1608
  H  H289  1  0.629300  0.600000  0.131900  1.0  0.157
  H  H290  1  0.613000  0.536800  0.168400  1.0  0.1658
  H  H291  1  0.386300  0.021200  0.158900  1.0  0.1686
  H  H292  1  0.430400  0.970400  0.184500  1.0  0.1647
  H  H293  1  0.372000  0.982100  0.210300  1.0  0.173
  H  H294  1  0.243800  0.449000  0.278800  1.0  0.1374
  H  H295  1  0.255800  0.524000  0.303700  1.0  0.1609
  H  H296  1  0.305500  0.473000  0.289500  1.0  0.1405
  H  H297  1  0.444300  0.727400  0.843000  1.0  0.1766
  H  H298  1  0.493200  0.768600  0.870000  1.0  0.1685
  H  H299  1  0.433000  0.801800  0.868900  1.0  0.1768
  H  H300  1  0.067700  0.665100  0.072900  1.0  0.1664
  H  H301  1  0.094400  0.730400  0.044200  1.0  0.1509
  H  H302  1  0.094200  0.728200  0.104100  1.0  0.1494
  H  H303  1  0.451300  0.439200  0.941700  1.0  0.4328
  H  H304  1  0.418500  0.447100  0.981800  1.0  0.4085
  H  H305  1  0.061200  0.374300  0.076800  1.0  0.1174
  H  H306  1  0.054900  0.342200  0.021800  1.0  0.1246
  H  H307  1  0.976500  0.248200  0.139800  1.0  0.1153
  H  H308  1  0.014800  0.314900  0.149200  1.0  0.1229
  H  H309  1  0.992000  0.238700  0.007900  1.0  0.1159
  H  H310  1  0.962200  0.202800  0.054600  1.0  0.1225
  H  H311  1  0.925100  0.317000  0.079900  1.0  0.1382
  H  H312  1  0.964900  0.383000  0.086700  1.0  0.1435
  H  H313  1  0.954200  0.351100  0.032100  1.0  0.1379
  H  H314  1  0.092000  0.006700  0.217100  1.0  0.1286
  H  H315  1  0.033200  0.017700  0.192200  1.0  0.1301
  H  H316  1  0.153400  0.914500  0.115500  1.0  0.11
  H  H317  1  0.164700  0.943000  0.170800  1.0  0.1149
  H  H318  1  0.016900  0.977800  0.104100  1.0  0.1128
  H  H319  1  0.063600  0.935600  0.075000  1.0  0.1084
  H  H320  1  0.082800  0.881900  0.200100  1.0  0.1375
  H  H321  1  0.025000  0.895100  0.173400  1.0  0.1316
  H  H322  1  0.072400  0.853900  0.144400  1.0  0.1339
  H  H323  1  0.282700  0.302300  0.131400  1.0  0.1214
  H  H324  1  0.234300  0.344400  0.158300  1.0  0.1191
  H  H325  1  0.277300  0.149600  0.208700  1.0  0.1198
  H  H326  1  0.311600  0.185300  0.164500  1.0  0.1208
  H  H327  1  0.184600  0.289500  0.231400  1.0  0.1267
  H  H328  1  0.201800  0.212700  0.249600  1.0  0.1276
  H  H329  1  0.327700  0.286800  0.213200  1.0  0.1329
  H  H330  1  0.278700  0.331600  0.237000  1.0  0.1359
  H  H331  1  0.293500  0.256000  0.259400  1.0  0.1401
  H  H332  1  0.289700  0.091100  0.996800  1.0  0.1126
  H  H333  1  0.251100  0.025100  0.985800  1.0  0.114
  H  H334  1  0.162600  0.041500  0.940800  1.0  0.1287
  H  H335  1  0.144400  0.118200  0.923200  1.0  0.1333
  H  H336  1  0.206100  0.221800  0.939400  1.0  0.1297
  H  H337  1  0.263700  0.210400  0.966400  1.0  0.118
  H  H338  1  0.244800  0.056500  0.895200  1.0  0.1386
  H  H339  1  0.233700  0.136700  0.880500  1.0  0.1424
  H  H340  1  0.288800  0.115500  0.909100  1.0  0.1395
  H  H341  1  0.211100  0.841200  0.959800  1.0  0.1445
  H  H342  1  0.180800  0.803100  0.005500  1.0  0.1497
  H  H343  1  0.146200  0.849100  0.966600  1.0  0.1455
  H  H344  1  0.868400  0.110700  0.191200  1.0  0.1601
  H  H345  1  0.870700  0.100000  0.131900  1.0  0.1571
  H  H346  1  0.887000  0.036800  0.168400  1.0  0.1651
  H  H347  1  0.113700  0.521200  0.158900  1.0  0.1698
  H  H348  1  0.069600  0.470400  0.184500  1.0  0.1656
  H  H349  1  0.128000  0.482100  0.210300  1.0  0.1727
  H  H350  1  0.256200  0.949000  0.278800  1.0  0.1372
  H  H351  1  0.244200  0.024000  0.303700  1.0  0.1601
  H  H352  1  0.194500  0.973000  0.289500  1.0  0.1404
  H  H353  1  0.055700  0.227400  0.843000  1.0  0.1769
  H  H354  1  0.006800  0.268600  0.870000  1.0  0.1687
  H  H355  1  0.067000  0.301800  0.868900  1.0  0.1778
  H  H356  1  0.432300  0.165100  0.072900  1.0  0.166
  H  H357  1  0.405600  0.230400  0.044200  1.0  0.1511
  H  H358  1  0.405800  0.228200  0.104100  1.0  0.1494
  H  H359  1  0.048700  0.939200  0.941700  1.0  0.4319
  H  H360  1  0.081500  0.947100  0.981800  1.0  0.4088
  H  H361  1  0.438800  0.125700  0.576800  1.0  0.1175
  H  H362  1  0.445100  0.157800  0.521800  1.0  0.1228
  H  H363  1  0.523500  0.251800  0.639800  1.0  0.1144
  H  H364  1  0.485200  0.185100  0.649200  1.0  0.1235
  H  H365  1  0.508000  0.261300  0.507900  1.0  0.115
  H  H366  1  0.537800  0.297200  0.554600  1.0  0.122
  H  H367  1  0.574900  0.183000  0.579900  1.0  0.1378
  H  H368  1  0.535100  0.117000  0.586700  1.0  0.1428
  H  H369  1  0.545800  0.148900  0.532100  1.0  0.1384
  H  H370  1  0.408000  0.493300  0.717100  1.0  0.1285
  H  H371  1  0.466800  0.482300  0.692200  1.0  0.1302
  H  H372  1  0.346600  0.585500  0.615500  1.0  0.1105
  H  H373  1  0.335300  0.557000  0.670800  1.0  0.115
  H  H374  1  0.483100  0.522200  0.604100  1.0  0.1134
  H  H375  1  0.436400  0.564400  0.575000  1.0  0.1088
  H  H376  1  0.417200  0.618100  0.700100  1.0  0.1359
  H  H377  1  0.475000  0.604900  0.673400  1.0  0.1296
  H  H378  1  0.427600  0.646100  0.644400  1.0  0.1337
  H  H379  1  0.217300  0.197700  0.631400  1.0  0.1216
  H  H380  1  0.265700  0.155600  0.658300  1.0  0.1197
  H  H381  1  0.222700  0.350400  0.708700  1.0  0.1203
  H  H382  1  0.188400  0.314700  0.664500  1.0  0.1222
  H  H383  1  0.315400  0.210500  0.731400  1.0  0.1261
  H  H384  1  0.298200  0.287300  0.749600  1.0  0.127
  H  H385  1  0.172300  0.213200  0.713200  1.0  0.1338
  H  H386  1  0.221300  0.168400  0.737000  1.0  0.1371
  H  H387  1  0.206500  0.244000  0.759400  1.0  0.1411
  H  H388  1  0.210300  0.408900  0.496800  1.0  0.1152
  H  H389  1  0.248900  0.474900  0.485800  1.0  0.1147
  H  H390  1  0.337400  0.458500  0.440800  1.0  0.1303
  H  H391  1  0.355600  0.381800  0.423200  1.0  0.1328
  H  H392  1  0.293900  0.278200  0.439400  1.0  0.1287
  H  H393  1  0.236300  0.289600  0.466400  1.0  0.1166
  H  H394  1  0.255200  0.443500  0.395200  1.0  0.1392
  H  H395  1  0.266300  0.363300  0.380500  1.0  0.142
  H  H396  1  0.211200  0.384500  0.409100  1.0  0.1394
  H  H397  1  0.288900  0.658800  0.459800  1.0  0.1439
  H  H398  1  0.319200  0.696900  0.505500  1.0  0.1489
  H  H399  1  0.353800  0.650900  0.466600  1.0  0.1462
  H  H400  1  0.631600  0.389300  0.691200  1.0  0.1609
  H  H401  1  0.629300  0.400000  0.631900  1.0  0.1563
  H  H402  1  0.613000  0.463200  0.668400  1.0  0.1655
  H  H403  1  0.386300  0.978800  0.658900  1.0  0.1693
  H  H404  1  0.430400  0.029600  0.684500  1.0  0.1642
  H  H405  1  0.372000  0.017900  0.710300  1.0  0.1727
  H  H406  1  0.243800  0.551000  0.778800  1.0  0.1375
  H  H407  1  0.255800  0.476000  0.803700  1.0  0.1607
  H  H408  1  0.305500  0.527000  0.789500  1.0  0.1404
  H  H409  1  0.444300  0.272600  0.343000  1.0  0.1771
  H  H410  1  0.493200  0.231400  0.370000  1.0  0.1677
  H  H411  1  0.433000  0.198200  0.368900  1.0  0.1747
  H  H412  1  0.067700  0.334900  0.572900  1.0  0.1661
  H  H413  1  0.094400  0.269600  0.544200  1.0  0.1517
  H  H414  1  0.094200  0.271800  0.604100  1.0  0.1501
  H  H415  1  0.451300  0.560800  0.441700  1.0  0.4331
  H  H416  1  0.418500  0.552900  0.481800  1.0  0.409
  H  H417  1  0.938800  0.374300  0.423200  1.0  0.1175
  H  H418  1  0.945100  0.342200  0.478200  1.0  0.1212
  H  H419  1  0.023500  0.248200  0.360200  1.0  0.1153
  H  H420  1  0.985200  0.314900  0.350800  1.0  0.1237
  H  H421  1  0.008000  0.238700  0.492100  1.0  0.1149
  H  H422  1  0.037800  0.202800  0.445400  1.0  0.1219
  H  H423  1  0.074900  0.317000  0.420100  1.0  0.1384
  H  H424  1  0.035100  0.383000  0.413300  1.0  0.1444
  H  H425  1  0.045800  0.351100  0.467900  1.0  0.139
  H  H426  1  0.908000  0.006700  0.282900  1.0  0.1292
  H  H427  1  0.966800  0.017700  0.307800  1.0  0.1309
  H  H428  1  0.846600  0.914500  0.384500  1.0  0.1106
  H  H429  1  0.835300  0.943000  0.329200  1.0  0.1155
  H  H430  1  0.983100  0.977800  0.395900  1.0  0.113
  H  H431  1  0.936400  0.935600  0.425000  1.0  0.1088
  H  H432  1  0.917200  0.881900  0.299900  1.0  0.1353
  H  H433  1  0.975000  0.895100  0.326600  1.0  0.1291
  H  H434  1  0.927600  0.853900  0.355600  1.0  0.1347
  H  H435  1  0.717300  0.302300  0.368600  1.0  0.1203
  H  H436  1  0.765700  0.344400  0.341700  1.0  0.1182
  H  H437  1  0.722700  0.149600  0.291300  1.0  0.1181
  H  H438  1  0.688400  0.185300  0.335500  1.0  0.1212
  H  H439  1  0.815400  0.289500  0.268600  1.0  0.127
  H  H440  1  0.798200  0.212700  0.250400  1.0  0.1275
  H  H441  1  0.672300  0.286800  0.286800  1.0  0.1325
  H  H442  1  0.721300  0.331600  0.263000  1.0  0.1366
  H  H443  1  0.706500  0.256000  0.240600  1.0  0.1394
  H  H444  1  0.710300  0.091100  0.503200  1.0  0.1142
  H  H445  1  0.748900  0.025100  0.514200  1.0  0.1134
  H  H446  1  0.837400  0.041500  0.559200  1.0  0.1292
  H  H447  1  0.855600  0.118200  0.576800  1.0  0.1334
  H  H448  1  0.793900  0.221800  0.560600  1.0  0.1291
  H  H449  1  0.736300  0.210400  0.533600  1.0  0.1168
  H  H450  1  0.755200  0.056500  0.604800  1.0  0.139
  H  H451  1  0.766300  0.136700  0.619500  1.0  0.1438
  H  H452  1  0.711200  0.115500  0.590900  1.0  0.1398
  H  H453  1  0.788900  0.841200  0.540200  1.0  0.1449
  H  H454  1  0.819200  0.803100  0.494500  1.0  0.1489
  H  H455  1  0.853800  0.849100  0.533400  1.0  0.1472
  H  H456  1  0.131600  0.110700  0.308800  1.0  0.1599
  H  H457  1  0.129300  0.100000  0.368100  1.0  0.1571
  H  H458  1  0.113000  0.036800  0.331600  1.0  0.1657
  H  H459  1  0.886300  0.521200  0.341100  1.0  0.167
  H  H460  1  0.930400  0.470400  0.315500  1.0  0.1654
  H  H461  1  0.872000  0.482100  0.289700  1.0  0.1744
  H  H462  1  0.743800  0.949000  0.221200  1.0  0.137
  H  H463  1  0.755800  0.024000  0.196300  1.0  0.1605
  H  H464  1  0.805500  0.973000  0.210500  1.0  0.1406
  H  H465  1  0.944300  0.227400  0.657000  1.0  0.1784
  H  H466  1  0.993200  0.268600  0.630000  1.0  0.1684
  H  H467  1  0.933000  0.301800  0.631100  1.0  0.1771
  H  H468  1  0.567700  0.165100  0.427100  1.0  0.1662
  H  H469  1  0.594400  0.230400  0.455800  1.0  0.1514
  H  H470  1  0.594200  0.228200  0.395900  1.0  0.1502
  H  H471  1  0.951300  0.939200  0.558300  1.0  0.4334
  H  H472  1  0.918500  0.947100  0.518200  1.0  0.4087
  H  H473  1  0.561200  0.125700  0.923200  1.0  0.117
  H  H474  1  0.554900  0.157800  0.978200  1.0  0.1213
  H  H475  1  0.476500  0.251800  0.860200  1.0  0.1143
  H  H476  1  0.514800  0.185100  0.850800  1.0  0.1236
  H  H477  1  0.492000  0.261300  0.992100  1.0  0.1148
  H  H478  1  0.462200  0.297200  0.945400  1.0  0.1227
  H  H479  1  0.425100  0.183000  0.920100  1.0  0.137
  H  H480  1  0.464900  0.117000  0.913300  1.0  0.1403
  H  H481  1  0.454200  0.148900  0.967900  1.0  0.1396
  H  H482  1  0.592000  0.493300  0.782900  1.0  0.1289
  H  H483  1  0.533200  0.482300  0.807800  1.0  0.1297
  H  H484  1  0.653400  0.585500  0.884500  1.0  0.1107
  H  H485  1  0.664700  0.557000  0.829200  1.0  0.1156
  H  H486  1  0.516900  0.522200  0.895900  1.0  0.1127
  H  H487  1  0.563600  0.564400  0.925000  1.0  0.1083
  H  H488  1  0.582800  0.618100  0.799900  1.0  0.1359
  H  H489  1  0.525000  0.604900  0.826600  1.0  0.13
  H  H490  1  0.572400  0.646100  0.855600  1.0  0.134
  H  H491  1  0.782700  0.197700  0.868600  1.0  0.1215
  H  H492  1  0.734300  0.155600  0.841700  1.0  0.1197
  H  H493  1  0.777300  0.350400  0.791300  1.0  0.1197
  H  H494  1  0.811600  0.314700  0.835500  1.0  0.1212
  H  H495  1  0.684600  0.210500  0.768600  1.0  0.1256
  H  H496  1  0.701800  0.287300  0.750400  1.0  0.1277
  H  H497  1  0.827700  0.213200  0.786800  1.0  0.1341
  H  H498  1  0.778700  0.168400  0.763000  1.0  0.1357
  H  H499  1  0.793500  0.244000  0.740600  1.0  0.1408
  H  H500  1  0.789700  0.408900  0.003200  1.0  0.1133
  H  H501  1  0.751100  0.474900  0.014200  1.0  0.1146
  H  H502  1  0.662600  0.458500  0.059200  1.0  0.1286
  H  H503  1  0.644400  0.381800  0.076800  1.0  0.1336
  H  H504  1  0.706100  0.278200  0.060600  1.0  0.1298
  H  H505  1  0.763700  0.289600  0.033600  1.0  0.117
  H  H506  1  0.744800  0.443500  0.104800  1.0  0.1388
  H  H507  1  0.733700  0.363300  0.119500  1.0  0.1433
  H  H508  1  0.788800  0.384500  0.090900  1.0  0.1378
  H  H509  1  0.711100  0.658800  0.040200  1.0  0.1442
  H  H510  1  0.680800  0.696900  0.994500  1.0  0.1495
  H  H511  1  0.646200  0.650900  0.033400  1.0  0.1451
  H  H512  1  0.368400  0.389300  0.808800  1.0  0.1597
  H  H513  1  0.370700  0.400000  0.868100  1.0  0.1572
  H  H514  1  0.387000  0.463200  0.831600  1.0  0.1658
  H  H515  1  0.613700  0.978800  0.841100  1.0  0.168
  H  H516  1  0.569600  0.029600  0.815500  1.0  0.1642
  H  H517  1  0.628000  0.017900  0.789700  1.0  0.1715
  H  H518  1  0.756200  0.551000  0.721200  1.0  0.1375
  H  H519  1  0.744200  0.476000  0.696300  1.0  0.1598
  H  H520  1  0.694500  0.527000  0.710500  1.0  0.1409
  H  H521  1  0.555700  0.272600  0.157000  1.0  0.1791
  H  H522  1  0.506800  0.231400  0.130000  1.0  0.1676
  H  H523  1  0.567000  0.198200  0.131100  1.0  0.1762
  H  H524  1  0.932300  0.334900  0.927100  1.0  0.1657
  H  H525  1  0.905600  0.269600  0.955800  1.0  0.1517
  H  H526  1  0.905800  0.271800  0.895900  1.0  0.1516
  H  H527  1  0.548700  0.560800  0.058300  1.0  0.4334
  H  H528  1  0.581500  0.552900  0.018200  1.0  0.4085
  C  C529  1  0.992400  0.710400  0.925500  1.0  0.1341
  C  C530  1  0.941100  0.670100  0.942400  1.0  -0.0146
  C  C531  1  0.988900  0.728900  0.870400  1.0  -0.0379
  C  C532  1  0.003000  0.775700  0.956800  1.0  -0.0148
  C  C533  1  0.041500  0.660200  0.932300  1.0  -0.3509
  C  C534  1  0.914000  0.038000  0.853100  1.0  0.1604
  C  C535  1  0.927000  0.981400  0.814600  1.0  -0.0496
  C  C536  1  0.852900  0.045400  0.861600  1.0  -0.0231
  C  C537  1  0.943200  0.024300  0.902300  1.0  -0.0116
  C  C538  1  0.935400  0.108200  0.831900  1.0  -0.341
  C  C539  1  0.749100  0.750300  0.807900  1.0  0.1726
  C  C540  1  0.753900  0.702700  0.853000  1.0  -0.0175
  C  C541  1  0.725800  0.821500  0.822000  1.0  -0.0288
  C  C542  1  0.803800  0.757500  0.780300  1.0  -0.0339
  C  C543  1  0.708600  0.715800  0.771200  1.0  -0.3344
  C  C544  1  0.778700  0.883000  0.044200  1.0  0.1788
  C  C545  1  0.748900  0.924700  0.004600  1.0  -0.0188
  C  C546  1  0.837900  0.908400  0.049300  1.0  -0.0335
  C  C547  1  0.775300  0.803700  0.033200  1.0  -0.044
  C  C548  1  0.750300  0.894600  0.094300  1.0  -0.3676
  C  C549  1  0.810000  0.091400  0.984000  1.0  0.7319
  C  C550  1  0.818700  0.154900  0.015700  1.0  -0.4121
  C  C551  1  0.054000  0.888000  0.836600  1.0  0.7709
  C  C552  1  0.111900  0.912200  0.836200  1.0  -0.4205
  C  C553  1  0.868600  0.583300  0.850600  1.0  0.7495
  C  C554  1  0.891300  0.522000  0.821700  1.0  -0.4675
  C  C555  1  0.771800  0.979700  0.769300  1.0  0.7472
  C  C556  1  0.769000  0.010900  0.720500  1.0  -0.3914
  C  C557  1  0.940600  0.778400  0.080400  1.0  0.7185
  C  C558  1  0.954000  0.742000  0.128800  1.0  -0.4553
  C  C559  1  0.651400  0.837100  0.926900  1.0  0.7433
  C  C560  1  0.597200  0.800200  0.926400  1.0  -0.4188
  C  C561  1  0.507600  0.789600  0.425500  1.0  0.1331
  C  C562  1  0.558900  0.829900  0.442400  1.0  -0.0149
  C  C563  1  0.511100  0.771100  0.370400  1.0  -0.0368
  C  C564  1  0.497000  0.724300  0.456800  1.0  -0.0148
  C  C565  1  0.458500  0.839800  0.432300  1.0  -0.352
  C  C566  1  0.586000  0.462000  0.353100  1.0  0.1618
  C  C567  1  0.573000  0.518600  0.314600  1.0  -0.0461
  C  C568  1  0.647100  0.454600  0.361600  1.0  -0.0246
  C  C569  1  0.556800  0.475700  0.402300  1.0  -0.0122
  C  C570  1  0.564600  0.391800  0.331900  1.0  -0.3402
  C  C571  1  0.750900  0.749700  0.307900  1.0  0.1717
  C  C572  1  0.746100  0.797300  0.353000  1.0  -0.0171
  C  C573  1  0.774200  0.678500  0.322000  1.0  -0.0313
  C  C574  1  0.696200  0.742500  0.280300  1.0  -0.0378
  C  C575  1  0.791400  0.784200  0.271200  1.0  -0.3336
  C  C576  1  0.721300  0.617000  0.544200  1.0  0.1778
  C  C577  1  0.751100  0.575300  0.504600  1.0  -0.0202
  C  C578  1  0.662100  0.591600  0.549300  1.0  -0.0338
  C  C579  1  0.724700  0.696300  0.533200  1.0  -0.044
  C  C580  1  0.749700  0.605400  0.594300  1.0  -0.367
  C  C581  1  0.690000  0.408600  0.484000  1.0  0.7316
  C  C582  1  0.681300  0.345100  0.515700  1.0  -0.4127
  C  C583  1  0.446000  0.612000  0.336600  1.0  0.7691
  C  C584  1  0.388100  0.587800  0.336200  1.0  -0.4192
  C  C585  1  0.631400  0.916700  0.350600  1.0  0.7489
  C  C586  1  0.608700  0.978000  0.321700  1.0  -0.4639
  C  C587  1  0.728200  0.520300  0.269300  1.0  0.7477
  C  C588  1  0.731000  0.489100  0.220500  1.0  -0.393
  C  C589  1  0.559400  0.721600  0.580400  1.0  0.7172
  C  C590  1  0.546000  0.758000  0.628800  1.0  -0.4571
  C  C591  1  0.848600  0.662900  0.426900  1.0  0.7394
  C  C592  1  0.902800  0.699800  0.426400  1.0  -0.4205
  C  C593  1  0.007600  0.710400  0.574500  1.0  0.1348
  C  C594  1  0.058900  0.670100  0.557600  1.0  -0.0146
  C  C595  1  0.011100  0.728900  0.629600  1.0  -0.0385
  C  C596  1  0.997000  0.775700  0.543200  1.0  -0.0127
  C  C597  1  0.958500  0.660200  0.567700  1.0  -0.3502
  C  C598  1  0.086000  0.038000  0.646900  1.0  0.162
  C  C599  1  0.073000  0.981400  0.685400  1.0  -0.0485
  C  C600  1  0.147100  0.045400  0.638400  1.0  -0.0247
  C  C601  1  0.056800  0.024300  0.597700  1.0  -0.0113
  C  C602  1  0.064600  0.108200  0.668100  1.0  -0.3423
  C  C603  1  0.250900  0.750300  0.692100  1.0  0.172
  C  C604  1  0.246100  0.702700  0.647000  1.0  -0.0175
  C  C605  1  0.274200  0.821500  0.678000  1.0  -0.0309
  C  C606  1  0.196200  0.757500  0.719700  1.0  -0.0373
  C  C607  1  0.291400  0.715800  0.728800  1.0  -0.3334
  C  C608  1  0.221300  0.883000  0.455800  1.0  0.1783
  C  C609  1  0.251100  0.924700  0.495400  1.0  -0.0187
  C  C610  1  0.162100  0.908400  0.450700  1.0  -0.0336
  C  C611  1  0.224700  0.803700  0.466800  1.0  -0.0435
  C  C612  1  0.249700  0.894600  0.405700  1.0  -0.3664
  C  C613  1  0.190000  0.091400  0.516000  1.0  0.7323
  C  C614  1  0.181300  0.154900  0.484300  1.0  -0.4123
  C  C615  1  0.946000  0.888000  0.663400  1.0  0.7688
  C  C616  1  0.888100  0.912200  0.663800  1.0  -0.4194
  C  C617  1  0.131400  0.583300  0.649400  1.0  0.7485
  C  C618  1  0.108700  0.522000  0.678300  1.0  -0.4666
  C  C619  1  0.228200  0.979700  0.730700  1.0  0.7483
  C  C620  1  0.231000  0.010900  0.779500  1.0  -0.3941
  C  C621  1  0.059400  0.778400  0.419600  1.0  0.7192
  C  C622  1  0.046000  0.742000  0.371200  1.0  -0.4559
  C  C623  1  0.348600  0.837100  0.573100  1.0  0.7395
  C  C624  1  0.402800  0.800200  0.573600  1.0  -0.4212
  C  C625  1  0.492400  0.789600  0.074500  1.0  0.1338
  C  C626  1  0.441100  0.829900  0.057600  1.0  -0.0148
  C  C627  1  0.488900  0.771100  0.129600  1.0  -0.0399
  C  C628  1  0.503000  0.724300  0.043200  1.0  -0.0153
  C  C629  1  0.541500  0.839800  0.067700  1.0  -0.3525
  C  C630  1  0.414000  0.462000  0.146900  1.0  0.1624
  C  C631  1  0.427000  0.518600  0.185400  1.0  -0.0483
  C  C632  1  0.352900  0.454600  0.138400  1.0  -0.0236
  C  C633  1  0.443200  0.475700  0.097700  1.0  -0.0119
  C  C634  1  0.435400  0.391800  0.168100  1.0  -0.3405
  C  C635  1  0.249100  0.749700  0.192100  1.0  0.1719
  C  C636  1  0.253900  0.797300  0.147000  1.0  -0.0182
  C  C637  1  0.225800  0.678500  0.178000  1.0  -0.0308
  C  C638  1  0.303800  0.742500  0.219700  1.0  -0.0371
  C  C639  1  0.208600  0.784200  0.228800  1.0  -0.335
  C  C640  1  0.278700  0.617000  0.955800  1.0  0.1786
  C  C641  1  0.248900  0.575300  0.995400  1.0  -0.0186
  C  C642  1  0.337900  0.591600  0.950700  1.0  -0.0324
  C  C643  1  0.275300  0.696300  0.966800  1.0  -0.0411
  C  C644  1  0.250300  0.605400  0.905700  1.0  -0.3669
  C  C645  1  0.310000  0.408600  0.016000  1.0  0.7327
  C  C646  1  0.318700  0.345100  0.984300  1.0  -0.411
  C  C647  1  0.554000  0.612000  0.163400  1.0  0.7698
  C  C648  1  0.611900  0.587800  0.163800  1.0  -0.421
  C  C649  1  0.368600  0.916700  0.149400  1.0  0.7498
  C  C650  1  0.391300  0.978000  0.178300  1.0  -0.4681
  C  C651  1  0.271800  0.520300  0.230700  1.0  0.747
  C  C652  1  0.269000  0.489100  0.279500  1.0  -0.3932
  C  C653  1  0.440600  0.721600  0.919600  1.0  0.7192
  C  C654  1  0.454000  0.758000  0.871200  1.0  -0.4546
  C  C655  1  0.151400  0.662900  0.073100  1.0  0.7433
  C  C656  1  0.097200  0.699800  0.073600  1.0  -0.4188
  C  C657  1  0.007600  0.289600  0.074500  1.0  0.1338
  C  C658  1  0.058900  0.329900  0.057600  1.0  -0.0157
  C  C659  1  0.011100  0.271100  0.129600  1.0  -0.0388
  C  C660  1  0.997000  0.224300  0.043200  1.0  -0.0136
  C  C661  1  0.958500  0.339800  0.067700  1.0  -0.3521
  C  C662  1  0.086000  0.962000  0.146900  1.0  0.1626
  C  C663  1  0.073000  0.018600  0.185400  1.0  -0.048
  C  C664  1  0.147100  0.954600  0.138400  1.0  -0.0242
  C  C665  1  0.056800  0.975700  0.097700  1.0  -0.0114
  C  C666  1  0.064600  0.891800  0.168100  1.0  -0.3409
  C  C667  1  0.250900  0.249700  0.192100  1.0  0.1719
  C  C668  1  0.246100  0.297300  0.147000  1.0  -0.0176
  C  C669  1  0.274200  0.178500  0.178000  1.0  -0.0317
  C  C670  1  0.196200  0.242500  0.219700  1.0  -0.0356
  C  C671  1  0.291400  0.284200  0.228800  1.0  -0.3331
  C  C672  1  0.221300  0.117000  0.955800  1.0  0.1782
  C  C673  1  0.251100  0.075300  0.995400  1.0  -0.0198
  C  C674  1  0.162100  0.091600  0.950700  1.0  -0.0336
  C  C675  1  0.224700  0.196300  0.966800  1.0  -0.0416
  C  C676  1  0.249700  0.105400  0.905700  1.0  -0.3662
  C  C677  1  0.190000  0.908600  0.016000  1.0  0.7324
  C  C678  1  0.181300  0.845100  0.984300  1.0  -0.4117
  C  C679  1  0.946000  0.112000  0.163400  1.0  0.7686
  C  C680  1  0.888100  0.087800  0.163800  1.0  -0.4185
  C  C681  1  0.131400  0.416700  0.149400  1.0  0.7486
  C  C682  1  0.108700  0.478000  0.178300  1.0  -0.4667
  C  C683  1  0.228200  0.020300  0.230700  1.0  0.7477
  C  C684  1  0.231000  0.989100  0.279500  1.0  -0.3939
  C  C685  1  0.059400  0.221600  0.919600  1.0  0.719
  C  C686  1  0.046000  0.258000  0.871200  1.0  -0.4567
  C  C687  1  0.348600  0.162900  0.073100  1.0  0.7394
  C  C688  1  0.402800  0.199800  0.073600  1.0  -0.4207
  C  C689  1  0.492400  0.210400  0.574500  1.0  0.1346
  C  C690  1  0.441100  0.170100  0.557600  1.0  -0.0143
  C  C691  1  0.488900  0.228900  0.629600  1.0  -0.0384
  C  C692  1  0.503000  0.275700  0.543200  1.0  -0.0143
  C  C693  1  0.541500  0.160200  0.567700  1.0  -0.3506
  C  C694  1  0.414000  0.538000  0.646900  1.0  0.1616
  C  C695  1  0.427000  0.481400  0.685400  1.0  -0.0491
  C  C696  1  0.352900  0.545400  0.638400  1.0  -0.0228
  C  C697  1  0.443200  0.524300  0.597700  1.0  -0.0124
  C  C698  1  0.435400  0.608200  0.668100  1.0  -0.3413
  C  C699  1  0.249100  0.250300  0.692100  1.0  0.1721
  C  C700  1  0.253900  0.202700  0.647000  1.0  -0.0174
  C  C701  1  0.225800  0.321500  0.678000  1.0  -0.0292
  C  C702  1  0.303800  0.257500  0.719700  1.0  -0.0385
  C  C703  1  0.208600  0.215800  0.728800  1.0  -0.3348
  C  C704  1  0.278700  0.383000  0.455800  1.0  0.1788
  C  C705  1  0.248900  0.424700  0.495400  1.0  -0.0177
  C  C706  1  0.337900  0.408400  0.450700  1.0  -0.0321
  C  C707  1  0.275300  0.303700  0.466800  1.0  -0.0422
  C  C708  1  0.250300  0.394600  0.405700  1.0  -0.3669
  C  C709  1  0.310000  0.591400  0.516000  1.0  0.7331
  C  C710  1  0.318700  0.654900  0.484300  1.0  -0.4111
  C  C711  1  0.554000  0.388000  0.663400  1.0  0.7707
  C  C712  1  0.611900  0.412200  0.663800  1.0  -0.4197
  C  C713  1  0.368600  0.083300  0.649400  1.0  0.7493
  C  C714  1  0.391300  0.022000  0.678300  1.0  -0.469
  C  C715  1  0.271800  0.479700  0.730700  1.0  0.7479
  C  C716  1  0.269000  0.510900  0.779500  1.0  -0.3923
  C  C717  1  0.440600  0.278400  0.419600  1.0  0.7194
  C  C718  1  0.454000  0.242000  0.371200  1.0  -0.4546
  C  C719  1  0.151400  0.337100  0.573100  1.0  0.7433
  C  C720  1  0.097200  0.300200  0.573600  1.0  -0.4191
  C  C721  1  0.992400  0.289600  0.425500  1.0  0.1331
  C  C722  1  0.941100  0.329900  0.442400  1.0  -0.0152
  C  C723  1  0.988900  0.271100  0.370400  1.0  -0.0395
  C  C724  1  0.003000  0.224300  0.456800  1.0  -0.016
  C  C725  1  0.041500  0.339800  0.432300  1.0  -0.3523
  C  C726  1  0.914000  0.962000  0.353100  1.0  0.1615
  C  C727  1  0.927000  0.018600  0.314600  1.0  -0.0482
  C  C728  1  0.852900  0.954600  0.361600  1.0  -0.0241
  C  C729  1  0.943200  0.975700  0.402300  1.0  -0.0117
  C  C730  1  0.935400  0.891800  0.331900  1.0  -0.3401
  C  C731  1  0.749100  0.249700  0.307900  1.0  0.1723
  C  C732  1  0.753900  0.297300  0.353000  1.0  -0.0181
  C  C733  1  0.725800  0.178500  0.322000  1.0  -0.0299
  C  C734  1  0.803800  0.242500  0.280300  1.0  -0.0353
  C  C735  1  0.708600  0.284200  0.271200  1.0  -0.3346
  C  C736  1  0.778700  0.117000  0.544200  1.0  0.1784
  C  C737  1  0.748900  0.075300  0.504600  1.0  -0.0193
  C  C738  1  0.837900  0.091600  0.549300  1.0  -0.0347
  C  C739  1  0.775300  0.196300  0.533200  1.0  -0.0442
  C  C740  1  0.750300  0.105400  0.594300  1.0  -0.3679
  C  C741  1  0.810000  0.908600  0.484000  1.0  0.7315
  C  C742  1  0.818700  0.845100  0.515700  1.0  -0.4122
  C  C743  1  0.054000  0.112000  0.336600  1.0  0.7706
  C  C744  1  0.111900  0.087800  0.336200  1.0  -0.4207
  C  C745  1  0.868600  0.416700  0.350600  1.0  0.7499
  C  C746  1  0.891300  0.478000  0.321700  1.0  -0.4669
  C  C747  1  0.771800  0.020300  0.269300  1.0  0.7468
  C  C748  1  0.769000  0.989100  0.220500  1.0  -0.3907
  C  C749  1  0.940600  0.221600  0.580400  1.0  0.7177
  C  C750  1  0.954000  0.258000  0.628800  1.0  -0.456
  C  C751  1  0.651400  0.162900  0.426900  1.0  0.7434
  C  C752  1  0.597200  0.199800  0.426400  1.0  -0.4185
  C  C753  1  0.507600  0.210400  0.925500  1.0  0.1343
  C  C754  1  0.558900  0.170100  0.942400  1.0  -0.0139
  C  C755  1  0.511100  0.228900  0.870400  1.0  -0.0363
  C  C756  1  0.497000  0.275700  0.956800  1.0  -0.0139
  C  C757  1  0.458500  0.160200  0.932300  1.0  -0.3504
  C  C758  1  0.586000  0.538000  0.853100  1.0  0.161
  C  C759  1  0.573000  0.481400  0.814600  1.0  -0.0475
  C  C760  1  0.647100  0.545400  0.861600  1.0  -0.0246
  C  C761  1  0.556800  0.524300  0.902300  1.0  -0.0113
  C  C762  1  0.564600  0.608200  0.831900  1.0  -0.3413
  C  C763  1  0.750900  0.250300  0.807900  1.0  0.1719
  C  C764  1  0.746100  0.202700  0.853000  1.0  -0.017
  C  C765  1  0.774200  0.321500  0.822000  1.0  -0.0307
  C  C766  1  0.696200  0.257500  0.780300  1.0  -0.0369
  C  C767  1  0.791400  0.215800  0.771200  1.0  -0.3339
  C  C768  1  0.721300  0.383000  0.044200  1.0  0.1783
  C  C769  1  0.751100  0.424700  0.004600  1.0  -0.0198
  C  C770  1  0.662100  0.408400  0.049300  1.0  -0.0326
  C  C771  1  0.724700  0.303700  0.033200  1.0  -0.0446
  C  C772  1  0.749700  0.394600  0.094300  1.0  -0.3672
  C  C773  1  0.690000  0.591400  0.984000  1.0  0.7314
  C  C774  1  0.681300  0.654900  0.015700  1.0  -0.4127
  C  C775  1  0.446000  0.388000  0.836600  1.0  0.7688
  C  C776  1  0.388100  0.412200  0.836200  1.0  -0.419
  C  C777  1  0.631400  0.083300  0.850600  1.0  0.7489
  C  C778  1  0.608700  0.022000  0.821700  1.0  -0.4642
  C  C779  1  0.728200  0.479700  0.769300  1.0  0.7479
  C  C780  1  0.731000  0.510900  0.720500  1.0  -0.3929
  C  C781  1  0.559400  0.278400  0.080400  1.0  0.7186
  C  C782  1  0.546000  0.242000  0.128800  1.0  -0.456
  C  C783  1  0.848600  0.337100  0.926900  1.0  0.7396
  C  C784  1  0.902800  0.300200  0.926400  1.0  -0.4207
  O  O785  1  0.854390  0.847700  0.903830  1.0  -0.7852
  O  O786  1  0.891220  0.708430  0.935800  1.0  -0.7485
  O  O787  1  0.944110  0.774620  0.858380  1.0  -0.6949
  O  O788  1  0.961420  0.827430  0.954660  1.0  -0.7285
  O  O789  1  0.911830  0.911340  0.828750  1.0  -0.6936
  O  O790  1  0.826900  0.984980  0.881860  1.0  -0.737
  O  O791  1  0.926950  0.960670  0.927420  1.0  -0.6829
  O  O792  1  0.791650  0.727600  0.890030  1.0  -0.6856
  O  O793  1  0.757750  0.859980  0.858420  1.0  -0.7133
  O  O794  1  0.846730  0.787120  0.809990  1.0  -0.7298
  O  O795  1  0.772730  0.917800  0.955680  1.0  -0.6952
  O  O796  1  0.870680  0.901100  0.005100  1.0  -0.7241
  O  O797  1  0.798700  0.781800  0.986760  1.0  -0.7541
  O  O798  1  0.849060  0.045680  0.984490  1.0  -0.5845
  O  O799  1  0.767950  0.084800  0.959480  1.0  -0.5839
  O  O800  1  0.027730  0.899100  0.877530  1.0  -0.5994
  O  O801  1  0.033070  0.861000  0.799080  1.0  -0.6066
  O  O802  1  0.882820  0.644200  0.833920  1.0  -0.5613
  O  O803  1  0.839060  0.573200  0.887610  1.0  -0.5819
  O  O804  1  0.811750  0.933900  0.776870  1.0  -0.5705
  O  O805  1  0.739640  0.998100  0.801960  1.0  -0.6031
  O  O806  1  0.909400  0.753300  0.048200  1.0  -0.5538
  O  O807  1  0.967000  0.839400  0.074000  1.0  -0.5841
  O  O808  1  0.692900  0.797500  0.936630  1.0  -0.5663
  O  O809  1  0.654030  0.899300  0.916320  1.0  -0.6238
  O  O810  1  0.949530  0.042820  0.029700  1.0  -0.8586
  O  O811  1  0.645610  0.652300  0.403830  1.0  -0.7851
  O  O812  1  0.608780  0.791570  0.435800  1.0  -0.7496
  O  O813  1  0.555890  0.725380  0.358380  1.0  -0.6943
  O  O814  1  0.538580  0.672570  0.454660  1.0  -0.7261
  O  O815  1  0.588170  0.588660  0.328750  1.0  -0.6935
  O  O816  1  0.673100  0.515020  0.381860  1.0  -0.7347
  O  O817  1  0.573050  0.539330  0.427420  1.0  -0.6836
  O  O818  1  0.708350  0.772400  0.390030  1.0  -0.6875
  O  O819  1  0.742250  0.640020  0.358420  1.0  -0.712
  O  O820  1  0.653270  0.712880  0.309990  1.0  -0.7293
  O  O821  1  0.727270  0.582200  0.455680  1.0  -0.6952
  O  O822  1  0.629320  0.598900  0.505100  1.0  -0.7226
  O  O823  1  0.701300  0.718200  0.486760  1.0  -0.7544
  O  O824  1  0.650940  0.454320  0.484490  1.0  -0.5835
  O  O825  1  0.732050  0.415200  0.459480  1.0  -0.5848
  O  O826  1  0.472270  0.600900  0.377530  1.0  -0.6011
  O  O827  1  0.466930  0.639000  0.299080  1.0  -0.6091
  O  O828  1  0.617180  0.855800  0.333920  1.0  -0.5623
  O  O829  1  0.660940  0.926800  0.387610  1.0  -0.5838
  O  O830  1  0.688250  0.566100  0.276870  1.0  -0.5719
  O  O831  1  0.760360  0.501900  0.301960  1.0  -0.6022
  O  O832  1  0.590600  0.746700  0.548200  1.0  -0.5529
  O  O833  1  0.533000  0.660600  0.574000  1.0  -0.584
  O  O834  1  0.807100  0.702500  0.436630  1.0  -0.5672
  O  O835  1  0.845970  0.600700  0.416320  1.0  -0.6245
  O  O836  1  0.550470  0.457180  0.529700  1.0  -0.8563
  O  O837  1  0.145610  0.847700  0.596170  1.0  -0.7841
  O  O838  1  0.108780  0.708430  0.564200  1.0  -0.7481
  O  O839  1  0.055890  0.774620  0.641620  1.0  -0.6941
  O  O840  1  0.038580  0.827430  0.545340  1.0  -0.727
  O  O841  1  0.088170  0.911340  0.671250  1.0  -0.6941
  O  O842  1  0.173100  0.984980  0.618140  1.0  -0.7352
  O  O843  1  0.073050  0.960670  0.572580  1.0  -0.6818
  O  O844  1  0.208350  0.727600  0.609970  1.0  -0.6857
  O  O845  1  0.242250  0.859980  0.641580  1.0  -0.7127
  O  O846  1  0.153270  0.787120  0.690010  1.0  -0.7295
  O  O847  1  0.227270  0.917800  0.544320  1.0  -0.6943
  O  O848  1  0.129320  0.901100  0.494900  1.0  -0.723
  O  O849  1  0.201300  0.781800  0.513240  1.0  -0.7561
  O  O850  1  0.150940  0.045680  0.515510  1.0  -0.5842
  O  O851  1  0.232050  0.084800  0.540520  1.0  -0.5848
  O  O852  1  0.972270  0.899100  0.622470  1.0  -0.5996
  O  O853  1  0.966930  0.861000  0.700920  1.0  -0.608
  O  O854  1  0.117180  0.644200  0.666080  1.0  -0.5614
  O  O855  1  0.160940  0.573200  0.612390  1.0  -0.582
  O  O856  1  0.188250  0.933900  0.723130  1.0  -0.5726
  O  O857  1  0.260360  0.998100  0.698040  1.0  -0.6015
  O  O858  1  0.090600  0.753300  0.451800  1.0  -0.5531
  O  O859  1  0.033000  0.839400  0.426000  1.0  -0.5821
  O  O860  1  0.307100  0.797500  0.563370  1.0  -0.5668
  O  O861  1  0.345970  0.899300  0.583680  1.0  -0.6238
  O  O862  1  0.050470  0.042820  0.470300  1.0  -0.8584
  O  O863  1  0.354390  0.652300  0.096170  1.0  -0.785
  O  O864  1  0.391220  0.791570  0.064200  1.0  -0.7492
  O  O865  1  0.444110  0.725380  0.141620  1.0  -0.6939
  O  O866  1  0.461420  0.672570  0.045340  1.0  -0.728
  O  O867  1  0.411830  0.588660  0.171250  1.0  -0.6938
  O  O868  1  0.326900  0.515020  0.118140  1.0  -0.7358
  O  O869  1  0.426950  0.539330  0.072580  1.0  -0.6827
  O  O870  1  0.291650  0.772400  0.109970  1.0  -0.6845
  O  O871  1  0.257750  0.640020  0.141580  1.0  -0.7128
  O  O872  1  0.346730  0.712880  0.190010  1.0  -0.7303
  O  O873  1  0.272730  0.582200  0.044320  1.0  -0.6956
  O  O874  1  0.370680  0.598900  0.994900  1.0  -0.7243
  O  O875  1  0.298700  0.718200  0.013240  1.0  -0.7535
  O  O876  1  0.349060  0.454320  0.015510  1.0  -0.5852
  O  O877  1  0.267950  0.415200  0.040520  1.0  -0.5832
  O  O878  1  0.527730  0.600900  0.122470  1.0  -0.5981
  O  O879  1  0.533070  0.639000  0.200920  1.0  -0.6091
  O  O880  1  0.382820  0.855800  0.166080  1.0  -0.5631
  O  O881  1  0.339060  0.926800  0.112390  1.0  -0.5811
  O  O882  1  0.311750  0.566100  0.223130  1.0  -0.5725
  O  O883  1  0.239640  0.501900  0.198040  1.0  -0.6027
  O  O884  1  0.409400  0.746700  0.951800  1.0  -0.5514
  O  O885  1  0.467000  0.660600  0.926000  1.0  -0.5853
  O  O886  1  0.192900  0.702500  0.063370  1.0  -0.5657
  O  O887  1  0.154030  0.600700  0.083680  1.0  -0.6236
  O  O888  1  0.449530  0.457180  0.970300  1.0  -0.8573
  O  O889  1  0.145610  0.152300  0.096170  1.0  -0.7842
  O  O890  1  0.108780  0.291570  0.064200  1.0  -0.7495
  O  O891  1  0.055890  0.225380  0.141620  1.0  -0.6948
  O  O892  1  0.038580  0.172570  0.045340  1.0  -0.7261
  O  O893  1  0.088170  0.088660  0.171250  1.0  -0.6943
  O  O894  1  0.173100  0.015020  0.118140  1.0  -0.7349
  O  O895  1  0.073050  0.039330  0.072580  1.0  -0.6828
  O  O896  1  0.208350  0.272400  0.109970  1.0  -0.6853
  O  O897  1  0.242250  0.140020  0.141580  1.0  -0.712
  O  O898  1  0.153270  0.212880  0.190010  1.0  -0.7294
  O  O899  1  0.227270  0.082200  0.044320  1.0  -0.6953
  O  O900  1  0.129320  0.098900  0.994900  1.0  -0.7229
  O  O901  1  0.201300  0.218200  0.013240  1.0  -0.7541
  O  O902  1  0.150940  0.954320  0.015510  1.0  -0.5842
  O  O903  1  0.232050  0.915200  0.040520  1.0  -0.5843
  O  O904  1  0.972270  0.100900  0.122470  1.0  -0.5997
  O  O905  1  0.966930  0.139000  0.200920  1.0  -0.6111
  O  O906  1  0.117180  0.355800  0.166080  1.0  -0.5622
  O  O907  1  0.160940  0.426800  0.112390  1.0  -0.5825
  O  O908  1  0.188250  0.066100  0.223130  1.0  -0.5726
  O  O909  1  0.260360  0.001900  0.198040  1.0  -0.6011
  O  O910  1  0.090600  0.246700  0.951800  1.0  -0.5519
  O  O911  1  0.033000  0.160600  0.926000  1.0  -0.5833
  O  O912  1  0.307100  0.202500  0.063370  1.0  -0.5669
  O  O913  1  0.345970  0.100700  0.083680  1.0  -0.6245
  O  O914  1  0.050470  0.957180  0.970300  1.0  -0.857
  O  O915  1  0.354390  0.347700  0.596170  1.0  -0.7848
  O  O916  1  0.391220  0.208430  0.564200  1.0  -0.7491
  O  O917  1  0.444110  0.274620  0.641620  1.0  -0.6935
  O  O918  1  0.461420  0.327430  0.545340  1.0  -0.7282
  O  O919  1  0.411830  0.411340  0.671250  1.0  -0.6936
  O  O920  1  0.326900  0.484980  0.618140  1.0  -0.7367
  O  O921  1  0.426950  0.460670  0.572580  1.0  -0.6817
  O  O922  1  0.291650  0.227600  0.609970  1.0  -0.6848
  O  O923  1  0.257750  0.359980  0.641580  1.0  -0.7135
  O  O924  1  0.346730  0.287120  0.690010  1.0  -0.7299
  O  O925  1  0.272730  0.417800  0.544320  1.0  -0.6953
  O  O926  1  0.370680  0.401100  0.494900  1.0  -0.7244
  O  O927  1  0.298700  0.281800  0.513240  1.0  -0.7544
  O  O928  1  0.349060  0.545680  0.515510  1.0  -0.5847
  O  O929  1  0.267950  0.584800  0.540520  1.0  -0.5836
  O  O930  1  0.527730  0.399100  0.622470  1.0  -0.598
  O  O931  1  0.533070  0.361000  0.700920  1.0  -0.6069
  O  O932  1  0.382820  0.144200  0.666080  1.0  -0.5619
  O  O933  1  0.339060  0.073200  0.612390  1.0  -0.5815
  O  O934  1  0.311750  0.433900  0.723130  1.0  -0.5719
  O  O935  1  0.239640  0.498100  0.698040  1.0  -0.6027
  O  O936  1  0.409400  0.253300  0.451800  1.0  -0.5539
  O  O937  1  0.467000  0.339400  0.426000  1.0  -0.5836
  O  O938  1  0.192900  0.297500  0.563370  1.0  -0.5658
  O  O939  1  0.154030  0.399300  0.583680  1.0  -0.6238
  O  O940  1  0.449530  0.542820  0.470300  1.0  -0.858
  O  O941  1  0.854390  0.152300  0.403830  1.0  -0.7856
  O  O942  1  0.891220  0.291570  0.435800  1.0  -0.7494
  O  O943  1  0.944110  0.225380  0.358380  1.0  -0.6948
  O  O944  1  0.961420  0.172570  0.454660  1.0  -0.7279
  O  O945  1  0.911830  0.088660  0.328750  1.0  -0.6935
  O  O946  1  0.826900  0.015020  0.381860  1.0  -0.7358
  O  O947  1  0.926950  0.039330  0.427420  1.0  -0.6835
  O  O948  1  0.791650  0.272400  0.390030  1.0  -0.686
  O  O949  1  0.757750  0.140020  0.358420  1.0  -0.7126
  O  O950  1  0.846730  0.212880  0.309990  1.0  -0.7302
  O  O951  1  0.772730  0.082200  0.455680  1.0  -0.6956
  O  O952  1  0.870680  0.098900  0.505100  1.0  -0.7242
  O  O953  1  0.798700  0.218200  0.486760  1.0  -0.7541
  O  O954  1  0.849060  0.954320  0.484490  1.0  -0.5842
  O  O955  1  0.767950  0.915200  0.459480  1.0  -0.5838
  O  O956  1  0.027730  0.100900  0.377530  1.0  -0.5997
  O  O957  1  0.033070  0.139000  0.299080  1.0  -0.6072
  O  O958  1  0.882820  0.355800  0.333920  1.0  -0.5629
  O  O959  1  0.839060  0.426800  0.387610  1.0  -0.5821
  O  O960  1  0.811750  0.066100  0.276870  1.0  -0.5707
  O  O961  1  0.739640  0.001900  0.301960  1.0  -0.6035
  O  O962  1  0.909400  0.246700  0.548200  1.0  -0.5524
  O  O963  1  0.967000  0.160600  0.574000  1.0  -0.5861
  O  O964  1  0.692900  0.202500  0.436630  1.0  -0.5662
  O  O965  1  0.654030  0.100700  0.416320  1.0  -0.6239
  O  O966  1  0.949530  0.957180  0.529700  1.0  -0.858
  O  O967  1  0.645610  0.347700  0.903830  1.0  -0.7847
  O  O968  1  0.608780  0.208430  0.935800  1.0  -0.7482
  O  O969  1  0.555890  0.274620  0.858380  1.0  -0.694
  O  O970  1  0.538580  0.327430  0.954660  1.0  -0.7275
  O  O971  1  0.588170  0.411340  0.828750  1.0  -0.6936
  O  O972  1  0.673100  0.484980  0.881860  1.0  -0.7357
  O  O973  1  0.573050  0.460670  0.927420  1.0  -0.6828
  O  O974  1  0.708350  0.227600  0.890030  1.0  -0.6871
  O  O975  1  0.742250  0.359980  0.858420  1.0  -0.713
  O  O976  1  0.653270  0.287120  0.809990  1.0  -0.7288
  O  O977  1  0.727270  0.417800  0.955680  1.0  -0.6944
  O  O978  1  0.629320  0.401100  0.005100  1.0  -0.7225
  O  O979  1  0.701300  0.281800  0.986760  1.0  -0.7555
  O  O980  1  0.650940  0.545680  0.984490  1.0  -0.5838
  O  O981  1  0.732050  0.584800  0.959480  1.0  -0.5848
  O  O982  1  0.472270  0.399100  0.877530  1.0  -0.6009
  O  O983  1  0.466930  0.361000  0.799080  1.0  -0.6076
  O  O984  1  0.617180  0.144200  0.833920  1.0  -0.5607
  O  O985  1  0.660940  0.073200  0.887610  1.0  -0.5827
  O  O986  1  0.688250  0.433900  0.776870  1.0  -0.5722
  O  O987  1  0.760360  0.498100  0.801960  1.0  -0.6022
  O  O988  1  0.590600  0.253300  0.048200  1.0  -0.5534
  O  O989  1  0.533000  0.339400  0.074000  1.0  -0.583
  O  O990  1  0.807100  0.297500  0.936630  1.0  -0.5672
  O  O991  1  0.845970  0.399300  0.916320  1.0  -0.6239
  O  O992  1  0.550470  0.542820  0.029700  1.0  -0.8576
