# generated using pymatgen
data_Ti2Cd2H95C78N8O7
_symmetry_space_group_name_H-M   'P 1'
_cell_length_a   13.93250000
_cell_length_b   26.87300000
_cell_length_c   27.14700000
_cell_angle_alpha   90.00000000
_cell_angle_beta   90.00000000
_cell_angle_gamma   90.00000000
_symmetry_Int_Tables_number   1
_chemical_formula_structural   Ti2Cd2H95C78N8O7
_chemical_formula_sum   'Ti8 Cd8 H380 C312 N32 O28'
_cell_volume   10164.05594416
_cell_formula_units_Z   4
loop_
 _symmetry_equiv_pos_site_id
 _symmetry_equiv_pos_as_xyz
  1  'x, y, z'
loop_
 _atom_site_type_symbol
 _atom_site_label
 _atom_site_symmetry_multiplicity
 _atom_site_fract_x
 _atom_site_fract_y
 _atom_site_fract_z
 _atom_site_occupancy
 _atom_site_charge
  Ti  Ti1  1  0.687260  0.444010  0.780860  1.0  1.5359
  Ti  Ti2  1  0.555570  0.521490  0.696990  1.0  1.4762
  Ti  Ti3  1  0.812740  0.555990  0.280860  1.0  1.5238
  Ti  Ti4  1  0.944430  0.478510  0.196990  1.0  1.4936
  Ti  Ti5  1  0.312740  0.944010  0.719140  1.0  1.5282
  Ti  Ti6  1  0.444430  0.021490  0.803010  1.0  1.4889
  Ti  Ti7  1  0.187260  0.055990  0.219140  1.0  1.5422
  Ti  Ti8  1  0.055570  0.978510  0.303010  1.0  1.4787
  Cd  Cd9  1  0.307930  0.629320  0.041940  1.0  0.7174
  Cd  Cd10  1  0.907650  0.783800  0.862010  1.0  0.6313
  Cd  Cd11  1  0.192070  0.370680  0.541940  1.0  0.7171
  Cd  Cd12  1  0.592350  0.216200  0.362010  1.0  0.6326
  Cd  Cd13  1  0.692070  0.129320  0.458060  1.0  0.7174
  Cd  Cd14  1  0.092350  0.283800  0.637990  1.0  0.6323
  Cd  Cd15  1  0.807930  0.870680  0.958060  1.0  0.7163
  Cd  Cd16  1  0.407650  0.716200  0.137990  1.0  0.6333
  H  H17  1  0.731200  0.539200  0.763800  1.0  0.1075
  H  H18  1  0.856600  0.408600  0.743400  1.0  0.0804
  H  H19  1  0.400400  0.477300  0.652400  1.0  0.0889
  H  H20  1  0.494900  0.495800  0.787700  1.0  0.0919
  H  H21  1  0.905200  0.492700  0.784700  1.0  0.0645
  H  H22  1  0.818400  0.497200  0.690600  1.0  0.0932
  H  H23  1  0.003800  0.454100  0.715300  1.0  0.0792
  H  H24  1  0.956000  0.450300  0.661800  1.0  0.078
  H  H25  1  0.971300  0.537400  0.650900  1.0  0.0738
  H  H26  1  0.074900  0.515200  0.665100  1.0  0.0669
  H  H27  1  0.051800  0.536800  0.749800  1.0  0.0851
  H  H28  1  0.037300  0.586000  0.717600  1.0  0.1093
  H  H29  1  0.916800  0.580400  0.780400  1.0  0.0763
  H  H30  1  0.867900  0.580500  0.726900  1.0  0.0778
  H  H31  1  0.832300  0.399800  0.660100  1.0  0.0875
  H  H32  1  0.733500  0.429700  0.663100  1.0  0.1044
  H  H33  1  0.585600  0.237200  0.693400  1.0  0.0974
  H  H34  1  0.759500  0.332800  0.620200  1.0  0.1071
  H  H35  1  0.503800  0.357300  0.794400  1.0  0.0916
  H  H36  1  0.433100  0.313900  0.812300  1.0  0.0927
  H  H37  1  0.437800  0.328700  0.755200  1.0  0.1025
  H  H38  1  0.660300  0.254600  0.822900  1.0  0.096
  H  H39  1  0.578700  0.282900  0.853500  1.0  0.0957
  H  H40  1  0.660000  0.314100  0.825600  1.0  0.0973
  H  H41  1  0.444900  0.239400  0.751900  1.0  0.0949
  H  H42  1  0.483100  0.223300  0.805200  1.0  0.0971
  H  H43  1  0.545000  0.210700  0.757100  1.0  0.0997
  H  H44  1  0.790400  0.275700  0.573300  1.0  0.0924
  H  H45  1  0.789200  0.229300  0.504700  1.0  0.0756
  H  H46  1  0.566700  0.154300  0.554600  1.0  0.0815
  H  H47  1  0.565100  0.201400  0.624000  1.0  0.0998
  H  H48  1  0.705200  0.530200  0.848800  1.0  0.0981
  H  H49  1  0.788500  0.568700  0.834100  1.0  0.077
  H  H50  1  0.022100  0.431300  0.936100  1.0  0.1016
  H  H51  1  0.910900  0.563400  0.892200  1.0  0.1033
  H  H52  1  0.863100  0.350200  0.816200  1.0  0.0925
  H  H53  1  0.948700  0.314200  0.832800  1.0  0.0968
  H  H54  1  0.971200  0.370300  0.816700  1.0  0.0956
  H  H55  1  0.814300  0.355300  0.942600  1.0  0.1062
  H  H56  1  0.815100  0.311100  0.903100  1.0  0.0991
  H  H57  1  0.765600  0.363100  0.889700  1.0  0.0919
  H  H58  1  0.053800  0.367900  0.907100  1.0  0.0859
  H  H59  1  0.013800  0.312500  0.900200  1.0  0.0902
  H  H60  1  0.986800  0.343600  0.948600  1.0  0.1023
  H  H61  1  0.059900  0.586300  0.902600  1.0  0.111
  H  H62  1  0.172600  0.631600  0.948500  1.0  0.0584
  H  H63  1  0.171700  0.528300  0.050000  1.0  0.0816
  H  H64  1  0.059700  0.483800  0.007000  1.0  0.0753
  H  H65  1  0.426200  0.423600  0.739400  1.0  0.0714
  H  H66  1  0.328700  0.516900  0.731800  1.0  0.0523
  H  H67  1  0.353200  0.454600  0.818400  1.0  0.0736
  H  H68  1  0.299100  0.507400  0.818500  1.0  0.0785
  H  H69  1  0.183400  0.442600  0.812500  1.0  0.0718
  H  H70  1  0.180800  0.475700  0.763600  1.0  0.0721
  H  H71  1  0.175600  0.391400  0.742700  1.0  0.0711
  H  H72  1  0.274400  0.381800  0.771700  1.0  0.0711
  H  H73  1  0.309400  0.392400  0.685600  1.0  0.0687
  H  H74  1  0.255700  0.445200  0.685400  1.0  0.0788
  H  H75  1  0.441900  0.393700  0.646600  1.0  0.0695
  H  H76  1  0.536600  0.403900  0.678100  1.0  0.098
  H  H77  1  0.518900  0.361200  0.577300  1.0  0.1048
  H  H78  1  0.696300  0.444300  0.492300  1.0  0.1068
  H  H79  1  0.817200  0.500200  0.498500  1.0  0.0956
  H  H80  1  0.798100  0.558400  0.491000  1.0  0.0984
  H  H81  1  0.723900  0.518600  0.469400  1.0  0.0957
  H  H82  1  0.606100  0.572700  0.516000  1.0  0.1108
  H  H83  1  0.688100  0.603200  0.544100  1.0  0.096
  H  H84  1  0.607800  0.574100  0.574900  1.0  0.1005
  H  H85  1  0.754100  0.538200  0.618700  1.0  0.087
  H  H86  1  0.820600  0.567300  0.580200  1.0  0.0951
  H  H87  1  0.832100  0.508500  0.587000  1.0  0.1022
  H  H88  1  0.496500  0.317600  0.518100  1.0  0.1017
  H  H89  1  0.501400  0.252700  0.463100  1.0  0.086
  H  H90  1  0.714700  0.315700  0.393500  1.0  0.0591
  H  H91  1  0.727200  0.376500  0.452800  1.0  0.1104
  H  H92  1  0.515000  0.583000  0.786500  1.0  0.1052
  H  H93  1  0.423900  0.564500  0.817500  1.0  0.0763
  H  H94  1  0.213400  0.675300  0.679700  1.0  0.1076
  H  H95  1  0.312300  0.627200  0.811800  1.0  0.1058
  H  H96  1  0.366800  0.550500  0.613200  1.0  0.097
  H  H97  1  0.321000  0.571600  0.563300  1.0  0.0959
  H  H98  1  0.253800  0.560900  0.610000  1.0  0.101
  H  H99  1  0.436400  0.684800  0.613800  1.0  0.0994
  H  H100  1  0.430700  0.653100  0.564000  1.0  0.1045
  H  H101  1  0.484700  0.630800  0.611100  1.0  0.0986
  H  H102  1  0.188800  0.645100  0.604200  1.0  0.0973
  H  H103  1  0.257800  0.661800  0.560000  1.0  0.1068
  H  H104  1  0.254500  0.693600  0.609800  1.0  0.0974
  H  H105  1  0.154200  0.636100  0.831900  1.0  0.101
  H  H106  1  0.033000  0.678700  0.868700  1.0  0.06
  H  H107  1  0.065100  0.790800  0.777900  1.0  0.0818
  H  H108  1  0.174800  0.747800  0.733900  1.0  0.0846
  H  H109  1  0.660500  0.787500  0.822400  1.0  0.1245
  H  H110  1  0.563700  0.789500  0.854000  1.0  0.1124
  H  H111  1  0.637900  0.744700  0.861700  1.0  0.1271
  H  H112  1  0.768800  0.460800  0.263800  1.0  0.106
  H  H113  1  0.643400  0.591400  0.243400  1.0  0.0801
  H  H114  1  0.099600  0.522700  0.152400  1.0  0.0899
  H  H115  1  0.005100  0.504200  0.287700  1.0  0.0913
  H  H116  1  0.594800  0.507300  0.284700  1.0  0.0644
  H  H117  1  0.681600  0.502800  0.190600  1.0  0.0933
  H  H118  1  0.496200  0.545900  0.215300  1.0  0.0804
  H  H119  1  0.544000  0.549700  0.161800  1.0  0.0789
  H  H120  1  0.528700  0.462600  0.150900  1.0  0.0739
  H  H121  1  0.425100  0.484800  0.165100  1.0  0.0697
  H  H122  1  0.448200  0.463200  0.249800  1.0  0.0866
  H  H123  1  0.462700  0.414000  0.217600  1.0  0.1093
  H  H124  1  0.583200  0.419600  0.280400  1.0  0.0753
  H  H125  1  0.632100  0.419500  0.226900  1.0  0.0769
  H  H126  1  0.667700  0.600200  0.160100  1.0  0.089
  H  H127  1  0.766500  0.570300  0.163100  1.0  0.103
  H  H128  1  0.914400  0.762800  0.193400  1.0  0.0975
  H  H129  1  0.740500  0.667200  0.120200  1.0  0.1068
  H  H130  1  0.996200  0.642700  0.294400  1.0  0.0922
  H  H131  1  0.066900  0.686100  0.312300  1.0  0.0929
  H  H132  1  0.062200  0.671300  0.255200  1.0  0.103
  H  H133  1  0.839700  0.745400  0.322900  1.0  0.0964
  H  H134  1  0.921300  0.717100  0.353500  1.0  0.0935
  H  H135  1  0.840000  0.685900  0.325600  1.0  0.0984
  H  H136  1  0.055100  0.760600  0.251900  1.0  0.0937
  H  H137  1  0.016900  0.776700  0.305200  1.0  0.097
  H  H138  1  0.955000  0.789300  0.257100  1.0  0.1029
  H  H139  1  0.709600  0.724300  0.073300  1.0  0.0916
  H  H140  1  0.710800  0.770700  0.004700  1.0  0.0753
  H  H141  1  0.933300  0.845700  0.054600  1.0  0.0822
  H  H142  1  0.934900  0.798600  0.124000  1.0  0.0999
  H  H143  1  0.794800  0.469800  0.348800  1.0  0.0953
  H  H144  1  0.711500  0.431300  0.334100  1.0  0.0759
  H  H145  1  0.477900  0.568700  0.436100  1.0  0.1014
  H  H146  1  0.589100  0.436600  0.392200  1.0  0.1034
  H  H147  1  0.636900  0.649800  0.316200  1.0  0.0929
  H  H148  1  0.551300  0.685800  0.332800  1.0  0.0979
  H  H149  1  0.528800  0.629700  0.316700  1.0  0.0955
  H  H150  1  0.685700  0.644700  0.442600  1.0  0.1056
  H  H151  1  0.684900  0.688900  0.403100  1.0  0.0997
  H  H152  1  0.734400  0.636900  0.389700  1.0  0.0903
  H  H153  1  0.446200  0.632100  0.407100  1.0  0.0822
  H  H154  1  0.486200  0.687500  0.400200  1.0  0.0885
  H  H155  1  0.513200  0.656400  0.448600  1.0  0.1027
  H  H156  1  0.440100  0.413700  0.402600  1.0  0.111
  H  H157  1  0.327400  0.368400  0.448500  1.0  0.0578
  H  H158  1  0.328300  0.471700  0.550000  1.0  0.0818
  H  H159  1  0.440300  0.516200  0.507000  1.0  0.0749
  H  H160  1  0.073800  0.576400  0.239400  1.0  0.0709
  H  H161  1  0.171300  0.483100  0.231800  1.0  0.0525
  H  H162  1  0.146800  0.545400  0.318400  1.0  0.0736
  H  H163  1  0.200900  0.492600  0.318500  1.0  0.0786
  H  H164  1  0.316600  0.557400  0.312500  1.0  0.0715
  H  H165  1  0.319200  0.524300  0.263600  1.0  0.0719
  H  H166  1  0.324400  0.608600  0.242700  1.0  0.0701
  H  H167  1  0.225600  0.618200  0.271700  1.0  0.0687
  H  H168  1  0.190600  0.607600  0.185600  1.0  0.0691
  H  H169  1  0.244300  0.554800  0.185400  1.0  0.078
  H  H170  1  0.058100  0.606300  0.146600  1.0  0.0696
  H  H171  1  0.963400  0.596100  0.178100  1.0  0.0975
  H  H172  1  0.981100  0.638800  0.077300  1.0  0.1054
  H  H173  1  0.803700  0.555700  0.992300  1.0  0.1067
  H  H174  1  0.682800  0.499800  0.998500  1.0  0.0967
  H  H175  1  0.701900  0.441600  0.991000  1.0  0.0975
  H  H176  1  0.776100  0.481400  0.969400  1.0  0.0944
  H  H177  1  0.893900  0.427300  0.016000  1.0  0.1109
  H  H178  1  0.811900  0.396800  0.044100  1.0  0.0945
  H  H179  1  0.892200  0.425900  0.074900  1.0  0.1008
  H  H180  1  0.745900  0.461800  0.118700  1.0  0.0878
  H  H181  1  0.679400  0.432700  0.080200  1.0  0.0933
  H  H182  1  0.667900  0.491500  0.087000  1.0  0.1015
  H  H183  1  0.003500  0.682400  0.018100  1.0  0.1011
  H  H184  1  0.998600  0.747300  0.963100  1.0  0.0862
  H  H185  1  0.785300  0.684300  0.893500  1.0  0.0587
  H  H186  1  0.772800  0.623500  0.952800  1.0  0.1101
  H  H187  1  0.985000  0.417000  0.286500  1.0  0.1083
  H  H188  1  0.076100  0.435500  0.317500  1.0  0.0776
  H  H189  1  0.286600  0.324700  0.179700  1.0  0.1078
  H  H190  1  0.187700  0.372800  0.311800  1.0  0.1056
  H  H191  1  0.133200  0.449500  0.113200  1.0  0.098
  H  H192  1  0.179000  0.428400  0.063300  1.0  0.0966
  H  H193  1  0.246200  0.439100  0.110000  1.0  0.1038
  H  H194  1  0.063600  0.315200  0.113800  1.0  0.0991
  H  H195  1  0.069300  0.346900  0.064000  1.0  0.1043
  H  H196  1  0.015300  0.369200  0.111100  1.0  0.0985
  H  H197  1  0.311200  0.354900  0.104200  1.0  0.1006
  H  H198  1  0.242200  0.338200  0.060000  1.0  0.107
  H  H199  1  0.245500  0.306400  0.109800  1.0  0.0985
  H  H200  1  0.345800  0.363900  0.331900  1.0  0.1007
  H  H201  1  0.467000  0.321300  0.368700  1.0  0.0603
  H  H202  1  0.434900  0.209200  0.277900  1.0  0.0821
  H  H203  1  0.325200  0.252200  0.233900  1.0  0.0853
  H  H204  1  0.839500  0.212500  0.322400  1.0  0.124
  H  H205  1  0.936300  0.210500  0.354000  1.0  0.1125
  H  H206  1  0.862100  0.255300  0.361700  1.0  0.1259
  H  H207  1  0.268800  0.039200  0.736200  1.0  0.1083
  H  H208  1  0.143400  0.908600  0.756600  1.0  0.0799
  H  H209  1  0.599600  0.977300  0.847600  1.0  0.0895
  H  H210  1  0.505100  0.995800  0.712300  1.0  0.0912
  H  H211  1  0.094800  0.992700  0.715300  1.0  0.0651
  H  H212  1  0.181600  0.997200  0.809400  1.0  0.0923
  H  H213  1  0.996200  0.954100  0.784700  1.0  0.0784
  H  H214  1  0.044000  0.950300  0.838200  1.0  0.0786
  H  H215  1  0.028700  0.037400  0.849100  1.0  0.0738
  H  H216  1  0.925100  0.015200  0.834900  1.0  0.0704
  H  H217  1  0.948200  0.036800  0.750200  1.0  0.0877
  H  H218  1  0.962700  0.086000  0.782400  1.0  0.1097
  H  H219  1  0.083200  0.080400  0.719600  1.0  0.0776
  H  H220  1  0.132100  0.080500  0.773100  1.0  0.0778
  H  H221  1  0.167700  0.899800  0.839900  1.0  0.0887
  H  H222  1  0.266500  0.929700  0.836900  1.0  0.1027
  H  H223  1  0.414400  0.737200  0.806600  1.0  0.0981
  H  H224  1  0.240500  0.832800  0.879800  1.0  0.1078
  H  H225  1  0.496200  0.857300  0.705600  1.0  0.0923
  H  H226  1  0.566900  0.813900  0.687700  1.0  0.0932
  H  H227  1  0.562200  0.828700  0.744800  1.0  0.1051
  H  H228  1  0.339700  0.754600  0.677100  1.0  0.0959
  H  H229  1  0.421300  0.782900  0.646500  1.0  0.0955
  H  H230  1  0.340000  0.814100  0.674400  1.0  0.0977
  H  H231  1  0.555100  0.739400  0.748100  1.0  0.0934
  H  H232  1  0.516900  0.723300  0.694800  1.0  0.0956
  H  H233  1  0.455000  0.710700  0.742900  1.0  0.1025
  H  H234  1  0.209600  0.775700  0.926700  1.0  0.092
  H  H235  1  0.210800  0.729300  0.995300  1.0  0.0756
  H  H236  1  0.433300  0.654300  0.945400  1.0  0.0823
  H  H237  1  0.434900  0.701400  0.876000  1.0  0.1003
  H  H238  1  0.294800  0.030200  0.651200  1.0  0.0963
  H  H239  1  0.211500  0.068700  0.665900  1.0  0.0768
  H  H240  1  0.977900  0.931300  0.563900  1.0  0.101
  H  H241  1  0.089100  0.063400  0.607800  1.0  0.1029
  H  H242  1  0.136900  0.850200  0.683800  1.0  0.0932
  H  H243  1  0.051300  0.814200  0.667200  1.0  0.0961
  H  H244  1  0.028800  0.870300  0.683300  1.0  0.0952
  H  H245  1  0.185700  0.855300  0.557400  1.0  0.1061
  H  H246  1  0.184900  0.811100  0.596900  1.0  0.1003
  H  H247  1  0.234400  0.863100  0.610300  1.0  0.0917
  H  H248  1  0.946200  0.867900  0.592900  1.0  0.0816
  H  H249  1  0.986200  0.812500  0.599800  1.0  0.0875
  H  H250  1  0.013200  0.843600  0.551400  1.0  0.1027
  H  H251  1  0.940100  0.086300  0.597400  1.0  0.1106
  H  H252  1  0.827400  0.131600  0.551500  1.0  0.058
  H  H253  1  0.828300  0.028300  0.450000  1.0  0.082
  H  H254  1  0.940300  0.983800  0.493000  1.0  0.0748
  H  H255  1  0.573800  0.923600  0.760600  1.0  0.0699
  H  H256  1  0.671300  0.016900  0.768200  1.0  0.0525
  H  H257  1  0.646800  0.954600  0.681600  1.0  0.0731
  H  H258  1  0.700900  0.007400  0.681500  1.0  0.0776
  H  H259  1  0.816600  0.942600  0.687500  1.0  0.071
  H  H260  1  0.819200  0.975700  0.736400  1.0  0.0715
  H  H261  1  0.824400  0.891400  0.757300  1.0  0.0707
  H  H262  1  0.725600  0.881800  0.728300  1.0  0.0697
  H  H263  1  0.690600  0.892400  0.814400  1.0  0.0701
  H  H264  1  0.744300  0.945200  0.814600  1.0  0.0766
  H  H265  1  0.558100  0.893700  0.853400  1.0  0.0698
  H  H266  1  0.463400  0.903900  0.821900  1.0  0.0986
  H  H267  1  0.481100  0.861200  0.922700  1.0  0.1051
  H  H268  1  0.303700  0.944300  0.007700  1.0  0.1065
  H  H269  1  0.182800  0.000200  0.001500  1.0  0.0957
  H  H270  1  0.201900  0.058400  0.009000  1.0  0.098
  H  H271  1  0.276100  0.018600  0.030600  1.0  0.0953
  H  H272  1  0.393900  0.072700  0.984000  1.0  0.1112
  H  H273  1  0.311900  0.103200  0.955900  1.0  0.0962
  H  H274  1  0.392200  0.074100  0.925100  1.0  0.1006
  H  H275  1  0.245900  0.038200  0.881300  1.0  0.0868
  H  H276  1  0.179400  0.067300  0.919800  1.0  0.0945
  H  H277  1  0.167900  0.008500  0.913000  1.0  0.1013
  H  H278  1  0.503500  0.817600  0.981900  1.0  0.101
  H  H279  1  0.498600  0.752700  0.036900  1.0  0.0861
  H  H280  1  0.285300  0.815700  0.106500  1.0  0.0602
  H  H281  1  0.272800  0.876500  0.047200  1.0  0.1108
  H  H282  1  0.485000  0.083000  0.713500  1.0  0.1039
  H  H283  1  0.576100  0.064500  0.682500  1.0  0.0765
  H  H284  1  0.786600  0.175300  0.820300  1.0  0.1083
  H  H285  1  0.687700  0.127200  0.688200  1.0  0.1066
  H  H286  1  0.633200  0.050500  0.886800  1.0  0.0989
  H  H287  1  0.679000  0.071600  0.936700  1.0  0.0953
  H  H288  1  0.746200  0.060900  0.890000  1.0  0.1038
  H  H289  1  0.563600  0.184800  0.886200  1.0  0.0989
  H  H290  1  0.569300  0.153100  0.936000  1.0  0.104
  H  H291  1  0.515300  0.130800  0.888900  1.0  0.0992
  H  H292  1  0.811200  0.145100  0.895800  1.0  0.0992
  H  H293  1  0.742200  0.161800  0.940000  1.0  0.1053
  H  H294  1  0.745500  0.193600  0.890200  1.0  0.0957
  H  H295  1  0.845800  0.136100  0.668100  1.0  0.101
  H  H296  1  0.967000  0.178700  0.631300  1.0  0.0599
  H  H297  1  0.934900  0.290800  0.722100  1.0  0.0809
  H  H298  1  0.825200  0.247800  0.766100  1.0  0.0845
  H  H299  1  0.339500  0.287500  0.677600  1.0  0.1248
  H  H300  1  0.436300  0.289500  0.646000  1.0  0.1126
  H  H301  1  0.362100  0.244700  0.638300  1.0  0.1271
  H  H302  1  0.231200  0.960800  0.236200  1.0  0.1051
  H  H303  1  0.356600  0.091400  0.256600  1.0  0.0802
  H  H304  1  0.900400  0.022700  0.347600  1.0  0.0899
  H  H305  1  0.994900  0.004200  0.212300  1.0  0.091
  H  H306  1  0.405200  0.007300  0.215300  1.0  0.0646
  H  H307  1  0.318400  0.002800  0.309400  1.0  0.0937
  H  H308  1  0.503800  0.045900  0.284700  1.0  0.0786
  H  H309  1  0.456000  0.049700  0.338200  1.0  0.0779
  H  H310  1  0.471300  0.962600  0.349100  1.0  0.0732
  H  H311  1  0.574900  0.984800  0.334900  1.0  0.0668
  H  H312  1  0.551800  0.963200  0.250200  1.0  0.086
  H  H313  1  0.537300  0.914000  0.282400  1.0  0.1102
  H  H314  1  0.416800  0.919600  0.219600  1.0  0.0764
  H  H315  1  0.367900  0.919500  0.273100  1.0  0.0771
  H  H316  1  0.332300  0.100200  0.339900  1.0  0.0883
  H  H317  1  0.233500  0.070300  0.336900  1.0  0.1037
  H  H318  1  0.085600  0.262800  0.306600  1.0  0.0965
  H  H319  1  0.259500  0.167200  0.379800  1.0  0.1071
  H  H320  1  0.003800  0.142700  0.205600  1.0  0.0911
  H  H321  1  0.933100  0.186100  0.187700  1.0  0.0923
  H  H322  1  0.937800  0.171300  0.244800  1.0  0.1042
  H  H323  1  0.160300  0.245400  0.177100  1.0  0.0952
  H  H324  1  0.078700  0.217100  0.146500  1.0  0.0947
  H  H325  1  0.160000  0.185900  0.174400  1.0  0.0961
  H  H326  1  0.944900  0.260600  0.248100  1.0  0.095
  H  H327  1  0.983100  0.276700  0.194800  1.0  0.0963
  H  H328  1  0.045000  0.289300  0.242900  1.0  0.1005
  H  H329  1  0.290400  0.224300  0.426700  1.0  0.0925
  H  H330  1  0.289200  0.270700  0.495300  1.0  0.0757
  H  H331  1  0.066700  0.345700  0.445400  1.0  0.0818
  H  H332  1  0.065100  0.298600  0.376000  1.0  0.1003
  H  H333  1  0.205200  0.969800  0.151200  1.0  0.097
  H  H334  1  0.288500  0.931300  0.165900  1.0  0.0759
  H  H335  1  0.522100  0.068700  0.063900  1.0  0.1006
  H  H336  1  0.410900  0.936600  0.107800  1.0  0.1034
  H  H337  1  0.363100  0.149800  0.183800  1.0  0.0928
  H  H338  1  0.448700  0.185800  0.167200  1.0  0.0957
  H  H339  1  0.471200  0.129700  0.183300  1.0  0.0958
  H  H340  1  0.314300  0.144700  0.057400  1.0  0.1064
  H  H341  1  0.315100  0.188900  0.096900  1.0  0.1001
  H  H342  1  0.265600  0.136900  0.110300  1.0  0.0905
  H  H343  1  0.553800  0.132100  0.092900  1.0  0.0854
  H  H344  1  0.513800  0.187500  0.099800  1.0  0.0871
  H  H345  1  0.486800  0.156400  0.051400  1.0  0.1041
  H  H346  1  0.559900  0.913700  0.097400  1.0  0.111
  H  H347  1  0.672600  0.868400  0.051500  1.0  0.0584
  H  H348  1  0.671700  0.971700  0.950000  1.0  0.0819
  H  H349  1  0.559700  0.016200  0.993000  1.0  0.0749
  H  H350  1  0.926200  0.076400  0.260600  1.0  0.0697
  H  H351  1  0.828700  0.983100  0.268200  1.0  0.052
  H  H352  1  0.853200  0.045400  0.181600  1.0  0.0733
  H  H353  1  0.799100  0.992600  0.181500  1.0  0.0781
  H  H354  1  0.683400  0.057400  0.187500  1.0  0.0708
  H  H355  1  0.680800  0.024300  0.236400  1.0  0.0722
  H  H356  1  0.675600  0.108600  0.257300  1.0  0.0711
  H  H357  1  0.774400  0.118200  0.228300  1.0  0.0689
  H  H358  1  0.809400  0.107600  0.314400  1.0  0.0667
  H  H359  1  0.755700  0.054800  0.314600  1.0  0.0776
  H  H360  1  0.941900  0.106300  0.353400  1.0  0.071
  H  H361  1  0.036600  0.096100  0.321900  1.0  0.0976
  H  H362  1  0.018900  0.138800  0.422700  1.0  0.1051
  H  H363  1  0.196300  0.055700  0.507700  1.0  0.1054
  H  H364  1  0.317200  0.999800  0.501500  1.0  0.0959
  H  H365  1  0.298100  0.941600  0.509000  1.0  0.0975
  H  H366  1  0.223900  0.981400  0.530600  1.0  0.0958
  H  H367  1  0.106100  0.927300  0.484000  1.0  0.1105
  H  H368  1  0.188100  0.896800  0.455900  1.0  0.0957
  H  H369  1  0.107800  0.925900  0.425100  1.0  0.1008
  H  H370  1  0.254100  0.961800  0.381300  1.0  0.0873
  H  H371  1  0.320600  0.932700  0.419800  1.0  0.094
  H  H372  1  0.332100  0.991500  0.413000  1.0  0.1017
  H  H373  1  0.996500  0.182400  0.481900  1.0  0.1018
  H  H374  1  0.001400  0.247300  0.536900  1.0  0.0861
  H  H375  1  0.214700  0.184300  0.606500  1.0  0.0599
  H  H376  1  0.227200  0.123500  0.547200  1.0  0.1106
  H  H377  1  0.015000  0.917000  0.213500  1.0  0.1065
  H  H378  1  0.923900  0.935500  0.182500  1.0  0.076
  H  H379  1  0.713400  0.824700  0.320300  1.0  0.1078
  H  H380  1  0.812300  0.872800  0.188200  1.0  0.1066
  H  H381  1  0.866800  0.949500  0.386800  1.0  0.0971
  H  H382  1  0.821000  0.928400  0.436700  1.0  0.0949
  H  H383  1  0.753800  0.939100  0.390000  1.0  0.1044
  H  H384  1  0.936400  0.815200  0.386200  1.0  0.0987
  H  H385  1  0.930700  0.846900  0.436000  1.0  0.1052
  H  H386  1  0.984700  0.869200  0.388900  1.0  0.0984
  H  H387  1  0.688800  0.854900  0.395800  1.0  0.0977
  H  H388  1  0.757800  0.838200  0.440000  1.0  0.1078
  H  H389  1  0.754500  0.806400  0.390200  1.0  0.0963
  H  H390  1  0.654200  0.863900  0.168100  1.0  0.101
  H  H391  1  0.533000  0.821300  0.131300  1.0  0.0598
  H  H392  1  0.565100  0.709200  0.222100  1.0  0.0818
  H  H393  1  0.674800  0.752200  0.266100  1.0  0.0854
  H  H394  1  0.160500  0.712500  0.177600  1.0  0.1238
  H  H395  1  0.063700  0.710500  0.146000  1.0  0.1116
  H  H396  1  0.137900  0.755300  0.138300  1.0  0.1263
  C  C397  1  0.862500  0.510200  0.760700  1.0  0.0937
  C  C398  1  0.858900  0.479200  0.715200  1.0  0.0475
  C  C399  1  0.962000  0.471600  0.691500  1.0  -0.1644
  C  C400  1  0.008700  0.520700  0.677100  1.0  -0.0853
  C  C401  1  0.009200  0.553000  0.725400  1.0  -0.1356
  C  C402  1  0.909500  0.561200  0.749500  1.0  -0.155
  C  C403  1  0.775700  0.406300  0.681100  1.0  -0.1496
  C  C404  1  0.667800  0.344710  0.730250  1.0  0.2543
  C  C405  1  0.617400  0.300100  0.732050  1.0  -0.029
  C  C406  1  0.620000  0.267690  0.692200  1.0  -0.1526
  C  C407  1  0.672900  0.279890  0.650480  1.0  0.0016
  C  C408  1  0.723300  0.324500  0.648680  1.0  -0.148
  C  C409  1  0.720800  0.356900  0.688600  1.0  0.0353
  C  C410  1  0.555800  0.286300  0.777500  1.0  0.0778
  C  C411  1  0.475200  0.325100  0.785600  1.0  -0.3829
  C  C412  1  0.619600  0.284300  0.824200  1.0  -0.3689
  C  C413  1  0.502200  0.235100  0.772400  1.0  -0.3887
  C  C414  1  0.676900  0.246800  0.606200  1.0  0.0524
  C  C415  1  0.742100  0.251000  0.570000  1.0  -0.1738
  C  C416  1  0.743200  0.222200  0.529600  1.0  0.1419
  C  C417  1  0.614600  0.179100  0.558500  1.0  0.1306
  C  C418  1  0.612000  0.207800  0.599400  1.0  -0.214
  C  C419  1  0.769900  0.533200  0.833900  1.0  -0.0443
  C  C420  1  0.841600  0.503120  0.863700  1.0  0.0365
  C  C421  1  0.840400  0.451410  0.862800  1.0  0.258
  C  C422  1  0.907600  0.424630  0.889800  1.0  -0.0299
  C  C423  1  0.976100  0.449570  0.917700  1.0  -0.1469
  C  C424  1  0.977300  0.501300  0.918600  1.0  0.0301
  C  C425  1  0.910000  0.528060  0.891600  1.0  -0.1628
  C  C426  1  0.911900  0.365900  0.887500  1.0  0.1438
  C  C427  1  0.924900  0.348500  0.833300  1.0  -0.3731
  C  C428  1  0.818700  0.347200  0.907500  1.0  -0.3804
  C  C429  1  0.999200  0.345700  0.913100  1.0  -0.3952
  C  C430  1  0.051300  0.528200  0.949100  1.0  0.0808
  C  C431  1  0.083500  0.573100  0.932700  1.0  -0.1747
  C  C432  1  0.151900  0.600200  0.960600  1.0  0.1527
  C  C433  1  0.150500  0.540500  0.019000  1.0  0.1402
  C  C434  1  0.083800  0.513700  0.993100  1.0  -0.1631
  C  C435  1  0.387400  0.447600  0.719500  1.0  0.1162
  C  C436  1  0.369000  0.492900  0.750900  1.0  0.1015
  C  C437  1  0.313600  0.477600  0.798400  1.0  -0.1664
  C  C438  1  0.220200  0.451900  0.782700  1.0  -0.1114
  C  C439  1  0.237500  0.406600  0.752400  1.0  -0.1019
  C  C440  1  0.295200  0.422300  0.705600  1.0  -0.2036
  C  C441  1  0.491900  0.418800  0.653900  1.0  -0.1148
  C  C442  1  0.608400  0.396690  0.529390  1.0  -0.0218
  C  C443  1  0.553200  0.391230  0.571710  1.0  -0.115
  C  C444  1  0.548300  0.429690  0.605860  1.0  0.0181
  C  C445  1  0.598500  0.473610  0.597680  1.0  0.2268
  C  C446  1  0.653700  0.479070  0.555360  1.0  -0.0278
  C  C447  1  0.658600  0.440600  0.521210  1.0  -0.1854
  C  C448  1  0.710500  0.527400  0.545700  1.0  0.097
  C  C449  1  0.767700  0.526000  0.496600  1.0  -0.3885
  C  C450  1  0.647600  0.573500  0.545100  1.0  -0.3874
  C  C451  1  0.786300  0.536100  0.586700  1.0  -0.3928
  C  C452  1  0.610700  0.355200  0.493300  1.0  0.0066
  C  C453  1  0.545200  0.317400  0.493600  1.0  -0.1767
  C  C454  1  0.546600  0.278900  0.459800  1.0  0.1291
  C  C455  1  0.671300  0.314600  0.420500  1.0  0.1691
  C  C456  1  0.677500  0.352400  0.455100  1.0  -0.2203
  C  C457  1  0.450900  0.567200  0.783900  1.0  -0.1093
  C  C458  1  0.386500  0.599710  0.753050  1.0  0.0435
  C  C459  1  0.392300  0.600120  0.701940  1.0  0.2566
  C  C460  1  0.327800  0.628300  0.674600  1.0  -0.0323
  C  C461  1  0.257500  0.656100  0.698380  1.0  -0.1876
  C  C462  1  0.251700  0.655600  0.749490  1.0  0.0279
  C  C463  1  0.316300  0.627500  0.776830  1.0  -0.1461
  C  C464  1  0.334000  0.627100  0.618000  1.0  0.068
  C  C465  1  0.317300  0.572400  0.599400  1.0  -0.3768
  C  C466  1  0.430500  0.651200  0.600000  1.0  -0.3715
  C  C467  1  0.250900  0.660000  0.595900  1.0  -0.3853
  C  C468  1  0.177600  0.685000  0.775500  1.0  0.086
  C  C469  1  0.134600  0.667200  0.818700  1.0  -0.2162
  C  C470  1  0.065500  0.693900  0.841800  1.0  0.174
  C  C471  1  0.082400  0.758300  0.788600  1.0  0.1269
  C  C472  1  0.147800  0.732800  0.762400  1.0  -0.1899
  C  C473  1  0.686100  0.811900  0.896500  1.0  0.69
  C  C474  1  0.631700  0.780300  0.854500  1.0  -0.405
  C  C475  1  0.637500  0.489800  0.260700  1.0  0.095
  C  C476  1  0.641100  0.520800  0.215200  1.0  0.0482
  C  C477  1  0.538000  0.528400  0.191500  1.0  -0.1637
  C  C478  1  0.491300  0.479300  0.177100  1.0  -0.0848
  C  C479  1  0.490800  0.447000  0.225400  1.0  -0.133
  C  C480  1  0.590500  0.438800  0.249500  1.0  -0.1507
  C  C481  1  0.724300  0.593700  0.181100  1.0  -0.1481
  C  C482  1  0.832200  0.655290  0.230250  1.0  0.2545
  C  C483  1  0.882600  0.699900  0.232050  1.0  -0.0281
  C  C484  1  0.880000  0.732310  0.192200  1.0  -0.1525
  C  C485  1  0.827100  0.720110  0.150480  1.0  0.001
  C  C486  1  0.776700  0.675500  0.148680  1.0  -0.1485
  C  C487  1  0.779200  0.643100  0.188600  1.0  0.0358
  C  C488  1  0.944200  0.713700  0.277500  1.0  0.0775
  C  C489  1  0.024800  0.674900  0.285600  1.0  -0.3816
  C  C490  1  0.880400  0.715700  0.324200  1.0  -0.3675
  C  C491  1  0.997800  0.764900  0.272400  1.0  -0.3879
  C  C492  1  0.823100  0.753200  0.106200  1.0  0.0525
  C  C493  1  0.757900  0.749000  0.070000  1.0  -0.1737
  C  C494  1  0.756800  0.777800  0.029600  1.0  0.1415
  C  C495  1  0.885400  0.820900  0.058500  1.0  0.132
  C  C496  1  0.888000  0.792200  0.099400  1.0  -0.2161
  C  C497  1  0.730100  0.466800  0.333900  1.0  -0.0436
  C  C498  1  0.658400  0.496880  0.363700  1.0  0.038
  C  C499  1  0.659600  0.548590  0.362800  1.0  0.2595
  C  C500  1  0.592400  0.575370  0.389800  1.0  -0.0313
  C  C501  1  0.523900  0.550430  0.417700  1.0  -0.1471
  C  C502  1  0.522700  0.498700  0.418600  1.0  0.0323
  C  C503  1  0.590000  0.471940  0.391600  1.0  -0.1626
  C  C504  1  0.588100  0.634100  0.387500  1.0  0.144
  C  C505  1  0.575100  0.651500  0.333333  1.0  -0.371
  C  C506  1  0.681300  0.652800  0.407500  1.0  -0.3815
  C  C507  1  0.500800  0.654300  0.413100  1.0  -0.3958
  C  C508  1  0.448700  0.471800  0.449100  1.0  0.0804
  C  C509  1  0.416500  0.426900  0.432700  1.0  -0.1759
  C  C510  1  0.348100  0.399800  0.460600  1.0  0.1515
  C  C511  1  0.349500  0.459500  0.519000  1.0  0.1417
  C  C512  1  0.416200  0.486300  0.493100  1.0  -0.1667
  C  C513  1  0.112600  0.552400  0.219500  1.0  0.1159
  C  C514  1  0.131000  0.507100  0.250900  1.0  0.1008
  C  C515  1  0.186400  0.522400  0.298400  1.0  -0.1659
  C  C516  1  0.279800  0.548100  0.282700  1.0  -0.1112
  C  C517  1  0.262500  0.593400  0.252400  1.0  -0.1037
  C  C518  1  0.204800  0.577700  0.205600  1.0  -0.2037
  C  C519  1  0.008100  0.581200  0.153900  1.0  -0.1178
  C  C520  1  0.891600  0.603310  0.029390  1.0  -0.0216
  C  C521  1  0.946800  0.608770  0.071710  1.0  -0.1148
  C  C522  1  0.951700  0.570310  0.105860  1.0  0.018
  C  C523  1  0.901500  0.526390  0.097680  1.0  0.2274
  C  C524  1  0.846300  0.520930  0.055360  1.0  -0.0291
  C  C525  1  0.841400  0.559400  0.021210  1.0  -0.1841
  C  C526  1  0.789500  0.472600  0.045700  1.0  0.096
  C  C527  1  0.732300  0.474000  0.996600  1.0  -0.3864
  C  C528  1  0.852400  0.426500  0.045100  1.0  -0.3872
  C  C529  1  0.713700  0.463900  0.086700  1.0  -0.3953
  C  C530  1  0.889300  0.644800  0.993300  1.0  0.0076
  C  C531  1  0.954800  0.682600  0.993600  1.0  -0.1755
  C  C532  1  0.953400  0.721100  0.959800  1.0  0.1284
  C  C533  1  0.828700  0.685400  0.920500  1.0  0.1678
  C  C534  1  0.822500  0.647600  0.955100  1.0  -0.2218
  C  C535  1  0.049100  0.432800  0.283900  1.0  -0.1079
  C  C536  1  0.113500  0.400290  0.253050  1.0  0.0418
  C  C537  1  0.107700  0.399880  0.201940  1.0  0.2566
  C  C538  1  0.172200  0.371700  0.174600  1.0  -0.0327
  C  C539  1  0.242500  0.343900  0.198380  1.0  -0.1904
  C  C540  1  0.248300  0.344400  0.249490  1.0  0.0266
  C  C541  1  0.183700  0.372500  0.276830  1.0  -0.1459
  C  C542  1  0.166000  0.372900  0.118000  1.0  0.0677
  C  C543  1  0.182700  0.427600  0.099400  1.0  -0.3792
  C  C544  1  0.069500  0.348800  0.100000  1.0  -0.3743
  C  C545  1  0.249100  0.340000  0.095900  1.0  -0.3864
  C  C546  1  0.322400  0.315000  0.275500  1.0  0.0848
  C  C547  1  0.365400  0.332800  0.318700  1.0  -0.2172
  C  C548  1  0.434500  0.306100  0.341800  1.0  0.1752
  C  C549  1  0.417600  0.241700  0.288600  1.0  0.1261
  C  C550  1  0.352200  0.267200  0.262400  1.0  -0.1872
  C  C551  1  0.813900  0.188100  0.396500  1.0  0.6896
  C  C552  1  0.868300  0.219700  0.354500  1.0  -0.4036
  C  C553  1  0.137500  0.010200  0.739300  1.0  0.0933
  C  C554  1  0.141100  0.979200  0.784800  1.0  0.0482
  C  C555  1  0.038000  0.971600  0.808500  1.0  -0.1636
  C  C556  1  0.991300  0.020700  0.822900  1.0  -0.0839
  C  C557  1  0.990800  0.053000  0.774600  1.0  -0.1323
  C  C558  1  0.090500  0.061200  0.750500  1.0  -0.1551
  C  C559  1  0.224300  0.906300  0.818900  1.0  -0.1501
  C  C560  1  0.332200  0.844710  0.769750  1.0  0.2552
  C  C561  1  0.382600  0.800100  0.767950  1.0  -0.0285
  C  C562  1  0.380000  0.767690  0.807800  1.0  -0.1524
  C  C563  1  0.327100  0.779890  0.849520  1.0  0.0016
  C  C564  1  0.276700  0.824500  0.851320  1.0  -0.1489
  C  C565  1  0.279200  0.856900  0.811400  1.0  0.0365
  C  C566  1  0.444200  0.786300  0.722500  1.0  0.0781
  C  C567  1  0.524800  0.825100  0.714400  1.0  -0.3828
  C  C568  1  0.380400  0.784300  0.675800  1.0  -0.3668
  C  C569  1  0.497800  0.735100  0.727600  1.0  -0.3877
  C  C570  1  0.323100  0.746800  0.893800  1.0  0.0533
  C  C571  1  0.257900  0.751000  0.930000  1.0  -0.1734
  C  C572  1  0.256800  0.722200  0.970400  1.0  0.1429
  C  C573  1  0.385400  0.679100  0.941500  1.0  0.13
  C  C574  1  0.388000  0.707800  0.900600  1.0  -0.2157
  C  C575  1  0.230100  0.033200  0.666100  1.0  -0.0452
  C  C576  1  0.158400  0.003120  0.636300  1.0  0.04
  C  C577  1  0.159600  0.951410  0.637200  1.0  0.2596
  C  C578  1  0.092400  0.924630  0.610200  1.0  -0.0292
  C  C579  1  0.023900  0.949570  0.582300  1.0  -0.1482
  C  C580  1  0.022700  0.001300  0.581400  1.0  0.0324
  C  C581  1  0.090000  0.028060  0.608400  1.0  -0.1631
  C  C582  1  0.088100  0.865900  0.612500  1.0  0.1446
  C  C583  1  0.075100  0.848500  0.666667  1.0  -0.3726
  C  C584  1  0.181300  0.847200  0.592500  1.0  -0.3825
  C  C585  1  0.000800  0.845700  0.586900  1.0  -0.3974
  C  C586  1  0.948700  0.028200  0.550900  1.0  0.0815
  C  C587  1  0.916500  0.073100  0.567300  1.0  -0.1748
  C  C588  1  0.848100  0.100200  0.539400  1.0  0.1523
  C  C589  1  0.849500  0.040500  0.481000  1.0  0.1399
  C  C590  1  0.916200  0.013700  0.506900  1.0  -0.1651
  C  C591  1  0.612600  0.947600  0.780500  1.0  0.1153
  C  C592  1  0.631000  0.992900  0.749100  1.0  0.1012
  C  C593  1  0.686400  0.977600  0.701600  1.0  -0.1663
  C  C594  1  0.779800  0.951900  0.717300  1.0  -0.1114
  C  C595  1  0.762500  0.906600  0.747600  1.0  -0.1026
  C  C596  1  0.704800  0.922300  0.794400  1.0  -0.2026
  C  C597  1  0.508100  0.918800  0.846100  1.0  -0.1157
  C  C598  1  0.391600  0.896690  0.970610  1.0  -0.0217
  C  C599  1  0.446800  0.891230  0.928290  1.0  -0.1149
  C  C600  1  0.451700  0.929690  0.894140  1.0  0.0191
  C  C601  1  0.401500  0.973610  0.902320  1.0  0.2271
  C  C602  1  0.346300  0.979070  0.944640  1.0  -0.0296
  C  C603  1  0.341400  0.940600  0.978790  1.0  -0.1842
  C  C604  1  0.289500  0.027400  0.954300  1.0  0.0959
  C  C605  1  0.232300  0.026000  0.003400  1.0  -0.3872
  C  C606  1  0.352400  0.073500  0.954900  1.0  -0.3869
  C  C607  1  0.213700  0.036100  0.913300  1.0  -0.3941
  C  C608  1  0.389300  0.855200  0.006700  1.0  0.0072
  C  C609  1  0.454800  0.817400  0.006400  1.0  -0.1751
  C  C610  1  0.453400  0.778900  0.040200  1.0  0.1295
  C  C611  1  0.328700  0.814600  0.079500  1.0  0.1689
  C  C612  1  0.322500  0.852400  0.044900  1.0  -0.221
  C  C613  1  0.549100  0.067200  0.716100  1.0  -0.1083
  C  C614  1  0.613500  0.099710  0.746950  1.0  0.0436
  C  C615  1  0.607700  0.100120  0.798060  1.0  0.2569
  C  C616  1  0.672200  0.128300  0.825400  1.0  -0.0336
  C  C617  1  0.742500  0.156100  0.801620  1.0  -0.1902
  C  C618  1  0.748300  0.155600  0.750510  1.0  0.0267
  C  C619  1  0.683700  0.127500  0.723170  1.0  -0.1449
  C  C620  1  0.666000  0.127100  0.882000  1.0  0.0672
  C  C621  1  0.682700  0.072400  0.900600  1.0  -0.3771
  C  C622  1  0.569500  0.151200  0.900000  1.0  -0.3732
  C  C623  1  0.749100  0.160000  0.904100  1.0  -0.3846
  C  C624  1  0.822400  0.185000  0.724500  1.0  0.0845
  C  C625  1  0.865400  0.167200  0.681300  1.0  -0.2162
  C  C626  1  0.934500  0.193900  0.658200  1.0  0.1747
  C  C627  1  0.917600  0.258300  0.711400  1.0  0.1259
  C  C628  1  0.852200  0.232800  0.737600  1.0  -0.187
  C  C629  1  0.313900  0.311900  0.603500  1.0  0.6883
  C  C630  1  0.368300  0.280300  0.645500  1.0  -0.4055
  C  C631  1  0.362500  0.989800  0.239300  1.0  0.0944
  C  C632  1  0.358900  0.020800  0.284800  1.0  0.0471
  C  C633  1  0.462000  0.028400  0.308500  1.0  -0.1638
  C  C634  1  0.508700  0.979300  0.322900  1.0  -0.0846
  C  C635  1  0.509200  0.947000  0.274600  1.0  -0.1326
  C  C636  1  0.409500  0.938800  0.250500  1.0  -0.1493
  C  C637  1  0.275700  0.093700  0.318900  1.0  -0.149
  C  C638  1  0.167800  0.155290  0.269750  1.0  0.2542
  C  C639  1  0.117400  0.199900  0.267950  1.0  -0.0294
  C  C640  1  0.120000  0.232310  0.307800  1.0  -0.1537
  C  C641  1  0.172900  0.220110  0.349520  1.0  0.0017
  C  C642  1  0.223300  0.175500  0.351320  1.0  -0.1476
  C  C643  1  0.220800  0.143100  0.311400  1.0  0.0365
  C  C644  1  0.055800  0.213700  0.222500  1.0  0.0776
  C  C645  1  0.975200  0.174900  0.214400  1.0  -0.3829
  C  C646  1  0.119600  0.215700  0.175800  1.0  -0.3674
  C  C647  1  0.002200  0.264900  0.227600  1.0  -0.3882
  C  C648  1  0.176900  0.253200  0.393800  1.0  0.0534
  C  C649  1  0.242100  0.249000  0.430000  1.0  -0.1742
  C  C650  1  0.243200  0.277800  0.470400  1.0  0.1432
  C  C651  1  0.114600  0.320900  0.441500  1.0  0.1313
  C  C652  1  0.112000  0.292200  0.400600  1.0  -0.2158
  C  C653  1  0.269900  0.966800  0.166100  1.0  -0.0456
  C  C654  1  0.341600  0.996880  0.136300  1.0  0.0393
  C  C655  1  0.340400  0.048590  0.137200  1.0  0.2582
  C  C656  1  0.407600  0.075370  0.110200  1.0  -0.0315
  C  C657  1  0.476100  0.050430  0.082300  1.0  -0.1471
  C  C658  1  0.477300  0.998700  0.081400  1.0  0.0305
  C  C659  1  0.410000  0.971940  0.108400  1.0  -0.1621
  C  C660  1  0.411900  0.134100  0.112500  1.0  0.1435
  C  C661  1  0.424900  0.151500  0.166700  1.0  -0.3728
  C  C662  1  0.318700  0.152800  0.092500  1.0  -0.3803
  C  C663  1  0.499200  0.154300  0.086900  1.0  -0.3962
  C  C664  1  0.551300  0.971800  0.050900  1.0  0.0801
  C  C665  1  0.583500  0.926900  0.067300  1.0  -0.1743
  C  C666  1  0.651900  0.899800  0.039400  1.0  0.1519
  C  C667  1  0.650500  0.959500  0.981000  1.0  0.1391
  C  C668  1  0.583800  0.986300  0.006900  1.0  -0.164
  C  C669  1  0.887400  0.052400  0.280500  1.0  0.1161
  C  C670  1  0.869000  0.007100  0.249100  1.0  0.1011
  C  C671  1  0.813600  0.022400  0.201600  1.0  -0.1675
  C  C672  1  0.720200  0.048100  0.217300  1.0  -0.1105
  C  C673  1  0.737500  0.093400  0.247600  1.0  -0.1036
  C  C674  1  0.795200  0.077700  0.294400  1.0  -0.2026
  C  C675  1  0.991900  0.081200  0.346100  1.0  -0.1167
  C  C676  1  0.108400  0.103310  0.470610  1.0  -0.0214
  C  C677  1  0.053200  0.108770  0.428290  1.0  -0.115
  C  C678  1  0.048300  0.070310  0.394140  1.0  0.0176
  C  C679  1  0.098500  0.026390  0.402320  1.0  0.227
  C  C680  1  0.153700  0.020930  0.444640  1.0  -0.0286
  C  C681  1  0.158600  0.059400  0.478790  1.0  -0.1839
  C  C682  1  0.210500  0.972600  0.454300  1.0  0.0966
  C  C683  1  0.267700  0.974000  0.503400  1.0  -0.3879
  C  C684  1  0.147600  0.926500  0.454900  1.0  -0.3865
  C  C685  1  0.286300  0.963900  0.413300  1.0  -0.3931
  C  C686  1  0.110700  0.144800  0.506700  1.0  0.0072
  C  C687  1  0.045200  0.182600  0.506400  1.0  -0.1765
  C  C688  1  0.046600  0.221100  0.540200  1.0  0.1283
  C  C689  1  0.171300  0.185400  0.579500  1.0  0.1692
  C  C690  1  0.177500  0.147600  0.544900  1.0  -0.2204
  C  C691  1  0.950900  0.932800  0.216100  1.0  -0.11
  C  C692  1  0.886500  0.900290  0.246950  1.0  0.0431
  C  C693  1  0.892300  0.899880  0.298060  1.0  0.2563
  C  C694  1  0.827800  0.871700  0.325400  1.0  -0.0323
  C  C695  1  0.757500  0.843900  0.301620  1.0  -0.188
  C  C696  1  0.751700  0.844400  0.250510  1.0  0.0279
  C  C697  1  0.816300  0.872500  0.223170  1.0  -0.1455
  C  C698  1  0.834000  0.872900  0.382000  1.0  0.067
  C  C699  1  0.817300  0.927600  0.400600  1.0  -0.3762
  C  C700  1  0.930500  0.848800  0.400000  1.0  -0.3719
  C  C701  1  0.750900  0.840000  0.404100  1.0  -0.3853
  C  C702  1  0.677600  0.815000  0.224500  1.0  0.0863
  C  C703  1  0.634600  0.832800  0.181300  1.0  -0.217
  C  C704  1  0.565500  0.806100  0.158200  1.0  0.1741
  C  C705  1  0.582400  0.741700  0.211400  1.0  0.1262
  C  C706  1  0.647800  0.767200  0.237600  1.0  -0.1896
  C  C707  1  0.186100  0.688100  0.103500  1.0  0.6884
  C  C708  1  0.131700  0.719700  0.145500  1.0  -0.4059
  N  N709  1  0.768300  0.514500  0.783700  1.0  -0.3603
  N  N710  1  0.808900  0.431100  0.727200  1.0  -0.3765
  N  N711  1  0.682500  0.183800  0.522300  1.0  -0.375
  N  N712  1  0.187500  0.584200  0.001600  1.0  -0.3342
  N  N713  1  0.444900  0.462400  0.677300  1.0  -0.376
  N  N714  1  0.461600  0.517000  0.762700  1.0  -0.3528
  N  N715  1  0.610900  0.277500  0.422000  1.0  -0.3695
  N  N716  1  0.040000  0.739700  0.829500  1.0  -0.355
  N  N717  1  0.731700  0.485500  0.283700  1.0  -0.3599
  N  N718  1  0.691100  0.568900  0.227200  1.0  -0.3759
  N  N719  1  0.817500  0.816200  0.022300  1.0  -0.3718
  N  N720  1  0.312500  0.415800  0.501600  1.0  -0.3319
  N  N721  1  0.055100  0.537600  0.177300  1.0  -0.3776
  N  N722  1  0.038400  0.483000  0.262700  1.0  -0.3534
  N  N723  1  0.889100  0.722500  0.922000  1.0  -0.3702
  N  N724  1  0.460000  0.260300  0.329500  1.0  -0.3541
  N  N725  1  0.231700  0.014500  0.716300  1.0  -0.36
  N  N726  1  0.191100  0.931100  0.772800  1.0  -0.3756
  N  N727  1  0.317500  0.683800  0.977700  1.0  -0.3745
  N  N728  1  0.812500  0.084200  0.498400  1.0  -0.3302
  N  N729  1  0.555100  0.962400  0.822700  1.0  -0.3779
  N  N730  1  0.538400  0.017000  0.737300  1.0  -0.3598
  N  N731  1  0.389100  0.777500  0.078000  1.0  -0.3692
  N  N732  1  0.960000  0.239700  0.670500  1.0  -0.3549
  N  N733  1  0.268300  0.985500  0.216300  1.0  -0.3628
  N  N734  1  0.308900  0.068900  0.272800  1.0  -0.3773
  N  N735  1  0.182500  0.316200  0.477700  1.0  -0.3734
  N  N736  1  0.687500  0.915800  0.998400  1.0  -0.3336
  N  N737  1  0.944900  0.037600  0.322700  1.0  -0.3775
  N  N738  1  0.961600  0.983000  0.237300  1.0  -0.3569
  N  N739  1  0.110900  0.222500  0.578000  1.0  -0.3692
  N  N740  1  0.540000  0.760300  0.170500  1.0  -0.3567
  O  O741  1  0.663200  0.376570  0.768100  1.0  -0.6382
  O  O742  1  0.776800  0.428700  0.832500  1.0  -0.6468
  O  O743  1  0.595300  0.510000  0.631800  1.0  -0.6617
  O  O744  1  0.459100  0.571600  0.679900  1.0  -0.6424
  O  O745  1  0.622000  0.472700  0.728600  1.0  -0.8391
  O  O746  1  0.767500  0.825300  0.889500  1.0  -0.6518
  O  O747  1  0.644500  0.821400  0.935000  1.0  -0.6072
  O  O748  1  0.836800  0.623430  0.268100  1.0  -0.6362
  O  O749  1  0.723200  0.571300  0.332500  1.0  -0.6468
  O  O750  1  0.904700  0.490000  0.131800  1.0  -0.6608
  O  O751  1  0.040900  0.428400  0.179900  1.0  -0.6457
  O  O752  1  0.878000  0.527300  0.228600  1.0  -0.8395
  O  O753  1  0.732500  0.174700  0.389500  1.0  -0.6522
  O  O754  1  0.855500  0.178600  0.435000  1.0  -0.6071
  O  O755  1  0.336800  0.876570  0.731900  1.0  -0.6361
  O  O756  1  0.223200  0.928700  0.667500  1.0  -0.6461
  O  O757  1  0.404700  0.010000  0.868200  1.0  -0.6614
  O  O758  1  0.540900  0.071600  0.820100  1.0  -0.6454
  O  O759  1  0.378000  0.972700  0.771400  1.0  -0.8411
  O  O760  1  0.232500  0.325300  0.610500  1.0  -0.6529
  O  O761  1  0.355500  0.321400  0.565000  1.0  -0.6083
  O  O762  1  0.163200  0.123430  0.231900  1.0  -0.6368
  O  O763  1  0.276800  0.071300  0.167500  1.0  -0.6474
  O  O764  1  0.095300  0.990000  0.368200  1.0  -0.6609
  O  O765  1  0.959100  0.928400  0.320100  1.0  -0.6422
  O  O766  1  0.122000  0.027300  0.271400  1.0  -0.8412
  O  O767  1  0.267500  0.674700  0.110500  1.0  -0.6522
  O  O768  1  0.144500  0.678600  0.065000  1.0  -0.6076
