# generated using pymatgen
data_Cu3H20C33N6O17
_symmetry_space_group_name_H-M   'P 1'
_cell_length_a   31.08650000
_cell_length_b   31.08650000
_cell_length_c   44.59600000
_cell_angle_alpha   90.00000000
_cell_angle_beta   90.00000000
_cell_angle_gamma   90.00000000
_symmetry_Int_Tables_number   1
_chemical_formula_structural   Cu3H20C33N6O17
_chemical_formula_sum   'Cu48 H320 C528 N96 O272'
_cell_volume   43096.25802642
_cell_formula_units_Z   16
loop_
 _symmetry_equiv_pos_site_id
 _symmetry_equiv_pos_as_xyz
  1  'x, y, z'
loop_
 _atom_site_type_symbol
 _atom_site_label
 _atom_site_symmetry_multiplicity
 _atom_site_fract_x
 _atom_site_fract_y
 _atom_site_fract_z
 _atom_site_occupancy
 _atom_site_charge
  Cu  Cu1  1  0.362440  0.301440  0.168550  1.0  0.9333
  Cu  Cu2  1  0.396760  0.350740  0.126840  1.0  0.9272
  Cu  Cu3  1  0.862440  0.801440  0.668550  1.0  0.9333
  Cu  Cu4  1  0.896760  0.850740  0.626840  1.0  0.9272
  Cu  Cu5  1  0.637560  0.698560  0.168550  1.0  0.9312
  Cu  Cu6  1  0.603240  0.649260  0.126840  1.0  0.928
  Cu  Cu7  1  0.137560  0.198560  0.668550  1.0  0.9312
  Cu  Cu8  1  0.103240  0.149260  0.626840  1.0  0.928
  Cu  Cu9  1  0.698560  0.362440  0.168550  1.0  0.9319
  Cu  Cu10  1  0.649260  0.396760  0.126840  1.0  0.9282
  Cu  Cu11  1  0.198560  0.862440  0.668550  1.0  0.9319
  Cu  Cu12  1  0.149260  0.896760  0.626840  1.0  0.9282
  Cu  Cu13  1  0.301440  0.637560  0.168550  1.0  0.9339
  Cu  Cu14  1  0.350740  0.603240  0.126840  1.0  0.9261
  Cu  Cu15  1  0.801440  0.137560  0.668550  1.0  0.9339
  Cu  Cu16  1  0.850740  0.103240  0.626840  1.0  0.9261
  Cu  Cu17  1  0.637560  0.698560  0.831450  1.0  0.9326
  Cu  Cu18  1  0.603240  0.649260  0.873160  1.0  0.9285
  Cu  Cu19  1  0.137560  0.198560  0.331450  1.0  0.9326
  Cu  Cu20  1  0.103240  0.149260  0.373160  1.0  0.9285
  Cu  Cu21  1  0.362440  0.301440  0.831450  1.0  0.9335
  Cu  Cu22  1  0.396760  0.350740  0.873160  1.0  0.9267
  Cu  Cu23  1  0.862440  0.801440  0.331450  1.0  0.9335
  Cu  Cu24  1  0.896760  0.850740  0.373160  1.0  0.9267
  Cu  Cu25  1  0.301440  0.637560  0.831450  1.0  0.9348
  Cu  Cu26  1  0.350740  0.603240  0.873160  1.0  0.9264
  Cu  Cu27  1  0.801440  0.137560  0.331450  1.0  0.9348
  Cu  Cu28  1  0.850740  0.103240  0.373160  1.0  0.9264
  Cu  Cu29  1  0.698560  0.362440  0.831450  1.0  0.932
  Cu  Cu30  1  0.649260  0.396760  0.873160  1.0  0.9283
  Cu  Cu31  1  0.198560  0.862440  0.331450  1.0  0.932
  Cu  Cu32  1  0.149260  0.896760  0.373160  1.0  0.9283
  Cu  Cu33  1  0.544470  0.247500  0.000000  1.0  0.9176
  Cu  Cu34  1  0.558500  0.163670  0.000000  1.0  0.8965
  Cu  Cu35  1  0.044470  0.747500  0.500000  1.0  0.9176
  Cu  Cu36  1  0.058500  0.663670  0.500000  1.0  0.8965
  Cu  Cu37  1  0.455530  0.752500  0.000000  1.0  0.9196
  Cu  Cu38  1  0.441500  0.836330  0.000000  1.0  0.8955
  Cu  Cu39  1  0.955530  0.252500  0.500000  1.0  0.9196
  Cu  Cu40  1  0.941500  0.336330  0.500000  1.0  0.8955
  Cu  Cu41  1  0.752500  0.544470  0.000000  1.0  0.919
  Cu  Cu42  1  0.836330  0.558500  0.000000  1.0  0.8977
  Cu  Cu43  1  0.252500  0.044470  0.500000  1.0  0.919
  Cu  Cu44  1  0.336330  0.058500  0.500000  1.0  0.8977
  Cu  Cu45  1  0.247500  0.455530  0.000000  1.0  0.9198
  Cu  Cu46  1  0.163670  0.441500  0.000000  1.0  0.8967
  Cu  Cu47  1  0.747500  0.955530  0.500000  1.0  0.9198
  Cu  Cu48  1  0.663670  0.941500  0.500000  1.0  0.8967
  H  H49  1  0.338700  0.971900  0.108800  1.0  0.1182
  H  H50  1  0.317800  0.070100  0.165600  1.0  0.1139
  H  H51  1  0.265700  0.954200  0.182100  1.0  0.1109
  H  H52  1  0.279200  0.839100  0.129500  1.0  0.2569
  H  H53  1  0.269800  0.902100  0.144100  1.0  0.2473
  H  H54  1  0.353000  0.842300  0.071800  1.0  0.1086
  H  H55  1  0.342000  0.267700  0.220000  1.0  0.4915
  H  H56  1  0.267000  0.062800  0.202900  1.0  0.2954
  H  H57  1  0.453100  0.253600  0.071700  1.0  0.1159
  H  H58  1  0.185500  0.101300  0.273000  1.0  0.1191
  H  H59  1  0.458900  0.125900  0.063300  1.0  0.1119
  H  H60  1  0.371100  0.714300  0.071900  1.0  0.1148
  H  H61  1  0.415000  0.083600  0.089700  1.0  0.3142
  H  H62  1  0.297600  0.767800  0.134600  1.0  0.1248
  H  H63  1  0.142000  0.026800  0.338700  1.0  0.1024
  H  H64  1  0.239000  0.071800  0.245300  1.0  0.2703
  H  H65  1  0.447600  0.379600  0.085400  1.0  0.4748
  H  H66  1  0.383000  0.178000  0.124500  1.0  0.1053
  H  H67  1  0.210000  0.973400  0.271100  1.0  0.1092
  H  H68  1  0.382300  0.033600  0.105200  1.0  0.3514
  H  H69  1  0.838700  0.471900  0.608800  1.0  0.1174
  H  H70  1  0.817800  0.570100  0.665600  1.0  0.1139
  H  H71  1  0.765700  0.454200  0.682100  1.0  0.1124
  H  H72  1  0.779200  0.339100  0.629500  1.0  0.2569
  H  H73  1  0.769800  0.402100  0.644100  1.0  0.2485
  H  H74  1  0.853000  0.342300  0.571800  1.0  0.1086
  H  H75  1  0.842000  0.767700  0.720000  1.0  0.4915
  H  H76  1  0.767000  0.562800  0.702900  1.0  0.2954
  H  H77  1  0.953100  0.753600  0.571700  1.0  0.1159
  H  H78  1  0.685500  0.601300  0.773000  1.0  0.1191
  H  H79  1  0.958900  0.625900  0.563300  1.0  0.1119
  H  H80  1  0.871100  0.214300  0.571900  1.0  0.1148
  H  H81  1  0.915000  0.583600  0.589700  1.0  0.3142
  H  H82  1  0.797600  0.267800  0.634600  1.0  0.1248
  H  H83  1  0.642000  0.526800  0.838700  1.0  0.1024
  H  H84  1  0.739000  0.571800  0.745300  1.0  0.2703
  H  H85  1  0.947600  0.879600  0.585400  1.0  0.4748
  H  H86  1  0.883000  0.678000  0.624500  1.0  0.1053
  H  H87  1  0.710000  0.473400  0.771100  1.0  0.1092
  H  H88  1  0.882300  0.533600  0.605200  1.0  0.3514
  H  H89  1  0.661300  0.028100  0.108800  1.0  0.1184
  H  H90  1  0.682200  0.929900  0.165600  1.0  0.1141
  H  H91  1  0.734300  0.045800  0.182100  1.0  0.1108
  H  H92  1  0.720800  0.160900  0.129500  1.0  0.2579
  H  H93  1  0.730200  0.097900  0.144100  1.0  0.2463
  H  H94  1  0.647000  0.157700  0.071800  1.0  0.1087
  H  H95  1  0.658000  0.732300  0.220000  1.0  0.49
  H  H96  1  0.733000  0.937200  0.202900  1.0  0.2983
  H  H97  1  0.546900  0.746400  0.071700  1.0  0.1163
  H  H98  1  0.814500  0.898700  0.273000  1.0  0.1191
  H  H99  1  0.541100  0.874100  0.063300  1.0  0.1113
  H  H100  1  0.628900  0.285700  0.071900  1.0  0.1147
  H  H101  1  0.585000  0.916400  0.089700  1.0  0.3141
  H  H102  1  0.702400  0.232200  0.134600  1.0  0.1243
  H  H103  1  0.858000  0.973200  0.338700  1.0  0.1025
  H  H104  1  0.761000  0.928200  0.245300  1.0  0.2723
  H  H105  1  0.552400  0.620400  0.085400  1.0  0.4786
  H  H106  1  0.617000  0.822000  0.124500  1.0  0.1052
  H  H107  1  0.790000  0.026600  0.271100  1.0  0.1089
  H  H108  1  0.617700  0.966400  0.105200  1.0  0.3521
  H  H109  1  0.161300  0.528100  0.608800  1.0  0.1174
  H  H110  1  0.182200  0.429900  0.665600  1.0  0.1141
  H  H111  1  0.234300  0.545800  0.682100  1.0  0.1121
  H  H112  1  0.220800  0.660900  0.629500  1.0  0.2579
  H  H113  1  0.230200  0.597900  0.644100  1.0  0.2483
  H  H114  1  0.147000  0.657700  0.571800  1.0  0.1087
  H  H115  1  0.158000  0.232300  0.720000  1.0  0.49
  H  H116  1  0.233000  0.437200  0.702900  1.0  0.2983
  H  H117  1  0.046900  0.246400  0.571700  1.0  0.1163
  H  H118  1  0.314500  0.398700  0.773000  1.0  0.1191
  H  H119  1  0.041100  0.374100  0.563300  1.0  0.1113
  H  H120  1  0.128900  0.785700  0.571900  1.0  0.1147
  H  H121  1  0.085000  0.416400  0.589700  1.0  0.3141
  H  H122  1  0.202400  0.732200  0.634600  1.0  0.1243
  H  H123  1  0.358000  0.473200  0.838700  1.0  0.1025
  H  H124  1  0.261000  0.428200  0.745300  1.0  0.2723
  H  H125  1  0.052400  0.120400  0.585400  1.0  0.4786
  H  H126  1  0.117000  0.322000  0.624500  1.0  0.1052
  H  H127  1  0.290000  0.526600  0.771100  1.0  0.1089
  H  H128  1  0.117700  0.466400  0.605200  1.0  0.3521
  H  H129  1  0.028100  0.338700  0.108800  1.0  0.1182
  H  H130  1  0.929900  0.317800  0.165600  1.0  0.1141
  H  H131  1  0.045800  0.265700  0.182100  1.0  0.1108
  H  H132  1  0.160900  0.279200  0.129500  1.0  0.2582
  H  H133  1  0.097900  0.269800  0.144100  1.0  0.2513
  H  H134  1  0.157700  0.353000  0.071800  1.0  0.109
  H  H135  1  0.732300  0.342000  0.220000  1.0  0.4902
  H  H136  1  0.937200  0.267000  0.202900  1.0  0.2964
  H  H137  1  0.746400  0.453100  0.071700  1.0  0.1157
  H  H138  1  0.898700  0.185500  0.273000  1.0  0.1188
  H  H139  1  0.874100  0.458900  0.063300  1.0  0.1121
  H  H140  1  0.285700  0.371100  0.071900  1.0  0.1145
  H  H141  1  0.916400  0.415000  0.089700  1.0  0.3141
  H  H142  1  0.232200  0.297600  0.134600  1.0  0.1239
  H  H143  1  0.973200  0.142000  0.338700  1.0  0.1022
  H  H144  1  0.928200  0.239000  0.245300  1.0  0.2706
  H  H145  1  0.620400  0.447600  0.085400  1.0  0.4749
  H  H146  1  0.822000  0.383000  0.124500  1.0  0.1045
  H  H147  1  0.026600  0.210000  0.271100  1.0  0.1091
  H  H148  1  0.966400  0.382300  0.105200  1.0  0.3514
  H  H149  1  0.528100  0.838700  0.608800  1.0  0.1171
  H  H150  1  0.429900  0.817800  0.665600  1.0  0.1141
  H  H151  1  0.545800  0.765700  0.682100  1.0  0.112
  H  H152  1  0.660900  0.779200  0.629500  1.0  0.2582
  H  H153  1  0.597900  0.769800  0.644100  1.0  0.254
  H  H154  1  0.657700  0.853000  0.571800  1.0  0.109
  H  H155  1  0.232300  0.842000  0.720000  1.0  0.4902
  H  H156  1  0.437200  0.767000  0.702900  1.0  0.2964
  H  H157  1  0.246400  0.953100  0.571700  1.0  0.1157
  H  H158  1  0.398700  0.685500  0.773000  1.0  0.1188
  H  H159  1  0.374100  0.958900  0.563300  1.0  0.1121
  H  H160  1  0.785700  0.871100  0.571900  1.0  0.1145
  H  H161  1  0.416400  0.915000  0.589700  1.0  0.3141
  H  H162  1  0.732200  0.797600  0.634600  1.0  0.1239
  H  H163  1  0.473200  0.642000  0.838700  1.0  0.1022
  H  H164  1  0.428200  0.739000  0.745300  1.0  0.2706
  H  H165  1  0.120400  0.947600  0.585400  1.0  0.4749
  H  H166  1  0.322000  0.883000  0.624500  1.0  0.1045
  H  H167  1  0.526600  0.710000  0.771100  1.0  0.1091
  H  H168  1  0.466400  0.882300  0.605200  1.0  0.3514
  H  H169  1  0.971900  0.661300  0.108800  1.0  0.1181
  H  H170  1  0.070100  0.682200  0.165600  1.0  0.1132
  H  H171  1  0.954200  0.734300  0.182100  1.0  0.1107
  H  H172  1  0.839100  0.720800  0.129500  1.0  0.2564
  H  H173  1  0.902100  0.730200  0.144100  1.0  0.2485
  H  H174  1  0.842300  0.647000  0.071800  1.0  0.1089
  H  H175  1  0.267700  0.658000  0.220000  1.0  0.4907
  H  H176  1  0.062800  0.733000  0.202900  1.0  0.2942
  H  H177  1  0.253600  0.546900  0.071700  1.0  0.1153
  H  H178  1  0.101300  0.814500  0.273000  1.0  0.1195
  H  H179  1  0.125900  0.541100  0.063300  1.0  0.1117
  H  H180  1  0.714300  0.628900  0.071900  1.0  0.1143
  H  H181  1  0.083600  0.585000  0.089700  1.0  0.3141
  H  H182  1  0.767800  0.702400  0.134600  1.0  0.1233
  H  H183  1  0.026800  0.858000  0.338700  1.0  0.1018
  H  H184  1  0.071800  0.761000  0.245300  1.0  0.2708
  H  H185  1  0.379600  0.552400  0.085400  1.0  0.4801
  H  H186  1  0.178000  0.617000  0.124500  1.0  0.1047
  H  H187  1  0.973400  0.790000  0.271100  1.0  0.1089
  H  H188  1  0.033600  0.617700  0.105200  1.0  0.3526
  H  H189  1  0.471900  0.161300  0.608800  1.0  0.1171
  H  H190  1  0.570100  0.182200  0.665600  1.0  0.1132
  H  H191  1  0.454200  0.234300  0.682100  1.0  0.1123
  H  H192  1  0.339100  0.220800  0.629500  1.0  0.2564
  H  H193  1  0.402100  0.230200  0.644100  1.0  0.2507
  H  H194  1  0.342300  0.147000  0.571800  1.0  0.1089
  H  H195  1  0.767700  0.158000  0.720000  1.0  0.4907
  H  H196  1  0.562800  0.233000  0.702900  1.0  0.2942
  H  H197  1  0.753600  0.046900  0.571700  1.0  0.1153
  H  H198  1  0.601300  0.314500  0.773000  1.0  0.1195
  H  H199  1  0.625900  0.041100  0.563300  1.0  0.1117
  H  H200  1  0.214300  0.128900  0.571900  1.0  0.1143
  H  H201  1  0.583600  0.085000  0.589700  1.0  0.3141
  H  H202  1  0.267800  0.202400  0.634600  1.0  0.1233
  H  H203  1  0.526800  0.358000  0.838700  1.0  0.1018
  H  H204  1  0.571800  0.261000  0.745300  1.0  0.2708
  H  H205  1  0.879600  0.052400  0.585400  1.0  0.4801
  H  H206  1  0.678000  0.117000  0.624500  1.0  0.1047
  H  H207  1  0.473400  0.290000  0.771100  1.0  0.1089
  H  H208  1  0.533600  0.117700  0.605200  1.0  0.3526
  H  H209  1  0.661300  0.028100  0.891200  1.0  0.1184
  H  H210  1  0.682200  0.929900  0.834400  1.0  0.1143
  H  H211  1  0.734300  0.045800  0.817900  1.0  0.1108
  H  H212  1  0.720800  0.160900  0.870500  1.0  0.2588
  H  H213  1  0.730200  0.097900  0.855900  1.0  0.2477
  H  H214  1  0.647000  0.157700  0.928200  1.0  0.1088
  H  H215  1  0.658000  0.732300  0.780000  1.0  0.4844
  H  H216  1  0.733000  0.937200  0.797100  1.0  0.2984
  H  H217  1  0.546900  0.746400  0.928300  1.0  0.1162
  H  H218  1  0.814500  0.898700  0.727000  1.0  0.1196
  H  H219  1  0.541100  0.874100  0.936700  1.0  0.1115
  H  H220  1  0.628900  0.285700  0.928100  1.0  0.1148
  H  H221  1  0.585000  0.916400  0.910300  1.0  0.3141
  H  H222  1  0.702400  0.232200  0.865400  1.0  0.1249
  H  H223  1  0.858000  0.973200  0.661300  1.0  0.1023
  H  H224  1  0.761000  0.928200  0.754700  1.0  0.2723
  H  H225  1  0.552400  0.620400  0.914600  1.0  0.4784
  H  H226  1  0.617000  0.822000  0.875500  1.0  0.1046
  H  H227  1  0.790000  0.026600  0.728900  1.0  0.1087
  H  H228  1  0.617700  0.966400  0.894800  1.0  0.3539
  H  H229  1  0.161300  0.528100  0.391200  1.0  0.1177
  H  H230  1  0.182200  0.429900  0.334400  1.0  0.1143
  H  H231  1  0.234300  0.545800  0.317900  1.0  0.1122
  H  H232  1  0.220800  0.660900  0.370500  1.0  0.2588
  H  H233  1  0.230200  0.597900  0.355900  1.0  0.2498
  H  H234  1  0.147000  0.657700  0.428200  1.0  0.1088
  H  H235  1  0.158000  0.232300  0.280000  1.0  0.4844
  H  H236  1  0.233000  0.437200  0.297100  1.0  0.2984
  H  H237  1  0.046900  0.246400  0.428300  1.0  0.1162
  H  H238  1  0.314500  0.398700  0.227000  1.0  0.1196
  H  H239  1  0.041100  0.374100  0.436700  1.0  0.1115
  H  H240  1  0.128900  0.785700  0.428100  1.0  0.1148
  H  H241  1  0.085000  0.416400  0.410300  1.0  0.3141
  H  H242  1  0.202400  0.732200  0.365400  1.0  0.1249
  H  H243  1  0.358000  0.473200  0.161300  1.0  0.1023
  H  H244  1  0.261000  0.428200  0.254700  1.0  0.2723
  H  H245  1  0.052400  0.120400  0.414600  1.0  0.4784
  H  H246  1  0.117000  0.322000  0.375500  1.0  0.1046
  H  H247  1  0.290000  0.526600  0.228900  1.0  0.1087
  H  H248  1  0.117700  0.466400  0.394800  1.0  0.3539
  H  H249  1  0.338700  0.971900  0.891200  1.0  0.1181
  H  H250  1  0.317800  0.070100  0.834400  1.0  0.1141
  H  H251  1  0.265700  0.954200  0.817900  1.0  0.1106
  H  H252  1  0.279200  0.839100  0.870500  1.0  0.2574
  H  H253  1  0.269800  0.902100  0.855900  1.0  0.248
  H  H254  1  0.353000  0.842300  0.928200  1.0  0.1086
  H  H255  1  0.342000  0.267700  0.780000  1.0  0.4863
  H  H256  1  0.267000  0.062800  0.797100  1.0  0.2953
  H  H257  1  0.453100  0.253600  0.928300  1.0  0.116
  H  H258  1  0.185500  0.101300  0.727000  1.0  0.1194
  H  H259  1  0.458900  0.125900  0.936700  1.0  0.1118
  H  H260  1  0.371100  0.714300  0.928100  1.0  0.1145
  H  H261  1  0.415000  0.083600  0.910300  1.0  0.3146
  H  H262  1  0.297600  0.767800  0.865400  1.0  0.1247
  H  H263  1  0.142000  0.026800  0.661300  1.0  0.1018
  H  H264  1  0.239000  0.071800  0.754700  1.0  0.2702
  H  H265  1  0.447600  0.379600  0.914600  1.0  0.4751
  H  H266  1  0.383000  0.178000  0.875500  1.0  0.1045
  H  H267  1  0.210000  0.973400  0.728900  1.0  0.1089
  H  H268  1  0.382300  0.033600  0.894800  1.0  0.3526
  H  H269  1  0.838700  0.471900  0.391200  1.0  0.1174
  H  H270  1  0.817800  0.570100  0.334400  1.0  0.1141
  H  H271  1  0.765700  0.454200  0.317900  1.0  0.1121
  H  H272  1  0.779200  0.339100  0.370500  1.0  0.2574
  H  H273  1  0.769800  0.402100  0.355900  1.0  0.2493
  H  H274  1  0.853000  0.342300  0.428200  1.0  0.1086
  H  H275  1  0.842000  0.767700  0.280000  1.0  0.4863
  H  H276  1  0.767000  0.562800  0.297100  1.0  0.2953
  H  H277  1  0.953100  0.753600  0.428300  1.0  0.116
  H  H278  1  0.685500  0.601300  0.227000  1.0  0.1194
  H  H279  1  0.958900  0.625900  0.436700  1.0  0.1118
  H  H280  1  0.871100  0.214300  0.428100  1.0  0.1145
  H  H281  1  0.915000  0.583600  0.410300  1.0  0.3146
  H  H282  1  0.797600  0.267800  0.365400  1.0  0.1247
  H  H283  1  0.642000  0.526800  0.161300  1.0  0.1018
  H  H284  1  0.739000  0.571800  0.254700  1.0  0.2702
  H  H285  1  0.947600  0.879600  0.414600  1.0  0.4751
  H  H286  1  0.883000  0.678000  0.375500  1.0  0.1045
  H  H287  1  0.710000  0.473400  0.228900  1.0  0.1089
  H  H288  1  0.882300  0.533600  0.394800  1.0  0.3526
  H  H289  1  0.971900  0.661300  0.891200  1.0  0.1183
  H  H290  1  0.070100  0.682200  0.834400  1.0  0.1137
  H  H291  1  0.954200  0.734300  0.817900  1.0  0.1104
  H  H292  1  0.839100  0.720800  0.870500  1.0  0.2565
  H  H293  1  0.902100  0.730200  0.855900  1.0  0.2495
  H  H294  1  0.842300  0.647000  0.928200  1.0  0.1089
  H  H295  1  0.267700  0.658000  0.780000  1.0  0.4846
  H  H296  1  0.062800  0.733000  0.797100  1.0  0.2942
  H  H297  1  0.253600  0.546900  0.928300  1.0  0.1155
  H  H298  1  0.101300  0.814500  0.727000  1.0  0.1199
  H  H299  1  0.125900  0.541100  0.936700  1.0  0.1119
  H  H300  1  0.714300  0.628900  0.928100  1.0  0.1142
  H  H301  1  0.083600  0.585000  0.910300  1.0  0.3143
  H  H302  1  0.767800  0.702400  0.865400  1.0  0.1231
  H  H303  1  0.026800  0.858000  0.661300  1.0  0.1017
  H  H304  1  0.071800  0.761000  0.754700  1.0  0.2704
  H  H305  1  0.379600  0.552400  0.914600  1.0  0.48
  H  H306  1  0.178000  0.617000  0.875500  1.0  0.1039
  H  H307  1  0.973400  0.790000  0.728900  1.0  0.1089
  H  H308  1  0.033600  0.617700  0.894800  1.0  0.3537
  H  H309  1  0.471900  0.161300  0.391200  1.0  0.1175
  H  H310  1  0.570100  0.182200  0.334400  1.0  0.1137
  H  H311  1  0.454200  0.234300  0.317900  1.0  0.1121
  H  H312  1  0.339100  0.220800  0.370500  1.0  0.2565
  H  H313  1  0.402100  0.230200  0.355900  1.0  0.2517
  H  H314  1  0.342300  0.147000  0.428200  1.0  0.1089
  H  H315  1  0.767700  0.158000  0.280000  1.0  0.4846
  H  H316  1  0.562800  0.233000  0.297100  1.0  0.2942
  H  H317  1  0.753600  0.046900  0.428300  1.0  0.1155
  H  H318  1  0.601300  0.314500  0.227000  1.0  0.1199
  H  H319  1  0.625900  0.041100  0.436700  1.0  0.1119
  H  H320  1  0.214300  0.128900  0.428100  1.0  0.1142
  H  H321  1  0.583600  0.085000  0.410300  1.0  0.3143
  H  H322  1  0.267800  0.202400  0.365400  1.0  0.1231
  H  H323  1  0.526800  0.358000  0.161300  1.0  0.1017
  H  H324  1  0.571800  0.261000  0.254700  1.0  0.2704
  H  H325  1  0.879600  0.052400  0.414600  1.0  0.48
  H  H326  1  0.678000  0.117000  0.375500  1.0  0.1039
  H  H327  1  0.473400  0.290000  0.228900  1.0  0.1089
  H  H328  1  0.533600  0.117700  0.394800  1.0  0.3537
  H  H329  1  0.028100  0.338700  0.891200  1.0  0.118
  H  H330  1  0.929900  0.317800  0.834400  1.0  0.1145
  H  H331  1  0.045800  0.265700  0.817900  1.0  0.1107
  H  H332  1  0.160900  0.279200  0.870500  1.0  0.2585
  H  H333  1  0.097900  0.269800  0.855900  1.0  0.252
  H  H334  1  0.157700  0.353000  0.928200  1.0  0.109
  H  H335  1  0.732300  0.342000  0.780000  1.0  0.4844
  H  H336  1  0.937200  0.267000  0.797100  1.0  0.2963
  H  H337  1  0.746400  0.453100  0.928300  1.0  0.1156
  H  H338  1  0.898700  0.185500  0.727000  1.0  0.1192
  H  H339  1  0.874100  0.458900  0.936700  1.0  0.1122
  H  H340  1  0.285700  0.371100  0.928100  1.0  0.1143
  H  H341  1  0.916400  0.415000  0.910300  1.0  0.3141
  H  H342  1  0.232200  0.297600  0.865400  1.0  0.124
  H  H343  1  0.973200  0.142000  0.661300  1.0  0.1021
  H  H344  1  0.928200  0.239000  0.754700  1.0  0.2706
  H  H345  1  0.620400  0.447600  0.914600  1.0  0.4753
  H  H346  1  0.822000  0.383000  0.875500  1.0  0.1039
  H  H347  1  0.026600  0.210000  0.728900  1.0  0.1085
  H  H348  1  0.966400  0.382300  0.894800  1.0  0.3527
  H  H349  1  0.528100  0.838700  0.391200  1.0  0.1174
  H  H350  1  0.429900  0.817800  0.334400  1.0  0.1145
  H  H351  1  0.545800  0.765700  0.317900  1.0  0.112
  H  H352  1  0.660900  0.779200  0.370500  1.0  0.2585
  H  H353  1  0.597900  0.769800  0.355900  1.0  0.2548
  H  H354  1  0.657700  0.853000  0.428200  1.0  0.109
  H  H355  1  0.232300  0.842000  0.280000  1.0  0.4844
  H  H356  1  0.437200  0.767000  0.297100  1.0  0.2963
  H  H357  1  0.246400  0.953100  0.428300  1.0  0.1156
  H  H358  1  0.398700  0.685500  0.227000  1.0  0.1192
  H  H359  1  0.374100  0.958900  0.436700  1.0  0.1122
  H  H360  1  0.785700  0.871100  0.428100  1.0  0.1143
  H  H361  1  0.416400  0.915000  0.410300  1.0  0.3141
  H  H362  1  0.732200  0.797600  0.365400  1.0  0.124
  H  H363  1  0.473200  0.642000  0.161300  1.0  0.1021
  H  H364  1  0.428200  0.739000  0.254700  1.0  0.2706
  H  H365  1  0.120400  0.947600  0.414600  1.0  0.4753
  H  H366  1  0.322000  0.883000  0.375500  1.0  0.1039
  H  H367  1  0.526600  0.710000  0.228900  1.0  0.1085
  H  H368  1  0.466400  0.882300  0.394800  1.0  0.3527
  C  C369  1  0.301200  0.956000  0.144100  1.0  0.2487
  C  C370  1  0.326200  0.982600  0.126200  1.0  -0.1272
  C  C371  1  0.332400  0.025400  0.134200  1.0  0.1659
  C  C372  1  0.313700  0.041500  0.160200  1.0  -0.1193
  C  C373  1  0.288600  0.014800  0.178100  1.0  0.2076
  C  C374  1  0.282400  0.972000  0.170100  1.0  -0.1213
  C  C375  1  0.178300  0.993500  0.310200  1.0  -0.1249
  C  C376  1  0.364100  0.779300  0.066800  1.0  -0.1117
  C  C377  1  0.319600  0.889100  0.122100  1.0  0.3184
  C  C378  1  0.403300  0.262200  0.120800  1.0  0.6618
  C  C379  1  0.145500  0.109500  0.326000  1.0  0.6962
  C  C380  1  0.329300  0.690300  0.122000  1.0  0.6651
  C  C381  1  0.175600  0.949400  0.325600  1.0  0.698
  C  C382  1  0.496800  0.193600  0.039500  1.0  0.6734
  C  C383  1  0.417900  0.221600  0.103400  1.0  -0.1131
  C  C384  1  0.394500  0.784500  0.040700  1.0  0.7244
  C  C385  1  0.163400  0.069400  0.309600  1.0  -0.1516
  C  C386  1  0.334200  0.733500  0.106400  1.0  -0.1172
  C  C387  1  0.463800  0.190500  0.063500  1.0  -0.1385
  C  C388  1  0.347600  0.815200  0.079900  1.0  -0.0985
  C  C389  1  0.446200  0.226100  0.078400  1.0  0.0383
  C  C390  1  0.184300  0.074400  0.282100  1.0  -0.1256
  C  C391  1  0.448000  0.150500  0.072500  1.0  -0.0924
  C  C392  1  0.358400  0.738400  0.080600  1.0  0.033
  C  C393  1  0.315500  0.769800  0.118000  1.0  -0.0843
  C  C394  1  0.159100  0.029800  0.321700  1.0  0.0348
  C  C395  1  0.203900  0.038200  0.267700  1.0  0.2394
  C  C396  1  0.323600  0.811100  0.104500  1.0  0.2343
  C  C397  1  0.403400  0.181800  0.109400  1.0  -0.0337
  C  C398  1  0.199500  0.997700  0.280800  1.0  -0.0639
  C  C399  1  0.242400  0.016600  0.223200  1.0  0.3225
  C  C400  1  0.371600  0.091500  0.120200  1.0  0.2011
  C  C401  1  0.418300  0.145900  0.093400  1.0  0.1324
  C  C402  1  0.801200  0.456000  0.644100  1.0  0.2512
  C  C403  1  0.826200  0.482600  0.626200  1.0  -0.1232
  C  C404  1  0.832400  0.525400  0.634200  1.0  0.1681
  C  C405  1  0.813700  0.541500  0.660200  1.0  -0.1193
  C  C406  1  0.788600  0.514800  0.678100  1.0  0.2076
  C  C407  1  0.782400  0.472000  0.670100  1.0  -0.1212
  C  C408  1  0.678300  0.493500  0.810200  1.0  -0.1249
  C  C409  1  0.864100  0.279300  0.566800  1.0  -0.1117
  C  C410  1  0.819600  0.389100  0.622100  1.0  0.3184
  C  C411  1  0.903300  0.762200  0.620800  1.0  0.6618
  C  C412  1  0.645500  0.609500  0.826000  1.0  0.6962
  C  C413  1  0.829300  0.190300  0.622000  1.0  0.6651
  C  C414  1  0.675600  0.449400  0.825600  1.0  0.698
  C  C415  1  0.996800  0.693600  0.539500  1.0  0.6734
  C  C416  1  0.917900  0.721600  0.603400  1.0  -0.1131
  C  C417  1  0.894500  0.284500  0.540700  1.0  0.7244
  C  C418  1  0.663400  0.569400  0.809600  1.0  -0.1516
  C  C419  1  0.834200  0.233500  0.606400  1.0  -0.1172
  C  C420  1  0.963800  0.690500  0.563500  1.0  -0.1385
  C  C421  1  0.847600  0.315200  0.579900  1.0  -0.0985
  C  C422  1  0.946200  0.726100  0.578400  1.0  0.0383
  C  C423  1  0.684300  0.574400  0.782100  1.0  -0.1256
  C  C424  1  0.948000  0.650500  0.572500  1.0  -0.0924
  C  C425  1  0.858400  0.238400  0.580600  1.0  0.033
  C  C426  1  0.815500  0.269800  0.618000  1.0  -0.0843
  C  C427  1  0.659100  0.529800  0.821700  1.0  0.0348
  C  C428  1  0.703900  0.538200  0.767700  1.0  0.2394
  C  C429  1  0.823600  0.311100  0.604500  1.0  0.2343
  C  C430  1  0.903400  0.681800  0.609400  1.0  -0.0337
  C  C431  1  0.699500  0.497700  0.780800  1.0  -0.0639
  C  C432  1  0.742400  0.516600  0.723200  1.0  0.3225
  C  C433  1  0.871600  0.591500  0.620200  1.0  0.2011
  C  C434  1  0.918300  0.645900  0.593400  1.0  0.1324
  C  C435  1  0.698800  0.044000  0.144100  1.0  0.2491
  C  C436  1  0.673800  0.017400  0.126200  1.0  -0.1277
  C  C437  1  0.667600  0.974600  0.134200  1.0  0.1641
  C  C438  1  0.686300  0.958500  0.160200  1.0  -0.1204
  C  C439  1  0.711400  0.985200  0.178100  1.0  0.2072
  C  C440  1  0.717600  0.028000  0.170100  1.0  -0.1207
  C  C441  1  0.821700  0.006500  0.310200  1.0  -0.1253
  C  C442  1  0.635900  0.220700  0.066800  1.0  -0.1106
  C  C443  1  0.680400  0.110900  0.122100  1.0  0.3174
  C  C444  1  0.596700  0.737800  0.120800  1.0  0.6614
  C  C445  1  0.854500  0.890500  0.326000  1.0  0.6959
  C  C446  1  0.670700  0.309700  0.122000  1.0  0.6653
  C  C447  1  0.824400  0.050600  0.325600  1.0  0.698
  C  C448  1  0.503200  0.806400  0.039500  1.0  0.6745
  C  C449  1  0.582100  0.778400  0.103400  1.0  -0.1126
  C  C450  1  0.605500  0.215500  0.040700  1.0  0.7244
  C  C451  1  0.836600  0.930600  0.309600  1.0  -0.1525
  C  C452  1  0.665800  0.266500  0.106400  1.0  -0.1167
  C  C453  1  0.536200  0.809500  0.063500  1.0  -0.1393
  C  C454  1  0.652400  0.184800  0.079900  1.0  -0.0993
  C  C455  1  0.553800  0.773900  0.078400  1.0  0.0386
  C  C456  1  0.815700  0.925600  0.282100  1.0  -0.1246
  C  C457  1  0.552000  0.849500  0.072500  1.0  -0.0907
  C  C458  1  0.641600  0.261600  0.080600  1.0  0.0316
  C  C459  1  0.684500  0.230200  0.118000  1.0  -0.0845
  C  C460  1  0.840900  0.970200  0.321700  1.0  0.0341
  C  C461  1  0.796100  0.961800  0.267700  1.0  0.2445
  C  C462  1  0.676400  0.188900  0.104500  1.0  0.2336
  C  C463  1  0.596600  0.818200  0.109400  1.0  -0.033
  C  C464  1  0.800500  0.002300  0.280800  1.0  -0.0647
  C  C465  1  0.757600  0.983400  0.223200  1.0  0.3229
  C  C466  1  0.628400  0.908500  0.120200  1.0  0.2029
  C  C467  1  0.581700  0.854100  0.093400  1.0  0.132
  C  C468  1  0.198800  0.544000  0.644100  1.0  0.2516
  C  C469  1  0.173800  0.517400  0.626200  1.0  -0.1236
  C  C470  1  0.167600  0.474600  0.634200  1.0  0.1659
  C  C471  1  0.186300  0.458500  0.660200  1.0  -0.1204
  C  C472  1  0.211400  0.485200  0.678100  1.0  0.2072
  C  C473  1  0.217600  0.528000  0.670100  1.0  -0.1205
  C  C474  1  0.321700  0.506500  0.810200  1.0  -0.1253
  C  C475  1  0.135900  0.720700  0.566800  1.0  -0.1106
  C  C476  1  0.180400  0.610900  0.622100  1.0  0.3174
  C  C477  1  0.096700  0.237800  0.620800  1.0  0.6614
  C  C478  1  0.354500  0.390500  0.826000  1.0  0.6959
  C  C479  1  0.170700  0.809700  0.622000  1.0  0.6653
  C  C480  1  0.324400  0.550600  0.825600  1.0  0.698
  C  C481  1  0.003200  0.306400  0.539500  1.0  0.6745
  C  C482  1  0.082100  0.278400  0.603400  1.0  -0.1126
  C  C483  1  0.105500  0.715500  0.540700  1.0  0.7244
  C  C484  1  0.336600  0.430600  0.809600  1.0  -0.1525
  C  C485  1  0.165800  0.766500  0.606400  1.0  -0.1167
  C  C486  1  0.036200  0.309500  0.563500  1.0  -0.1393
  C  C487  1  0.152400  0.684800  0.579900  1.0  -0.0993
  C  C488  1  0.053800  0.273900  0.578400  1.0  0.0386
  C  C489  1  0.315700  0.425600  0.782100  1.0  -0.1246
  C  C490  1  0.052000  0.349500  0.572500  1.0  -0.0907
  C  C491  1  0.141600  0.761600  0.580600  1.0  0.0316
  C  C492  1  0.184500  0.730200  0.618000  1.0  -0.0845
  C  C493  1  0.340900  0.470200  0.821700  1.0  0.0341
  C  C494  1  0.296100  0.461800  0.767700  1.0  0.2445
  C  C495  1  0.176400  0.688900  0.604500  1.0  0.2336
  C  C496  1  0.096600  0.318200  0.609400  1.0  -0.033
  C  C497  1  0.300500  0.502300  0.780800  1.0  -0.0647
  C  C498  1  0.257600  0.483400  0.723200  1.0  0.3229
  C  C499  1  0.128400  0.408500  0.620200  1.0  0.2029
  C  C500  1  0.081700  0.354100  0.593400  1.0  0.132
  C  C501  1  0.044000  0.301200  0.144100  1.0  0.2483
  C  C502  1  0.017400  0.326200  0.126200  1.0  -0.1264
  C  C503  1  0.974600  0.332400  0.134200  1.0  0.1639
  C  C504  1  0.958500  0.313700  0.160200  1.0  -0.1197
  C  C505  1  0.985200  0.288600  0.178100  1.0  0.2063
  C  C506  1  0.028000  0.282400  0.170100  1.0  -0.1203
  C  C507  1  0.006500  0.178300  0.310200  1.0  -0.1247
  C  C508  1  0.220700  0.364100  0.066800  1.0  -0.1103
  C  C509  1  0.110900  0.319600  0.122100  1.0  0.3194
  C  C510  1  0.737800  0.403300  0.120800  1.0  0.6615
  C  C511  1  0.890500  0.145500  0.326000  1.0  0.6961
  C  C512  1  0.309700  0.329300  0.122000  1.0  0.6645
  C  C513  1  0.050600  0.175600  0.325600  1.0  0.6952
  C  C514  1  0.806400  0.496800  0.039500  1.0  0.6749
  C  C515  1  0.778400  0.417900  0.103400  1.0  -0.1146
  C  C516  1  0.215500  0.394500  0.040700  1.0  0.7258
  C  C517  1  0.930600  0.163400  0.309600  1.0  -0.1509
  C  C518  1  0.266500  0.334200  0.106400  1.0  -0.1154
  C  C519  1  0.809500  0.463800  0.063500  1.0  -0.1371
  C  C520  1  0.184800  0.347600  0.079900  1.0  -0.1013
  C  C521  1  0.773900  0.446200  0.078400  1.0  0.0343
  C  C522  1  0.925600  0.184300  0.282100  1.0  -0.1298
  C  C523  1  0.849500  0.448000  0.072500  1.0  -0.0903
  C  C524  1  0.261600  0.358400  0.080600  1.0  0.0323
  C  C525  1  0.230200  0.315500  0.118000  1.0  -0.0817
  C  C526  1  0.970200  0.159100  0.321700  1.0  0.0364
  C  C527  1  0.961800  0.203900  0.267700  1.0  0.2453
  C  C528  1  0.188900  0.323600  0.104500  1.0  0.2348
  C  C529  1  0.818200  0.403400  0.109400  1.0  -0.0321
  C  C530  1  0.002300  0.199500  0.280800  1.0  -0.0675
  C  C531  1  0.983400  0.242400  0.223200  1.0  0.3259
  C  C532  1  0.908500  0.371600  0.120200  1.0  0.2014
  C  C533  1  0.854100  0.418300  0.093400  1.0  0.1323
  C  C534  1  0.544000  0.801200  0.644100  1.0  0.2508
  C  C535  1  0.517400  0.826200  0.626200  1.0  -0.1225
  C  C536  1  0.474600  0.832400  0.634200  1.0  0.1655
  C  C537  1  0.458500  0.813700  0.660200  1.0  -0.1197
  C  C538  1  0.485200  0.788600  0.678100  1.0  0.2063
  C  C539  1  0.528000  0.782400  0.670100  1.0  -0.1202
  C  C540  1  0.506500  0.678300  0.810200  1.0  -0.1247
  C  C541  1  0.720700  0.864100  0.566800  1.0  -0.1103
  C  C542  1  0.610900  0.819600  0.622100  1.0  0.3194
  C  C543  1  0.237800  0.903300  0.620800  1.0  0.6615
  C  C544  1  0.390500  0.645500  0.826000  1.0  0.6961
  C  C545  1  0.809700  0.829300  0.622000  1.0  0.6645
  C  C546  1  0.550600  0.675600  0.825600  1.0  0.6952
  C  C547  1  0.306400  0.996800  0.539500  1.0  0.6749
  C  C548  1  0.278400  0.917900  0.603400  1.0  -0.1146
  C  C549  1  0.715500  0.894500  0.540700  1.0  0.7258
  C  C550  1  0.430600  0.663400  0.809600  1.0  -0.1509
  C  C551  1  0.766500  0.834200  0.606400  1.0  -0.1154
  C  C552  1  0.309500  0.963800  0.563500  1.0  -0.1371
  C  C553  1  0.684800  0.847600  0.579900  1.0  -0.1013
  C  C554  1  0.273900  0.946200  0.578400  1.0  0.0343
  C  C555  1  0.425600  0.684300  0.782100  1.0  -0.1298
  C  C556  1  0.349500  0.948000  0.572500  1.0  -0.0903
  C  C557  1  0.761600  0.858400  0.580600  1.0  0.0323
  C  C558  1  0.730200  0.815500  0.618000  1.0  -0.0817
  C  C559  1  0.470200  0.659100  0.821700  1.0  0.0364
  C  C560  1  0.461800  0.703900  0.767700  1.0  0.2453
  C  C561  1  0.688900  0.823600  0.604500  1.0  0.2348
  C  C562  1  0.318200  0.903400  0.609400  1.0  -0.0321
  C  C563  1  0.502300  0.699500  0.780800  1.0  -0.0675
  C  C564  1  0.483400  0.742400  0.723200  1.0  0.3259
  C  C565  1  0.408500  0.871600  0.620200  1.0  0.2014
  C  C566  1  0.354100  0.918300  0.593400  1.0  0.1323
  C  C567  1  0.956000  0.698800  0.144100  1.0  0.2489
  C  C568  1  0.982600  0.673800  0.126200  1.0  -0.1266
  C  C569  1  0.025400  0.667600  0.134200  1.0  0.1637
  C  C570  1  0.041500  0.686300  0.160200  1.0  -0.1187
  C  C571  1  0.014800  0.711400  0.178100  1.0  0.2068
  C  C572  1  0.972000  0.717600  0.170100  1.0  -0.1219
  C  C573  1  0.993500  0.821700  0.310200  1.0  -0.126
  C  C574  1  0.779300  0.635900  0.066800  1.0  -0.1105
  C  C575  1  0.889100  0.680400  0.122100  1.0  0.3194
  C  C576  1  0.262200  0.596700  0.120800  1.0  0.6623
  C  C577  1  0.109500  0.854500  0.326000  1.0  0.6965
  C  C578  1  0.690300  0.670700  0.122000  1.0  0.6652
  C  C579  1  0.949400  0.824400  0.325600  1.0  0.6948
  C  C580  1  0.193600  0.503200  0.039500  1.0  0.6743
  C  C581  1  0.221600  0.582100  0.103400  1.0  -0.1132
  C  C582  1  0.784500  0.605500  0.040700  1.0  0.7251
  C  C583  1  0.069400  0.836600  0.309600  1.0  -0.1516
  C  C584  1  0.733500  0.665800  0.106400  1.0  -0.1152
  C  C585  1  0.190500  0.536200  0.063500  1.0  -0.1375
  C  C586  1  0.815200  0.652400  0.079900  1.0  -0.0999
  C  C587  1  0.226100  0.553800  0.078400  1.0  0.0372
  C  C588  1  0.074400  0.815700  0.282100  1.0  -0.1278
  C  C589  1  0.150500  0.552000  0.072500  1.0  -0.0903
  C  C590  1  0.738400  0.641600  0.080600  1.0  0.0317
  C  C591  1  0.769800  0.684500  0.118000  1.0  -0.0827
  C  C592  1  0.029800  0.840900  0.321700  1.0  0.0353
  C  C593  1  0.038200  0.796100  0.267700  1.0  0.2433
  C  C594  1  0.811100  0.676400  0.104500  1.0  0.235
  C  C595  1  0.181800  0.596600  0.109400  1.0  -0.0326
  C  C596  1  0.997700  0.800500  0.280800  1.0  -0.068
  C  C597  1  0.016600  0.757600  0.223200  1.0  0.3247
  C  C598  1  0.091500  0.628400  0.120200  1.0  0.2028
  C  C599  1  0.145900  0.581700  0.093400  1.0  0.132
  C  C600  1  0.456000  0.198800  0.644100  1.0  0.2514
  C  C601  1  0.482600  0.173800  0.626200  1.0  -0.1219
  C  C602  1  0.525400  0.167600  0.634200  1.0  0.1656
  C  C603  1  0.541500  0.186300  0.660200  1.0  -0.1187
  C  C604  1  0.514800  0.211400  0.678100  1.0  0.2068
  C  C605  1  0.472000  0.217600  0.670100  1.0  -0.1217
  C  C606  1  0.493500  0.321700  0.810200  1.0  -0.126
  C  C607  1  0.279300  0.135900  0.566800  1.0  -0.1105
  C  C608  1  0.389100  0.180400  0.622100  1.0  0.3194
  C  C609  1  0.762200  0.096700  0.620800  1.0  0.6623
  C  C610  1  0.609500  0.354500  0.826000  1.0  0.6965
  C  C611  1  0.190300  0.170700  0.622000  1.0  0.6652
  C  C612  1  0.449400  0.324400  0.825600  1.0  0.6948
  C  C613  1  0.693600  0.003200  0.539500  1.0  0.6743
  C  C614  1  0.721600  0.082100  0.603400  1.0  -0.1132
  C  C615  1  0.284500  0.105500  0.540700  1.0  0.7251
  C  C616  1  0.569400  0.336600  0.809600  1.0  -0.1516
  C  C617  1  0.233500  0.165800  0.606400  1.0  -0.1152
  C  C618  1  0.690500  0.036200  0.563500  1.0  -0.1375
  C  C619  1  0.315200  0.152400  0.579900  1.0  -0.0999
  C  C620  1  0.726100  0.053800  0.578400  1.0  0.0372
  C  C621  1  0.574400  0.315700  0.782100  1.0  -0.1278
  C  C622  1  0.650500  0.052000  0.572500  1.0  -0.0903
  C  C623  1  0.238400  0.141600  0.580600  1.0  0.0317
  C  C624  1  0.269800  0.184500  0.618000  1.0  -0.0827
  C  C625  1  0.529800  0.340900  0.821700  1.0  0.0353
  C  C626  1  0.538200  0.296100  0.767700  1.0  0.2433
  C  C627  1  0.311100  0.176400  0.604500  1.0  0.235
  C  C628  1  0.681800  0.096600  0.609400  1.0  -0.0326
  C  C629  1  0.497700  0.300500  0.780800  1.0  -0.068
  C  C630  1  0.516600  0.257600  0.723200  1.0  0.3247
  C  C631  1  0.591500  0.128400  0.620200  1.0  0.2028
  C  C632  1  0.645900  0.081700  0.593400  1.0  0.132
  C  C633  1  0.698800  0.044000  0.855900  1.0  0.2495
  C  C634  1  0.673800  0.017400  0.873800  1.0  -0.1288
  C  C635  1  0.667600  0.974600  0.865800  1.0  0.1641
  C  C636  1  0.686300  0.958500  0.839800  1.0  -0.1194
  C  C637  1  0.711400  0.985200  0.821900  1.0  0.2081
  C  C638  1  0.717600  0.028000  0.829900  1.0  -0.1188
  C  C639  1  0.821700  0.006500  0.689800  1.0  -0.1246
  C  C640  1  0.635900  0.220700  0.933200  1.0  -0.1118
  C  C641  1  0.680400  0.110900  0.877900  1.0  0.3171
  C  C642  1  0.596700  0.737800  0.879200  1.0  0.661
  C  C643  1  0.854500  0.890500  0.674000  1.0  0.6958
  C  C644  1  0.670700  0.309700  0.878000  1.0  0.6648
  C  C645  1  0.824400  0.050600  0.674400  1.0  0.698
  C  C646  1  0.503200  0.806400  0.960500  1.0  0.6743
  C  C647  1  0.582100  0.778400  0.896600  1.0  -0.1124
  C  C648  1  0.605500  0.215500  0.959300  1.0  0.7249
  C  C649  1  0.836600  0.930600  0.690400  1.0  -0.1526
  C  C650  1  0.665800  0.266500  0.893600  1.0  -0.1165
  C  C651  1  0.536200  0.809500  0.936500  1.0  -0.1394
  C  C652  1  0.652400  0.184800  0.920100  1.0  -0.1006
  C  C653  1  0.553800  0.773900  0.921600  1.0  0.0379
  C  C654  1  0.815700  0.925600  0.717900  1.0  -0.124
  C  C655  1  0.552000  0.849500  0.927500  1.0  -0.0914
  C  C656  1  0.641600  0.261600  0.919400  1.0  0.0318
  C  C657  1  0.684500  0.230200  0.882000  1.0  -0.0834
  C  C658  1  0.840900  0.970200  0.678300  1.0  0.0324
  C  C659  1  0.796100  0.961800  0.732300  1.0  0.2444
  C  C660  1  0.676400  0.188900  0.895500  1.0  0.2332
  C  C661  1  0.596600  0.818200  0.890600  1.0  -0.0326
  C  C662  1  0.800500  0.002300  0.719200  1.0  -0.0651
  C  C663  1  0.757600  0.983400  0.776800  1.0  0.3226
  C  C664  1  0.628400  0.908500  0.879800  1.0  0.204
  C  C665  1  0.581700  0.854100  0.906600  1.0  0.132
  C  C666  1  0.198800  0.544000  0.355900  1.0  0.252
  C  C667  1  0.173800  0.517400  0.373800  1.0  -0.1243
  C  C668  1  0.167600  0.474600  0.365800  1.0  0.1649
  C  C669  1  0.186300  0.458500  0.339800  1.0  -0.1194
  C  C670  1  0.211400  0.485200  0.321900  1.0  0.2081
  C  C671  1  0.217600  0.528000  0.329900  1.0  -0.1186
  C  C672  1  0.321700  0.506500  0.189800  1.0  -0.1246
  C  C673  1  0.135900  0.720700  0.433200  1.0  -0.1118
  C  C674  1  0.180400  0.610900  0.377900  1.0  0.3171
  C  C675  1  0.096700  0.237800  0.379200  1.0  0.661
  C  C676  1  0.354500  0.390500  0.174000  1.0  0.6958
  C  C677  1  0.170700  0.809700  0.378000  1.0  0.6648
  C  C678  1  0.324400  0.550600  0.174400  1.0  0.698
  C  C679  1  0.003200  0.306400  0.460500  1.0  0.6743
  C  C680  1  0.082100  0.278400  0.396600  1.0  -0.1124
  C  C681  1  0.105500  0.715500  0.459300  1.0  0.7249
  C  C682  1  0.336600  0.430600  0.190400  1.0  -0.1526
  C  C683  1  0.165800  0.766500  0.393600  1.0  -0.1165
  C  C684  1  0.036200  0.309500  0.436500  1.0  -0.1394
  C  C685  1  0.152400  0.684800  0.420100  1.0  -0.1006
  C  C686  1  0.053800  0.273900  0.421600  1.0  0.0379
  C  C687  1  0.315700  0.425600  0.217900  1.0  -0.124
  C  C688  1  0.052000  0.349500  0.427500  1.0  -0.0914
  C  C689  1  0.141600  0.761600  0.419400  1.0  0.0318
  C  C690  1  0.184500  0.730200  0.382000  1.0  -0.0834
  C  C691  1  0.340900  0.470200  0.178300  1.0  0.0324
  C  C692  1  0.296100  0.461800  0.232300  1.0  0.2444
  C  C693  1  0.176400  0.688900  0.395500  1.0  0.2332
  C  C694  1  0.096600  0.318200  0.390600  1.0  -0.0326
  C  C695  1  0.300500  0.502300  0.219200  1.0  -0.0651
  C  C696  1  0.257600  0.483400  0.276800  1.0  0.3226
  C  C697  1  0.128400  0.408500  0.379800  1.0  0.204
  C  C698  1  0.081700  0.354100  0.406600  1.0  0.132
  C  C699  1  0.301200  0.956000  0.855900  1.0  0.249
  C  C700  1  0.326200  0.982600  0.873800  1.0  -0.1273
  C  C701  1  0.332400  0.025400  0.865800  1.0  0.1653
  C  C702  1  0.313700  0.041500  0.839800  1.0  -0.1188
  C  C703  1  0.288600  0.014800  0.821900  1.0  0.2085
  C  C704  1  0.282400  0.972000  0.829900  1.0  -0.1196
  C  C705  1  0.178300  0.993500  0.689800  1.0  -0.1246
  C  C706  1  0.364100  0.779300  0.933200  1.0  -0.1126
  C  C707  1  0.319600  0.889100  0.877900  1.0  0.3182
  C  C708  1  0.403300  0.262200  0.879200  1.0  0.6616
  C  C709  1  0.145500  0.109500  0.674000  1.0  0.696
  C  C710  1  0.329300  0.690300  0.878000  1.0  0.6645
  C  C711  1  0.175600  0.949400  0.674400  1.0  0.6976
  C  C712  1  0.496800  0.193600  0.960500  1.0  0.6732
  C  C713  1  0.417900  0.221600  0.896600  1.0  -0.1128
  C  C714  1  0.394500  0.784500  0.959300  1.0  0.7249
  C  C715  1  0.163400  0.069400  0.690400  1.0  -0.1516
  C  C716  1  0.334200  0.733500  0.893600  1.0  -0.1171
  C  C717  1  0.463800  0.190500  0.936500  1.0  -0.1388
  C  C718  1  0.347600  0.815200  0.920100  1.0  -0.1001
  C  C719  1  0.446200  0.226100  0.921600  1.0  0.0379
  C  C720  1  0.184300  0.074400  0.717900  1.0  -0.1241
  C  C721  1  0.448000  0.150500  0.927500  1.0  -0.0921
  C  C722  1  0.358400  0.738400  0.919400  1.0  0.0334
  C  C723  1  0.315500  0.769800  0.882000  1.0  -0.0825
  C  C724  1  0.159100  0.029800  0.678300  1.0  0.0325
  C  C725  1  0.203900  0.038200  0.732300  1.0  0.2392
  C  C726  1  0.323600  0.811100  0.895500  1.0  0.234
  C  C727  1  0.403400  0.181800  0.890600  1.0  -0.0336
  C  C728  1  0.199500  0.997700  0.719200  1.0  -0.064
  C  C729  1  0.242400  0.016600  0.776800  1.0  0.3221
  C  C730  1  0.371600  0.091500  0.879800  1.0  0.2026
  C  C731  1  0.418300  0.145900  0.906600  1.0  0.1325
  C  C732  1  0.801200  0.456000  0.355900  1.0  0.2515
  C  C733  1  0.826200  0.482600  0.373800  1.0  -0.123
  C  C734  1  0.832400  0.525400  0.365800  1.0  0.1662
  C  C735  1  0.813700  0.541500  0.339800  1.0  -0.1188
  C  C736  1  0.788600  0.514800  0.321900  1.0  0.2085
  C  C737  1  0.782400  0.472000  0.329900  1.0  -0.1194
  C  C738  1  0.678300  0.493500  0.189800  1.0  -0.1246
  C  C739  1  0.864100  0.279300  0.433200  1.0  -0.1126
  C  C740  1  0.819600  0.389100  0.377900  1.0  0.3182
  C  C741  1  0.903300  0.762200  0.379200  1.0  0.6616
  C  C742  1  0.645500  0.609500  0.174000  1.0  0.696
  C  C743  1  0.829300  0.190300  0.378000  1.0  0.6645
  C  C744  1  0.675600  0.449400  0.174400  1.0  0.6976
  C  C745  1  0.996800  0.693600  0.460500  1.0  0.6732
  C  C746  1  0.917900  0.721600  0.396600  1.0  -0.1128
  C  C747  1  0.894500  0.284500  0.459300  1.0  0.7249
  C  C748  1  0.663400  0.569400  0.190400  1.0  -0.1516
  C  C749  1  0.834200  0.233500  0.393600  1.0  -0.1171
  C  C750  1  0.963800  0.690500  0.436500  1.0  -0.1388
  C  C751  1  0.847600  0.315200  0.420100  1.0  -0.1001
  C  C752  1  0.946200  0.726100  0.421600  1.0  0.0379
  C  C753  1  0.684300  0.574400  0.217900  1.0  -0.1241
  C  C754  1  0.948000  0.650500  0.427500  1.0  -0.0921
  C  C755  1  0.858400  0.238400  0.419400  1.0  0.0334
  C  C756  1  0.815500  0.269800  0.382000  1.0  -0.0825
  C  C757  1  0.659100  0.529800  0.178300  1.0  0.0325
  C  C758  1  0.703900  0.538200  0.232300  1.0  0.2392
  C  C759  1  0.823600  0.311100  0.395500  1.0  0.234
  C  C760  1  0.903400  0.681800  0.390600  1.0  -0.0336
  C  C761  1  0.699500  0.497700  0.219200  1.0  -0.064
  C  C762  1  0.742400  0.516600  0.276800  1.0  0.3221
  C  C763  1  0.871600  0.591500  0.379800  1.0  0.2026
  C  C764  1  0.918300  0.645900  0.406600  1.0  0.1325
  C  C765  1  0.956000  0.698800  0.855900  1.0  0.2493
  C  C766  1  0.982600  0.673800  0.873800  1.0  -0.1275
  C  C767  1  0.025400  0.667600  0.865800  1.0  0.1634
  C  C768  1  0.041500  0.686300  0.839800  1.0  -0.1179
  C  C769  1  0.014800  0.711400  0.821900  1.0  0.2078
  C  C770  1  0.972000  0.717600  0.829900  1.0  -0.1197
  C  C771  1  0.993500  0.821700  0.689800  1.0  -0.1256
  C  C772  1  0.779300  0.635900  0.933200  1.0  -0.1113
  C  C773  1  0.889100  0.680400  0.877900  1.0  0.3193
  C  C774  1  0.262200  0.596700  0.879200  1.0  0.662
  C  C775  1  0.109500  0.854500  0.674000  1.0  0.6963
  C  C776  1  0.690300  0.670700  0.878000  1.0  0.6647
  C  C777  1  0.949400  0.824400  0.674400  1.0  0.6947
  C  C778  1  0.193600  0.503200  0.960500  1.0  0.6741
  C  C779  1  0.221600  0.582100  0.896600  1.0  -0.1127
  C  C780  1  0.784500  0.605500  0.959300  1.0  0.7256
  C  C781  1  0.069400  0.836600  0.690400  1.0  -0.1515
  C  C782  1  0.733500  0.665800  0.893600  1.0  -0.1151
  C  C783  1  0.190500  0.536200  0.936500  1.0  -0.1373
  C  C784  1  0.815200  0.652400  0.920100  1.0  -0.1013
  C  C785  1  0.226100  0.553800  0.921600  1.0  0.0367
  C  C786  1  0.074400  0.815700  0.717900  1.0  -0.127
  C  C787  1  0.150500  0.552000  0.927500  1.0  -0.0901
  C  C788  1  0.738400  0.641600  0.919400  1.0  0.0318
  C  C789  1  0.769800  0.684500  0.882000  1.0  -0.0805
  C  C790  1  0.029800  0.840900  0.678300  1.0  0.0336
  C  C791  1  0.038200  0.796100  0.732300  1.0  0.2434
  C  C792  1  0.811100  0.676400  0.895500  1.0  0.2347
  C  C793  1  0.181800  0.596600  0.890600  1.0  -0.032
  C  C794  1  0.997700  0.800500  0.719200  1.0  -0.0681
  C  C795  1  0.016600  0.757600  0.776800  1.0  0.3244
  C  C796  1  0.091500  0.628400  0.879800  1.0  0.2043
  C  C797  1  0.145900  0.581700  0.906600  1.0  0.132
  C  C798  1  0.456000  0.198800  0.355900  1.0  0.2518
  C  C799  1  0.482600  0.173800  0.373800  1.0  -0.1225
  C  C800  1  0.525400  0.167600  0.365800  1.0  0.164
  C  C801  1  0.541500  0.186300  0.339800  1.0  -0.1179
  C  C802  1  0.514800  0.211400  0.321900  1.0  0.2078
  C  C803  1  0.472000  0.217600  0.329900  1.0  -0.1195
  C  C804  1  0.493500  0.321700  0.189800  1.0  -0.1256
  C  C805  1  0.279300  0.135900  0.433200  1.0  -0.1113
  C  C806  1  0.389100  0.180400  0.377900  1.0  0.3193
  C  C807  1  0.762200  0.096700  0.379200  1.0  0.662
  C  C808  1  0.609500  0.354500  0.174000  1.0  0.6963
  C  C809  1  0.190300  0.170700  0.378000  1.0  0.6647
  C  C810  1  0.449400  0.324400  0.174400  1.0  0.6947
  C  C811  1  0.693600  0.003200  0.460500  1.0  0.6741
  C  C812  1  0.721600  0.082100  0.396600  1.0  -0.1127
  C  C813  1  0.284500  0.105500  0.459300  1.0  0.7256
  C  C814  1  0.569400  0.336600  0.190400  1.0  -0.1515
  C  C815  1  0.233500  0.165800  0.393600  1.0  -0.1151
  C  C816  1  0.690500  0.036200  0.436500  1.0  -0.1373
  C  C817  1  0.315200  0.152400  0.420100  1.0  -0.1013
  C  C818  1  0.726100  0.053800  0.421600  1.0  0.0367
  C  C819  1  0.574400  0.315700  0.217900  1.0  -0.127
  C  C820  1  0.650500  0.052000  0.427500  1.0  -0.0901
  C  C821  1  0.238400  0.141600  0.419400  1.0  0.0318
  C  C822  1  0.269800  0.184500  0.382000  1.0  -0.0805
  C  C823  1  0.529800  0.340900  0.178300  1.0  0.0336
  C  C824  1  0.538200  0.296100  0.232300  1.0  0.2434
  C  C825  1  0.311100  0.176400  0.395500  1.0  0.2347
  C  C826  1  0.681800  0.096600  0.390600  1.0  -0.032
  C  C827  1  0.497700  0.300500  0.219200  1.0  -0.0681
  C  C828  1  0.516600  0.257600  0.276800  1.0  0.3244
  C  C829  1  0.591500  0.128400  0.379800  1.0  0.2043
  C  C830  1  0.645900  0.081700  0.406600  1.0  0.132
  C  C831  1  0.044000  0.301200  0.855900  1.0  0.2487
  C  C832  1  0.017400  0.326200  0.873800  1.0  -0.1268
  C  C833  1  0.974600  0.332400  0.865800  1.0  0.1636
  C  C834  1  0.958500  0.313700  0.839800  1.0  -0.1188
  C  C835  1  0.985200  0.288600  0.821900  1.0  0.2076
  C  C836  1  0.028000  0.282400  0.829900  1.0  -0.1187
  C  C837  1  0.006500  0.178300  0.689800  1.0  -0.1242
  C  C838  1  0.220700  0.364100  0.933200  1.0  -0.1115
  C  C839  1  0.110900  0.319600  0.877900  1.0  0.3192
  C  C840  1  0.737800  0.403300  0.879200  1.0  0.6611
  C  C841  1  0.890500  0.145500  0.674000  1.0  0.6958
  C  C842  1  0.309700  0.329300  0.878000  1.0  0.664
  C  C843  1  0.050600  0.175600  0.674400  1.0  0.695
  C  C844  1  0.806400  0.496800  0.960500  1.0  0.6747
  C  C845  1  0.778400  0.417900  0.896600  1.0  -0.1147
  C  C846  1  0.215500  0.394500  0.959300  1.0  0.7261
  C  C847  1  0.930600  0.163400  0.690400  1.0  -0.151
  C  C848  1  0.266500  0.334200  0.893600  1.0  -0.1153
  C  C849  1  0.809500  0.463800  0.936500  1.0  -0.1376
  C  C850  1  0.184800  0.347600  0.920100  1.0  -0.103
  C  C851  1  0.773900  0.446200  0.921600  1.0  0.0338
  C  C852  1  0.925600  0.184300  0.717900  1.0  -0.1292
  C  C853  1  0.849500  0.448000  0.927500  1.0  -0.0907
  C  C854  1  0.261600  0.358400  0.919400  1.0  0.0324
  C  C855  1  0.230200  0.315500  0.882000  1.0  -0.0811
  C  C856  1  0.970200  0.159100  0.678300  1.0  0.0343
  C  C857  1  0.961800  0.203900  0.732300  1.0  0.2451
  C  C858  1  0.188900  0.323600  0.895500  1.0  0.2347
  C  C859  1  0.818200  0.403400  0.890600  1.0  -0.032
  C  C860  1  0.002300  0.199500  0.719200  1.0  -0.0676
  C  C861  1  0.983400  0.242400  0.776800  1.0  0.3255
  C  C862  1  0.908500  0.371600  0.879800  1.0  0.2027
  C  C863  1  0.854100  0.418300  0.906600  1.0  0.1323
  C  C864  1  0.544000  0.801200  0.355900  1.0  0.2511
  C  C865  1  0.517400  0.826200  0.373800  1.0  -0.1225
  C  C866  1  0.474600  0.832400  0.365800  1.0  0.1642
  C  C867  1  0.458500  0.813700  0.339800  1.0  -0.1188
  C  C868  1  0.485200  0.788600  0.321900  1.0  0.2076
  C  C869  1  0.528000  0.782400  0.329900  1.0  -0.1185
  C  C870  1  0.506500  0.678300  0.189800  1.0  -0.1242
  C  C871  1  0.720700  0.864100  0.433200  1.0  -0.1115
  C  C872  1  0.610900  0.819600  0.377900  1.0  0.3192
  C  C873  1  0.237800  0.903300  0.379200  1.0  0.6611
  C  C874  1  0.390500  0.645500  0.174000  1.0  0.6958
  C  C875  1  0.809700  0.829300  0.378000  1.0  0.664
  C  C876  1  0.550600  0.675600  0.174400  1.0  0.695
  C  C877  1  0.306400  0.996800  0.460500  1.0  0.6747
  C  C878  1  0.278400  0.917900  0.396600  1.0  -0.1147
  C  C879  1  0.715500  0.894500  0.459300  1.0  0.7261
  C  C880  1  0.430600  0.663400  0.190400  1.0  -0.151
  C  C881  1  0.766500  0.834200  0.393600  1.0  -0.1153
  C  C882  1  0.309500  0.963800  0.436500  1.0  -0.1376
  C  C883  1  0.684800  0.847600  0.420100  1.0  -0.103
  C  C884  1  0.273900  0.946200  0.421600  1.0  0.0338
  C  C885  1  0.425600  0.684300  0.217900  1.0  -0.1292
  C  C886  1  0.349500  0.948000  0.427500  1.0  -0.0907
  C  C887  1  0.761600  0.858400  0.419400  1.0  0.0324
  C  C888  1  0.730200  0.815500  0.382000  1.0  -0.0811
  C  C889  1  0.470200  0.659100  0.178300  1.0  0.0343
  C  C890  1  0.461800  0.703900  0.232300  1.0  0.2451
  C  C891  1  0.688900  0.823600  0.395500  1.0  0.2347
  C  C892  1  0.318200  0.903400  0.390600  1.0  -0.032
  C  C893  1  0.502300  0.699500  0.219200  1.0  -0.0676
  C  C894  1  0.483400  0.742400  0.276800  1.0  0.3255
  C  C895  1  0.408500  0.871600  0.379800  1.0  0.2027
  C  C896  1  0.354100  0.918300  0.406600  1.0  0.1323
  N  N897  1  0.302900  0.844800  0.120400  1.0  -0.4057
  N  N898  1  0.293300  0.913400  0.137600  1.0  -0.3726
  N  N899  1  0.265500  0.035200  0.202200  1.0  -0.3403
  N  N900  1  0.403200  0.104000  0.099800  1.0  -0.3395
  N  N901  1  0.228900  0.046100  0.246300  1.0  -0.3937
  N  N902  1  0.366000  0.047800  0.117200  1.0  -0.392
  N  N903  1  0.802900  0.344800  0.620400  1.0  -0.4057
  N  N904  1  0.793300  0.413400  0.637600  1.0  -0.3726
  N  N905  1  0.765500  0.535200  0.702200  1.0  -0.3403
  N  N906  1  0.903200  0.604000  0.599800  1.0  -0.3395
  N  N907  1  0.728900  0.546100  0.746300  1.0  -0.3937
  N  N908  1  0.866000  0.547800  0.617200  1.0  -0.392
  N  N909  1  0.697100  0.155200  0.120400  1.0  -0.4057
  N  N910  1  0.706700  0.086600  0.137600  1.0  -0.3717
  N  N911  1  0.734500  0.964800  0.202200  1.0  -0.341
  N  N912  1  0.596800  0.896000  0.099800  1.0  -0.3384
  N  N913  1  0.771100  0.953900  0.246300  1.0  -0.3949
  N  N914  1  0.634000  0.952200  0.117200  1.0  -0.3905
  N  N915  1  0.197100  0.655200  0.620400  1.0  -0.4057
  N  N916  1  0.206700  0.586600  0.637600  1.0  -0.3717
  N  N917  1  0.234500  0.464800  0.702200  1.0  -0.341
  N  N918  1  0.096800  0.396000  0.599800  1.0  -0.3384
  N  N919  1  0.271100  0.453900  0.746300  1.0  -0.3949
  N  N920  1  0.134000  0.452200  0.617200  1.0  -0.3905
  N  N921  1  0.155200  0.302900  0.120400  1.0  -0.4047
  N  N922  1  0.086600  0.293300  0.137600  1.0  -0.371
  N  N923  1  0.964800  0.265500  0.202200  1.0  -0.3427
  N  N924  1  0.896000  0.403200  0.099800  1.0  -0.3419
  N  N925  1  0.953900  0.228900  0.246300  1.0  -0.3947
  N  N926  1  0.952200  0.366000  0.117200  1.0  -0.3892
  N  N927  1  0.655200  0.802900  0.620400  1.0  -0.4047
  N  N928  1  0.586600  0.793300  0.637600  1.0  -0.371
  N  N929  1  0.464800  0.765500  0.702200  1.0  -0.3427
  N  N930  1  0.396000  0.903200  0.599800  1.0  -0.3419
  N  N931  1  0.453900  0.728900  0.746300  1.0  -0.3947
  N  N932  1  0.452200  0.866000  0.617200  1.0  -0.3892
  N  N933  1  0.844800  0.697100  0.120400  1.0  -0.405
  N  N934  1  0.913400  0.706700  0.137600  1.0  -0.3706
  N  N935  1  0.035200  0.734500  0.202200  1.0  -0.3415
  N  N936  1  0.104000  0.596800  0.099800  1.0  -0.3407
  N  N937  1  0.046100  0.771100  0.246300  1.0  -0.3948
  N  N938  1  0.047800  0.634000  0.117200  1.0  -0.3912
  N  N939  1  0.344800  0.197100  0.620400  1.0  -0.405
  N  N940  1  0.413400  0.206700  0.637600  1.0  -0.3706
  N  N941  1  0.535200  0.234500  0.702200  1.0  -0.3415
  N  N942  1  0.604000  0.096800  0.599800  1.0  -0.3407
  N  N943  1  0.546100  0.271100  0.746300  1.0  -0.3948
  N  N944  1  0.547800  0.134000  0.617200  1.0  -0.3912
  N  N945  1  0.697100  0.155200  0.879600  1.0  -0.4056
  N  N946  1  0.706700  0.086600  0.862400  1.0  -0.3713
  N  N947  1  0.734500  0.964800  0.797800  1.0  -0.3408
  N  N948  1  0.596800  0.896000  0.900200  1.0  -0.3388
  N  N949  1  0.771100  0.953900  0.753700  1.0  -0.3954
  N  N950  1  0.634000  0.952200  0.882800  1.0  -0.3907
  N  N951  1  0.197100  0.655200  0.379600  1.0  -0.4056
  N  N952  1  0.206700  0.586600  0.362400  1.0  -0.3713
  N  N953  1  0.234500  0.464800  0.297800  1.0  -0.3408
  N  N954  1  0.096800  0.396000  0.400200  1.0  -0.3388
  N  N955  1  0.271100  0.453900  0.253700  1.0  -0.3954
  N  N956  1  0.134000  0.452200  0.382800  1.0  -0.3907
  N  N957  1  0.302900  0.844800  0.879600  1.0  -0.4055
  N  N958  1  0.293300  0.913400  0.862400  1.0  -0.3724
  N  N959  1  0.265500  0.035200  0.797800  1.0  -0.3403
  N  N960  1  0.403200  0.104000  0.900200  1.0  -0.3399
  N  N961  1  0.228900  0.046100  0.753700  1.0  -0.3937
  N  N962  1  0.366000  0.047800  0.882800  1.0  -0.3919
  N  N963  1  0.802900  0.344800  0.379600  1.0  -0.4055
  N  N964  1  0.793300  0.413400  0.362400  1.0  -0.3724
  N  N965  1  0.765500  0.535200  0.297800  1.0  -0.3403
  N  N966  1  0.903200  0.604000  0.400200  1.0  -0.3399
  N  N967  1  0.728900  0.546100  0.253700  1.0  -0.3937
  N  N968  1  0.866000  0.547800  0.382800  1.0  -0.3919
  N  N969  1  0.844800  0.697100  0.879600  1.0  -0.4047
  N  N970  1  0.913400  0.706700  0.862400  1.0  -0.3697
  N  N971  1  0.035200  0.734500  0.797800  1.0  -0.3418
  N  N972  1  0.104000  0.596800  0.900200  1.0  -0.3415
  N  N973  1  0.046100  0.771100  0.753700  1.0  -0.3949
  N  N974  1  0.047800  0.634000  0.882800  1.0  -0.3913
  N  N975  1  0.344800  0.197100  0.379600  1.0  -0.4047
  N  N976  1  0.413400  0.206700  0.362400  1.0  -0.3697
  N  N977  1  0.535200  0.234500  0.297800  1.0  -0.3418
  N  N978  1  0.604000  0.096800  0.400200  1.0  -0.3415
  N  N979  1  0.546100  0.271100  0.253700  1.0  -0.3949
  N  N980  1  0.547800  0.134000  0.382800  1.0  -0.3913
  N  N981  1  0.155200  0.302900  0.879600  1.0  -0.4044
  N  N982  1  0.086600  0.293300  0.862400  1.0  -0.3705
  N  N983  1  0.964800  0.265500  0.797800  1.0  -0.3429
  N  N984  1  0.896000  0.403200  0.900200  1.0  -0.3427
  N  N985  1  0.953900  0.228900  0.753700  1.0  -0.3949
  N  N986  1  0.952200  0.366000  0.882800  1.0  -0.3902
  N  N987  1  0.655200  0.802900  0.379600  1.0  -0.4044
  N  N988  1  0.586600  0.793300  0.362400  1.0  -0.3705
  N  N989  1  0.464800  0.765500  0.297800  1.0  -0.3429
  N  N990  1  0.396000  0.903200  0.400200  1.0  -0.3427
  N  N991  1  0.453900  0.728900  0.253700  1.0  -0.3949
  N  N992  1  0.452200  0.866000  0.382800  1.0  -0.3902
  O  O993  1  0.306800  0.690000  0.144700  1.0  -0.5336
  O  O994  1  0.344500  0.900000  0.101200  1.0  -0.4771
  O  O995  1  0.381500  0.254000  0.142100  1.0  -0.5411
  O  O996  1  0.152600  0.143800  0.312000  1.0  -0.5567
  O  O997  1  0.513200  0.160800  0.030600  1.0  -0.5378
  O  O998  1  0.124500  0.101300  0.348300  1.0  -0.5267
  O  O999  1  0.412500  0.296400  0.107600  1.0  -0.5537
  O  O1000  1  0.151900  0.948300  0.347100  1.0  -0.5354
  O  O1001  1  0.346200  0.659800  0.106900  1.0  -0.5629
  O  O1002  1  0.410700  0.751200  0.031300  1.0  -0.5622
  O  O1003  1  0.502300  0.232400  0.030000  1.0  -0.5692
  O  O1004  1  0.196500  0.919900  0.312200  1.0  -0.5554
  O  O1005  1  0.399800  0.820400  0.031400  1.0  -0.567
  O  O1006  1  0.352100  0.115700  0.138100  1.0  -0.4578
  O  O1007  1  0.334900  0.259000  0.203400  1.0  -0.6518
  O  O1008  1  0.238900  0.977900  0.226400  1.0  -0.4492
  O  O1009  1  0.425100  0.390600  0.091100  1.0  -0.6295
  O  O1010  1  0.806800  0.190000  0.644700  1.0  -0.5336
  O  O1011  1  0.844500  0.400000  0.601200  1.0  -0.4771
  O  O1012  1  0.881500  0.754000  0.642100  1.0  -0.5411
  O  O1013  1  0.652600  0.643800  0.812000  1.0  -0.5567
  O  O1014  1  0.013200  0.660800  0.530600  1.0  -0.5378
  O  O1015  1  0.624500  0.601300  0.848300  1.0  -0.5267
  O  O1016  1  0.912500  0.796400  0.607600  1.0  -0.5537
  O  O1017  1  0.651900  0.448300  0.847100  1.0  -0.5354
  O  O1018  1  0.846200  0.159800  0.606900  1.0  -0.5629
  O  O1019  1  0.910700  0.251200  0.531300  1.0  -0.5622
  O  O1020  1  0.002300  0.732400  0.530000  1.0  -0.5692
  O  O1021  1  0.696500  0.419900  0.812200  1.0  -0.5554
  O  O1022  1  0.899800  0.320400  0.531400  1.0  -0.567
  O  O1023  1  0.852100  0.615700  0.638100  1.0  -0.4578
  O  O1024  1  0.834900  0.759000  0.703400  1.0  -0.6518
  O  O1025  1  0.738900  0.477900  0.726400  1.0  -0.4497
  O  O1026  1  0.925100  0.890600  0.591100  1.0  -0.6295
  O  O1027  1  0.693200  0.310000  0.144700  1.0  -0.5343
  O  O1028  1  0.655500  0.100000  0.101200  1.0  -0.4748
  O  O1029  1  0.618500  0.746000  0.142100  1.0  -0.5412
  O  O1030  1  0.847400  0.856200  0.312000  1.0  -0.5578
  O  O1031  1  0.486800  0.839200  0.030600  1.0  -0.5366
  O  O1032  1  0.875500  0.898700  0.348300  1.0  -0.5268
  O  O1033  1  0.587500  0.703600  0.107600  1.0  -0.5539
  O  O1034  1  0.848100  0.051700  0.347100  1.0  -0.5354
  O  O1035  1  0.653800  0.340200  0.106900  1.0  -0.5629
  O  O1036  1  0.589300  0.248800  0.031300  1.0  -0.5639
  O  O1037  1  0.497700  0.767600  0.030000  1.0  -0.57
  O  O1038  1  0.803500  0.080100  0.312200  1.0  -0.5549
  O  O1039  1  0.600200  0.179600  0.031400  1.0  -0.5668
  O  O1040  1  0.647900  0.884300  0.138100  1.0  -0.4581
  O  O1041  1  0.665100  0.741000  0.203400  1.0  -0.6479
  O  O1042  1  0.761100  0.022100  0.226400  1.0  -0.448
  O  O1043  1  0.574900  0.609400  0.091100  1.0  -0.6288
  O  O1044  1  0.193200  0.810000  0.644700  1.0  -0.5343
  O  O1045  1  0.155500  0.600000  0.601200  1.0  -0.4748
  O  O1046  1  0.118500  0.246000  0.642100  1.0  -0.5412
  O  O1047  1  0.347400  0.356200  0.812000  1.0  -0.5578
  O  O1048  1  0.986800  0.339200  0.530600  1.0  -0.5366
  O  O1049  1  0.375500  0.398700  0.848300  1.0  -0.5268
  O  O1050  1  0.087500  0.203600  0.607600  1.0  -0.5539
  O  O1051  1  0.348100  0.551700  0.847100  1.0  -0.5354
  O  O1052  1  0.153800  0.840200  0.606900  1.0  -0.5629
  O  O1053  1  0.089300  0.748800  0.531300  1.0  -0.5639
  O  O1054  1  0.997700  0.267600  0.530000  1.0  -0.57
  O  O1055  1  0.303500  0.580100  0.812200  1.0  -0.5549
  O  O1056  1  0.100200  0.679600  0.531400  1.0  -0.5668
  O  O1057  1  0.147900  0.384300  0.638100  1.0  -0.4581
  O  O1058  1  0.165100  0.241000  0.703400  1.0  -0.6479
  O  O1059  1  0.261100  0.522100  0.726400  1.0  -0.4488
  O  O1060  1  0.074900  0.109400  0.591100  1.0  -0.6288
  O  O1061  1  0.310000  0.306800  0.144700  1.0  -0.5353
  O  O1062  1  0.100000  0.344500  0.101200  1.0  -0.4742
  O  O1063  1  0.746000  0.381500  0.142100  1.0  -0.542
  O  O1064  1  0.856200  0.152600  0.312000  1.0  -0.5564
  O  O1065  1  0.839200  0.513200  0.030600  1.0  -0.5357
  O  O1066  1  0.898700  0.124500  0.348300  1.0  -0.5282
  O  O1067  1  0.703600  0.412500  0.107600  1.0  -0.5536
  O  O1068  1  0.051700  0.151900  0.347100  1.0  -0.536
  O  O1069  1  0.340200  0.346200  0.106900  1.0  -0.5627
  O  O1070  1  0.248800  0.410700  0.031300  1.0  -0.5634
  O  O1071  1  0.767600  0.502300  0.030000  1.0  -0.5708
  O  O1072  1  0.080100  0.196500  0.312200  1.0  -0.5529
  O  O1073  1  0.179600  0.399800  0.031400  1.0  -0.5671
  O  O1074  1  0.884300  0.352100  0.138100  1.0  -0.4579
  O  O1075  1  0.741000  0.334900  0.203400  1.0  -0.6501
  O  O1076  1  0.022100  0.238900  0.226400  1.0  -0.4497
  O  O1077  1  0.609400  0.425100  0.091100  1.0  -0.6275
  O  O1078  1  0.810000  0.806800  0.644700  1.0  -0.5353
  O  O1079  1  0.600000  0.844500  0.601200  1.0  -0.4742
  O  O1080  1  0.246000  0.881500  0.642100  1.0  -0.542
  O  O1081  1  0.356200  0.652600  0.812000  1.0  -0.5564
  O  O1082  1  0.339200  0.013200  0.530600  1.0  -0.5357
  O  O1083  1  0.398700  0.624500  0.848300  1.0  -0.5282
  O  O1084  1  0.203600  0.912500  0.607600  1.0  -0.5536
  O  O1085  1  0.551700  0.651900  0.847100  1.0  -0.536
  O  O1086  1  0.840200  0.846200  0.606900  1.0  -0.5627
  O  O1087  1  0.748800  0.910700  0.531300  1.0  -0.5634
  O  O1088  1  0.267600  0.002300  0.530000  1.0  -0.5708
  O  O1089  1  0.580100  0.696500  0.812200  1.0  -0.5529
  O  O1090  1  0.679600  0.899800  0.531400  1.0  -0.5671
  O  O1091  1  0.384300  0.852100  0.638100  1.0  -0.4579
  O  O1092  1  0.241000  0.834900  0.703400  1.0  -0.6501
  O  O1093  1  0.522100  0.738900  0.726400  1.0  -0.45
  O  O1094  1  0.109400  0.925100  0.591100  1.0  -0.6275
  O  O1095  1  0.690000  0.693200  0.144700  1.0  -0.5335
  O  O1096  1  0.900000  0.655500  0.101200  1.0  -0.4756
  O  O1097  1  0.254000  0.618500  0.142100  1.0  -0.5422
  O  O1098  1  0.143800  0.847400  0.312000  1.0  -0.5566
  O  O1099  1  0.160800  0.486800  0.030600  1.0  -0.5361
  O  O1100  1  0.101300  0.875500  0.348300  1.0  -0.5268
  O  O1101  1  0.296400  0.587500  0.107600  1.0  -0.554
  O  O1102  1  0.948300  0.848100  0.347100  1.0  -0.5365
  O  O1103  1  0.659800  0.653800  0.106900  1.0  -0.5616
  O  O1104  1  0.751200  0.589300  0.031300  1.0  -0.5637
  O  O1105  1  0.232400  0.497700  0.030000  1.0  -0.57
  O  O1106  1  0.919900  0.803500  0.312200  1.0  -0.5528
  O  O1107  1  0.820400  0.600200  0.031400  1.0  -0.5668
  O  O1108  1  0.115700  0.647900  0.138100  1.0  -0.458
  O  O1109  1  0.259000  0.665100  0.203400  1.0  -0.6529
  O  O1110  1  0.977900  0.761100  0.226400  1.0  -0.4461
  O  O1111  1  0.390600  0.574900  0.091100  1.0  -0.6272
  O  O1112  1  0.190000  0.193200  0.644700  1.0  -0.5335
  O  O1113  1  0.400000  0.155500  0.601200  1.0  -0.4756
  O  O1114  1  0.754000  0.118500  0.642100  1.0  -0.5422
  O  O1115  1  0.643800  0.347400  0.812000  1.0  -0.5566
  O  O1116  1  0.660800  0.986800  0.530600  1.0  -0.5361
  O  O1117  1  0.601300  0.375500  0.848300  1.0  -0.5268
  O  O1118  1  0.796400  0.087500  0.607600  1.0  -0.554
  O  O1119  1  0.448300  0.348100  0.847100  1.0  -0.5365
  O  O1120  1  0.159800  0.153800  0.606900  1.0  -0.5616
  O  O1121  1  0.251200  0.089300  0.531300  1.0  -0.5637
  O  O1122  1  0.732400  0.997700  0.530000  1.0  -0.57
  O  O1123  1  0.419900  0.303500  0.812200  1.0  -0.5528
  O  O1124  1  0.320400  0.100200  0.531400  1.0  -0.5668
  O  O1125  1  0.615700  0.147900  0.638100  1.0  -0.458
  O  O1126  1  0.759000  0.165100  0.703400  1.0  -0.6529
  O  O1127  1  0.477900  0.261100  0.726400  1.0  -0.4462
  O  O1128  1  0.890600  0.074900  0.591100  1.0  -0.6272
  O  O1129  1  0.693200  0.310000  0.855300  1.0  -0.5337
  O  O1130  1  0.655500  0.100000  0.898800  1.0  -0.4722
  O  O1131  1  0.618500  0.746000  0.857900  1.0  -0.5399
  O  O1132  1  0.847400  0.856200  0.688000  1.0  -0.5569
  O  O1133  1  0.486800  0.839200  0.969400  1.0  -0.5361
  O  O1134  1  0.875500  0.898700  0.651700  1.0  -0.5266
  O  O1135  1  0.587500  0.703600  0.892400  1.0  -0.554
  O  O1136  1  0.848100  0.051700  0.652900  1.0  -0.5353
  O  O1137  1  0.653800  0.340200  0.893100  1.0  -0.5629
  O  O1138  1  0.589300  0.248800  0.968700  1.0  -0.5636
  O  O1139  1  0.497700  0.767600  0.970000  1.0  -0.5701
  O  O1140  1  0.803500  0.080100  0.687800  1.0  -0.5553
  O  O1141  1  0.600200  0.179600  0.968600  1.0  -0.567
  O  O1142  1  0.647900  0.884300  0.861900  1.0  -0.4607
  O  O1143  1  0.665100  0.741000  0.796600  1.0  -0.6494
  O  O1144  1  0.761100  0.022100  0.773600  1.0  -0.4485
  O  O1145  1  0.574900  0.609400  0.908900  1.0  -0.6286
  O  O1146  1  0.193200  0.810000  0.355300  1.0  -0.5337
  O  O1147  1  0.155500  0.600000  0.398800  1.0  -0.4722
  O  O1148  1  0.118500  0.246000  0.357900  1.0  -0.5399
  O  O1149  1  0.347400  0.356200  0.188000  1.0  -0.5569
  O  O1150  1  0.986800  0.339200  0.469400  1.0  -0.5361
  O  O1151  1  0.375500  0.398700  0.151700  1.0  -0.5266
  O  O1152  1  0.087500  0.203600  0.392400  1.0  -0.554
  O  O1153  1  0.348100  0.551700  0.152900  1.0  -0.5353
  O  O1154  1  0.153800  0.840200  0.393100  1.0  -0.5629
  O  O1155  1  0.089300  0.748800  0.468700  1.0  -0.5636
  O  O1156  1  0.997700  0.267600  0.470000  1.0  -0.5701
  O  O1157  1  0.303500  0.580100  0.187800  1.0  -0.5553
  O  O1158  1  0.100200  0.679600  0.468600  1.0  -0.567
  O  O1159  1  0.147900  0.384300  0.361900  1.0  -0.4607
  O  O1160  1  0.165100  0.241000  0.296600  1.0  -0.6494
  O  O1161  1  0.261100  0.522100  0.273600  1.0  -0.4492
  O  O1162  1  0.074900  0.109400  0.408900  1.0  -0.6286
  O  O1163  1  0.306800  0.690000  0.855300  1.0  -0.5332
  O  O1164  1  0.344500  0.900000  0.898800  1.0  -0.4753
  O  O1165  1  0.381500  0.254000  0.857900  1.0  -0.5403
  O  O1166  1  0.152600  0.143800  0.688000  1.0  -0.5556
  O  O1167  1  0.513200  0.160800  0.969400  1.0  -0.5376
  O  O1168  1  0.124500  0.101300  0.651700  1.0  -0.5263
  O  O1169  1  0.412500  0.296400  0.892400  1.0  -0.5535
  O  O1170  1  0.151900  0.948300  0.652900  1.0  -0.5344
  O  O1171  1  0.346200  0.659800  0.893100  1.0  -0.5623
  O  O1172  1  0.410700  0.751200  0.968700  1.0  -0.5622
  O  O1173  1  0.502300  0.232400  0.970000  1.0  -0.5699
  O  O1174  1  0.196500  0.919900  0.687800  1.0  -0.5554
  O  O1175  1  0.399800  0.820400  0.968600  1.0  -0.5667
  O  O1176  1  0.352100  0.115700  0.861900  1.0  -0.4594
  O  O1177  1  0.334900  0.259000  0.796600  1.0  -0.6538
  O  O1178  1  0.238900  0.977900  0.773600  1.0  -0.4492
  O  O1179  1  0.425100  0.390600  0.908900  1.0  -0.6296
  O  O1180  1  0.806800  0.190000  0.355300  1.0  -0.5332
  O  O1181  1  0.844500  0.400000  0.398800  1.0  -0.4753
  O  O1182  1  0.881500  0.754000  0.357900  1.0  -0.5403
  O  O1183  1  0.652600  0.643800  0.188000  1.0  -0.5556
  O  O1184  1  0.013200  0.660800  0.469400  1.0  -0.5376
  O  O1185  1  0.624500  0.601300  0.151700  1.0  -0.5263
  O  O1186  1  0.912500  0.796400  0.392400  1.0  -0.5535
  O  O1187  1  0.651900  0.448300  0.152900  1.0  -0.5344
  O  O1188  1  0.846200  0.159800  0.393100  1.0  -0.5623
  O  O1189  1  0.910700  0.251200  0.468700  1.0  -0.5622
  O  O1190  1  0.002300  0.732400  0.470000  1.0  -0.5699
  O  O1191  1  0.696500  0.419900  0.187800  1.0  -0.5554
  O  O1192  1  0.899800  0.320400  0.468600  1.0  -0.5667
  O  O1193  1  0.852100  0.615700  0.361900  1.0  -0.4594
  O  O1194  1  0.834900  0.759000  0.296600  1.0  -0.6538
  O  O1195  1  0.738900  0.477900  0.273600  1.0  -0.4498
  O  O1196  1  0.925100  0.890600  0.408900  1.0  -0.6296
  O  O1197  1  0.690000  0.693200  0.855300  1.0  -0.5329
  O  O1198  1  0.900000  0.655500  0.898800  1.0  -0.4735
  O  O1199  1  0.254000  0.618500  0.857900  1.0  -0.5412
  O  O1200  1  0.143800  0.847400  0.688000  1.0  -0.5565
  O  O1201  1  0.160800  0.486800  0.969400  1.0  -0.5361
  O  O1202  1  0.101300  0.875500  0.651700  1.0  -0.5266
  O  O1203  1  0.296400  0.587500  0.892400  1.0  -0.5535
  O  O1204  1  0.948300  0.848100  0.652900  1.0  -0.5354
  O  O1205  1  0.659800  0.653800  0.893100  1.0  -0.5618
  O  O1206  1  0.751200  0.589300  0.968700  1.0  -0.5634
  O  O1207  1  0.232400  0.497700  0.970000  1.0  -0.5701
  O  O1208  1  0.919900  0.803500  0.687800  1.0  -0.5538
  O  O1209  1  0.820400  0.600200  0.968600  1.0  -0.5672
  O  O1210  1  0.115700  0.647900  0.861900  1.0  -0.46
  O  O1211  1  0.259000  0.665100  0.796600  1.0  -0.6552
  O  O1212  1  0.977900  0.761100  0.773600  1.0  -0.4463
  O  O1213  1  0.390600  0.574900  0.908900  1.0  -0.627
  O  O1214  1  0.190000  0.193200  0.355300  1.0  -0.5329
  O  O1215  1  0.400000  0.155500  0.398800  1.0  -0.4735
  O  O1216  1  0.754000  0.118500  0.357900  1.0  -0.5412
  O  O1217  1  0.643800  0.347400  0.188000  1.0  -0.5565
  O  O1218  1  0.660800  0.986800  0.469400  1.0  -0.5361
  O  O1219  1  0.601300  0.375500  0.151700  1.0  -0.5266
  O  O1220  1  0.796400  0.087500  0.392400  1.0  -0.5535
  O  O1221  1  0.448300  0.348100  0.152900  1.0  -0.5354
  O  O1222  1  0.159800  0.153800  0.393100  1.0  -0.5618
  O  O1223  1  0.251200  0.089300  0.468700  1.0  -0.5634
  O  O1224  1  0.732400  0.997700  0.470000  1.0  -0.5701
  O  O1225  1  0.419900  0.303500  0.187800  1.0  -0.5538
  O  O1226  1  0.320400  0.100200  0.468600  1.0  -0.5672
  O  O1227  1  0.615700  0.147900  0.361900  1.0  -0.46
  O  O1228  1  0.759000  0.165100  0.296600  1.0  -0.6552
  O  O1229  1  0.477900  0.261100  0.273600  1.0  -0.4464
  O  O1230  1  0.890600  0.074900  0.408900  1.0  -0.627
  O  O1231  1  0.310000  0.306800  0.855300  1.0  -0.5347
  O  O1232  1  0.100000  0.344500  0.898800  1.0  -0.4727
  O  O1233  1  0.746000  0.381500  0.857900  1.0  -0.541
  O  O1234  1  0.856200  0.152600  0.688000  1.0  -0.5571
  O  O1235  1  0.839200  0.513200  0.969400  1.0  -0.536
  O  O1236  1  0.898700  0.124500  0.651700  1.0  -0.5275
  O  O1237  1  0.703600  0.412500  0.892400  1.0  -0.554
  O  O1238  1  0.051700  0.151900  0.652900  1.0  -0.5362
  O  O1239  1  0.340200  0.346200  0.893100  1.0  -0.5623
  O  O1240  1  0.248800  0.410700  0.968700  1.0  -0.5634
  O  O1241  1  0.767600  0.502300  0.970000  1.0  -0.5711
  O  O1242  1  0.080100  0.196500  0.687800  1.0  -0.5527
  O  O1243  1  0.179600  0.399800  0.968600  1.0  -0.5671
  O  O1244  1  0.884300  0.352100  0.861900  1.0  -0.46
  O  O1245  1  0.741000  0.334900  0.796600  1.0  -0.6506
  O  O1246  1  0.022100  0.238900  0.773600  1.0  -0.4496
  O  O1247  1  0.609400  0.425100  0.908900  1.0  -0.628
  O  O1248  1  0.810000  0.806800  0.355300  1.0  -0.5347
  O  O1249  1  0.600000  0.844500  0.398800  1.0  -0.4727
  O  O1250  1  0.246000  0.881500  0.357900  1.0  -0.541
  O  O1251  1  0.356200  0.652600  0.188000  1.0  -0.5571
  O  O1252  1  0.339200  0.013200  0.469400  1.0  -0.536
  O  O1253  1  0.398700  0.624500  0.151700  1.0  -0.5275
  O  O1254  1  0.203600  0.912500  0.392400  1.0  -0.554
  O  O1255  1  0.551700  0.651900  0.152900  1.0  -0.5362
  O  O1256  1  0.840200  0.846200  0.393100  1.0  -0.5623
  O  O1257  1  0.748800  0.910700  0.468700  1.0  -0.5634
  O  O1258  1  0.267600  0.002300  0.470000  1.0  -0.5711
  O  O1259  1  0.580100  0.696500  0.187800  1.0  -0.5527
  O  O1260  1  0.679600  0.899800  0.468600  1.0  -0.5671
  O  O1261  1  0.384300  0.852100  0.361900  1.0  -0.46
  O  O1262  1  0.241000  0.834900  0.296600  1.0  -0.6506
  O  O1263  1  0.522100  0.738900  0.273600  1.0  -0.45
  O  O1264  1  0.109400  0.925100  0.408900  1.0  -0.628
