# generated using pymatgen
data_Zn16H216(C32O9)9
_symmetry_space_group_name_H-M   'P 1'
_cell_length_a   29.92300000
_cell_length_b   29.92300000
_cell_length_c   37.63900000
_cell_angle_alpha   90.00000000
_cell_angle_beta   90.00000000
_cell_angle_gamma   120.00000000
_symmetry_Int_Tables_number   1
_chemical_formula_structural   Zn16H216(C32O9)9
_chemical_formula_sum   'Zn48 H648 C864 O243'
_cell_volume   29186.29537398
_cell_formula_units_Z   3
loop_
 _symmetry_equiv_pos_site_id
 _symmetry_equiv_pos_as_xyz
  1  'x, y, z'
loop_
 _atom_site_type_symbol
 _atom_site_label
 _atom_site_symmetry_multiplicity
 _atom_site_fract_x
 _atom_site_fract_y
 _atom_site_fract_z
 _atom_site_occupancy
 _atom_site_charge
  Zn  Zn1  1  0.631200  0.263180  0.315190  1.0  0.8661
  Zn  Zn2  1  0.297870  0.596510  0.648520  1.0  0.8662
  Zn  Zn3  1  0.964530  0.929850  0.981860  1.0  0.8659
  Zn  Zn4  1  0.736820  0.368020  0.315190  1.0  0.8665
  Zn  Zn5  1  0.403490  0.701350  0.648520  1.0  0.8666
  Zn  Zn6  1  0.070150  0.034690  0.981860  1.0  0.866
  Zn  Zn7  1  0.631980  0.368800  0.315190  1.0  0.8655
  Zn  Zn8  1  0.298650  0.702130  0.648520  1.0  0.8656
  Zn  Zn9  1  0.965310  0.035470  0.981860  1.0  0.8746
  Zn  Zn10  1  0.368800  0.736820  0.684810  1.0  0.868
  Zn  Zn11  1  0.035470  0.070150  0.018140  1.0  0.8678
  Zn  Zn12  1  0.702130  0.403490  0.351480  1.0  0.8681
  Zn  Zn13  1  0.263180  0.631980  0.684810  1.0  0.8661
  Zn  Zn14  1  0.929850  0.965310  0.018140  1.0  0.8655
  Zn  Zn15  1  0.596510  0.298650  0.351480  1.0  0.8662
  Zn  Zn16  1  0.368020  0.631200  0.684810  1.0  0.866
  Zn  Zn17  1  0.034690  0.964530  0.018140  1.0  0.8729
  Zn  Zn18  1  0.701350  0.297870  0.351480  1.0  0.8662
  Zn  Zn19  1  0.666667  0.333333  0.384120  1.0  0.8055
  Zn  Zn20  1  0.333333  0.666667  0.717450  1.0  0.8054
  Zn  Zn21  1  0.000000  0.000000  0.050790  1.0  0.8051
  Zn  Zn22  1  0.333333  0.666667  0.615880  1.0  0.8194
  Zn  Zn23  1  0.000000  0.000000  0.949210  1.0  0.8192
  Zn  Zn24  1  0.666667  0.333333  0.282550  1.0  0.8194
  Zn  Zn25  1  0.700730  0.297880  0.137820  1.0  1.0615
  Zn  Zn26  1  0.367400  0.631210  0.471150  1.0  1.0615
  Zn  Zn27  1  0.034060  0.964550  0.804490  1.0  1.0615
  Zn  Zn28  1  0.702120  0.402850  0.137820  1.0  1.0603
  Zn  Zn29  1  0.368790  0.736180  0.471150  1.0  1.0602
  Zn  Zn30  1  0.035450  0.069520  0.804490  1.0  1.0603
  Zn  Zn31  1  0.597150  0.299270  0.137820  1.0  1.0637
  Zn  Zn32  1  0.263820  0.632600  0.471150  1.0  1.0637
  Zn  Zn33  1  0.930480  0.965940  0.804490  1.0  1.0638
  Zn  Zn34  1  0.666667  0.333333  0.066470  1.0  1.0935
  Zn  Zn35  1  0.333333  0.666667  0.399800  1.0  1.0936
  Zn  Zn36  1  0.000000  0.000000  0.733140  1.0  1.0975
  Zn  Zn37  1  0.299270  0.702120  0.862180  1.0  1.0633
  Zn  Zn38  1  0.965940  0.035450  0.195510  1.0  1.0633
  Zn  Zn39  1  0.632600  0.368790  0.528850  1.0  1.0633
  Zn  Zn40  1  0.297880  0.597150  0.862180  1.0  1.0632
  Zn  Zn41  1  0.964550  0.930480  0.195510  1.0  1.0632
  Zn  Zn42  1  0.631210  0.263820  0.528850  1.0  1.0631
  Zn  Zn43  1  0.402850  0.700730  0.862180  1.0  1.0645
  Zn  Zn44  1  0.069520  0.034060  0.195510  1.0  1.0647
  Zn  Zn45  1  0.736180  0.367400  0.528850  1.0  1.0645
  Zn  Zn46  1  0.333333  0.666667  0.933530  1.0  1.0891
  Zn  Zn47  1  0.000000  0.000000  0.266860  1.0  1.0932
  Zn  Zn48  1  0.666667  0.333333  0.600200  1.0  1.0892
  H  H49  1  0.694400  0.233800  0.220500  1.0  0.0995
  H  H50  1  0.732100  0.202300  0.182200  1.0  0.1061
  H  H51  1  0.845600  0.238900  0.251200  1.0  0.1072
  H  H52  1  0.812000  0.276600  0.285900  1.0  0.0938
  H  H53  1  0.843200  0.283600  0.169200  1.0  0.0966
  H  H54  1  0.882700  0.401300  0.125000  1.0  0.1378
  H  H55  1  0.889800  0.377500  0.160200  1.0  0.1175
  H  H56  1  0.839200  0.346800  0.137800  1.0  0.1151
  H  H57  1  0.912200  0.212100  0.094000  1.0  0.085
  H  H58  1  0.975400  0.309400  0.032500  1.0  0.1318
  H  H59  1  0.931400  0.253500  0.041900  1.0  0.1096
  H  H60  1  0.983600  0.278400  0.063000  1.0  0.1053
  H  H61  1  0.361070  0.567130  0.553830  1.0  0.0995
  H  H62  1  0.398770  0.535630  0.515530  1.0  0.1061
  H  H63  1  0.512270  0.572230  0.584530  1.0  0.1072
  H  H64  1  0.478670  0.609930  0.619230  1.0  0.0938
  H  H65  1  0.509870  0.616930  0.502530  1.0  0.0966
  H  H66  1  0.549370  0.734630  0.458330  1.0  0.1378
  H  H67  1  0.556470  0.710830  0.493530  1.0  0.1175
  H  H68  1  0.505870  0.680130  0.471130  1.0  0.1151
  H  H69  1  0.578870  0.545430  0.427330  1.0  0.0854
  H  H70  1  0.642070  0.642730  0.365830  1.0  0.1318
  H  H71  1  0.598070  0.586830  0.375230  1.0  0.1095
  H  H72  1  0.650270  0.611730  0.396330  1.0  0.1052
  H  H73  1  0.027730  0.900470  0.887170  1.0  0.0995
  H  H74  1  0.065430  0.868970  0.848870  1.0  0.1061
  H  H75  1  0.178930  0.905570  0.917870  1.0  0.1072
  H  H76  1  0.145330  0.943270  0.952570  1.0  0.0938
  H  H77  1  0.176530  0.950270  0.835870  1.0  0.0966
  H  H78  1  0.216030  0.067970  0.791670  1.0  0.1378
  H  H79  1  0.223130  0.044170  0.826870  1.0  0.1175
  H  H80  1  0.172530  0.013470  0.804470  1.0  0.1151
  H  H81  1  0.245530  0.878770  0.760670  1.0  0.085
  H  H82  1  0.308730  0.976070  0.699170  1.0  0.1318
  H  H83  1  0.264730  0.920170  0.708570  1.0  0.1096
  H  H84  1  0.316930  0.945070  0.729670  1.0  0.1053
  H  H85  1  0.766200  0.460600  0.220500  1.0  0.0986
  H  H86  1  0.797700  0.529800  0.182200  1.0  0.1064
  H  H87  1  0.761100  0.606700  0.251200  1.0  0.1052
  H  H88  1  0.723400  0.535400  0.285900  1.0  0.094
  H  H89  1  0.716400  0.559600  0.169200  1.0  0.098
  H  H90  1  0.598700  0.481400  0.125000  1.0  0.1371
  H  H91  1  0.622500  0.512300  0.160200  1.0  0.1181
  H  H92  1  0.653200  0.492400  0.137800  1.0  0.1189
  H  H93  1  0.787900  0.700100  0.094000  1.0  0.0863
  H  H94  1  0.690600  0.666000  0.032500  1.0  0.1328
  H  H95  1  0.746500  0.677900  0.041900  1.0  0.1101
  H  H96  1  0.721600  0.705200  0.063000  1.0  0.1106
  H  H97  1  0.432870  0.793930  0.553830  1.0  0.0986
  H  H98  1  0.464370  0.863130  0.515530  1.0  0.1064
  H  H99  1  0.427770  0.940030  0.584530  1.0  0.1052
  H  H100  1  0.390070  0.868730  0.619230  1.0  0.094
  H  H101  1  0.383070  0.892930  0.502530  1.0  0.098
  H  H102  1  0.265370  0.814730  0.458330  1.0  0.1371
  H  H103  1  0.289170  0.845630  0.493530  1.0  0.1181
  H  H104  1  0.319870  0.825730  0.471130  1.0  0.1189
  H  H105  1  0.454570  0.033430  0.427330  1.0  0.0863
  H  H106  1  0.357270  0.999330  0.365830  1.0  0.1328
  H  H107  1  0.413170  0.011230  0.375230  1.0  0.1101
  H  H108  1  0.388270  0.038530  0.396330  1.0  0.1106
  H  H109  1  0.099530  0.127270  0.887170  1.0  0.0986
  H  H110  1  0.131030  0.196470  0.848870  1.0  0.1064
  H  H111  1  0.094430  0.273370  0.917870  1.0  0.1053
  H  H112  1  0.056730  0.202070  0.952570  1.0  0.094
  H  H113  1  0.049730  0.226270  0.835870  1.0  0.098
  H  H114  1  0.932030  0.148070  0.791670  1.0  0.1371
  H  H115  1  0.955830  0.178970  0.826870  1.0  0.1181
  H  H116  1  0.986530  0.159070  0.804470  1.0  0.1189
  H  H117  1  0.121230  0.366770  0.760670  1.0  0.0858
  H  H118  1  0.023930  0.332670  0.699170  1.0  0.1329
  H  H119  1  0.079830  0.344570  0.708570  1.0  0.1101
  H  H120  1  0.054930  0.371870  0.729670  1.0  0.1106
  H  H121  1  0.539400  0.305600  0.220500  1.0  0.0981
  H  H122  1  0.470200  0.267900  0.182200  1.0  0.1065
  H  H123  1  0.393300  0.154400  0.251200  1.0  0.1047
  H  H124  1  0.464600  0.188000  0.285900  1.0  0.0946
  H  H125  1  0.440400  0.156800  0.169200  1.0  0.0971
  H  H126  1  0.518600  0.117300  0.125000  1.0  0.1366
  H  H127  1  0.487700  0.110200  0.160200  1.0  0.1203
  H  H128  1  0.507600  0.160800  0.137800  1.0  0.1222
  H  H129  1  0.299900  0.087800  0.094000  1.0  0.0858
  H  H130  1  0.334000  0.024600  0.032500  1.0  0.1327
  H  H131  1  0.322100  0.068600  0.041900  1.0  0.1107
  H  H132  1  0.294800  0.016400  0.063000  1.0  0.1111
  H  H133  1  0.206070  0.638930  0.553830  1.0  0.0981
  H  H134  1  0.136870  0.601230  0.515530  1.0  0.1065
  H  H135  1  0.059970  0.487730  0.584530  1.0  0.1047
  H  H136  1  0.131270  0.521330  0.619230  1.0  0.0945
  H  H137  1  0.107070  0.490130  0.502530  1.0  0.0971
  H  H138  1  0.185270  0.450630  0.458330  1.0  0.1366
  H  H139  1  0.154370  0.443530  0.493530  1.0  0.1203
  H  H140  1  0.174270  0.494130  0.471130  1.0  0.1222
  H  H141  1  0.966570  0.421130  0.427330  1.0  0.0855
  H  H142  1  0.000670  0.357930  0.365830  1.0  0.1328
  H  H143  1  0.988770  0.401930  0.375230  1.0  0.1107
  H  H144  1  0.961470  0.349730  0.396330  1.0  0.1111
  H  H145  1  0.872730  0.972270  0.887170  1.0  0.0981
  H  H146  1  0.803530  0.934570  0.848870  1.0  0.1065
  H  H147  1  0.726630  0.821070  0.917870  1.0  0.1047
  H  H148  1  0.797930  0.854670  0.952570  1.0  0.0946
  H  H149  1  0.773730  0.823470  0.835870  1.0  0.0971
  H  H150  1  0.851930  0.783970  0.791670  1.0  0.1366
  H  H151  1  0.821030  0.776870  0.826870  1.0  0.1203
  H  H152  1  0.840930  0.827470  0.804470  1.0  0.1222
  H  H153  1  0.633230  0.754470  0.760670  1.0  0.0858
  H  H154  1  0.667330  0.691270  0.699170  1.0  0.1327
  H  H155  1  0.655430  0.735270  0.708570  1.0  0.1108
  H  H156  1  0.628130  0.683070  0.729670  1.0  0.1111
  H  H157  1  0.305600  0.766200  0.779500  1.0  0.0986
  H  H158  1  0.267900  0.797700  0.817800  1.0  0.1054
  H  H159  1  0.154400  0.761100  0.748800  1.0  0.1074
  H  H160  1  0.188000  0.723400  0.714100  1.0  0.094
  H  H161  1  0.156800  0.716400  0.830800  1.0  0.0968
  H  H162  1  0.117300  0.598700  0.875000  1.0  0.1414
  H  H163  1  0.110200  0.622500  0.839800  1.0  0.1159
  H  H164  1  0.160800  0.653200  0.862200  1.0  0.1169
  H  H165  1  0.087800  0.787900  0.906000  1.0  0.0849
  H  H166  1  0.024600  0.690600  0.967500  1.0  0.1335
  H  H167  1  0.068600  0.746500  0.958100  1.0  0.1094
  H  H168  1  0.016400  0.721600  0.937000  1.0  0.1063
  H  H169  1  0.972270  0.099530  0.112830  1.0  0.0986
  H  H170  1  0.934570  0.131030  0.151130  1.0  0.1054
  H  H171  1  0.821070  0.094430  0.082130  1.0  0.1074
  H  H172  1  0.854670  0.056730  0.047430  1.0  0.094
  H  H173  1  0.823470  0.049730  0.164130  1.0  0.0968
  H  H174  1  0.783970  0.932030  0.208330  1.0  0.1414
  H  H175  1  0.776870  0.955830  0.173130  1.0  0.1159
  H  H176  1  0.827470  0.986530  0.195530  1.0  0.1169
  H  H177  1  0.754470  0.121230  0.239330  1.0  0.0849
  H  H178  1  0.691270  0.023930  0.300830  1.0  0.1335
  H  H179  1  0.735270  0.079830  0.291430  1.0  0.1094
  H  H180  1  0.683070  0.054930  0.270330  1.0  0.1064
  H  H181  1  0.638930  0.432870  0.446170  1.0  0.0986
  H  H182  1  0.601230  0.464370  0.484470  1.0  0.1054
  H  H183  1  0.487730  0.427770  0.415470  1.0  0.1074
  H  H184  1  0.521330  0.390070  0.380770  1.0  0.094
  H  H185  1  0.490130  0.383070  0.497470  1.0  0.0968
  H  H186  1  0.450630  0.265370  0.541670  1.0  0.1414
  H  H187  1  0.443530  0.289170  0.506470  1.0  0.1159
  H  H188  1  0.494130  0.319870  0.528870  1.0  0.1169
  H  H189  1  0.421130  0.454570  0.572670  1.0  0.0853
  H  H190  1  0.357930  0.357270  0.634170  1.0  0.1334
  H  H191  1  0.401930  0.413170  0.624770  1.0  0.1093
  H  H192  1  0.349730  0.388270  0.603670  1.0  0.1063
  H  H193  1  0.233800  0.539400  0.779500  1.0  0.0982
  H  H194  1  0.202300  0.470200  0.817800  1.0  0.1062
  H  H195  1  0.238900  0.393300  0.748800  1.0  0.1051
  H  H196  1  0.276600  0.464600  0.714100  1.0  0.0941
  H  H197  1  0.283600  0.440400  0.830800  1.0  0.098
  H  H198  1  0.401300  0.518600  0.875000  1.0  0.1388
  H  H199  1  0.377500  0.487700  0.839800  1.0  0.1174
  H  H200  1  0.346800  0.507600  0.862200  1.0  0.1176
  H  H201  1  0.212100  0.299900  0.906000  1.0  0.0855
  H  H202  1  0.309400  0.334000  0.967500  1.0  0.1322
  H  H203  1  0.253500  0.322100  0.958100  1.0  0.1091
  H  H204  1  0.278400  0.294800  0.937000  1.0  0.1121
  H  H205  1  0.900470  0.872730  0.112830  1.0  0.0982
  H  H206  1  0.868970  0.803530  0.151130  1.0  0.1062
  H  H207  1  0.905570  0.726630  0.082130  1.0  0.1051
  H  H208  1  0.943270  0.797930  0.047430  1.0  0.0941
  H  H209  1  0.950270  0.773730  0.164130  1.0  0.098
  H  H210  1  0.067970  0.851930  0.208330  1.0  0.1387
  H  H211  1  0.044170  0.821030  0.173130  1.0  0.1174
  H  H212  1  0.013470  0.840930  0.195530  1.0  0.1175
  H  H213  1  0.878770  0.633230  0.239330  1.0  0.085
  H  H214  1  0.976070  0.667330  0.300830  1.0  0.1322
  H  H215  1  0.920170  0.655430  0.291430  1.0  0.1092
  H  H216  1  0.945070  0.628130  0.270330  1.0  0.1122
  H  H217  1  0.567130  0.206070  0.446170  1.0  0.0982
  H  H218  1  0.535630  0.136870  0.484470  1.0  0.1062
  H  H219  1  0.572230  0.059970  0.415470  1.0  0.105
  H  H220  1  0.609930  0.131270  0.380770  1.0  0.0941
  H  H221  1  0.616930  0.107070  0.497470  1.0  0.098
  H  H222  1  0.734630  0.185270  0.541670  1.0  0.1388
  H  H223  1  0.710830  0.154370  0.506470  1.0  0.1174
  H  H224  1  0.680130  0.174270  0.528870  1.0  0.1176
  H  H225  1  0.545430  0.966570  0.572670  1.0  0.0854
  H  H226  1  0.642730  0.000670  0.634170  1.0  0.1322
  H  H227  1  0.586830  0.988770  0.624770  1.0  0.1092
  H  H228  1  0.611730  0.961470  0.603670  1.0  0.1122
  H  H229  1  0.460600  0.694400  0.779500  1.0  0.0981
  H  H230  1  0.529800  0.732100  0.817800  1.0  0.1052
  H  H231  1  0.606700  0.845600  0.748800  1.0  0.1053
  H  H232  1  0.535400  0.812000  0.714100  1.0  0.0947
  H  H233  1  0.559600  0.843200  0.830800  1.0  0.0973
  H  H234  1  0.481400  0.882700  0.875000  1.0  0.1366
  H  H235  1  0.512300  0.889800  0.839800  1.0  0.1173
  H  H236  1  0.492400  0.839200  0.862200  1.0  0.1211
  H  H237  1  0.700100  0.912200  0.906000  1.0  0.0855
  H  H238  1  0.666000  0.975400  0.967500  1.0  0.1326
  H  H239  1  0.677900  0.931400  0.958100  1.0  0.1095
  H  H240  1  0.705200  0.983600  0.937000  1.0  0.1096
  H  H241  1  0.127270  0.027730  0.112830  1.0  0.0981
  H  H242  1  0.196470  0.065430  0.151130  1.0  0.1052
  H  H243  1  0.273370  0.178930  0.082130  1.0  0.1053
  H  H244  1  0.202070  0.145330  0.047430  1.0  0.0948
  H  H245  1  0.226270  0.176530  0.164130  1.0  0.0973
  H  H246  1  0.148070  0.216030  0.208330  1.0  0.1366
  H  H247  1  0.178970  0.223130  0.173130  1.0  0.1173
  H  H248  1  0.159070  0.172530  0.195530  1.0  0.1212
  H  H249  1  0.366770  0.245530  0.239330  1.0  0.0855
  H  H250  1  0.332670  0.308730  0.300830  1.0  0.1326
  H  H251  1  0.344570  0.264730  0.291430  1.0  0.1096
  H  H252  1  0.371870  0.316930  0.270330  1.0  0.1096
  H  H253  1  0.793930  0.361070  0.446170  1.0  0.0981
  H  H254  1  0.863130  0.398770  0.484470  1.0  0.1052
  H  H255  1  0.940030  0.512270  0.415470  1.0  0.1053
  H  H256  1  0.868730  0.478670  0.380770  1.0  0.0947
  H  H257  1  0.892930  0.509870  0.497470  1.0  0.0973
  H  H258  1  0.814730  0.549370  0.541670  1.0  0.1367
  H  H259  1  0.845630  0.556470  0.506470  1.0  0.1173
  H  H260  1  0.825730  0.505870  0.528870  1.0  0.1211
  H  H261  1  0.033430  0.578870  0.572670  1.0  0.0852
  H  H262  1  0.999330  0.642070  0.634170  1.0  0.1327
  H  H263  1  0.011230  0.598070  0.624770  1.0  0.1096
  H  H264  1  0.038530  0.650270  0.603670  1.0  0.1095
  H  H265  1  0.808100  0.344800  0.224300  1.0  0.0858
  H  H266  1  0.874600  0.380400  0.263800  1.0  0.1004
  H  H267  1  0.927900  0.516700  0.216800  1.0  0.1058
  H  H268  1  0.859600  0.484700  0.181200  1.0  0.1127
  H  H269  1  0.961400  0.414600  0.219100  1.0  0.0997
  H  H270  1  0.991800  0.347800  0.158400  1.0  0.1267
  H  H271  1  0.984200  0.394900  0.166500  1.0  0.1033
  H  H272  1  0.953600  0.343800  0.188400  1.0  0.1147
  H  H273  1  0.165300  0.416100  0.265100  1.0  0.1495
  H  H274  1  0.134700  0.426400  0.294600  1.0  0.1127
  H  H275  1  0.169000  0.470100  0.267600  1.0  0.128
  H  H276  1  0.101100  0.477600  0.297500  1.0  0.1007
  H  H277  1  0.039200  0.583100  0.358400  1.0  0.1147
  H  H278  1  0.046900  0.658200  0.380300  1.0  0.097
  H  H279  1  0.022200  0.614500  0.409000  1.0  0.0976
  H  H280  1  0.013300  0.661800  0.410900  1.0  0.1231
  H  H281  1  0.848200  0.539400  0.296000  1.0  0.0947
  H  H282  1  0.829100  0.568300  0.321000  1.0  0.1069
  H  H283  1  0.819100  0.513300  0.331400  1.0  0.094
  H  H284  1  0.888900  0.503900  0.289900  1.0  0.1166
  H  H285  1  0.051100  0.501400  0.379600  1.0  0.0772
  H  H286  1  0.119800  0.531800  0.416400  1.0  0.1144
  H  H287  1  0.209900  0.621600  0.338100  1.0  0.1182
  H  H288  1  0.140900  0.585600  0.300800  1.0  0.1146
  H  H289  1  0.474770  0.678130  0.557630  1.0  0.0858
  H  H290  1  0.541270  0.713730  0.597130  1.0  0.1004
  H  H291  1  0.594570  0.850030  0.550130  1.0  0.1058
  H  H292  1  0.526270  0.818030  0.514530  1.0  0.1127
  H  H293  1  0.628070  0.747930  0.552430  1.0  0.0997
  H  H294  1  0.658470  0.681130  0.491730  1.0  0.1267
  H  H295  1  0.650870  0.728230  0.499830  1.0  0.1033
  H  H296  1  0.620270  0.677130  0.521730  1.0  0.1147
  H  H297  1  0.831970  0.749430  0.598430  1.0  0.1495
  H  H298  1  0.801370  0.759730  0.627930  1.0  0.1127
  H  H299  1  0.835670  0.803430  0.600930  1.0  0.1278
  H  H300  1  0.767770  0.810930  0.630830  1.0  0.1007
  H  H301  1  0.705870  0.916430  0.691730  1.0  0.1147
  H  H302  1  0.713570  0.991530  0.713630  1.0  0.097
  H  H303  1  0.688870  0.947830  0.742330  1.0  0.0975
  H  H304  1  0.679970  0.995130  0.744230  1.0  0.1231
  H  H305  1  0.514870  0.872730  0.629330  1.0  0.0947
  H  H306  1  0.495770  0.901630  0.654330  1.0  0.1069
  H  H307  1  0.485770  0.846630  0.664730  1.0  0.094
  H  H308  1  0.555570  0.837230  0.623230  1.0  0.1166
  H  H309  1  0.717770  0.834730  0.712930  1.0  0.0772
  H  H310  1  0.786470  0.865130  0.749730  1.0  0.1144
  H  H311  1  0.876570  0.954930  0.671430  1.0  0.1182
  H  H312  1  0.807570  0.918930  0.634130  1.0  0.1146
  H  H313  1  0.141430  0.011470  0.890970  1.0  0.0858
  H  H314  1  0.207930  0.047070  0.930470  1.0  0.1005
  H  H315  1  0.261230  0.183370  0.883470  1.0  0.1058
  H  H316  1  0.192930  0.151370  0.847870  1.0  0.1127
  H  H317  1  0.294730  0.081270  0.885770  1.0  0.0997
  H  H318  1  0.325130  0.014470  0.825070  1.0  0.1267
  H  H319  1  0.317530  0.061570  0.833170  1.0  0.1033
  H  H320  1  0.286930  0.010470  0.855070  1.0  0.1147
  H  H321  1  0.498630  0.082770  0.931770  1.0  0.1495
  H  H322  1  0.468030  0.093070  0.961270  1.0  0.1127
  H  H323  1  0.502330  0.136770  0.934270  1.0  0.128
  H  H324  1  0.434430  0.144270  0.964170  1.0  0.1007
  H  H325  1  0.372530  0.249770  0.025070  1.0  0.1147
  H  H326  1  0.380230  0.324870  0.046970  1.0  0.097
  H  H327  1  0.355530  0.281170  0.075670  1.0  0.0976
  H  H328  1  0.346630  0.328470  0.077570  1.0  0.123
  H  H329  1  0.181530  0.206070  0.962670  1.0  0.0947
  H  H330  1  0.162430  0.234970  0.987670  1.0  0.1069
  H  H331  1  0.152430  0.179970  0.998070  1.0  0.094
  H  H332  1  0.222230  0.170570  0.956570  1.0  0.1166
  H  H333  1  0.384430  0.168070  0.046270  1.0  0.0772
  H  H334  1  0.453130  0.198470  0.083070  1.0  0.1144
  H  H335  1  0.543230  0.288270  0.004770  1.0  0.1182
  H  H336  1  0.474230  0.252270  0.967470  1.0  0.1146
  H  H337  1  0.655200  0.463300  0.224300  1.0  0.0862
  H  H338  1  0.619600  0.494200  0.263800  1.0  0.1002
  H  H339  1  0.483300  0.411200  0.216800  1.0  0.1083
  H  H340  1  0.515300  0.374900  0.181200  1.0  0.1119
  H  H341  1  0.585400  0.546800  0.219100  1.0  0.0999
  H  H342  1  0.652200  0.644000  0.158400  1.0  0.1255
  H  H343  1  0.605100  0.589300  0.166500  1.0  0.1029
  H  H344  1  0.656200  0.609800  0.188400  1.0  0.1103
  H  H345  1  0.583900  0.749200  0.265100  1.0  0.1538
  H  H346  1  0.573600  0.708300  0.294600  1.0  0.1133
  H  H347  1  0.529900  0.698900  0.267600  1.0  0.1252
  H  H348  1  0.522400  0.623500  0.297500  1.0  0.1013
  H  H349  1  0.416900  0.456100  0.358400  1.0  0.1154
  H  H350  1  0.341800  0.388700  0.380300  1.0  0.0919
  H  H351  1  0.385500  0.407700  0.409000  1.0  0.1012
  H  H352  1  0.338200  0.351500  0.410900  1.0  0.1218
  H  H353  1  0.460600  0.308800  0.296000  1.0  0.094
  H  H354  1  0.431700  0.260800  0.321000  1.0  0.109
  H  H355  1  0.486700  0.305800  0.331400  1.0  0.0929
  H  H356  1  0.496100  0.385000  0.289900  1.0  0.1161
  H  H357  1  0.498600  0.549700  0.379600  1.0  0.0773
  H  H358  1  0.468200  0.588000  0.416400  1.0  0.1144
  H  H359  1  0.378400  0.588300  0.338100  1.0  0.1172
  H  H360  1  0.414400  0.555300  0.300800  1.0  0.1152
  H  H361  1  0.321870  0.796630  0.557630  1.0  0.0862
  H  H362  1  0.286270  0.827530  0.597130  1.0  0.1002
  H  H363  1  0.149970  0.744530  0.550130  1.0  0.1083
  H  H364  1  0.181970  0.708230  0.514530  1.0  0.1119
  H  H365  1  0.252070  0.880130  0.552430  1.0  0.0999
  H  H366  1  0.318870  0.977330  0.491730  1.0  0.1255
  H  H367  1  0.271770  0.922630  0.499830  1.0  0.1028
  H  H368  1  0.322870  0.943130  0.521730  1.0  0.1103
  H  H369  1  0.250570  0.082530  0.598430  1.0  0.1538
  H  H370  1  0.240270  0.041630  0.627930  1.0  0.1133
  H  H371  1  0.196570  0.032230  0.600930  1.0  0.1245
  H  H372  1  0.189070  0.956830  0.630830  1.0  0.1013
  H  H373  1  0.083570  0.789430  0.691730  1.0  0.1155
  H  H374  1  0.008470  0.722030  0.713630  1.0  0.0919
  H  H375  1  0.052170  0.741030  0.742330  1.0  0.1012
  H  H376  1  0.004870  0.684830  0.744230  1.0  0.1218
  H  H377  1  0.127270  0.642130  0.629330  1.0  0.094
  H  H378  1  0.098370  0.594130  0.654330  1.0  0.109
  H  H379  1  0.153370  0.639130  0.664730  1.0  0.0929
  H  H380  1  0.162770  0.718330  0.623230  1.0  0.1161
  H  H381  1  0.165270  0.883030  0.712930  1.0  0.0773
  H  H382  1  0.134870  0.921330  0.749730  1.0  0.1144
  H  H383  1  0.045070  0.921630  0.671430  1.0  0.1172
  H  H384  1  0.081070  0.888630  0.634130  1.0  0.1152
  H  H385  1  0.988530  0.129970  0.890970  1.0  0.0862
  H  H386  1  0.952930  0.160870  0.930470  1.0  0.1002
  H  H387  1  0.816630  0.077870  0.883470  1.0  0.1083
  H  H388  1  0.848630  0.041570  0.847870  1.0  0.1119
  H  H389  1  0.918730  0.213470  0.885770  1.0  0.0999
  H  H390  1  0.985530  0.310670  0.825070  1.0  0.1255
  H  H391  1  0.938430  0.255970  0.833170  1.0  0.1029
  H  H392  1  0.989530  0.276470  0.855070  1.0  0.1103
  H  H393  1  0.917230  0.415870  0.931770  1.0  0.1538
  H  H394  1  0.906930  0.374970  0.961270  1.0  0.1133
  H  H395  1  0.863230  0.365570  0.934270  1.0  0.1252
  H  H396  1  0.855730  0.290170  0.964170  1.0  0.1013
  H  H397  1  0.750230  0.122770  0.025070  1.0  0.1154
  H  H398  1  0.675130  0.055370  0.046970  1.0  0.0919
  H  H399  1  0.718830  0.074370  0.075670  1.0  0.1012
  H  H400  1  0.671530  0.018170  0.077570  1.0  0.1218
  H  H401  1  0.793930  0.975470  0.962670  1.0  0.094
  H  H402  1  0.765030  0.927470  0.987670  1.0  0.109
  H  H403  1  0.820030  0.972470  0.998070  1.0  0.0929
  H  H404  1  0.829430  0.051670  0.956570  1.0  0.1161
  H  H405  1  0.831930  0.216370  0.046270  1.0  0.0773
  H  H406  1  0.801530  0.254670  0.083070  1.0  0.1144
  H  H407  1  0.711730  0.254970  0.004770  1.0  0.1172
  H  H408  1  0.747730  0.221970  0.967470  1.0  0.1152
  H  H409  1  0.536700  0.191900  0.224300  1.0  0.0857
  H  H410  1  0.505800  0.125400  0.263800  1.0  0.1
  H  H411  1  0.588800  0.072100  0.216800  1.0  0.1068
  H  H412  1  0.625100  0.140400  0.181200  1.0  0.1116
  H  H413  1  0.453200  0.038600  0.219100  1.0  0.1013
  H  H414  1  0.356000  0.008200  0.158400  1.0  0.1268
  H  H415  1  0.410700  0.015800  0.166500  1.0  0.1016
  H  H416  1  0.390200  0.046400  0.188400  1.0  0.1117
  H  H417  1  0.250800  0.834700  0.265100  1.0  0.1489
  H  H418  1  0.291700  0.865300  0.294600  1.0  0.1138
  H  H419  1  0.301100  0.831000  0.267600  1.0  0.1285
  H  H420  1  0.376500  0.898900  0.297500  1.0  0.1013
  H  H421  1  0.543900  0.960800  0.358400  1.0  0.1146
  H  H422  1  0.611300  0.953100  0.380300  1.0  0.0973
  H  H423  1  0.592300  0.977800  0.409000  1.0  0.1004
  H  H424  1  0.648500  0.986700  0.410900  1.0  0.1228
  H  H425  1  0.691200  0.151800  0.296000  1.0  0.094
  H  H426  1  0.739200  0.170900  0.321000  1.0  0.1114
  H  H427  1  0.694200  0.180900  0.331400  1.0  0.0946
  H  H428  1  0.615000  0.111100  0.289900  1.0  0.1171
  H  H429  1  0.450300  0.948900  0.379600  1.0  0.0768
  H  H430  1  0.412000  0.880200  0.416400  1.0  0.1144
  H  H431  1  0.411700  0.790100  0.338100  1.0  0.1179
  H  H432  1  0.444700  0.859100  0.300800  1.0  0.1143
  H  H433  1  0.203370  0.525230  0.557630  1.0  0.0857
  H  H434  1  0.172470  0.458730  0.597130  1.0  0.1001
  H  H435  1  0.255470  0.405430  0.550130  1.0  0.1067
  H  H436  1  0.291770  0.473730  0.514530  1.0  0.1116
  H  H437  1  0.119870  0.371930  0.552430  1.0  0.1013
  H  H438  1  0.022670  0.341530  0.491730  1.0  0.1268
  H  H439  1  0.077370  0.349130  0.499830  1.0  0.1016
  H  H440  1  0.056870  0.379730  0.521730  1.0  0.1117
  H  H441  1  0.917470  0.168030  0.598430  1.0  0.1489
  H  H442  1  0.958370  0.198630  0.627930  1.0  0.1139
  H  H443  1  0.967770  0.164330  0.600930  1.0  0.1292
  H  H444  1  0.043170  0.232230  0.630830  1.0  0.1013
  H  H445  1  0.210570  0.294130  0.691730  1.0  0.1146
  H  H446  1  0.277970  0.286430  0.713630  1.0  0.0973
  H  H447  1  0.258970  0.311130  0.742330  1.0  0.1005
  H  H448  1  0.315170  0.320030  0.744230  1.0  0.1228
  H  H449  1  0.357870  0.485130  0.629330  1.0  0.094
  H  H450  1  0.405870  0.504230  0.654330  1.0  0.1114
  H  H451  1  0.360870  0.514230  0.664730  1.0  0.0946
  H  H452  1  0.281670  0.444430  0.623230  1.0  0.117
  H  H453  1  0.116970  0.282230  0.712930  1.0  0.0769
  H  H454  1  0.078670  0.213530  0.749730  1.0  0.1144
  H  H455  1  0.078370  0.123430  0.671430  1.0  0.1179
  H  H456  1  0.111370  0.192430  0.634130  1.0  0.1143
  H  H457  1  0.870030  0.858570  0.890970  1.0  0.0857
  H  H458  1  0.839130  0.792070  0.930470  1.0  0.1001
  H  H459  1  0.922130  0.738770  0.883470  1.0  0.1068
  H  H460  1  0.958430  0.807070  0.847870  1.0  0.1116
  H  H461  1  0.786530  0.705270  0.885770  1.0  0.1014
  H  H462  1  0.689330  0.674870  0.825070  1.0  0.1268
  H  H463  1  0.744030  0.682470  0.833170  1.0  0.1016
  H  H464  1  0.723530  0.713070  0.855070  1.0  0.1117
  H  H465  1  0.584130  0.501370  0.931770  1.0  0.1489
  H  H466  1  0.625030  0.531970  0.961270  1.0  0.1138
  H  H467  1  0.634430  0.497670  0.934270  1.0  0.1285
  H  H468  1  0.709830  0.565570  0.964170  1.0  0.1014
  H  H469  1  0.877230  0.627470  0.025070  1.0  0.1146
  H  H470  1  0.944630  0.619770  0.046970  1.0  0.0973
  H  H471  1  0.925630  0.644470  0.075670  1.0  0.1004
  H  H472  1  0.981830  0.653370  0.077570  1.0  0.1228
  H  H473  1  0.024530  0.818470  0.962670  1.0  0.094
  H  H474  1  0.072530  0.837570  0.987670  1.0  0.1115
  H  H475  1  0.027530  0.847570  0.998070  1.0  0.0947
  H  H476  1  0.948330  0.777770  0.956570  1.0  0.117
  H  H477  1  0.783630  0.615570  0.046270  1.0  0.0768
  H  H478  1  0.745330  0.546870  0.083070  1.0  0.1144
  H  H479  1  0.745030  0.456770  0.004770  1.0  0.1179
  H  H480  1  0.778030  0.525770  0.967470  1.0  0.1143
  H  H481  1  0.191900  0.655200  0.775700  1.0  0.0857
  H  H482  1  0.125400  0.619600  0.736200  1.0  0.1007
  H  H483  1  0.072100  0.483300  0.783200  1.0  0.1066
  H  H484  1  0.140400  0.515300  0.818800  1.0  0.1134
  H  H485  1  0.038600  0.585400  0.780900  1.0  0.1
  H  H486  1  0.008200  0.652200  0.841600  1.0  0.1278
  H  H487  1  0.015800  0.605100  0.833500  1.0  0.1038
  H  H488  1  0.046400  0.656200  0.811600  1.0  0.1124
  H  H489  1  0.834700  0.583900  0.734900  1.0  0.1477
  H  H490  1  0.865300  0.573600  0.705400  1.0  0.111
  H  H491  1  0.831000  0.529900  0.732400  1.0  0.1288
  H  H492  1  0.898900  0.522400  0.702500  1.0  0.1018
  H  H493  1  0.960800  0.416900  0.641600  1.0  0.1147
  H  H494  1  0.953100  0.341800  0.619700  1.0  0.0963
  H  H495  1  0.977800  0.385500  0.591000  1.0  0.0984
  H  H496  1  0.986700  0.338200  0.589100  1.0  0.1219
  H  H497  1  0.151800  0.460600  0.704000  1.0  0.0938
  H  H498  1  0.170900  0.431700  0.679000  1.0  0.1077
  H  H499  1  0.180900  0.486700  0.668600  1.0  0.0954
  H  H500  1  0.111100  0.496100  0.710100  1.0  0.1148
  H  H501  1  0.948900  0.498600  0.620400  1.0  0.0762
  H  H502  1  0.880200  0.468200  0.583600  1.0  0.1155
  H  H503  1  0.790100  0.378400  0.661900  1.0  0.1178
  H  H504  1  0.859100  0.414400  0.699200  1.0  0.1149
  H  H505  1  0.858570  0.988530  0.109030  1.0  0.0857
  H  H506  1  0.792070  0.952930  0.069530  1.0  0.1008
  H  H507  1  0.738770  0.816630  0.116530  1.0  0.1066
  H  H508  1  0.807070  0.848630  0.152130  1.0  0.1134
  H  H509  1  0.705270  0.918730  0.114230  1.0  0.0999
  H  H510  1  0.674870  0.985530  0.174930  1.0  0.1278
  H  H511  1  0.682470  0.938430  0.166830  1.0  0.1038
  H  H512  1  0.713070  0.989530  0.144930  1.0  0.1124
  H  H513  1  0.501370  0.917230  0.068230  1.0  0.1477
  H  H514  1  0.531970  0.906930  0.038730  1.0  0.111
  H  H515  1  0.497670  0.863230  0.065730  1.0  0.1288
  H  H516  1  0.565570  0.855730  0.035830  1.0  0.1018
  H  H517  1  0.627470  0.750230  0.974930  1.0  0.1148
  H  H518  1  0.619770  0.675130  0.953030  1.0  0.0963
  H  H519  1  0.644470  0.718830  0.924330  1.0  0.0984
  H  H520  1  0.653370  0.671530  0.922430  1.0  0.1219
  H  H521  1  0.818470  0.793930  0.037330  1.0  0.0938
  H  H522  1  0.837570  0.765030  0.012330  1.0  0.1077
  H  H523  1  0.847570  0.820030  0.001930  1.0  0.0955
  H  H524  1  0.777770  0.829430  0.043430  1.0  0.1148
  H  H525  1  0.615570  0.831930  0.953730  1.0  0.0762
  H  H526  1  0.546870  0.801530  0.916930  1.0  0.1155
  H  H527  1  0.456770  0.711730  0.995230  1.0  0.1178
  H  H528  1  0.525770  0.747730  0.032530  1.0  0.1149
  H  H529  1  0.525230  0.321870  0.442370  1.0  0.0857
  H  H530  1  0.458730  0.286270  0.402870  1.0  0.1007
  H  H531  1  0.405430  0.149970  0.449870  1.0  0.1066
  H  H532  1  0.473730  0.181970  0.485470  1.0  0.1134
  H  H533  1  0.371930  0.252070  0.447570  1.0  0.1
  H  H534  1  0.341530  0.318870  0.508270  1.0  0.1278
  H  H535  1  0.349130  0.271770  0.500170  1.0  0.1038
  H  H536  1  0.379730  0.322870  0.478270  1.0  0.1124
  H  H537  1  0.168030  0.250570  0.401570  1.0  0.1477
  H  H538  1  0.198630  0.240270  0.372070  1.0  0.111
  H  H539  1  0.164330  0.196570  0.399070  1.0  0.1288
  H  H540  1  0.232230  0.189070  0.369170  1.0  0.1017
  H  H541  1  0.294130  0.083570  0.308270  1.0  0.1147
  H  H542  1  0.286430  0.008470  0.286370  1.0  0.0963
  H  H543  1  0.311130  0.052170  0.257670  1.0  0.0984
  H  H544  1  0.320030  0.004870  0.255770  1.0  0.1219
  H  H545  1  0.485130  0.127270  0.370670  1.0  0.0938
  H  H546  1  0.504230  0.098370  0.345670  1.0  0.1077
  H  H547  1  0.514230  0.153370  0.335270  1.0  0.0954
  H  H548  1  0.444430  0.162770  0.376770  1.0  0.1148
  H  H549  1  0.282230  0.165270  0.287070  1.0  0.0762
  H  H550  1  0.213530  0.134870  0.250270  1.0  0.1155
  H  H551  1  0.123430  0.045070  0.328570  1.0  0.1178
  H  H552  1  0.192430  0.081070  0.365870  1.0  0.1149
  H  H553  1  0.344800  0.536700  0.775700  1.0  0.0862
  H  H554  1  0.380400  0.505800  0.736200  1.0  0.1007
  H  H555  1  0.516700  0.588800  0.783200  1.0  0.107
  H  H556  1  0.484700  0.625100  0.818800  1.0  0.1121
  H  H557  1  0.414600  0.453200  0.780900  1.0  0.0992
  H  H558  1  0.347800  0.356000  0.841600  1.0  0.1264
  H  H559  1  0.394900  0.410700  0.833500  1.0  0.1016
  H  H560  1  0.343800  0.390200  0.811600  1.0  0.1106
  H  H561  1  0.416100  0.250800  0.734900  1.0  0.158
  H  H562  1  0.426400  0.291700  0.705400  1.0  0.1145
  H  H563  1  0.470100  0.301100  0.732400  1.0  0.1271
  H  H564  1  0.477600  0.376500  0.702500  1.0  0.1011
  H  H565  1  0.583100  0.543900  0.641600  1.0  0.1156
  H  H566  1  0.658200  0.611300  0.619700  1.0  0.0937
  H  H567  1  0.614500  0.592300  0.591000  1.0  0.0994
  H  H568  1  0.661800  0.648500  0.589100  1.0  0.1227
  H  H569  1  0.539400  0.691200  0.704000  1.0  0.0938
  H  H570  1  0.568300  0.739200  0.679000  1.0  0.1104
  H  H571  1  0.513300  0.694200  0.668600  1.0  0.0932
  H  H572  1  0.503900  0.615000  0.710100  1.0  0.1153
  H  H573  1  0.501400  0.450300  0.620400  1.0  0.0765
  H  H574  1  0.531800  0.412000  0.583600  1.0  0.1149
  H  H575  1  0.621600  0.411700  0.661900  1.0  0.1177
  H  H576  1  0.585600  0.444700  0.699200  1.0  0.1144
  H  H577  1  0.011470  0.870030  0.109030  1.0  0.0862
  H  H578  1  0.047070  0.839130  0.069530  1.0  0.1007
  H  H579  1  0.183370  0.922130  0.116530  1.0  0.107
  H  H580  1  0.151370  0.958430  0.152130  1.0  0.1121
  H  H581  1  0.081270  0.786530  0.114230  1.0  0.0992
  H  H582  1  0.014470  0.689330  0.174930  1.0  0.1264
  H  H583  1  0.061570  0.744030  0.166830  1.0  0.1016
  H  H584  1  0.010470  0.723530  0.144930  1.0  0.1107
  H  H585  1  0.082770  0.584130  0.068230  1.0  0.158
  H  H586  1  0.093070  0.625030  0.038730  1.0  0.1145
  H  H587  1  0.136770  0.634430  0.065730  1.0  0.1271
  H  H588  1  0.144270  0.709830  0.035830  1.0  0.1011
  H  H589  1  0.249770  0.877230  0.974930  1.0  0.1156
  H  H590  1  0.324870  0.944630  0.953030  1.0  0.0937
  H  H591  1  0.281170  0.925630  0.924330  1.0  0.0994
  H  H592  1  0.328470  0.981830  0.922430  1.0  0.1228
  H  H593  1  0.206070  0.024530  0.037330  1.0  0.0938
  H  H594  1  0.234970  0.072530  0.012330  1.0  0.1103
  H  H595  1  0.179970  0.027530  0.001930  1.0  0.0932
  H  H596  1  0.170570  0.948330  0.043430  1.0  0.1153
  H  H597  1  0.168070  0.783630  0.953730  1.0  0.0765
  H  H598  1  0.198470  0.745330  0.916930  1.0  0.1149
  H  H599  1  0.288270  0.745030  0.995230  1.0  0.1177
  H  H600  1  0.252270  0.778030  0.032530  1.0  0.1144
  H  H601  1  0.678130  0.203370  0.442370  1.0  0.0862
  H  H602  1  0.713730  0.172470  0.402870  1.0  0.1007
  H  H603  1  0.850030  0.255470  0.449870  1.0  0.107
  H  H604  1  0.818030  0.291770  0.485470  1.0  0.1121
  H  H605  1  0.747930  0.119870  0.447570  1.0  0.0992
  H  H606  1  0.681130  0.022670  0.508270  1.0  0.1264
  H  H607  1  0.728230  0.077370  0.500170  1.0  0.1016
  H  H608  1  0.677130  0.056870  0.478270  1.0  0.1106
  H  H609  1  0.749430  0.917470  0.401570  1.0  0.158
  H  H610  1  0.759730  0.958370  0.372070  1.0  0.1145
  H  H611  1  0.803430  0.967770  0.399070  1.0  0.1262
  H  H612  1  0.810930  0.043170  0.369170  1.0  0.1011
  H  H613  1  0.916430  0.210570  0.308270  1.0  0.1157
  H  H614  1  0.991530  0.277970  0.286370  1.0  0.0938
  H  H615  1  0.947830  0.258970  0.257670  1.0  0.0995
  H  H616  1  0.995130  0.315170  0.255770  1.0  0.1227
  H  H617  1  0.872730  0.357870  0.370670  1.0  0.0938
  H  H618  1  0.901630  0.405870  0.345670  1.0  0.1104
  H  H619  1  0.846630  0.360870  0.335270  1.0  0.0932
  H  H620  1  0.837230  0.281670  0.376770  1.0  0.1153
  H  H621  1  0.834730  0.116970  0.287070  1.0  0.0765
  H  H622  1  0.865130  0.078670  0.250270  1.0  0.1149
  H  H623  1  0.954930  0.078370  0.328570  1.0  0.1177
  H  H624  1  0.918930  0.111370  0.365870  1.0  0.1144
  H  H625  1  0.463300  0.808100  0.775700  1.0  0.0853
  H  H626  1  0.494200  0.874600  0.736200  1.0  0.1005
  H  H627  1  0.411200  0.927900  0.783200  1.0  0.1076
  H  H628  1  0.374900  0.859600  0.818800  1.0  0.1124
  H  H629  1  0.546800  0.961400  0.780900  1.0  0.1012
  H  H630  1  0.644000  0.991800  0.841600  1.0  0.1262
  H  H631  1  0.589300  0.984200  0.833500  1.0  0.1025
  H  H632  1  0.609800  0.953600  0.811600  1.0  0.1138
  H  H633  1  0.749200  0.165300  0.734900  1.0  0.15
  H  H634  1  0.708300  0.134700  0.705400  1.0  0.1132
  H  H635  1  0.698900  0.169000  0.732400  1.0  0.1293
  H  H636  1  0.623500  0.101100  0.702500  1.0  0.101
  H  H637  1  0.456100  0.039200  0.641600  1.0  0.1139
  H  H638  1  0.388700  0.046900  0.619700  1.0  0.0962
  H  H639  1  0.407700  0.022200  0.591000  1.0  0.0968
  H  H640  1  0.351500  0.013300  0.589100  1.0  0.1216
  H  H641  1  0.308800  0.848200  0.704000  1.0  0.0938
  H  H642  1  0.260800  0.829100  0.679000  1.0  0.1089
  H  H643  1  0.305800  0.819100  0.668600  1.0  0.0936
  H  H644  1  0.385000  0.888900  0.710100  1.0  0.1156
  H  H645  1  0.549700  0.051100  0.620400  1.0  0.0765
  H  H646  1  0.588000  0.119800  0.583600  1.0  0.1148
  H  H647  1  0.588300  0.209900  0.661900  1.0  0.1185
  H  H648  1  0.555300  0.140900  0.699200  1.0  0.1151
  H  H649  1  0.129970  0.141430  0.109030  1.0  0.0853
  H  H650  1  0.160870  0.207930  0.069530  1.0  0.1006
  H  H651  1  0.077870  0.261230  0.116530  1.0  0.1076
  H  H652  1  0.041570  0.192930  0.152130  1.0  0.1124
  H  H653  1  0.213470  0.294730  0.114230  1.0  0.1013
  H  H654  1  0.310670  0.325130  0.174930  1.0  0.1262
  H  H655  1  0.255970  0.317530  0.166830  1.0  0.1025
  H  H656  1  0.276470  0.286930  0.144930  1.0  0.1138
  H  H657  1  0.415870  0.498630  0.068230  1.0  0.15
  H  H658  1  0.374970  0.468030  0.038730  1.0  0.1132
  H  H659  1  0.365570  0.502330  0.065730  1.0  0.1293
  H  H660  1  0.290170  0.434430  0.035830  1.0  0.1011
  H  H661  1  0.122770  0.372530  0.974930  1.0  0.1139
  H  H662  1  0.055370  0.380230  0.953030  1.0  0.0962
  H  H663  1  0.074370  0.355530  0.924330  1.0  0.0968
  H  H664  1  0.018170  0.346630  0.922430  1.0  0.1216
  H  H665  1  0.975470  0.181530  0.037330  1.0  0.0938
  H  H666  1  0.927470  0.162430  0.012330  1.0  0.109
  H  H667  1  0.972470  0.152430  0.001930  1.0  0.0936
  H  H668  1  0.051670  0.222230  0.043430  1.0  0.1155
  H  H669  1  0.216370  0.384430  0.953730  1.0  0.0765
  H  H670  1  0.254670  0.453130  0.916930  1.0  0.1148
  H  H671  1  0.254970  0.543230  0.995230  1.0  0.1185
  H  H672  1  0.221970  0.474230  0.032530  1.0  0.1151
  H  H673  1  0.796630  0.474770  0.442370  1.0  0.0853
  H  H674  1  0.827530  0.541270  0.402870  1.0  0.1005
  H  H675  1  0.744530  0.594570  0.449870  1.0  0.1076
  H  H676  1  0.708230  0.526270  0.485470  1.0  0.1124
  H  H677  1  0.880130  0.628070  0.447570  1.0  0.1012
  H  H678  1  0.977330  0.658470  0.508270  1.0  0.1262
  H  H679  1  0.922630  0.650870  0.500170  1.0  0.1025
  H  H680  1  0.943130  0.620270  0.478270  1.0  0.1138
  H  H681  1  0.082530  0.831970  0.401570  1.0  0.15
  H  H682  1  0.041630  0.801370  0.372070  1.0  0.1132
  H  H683  1  0.032230  0.835670  0.399070  1.0  0.1297
  H  H684  1  0.956830  0.767770  0.369170  1.0  0.101
  H  H685  1  0.789430  0.705870  0.308270  1.0  0.1139
  H  H686  1  0.722030  0.713570  0.286370  1.0  0.0962
  H  H687  1  0.741030  0.688870  0.257670  1.0  0.0968
  H  H688  1  0.684830  0.679970  0.255770  1.0  0.1216
  H  H689  1  0.642130  0.514870  0.370670  1.0  0.0938
  H  H690  1  0.594130  0.495770  0.345670  1.0  0.1089
  H  H691  1  0.639130  0.485770  0.335270  1.0  0.0936
  H  H692  1  0.718330  0.555570  0.376770  1.0  0.1155
  H  H693  1  0.883030  0.717770  0.287070  1.0  0.0765
  H  H694  1  0.921330  0.786470  0.250270  1.0  0.1148
  H  H695  1  0.921630  0.876570  0.328570  1.0  0.1185
  H  H696  1  0.888630  0.807570  0.365870  1.0  0.1151
  C  C697  1  0.723300  0.278000  0.281300  1.0  0.0219
  C  C698  1  0.746800  0.254300  0.257700  1.0  0.0467
  C  C699  1  0.724800  0.234600  0.227000  1.0  -0.117
  C  C700  1  0.747200  0.214900  0.204200  1.0  -0.1256
  C  C701  1  0.791100  0.213200  0.213100  1.0  0.0837
  C  C702  1  0.814900  0.237400  0.244600  1.0  -0.1496
  C  C703  1  0.794300  0.258700  0.265700  1.0  -0.1113
  C  C704  1  0.812300  0.189000  0.189300  1.0  -0.016
  C  C705  1  0.801700  0.138000  0.195900  1.0  0.0355
  C  C706  1  0.844800  0.218000  0.160500  1.0  0.0379
  C  C707  1  0.856300  0.268700  0.153800  1.0  -0.2076
  C  C708  1  0.886400  0.298100  0.125200  1.0  0.2242
  C  C709  1  0.875800  0.369900  0.136600  1.0  -0.0176
  C  C710  1  0.908800  0.274000  0.102900  1.0  0.2826
  C  C711  1  0.897900  0.226400  0.108900  1.0  -0.1691
  C  C712  1  0.958900  0.285100  0.051500  1.0  -0.0029
  C  C713  1  0.389970  0.611330  0.614630  1.0  0.0219
  C  C714  1  0.413470  0.587630  0.591030  1.0  0.0467
  C  C715  1  0.391470  0.567930  0.560330  1.0  -0.117
  C  C716  1  0.413870  0.548230  0.537530  1.0  -0.1256
  C  C717  1  0.457770  0.546530  0.546430  1.0  0.0837
  C  C718  1  0.481570  0.570730  0.577930  1.0  -0.1497
  C  C719  1  0.460970  0.592030  0.599030  1.0  -0.1115
  C  C720  1  0.478970  0.522330  0.522630  1.0  -0.0159
  C  C721  1  0.468370  0.471330  0.529230  1.0  0.0346
  C  C722  1  0.511470  0.551330  0.493830  1.0  0.0372
  C  C723  1  0.522970  0.602030  0.487130  1.0  -0.2084
  C  C724  1  0.553070  0.631430  0.458530  1.0  0.2242
  C  C725  1  0.542470  0.703230  0.469930  1.0  -0.0176
  C  C726  1  0.575470  0.607330  0.436230  1.0  0.2825
  C  C727  1  0.564570  0.559730  0.442230  1.0  -0.1694
  C  C728  1  0.625570  0.618430  0.384830  1.0  -0.0029
  C  C729  1  0.056630  0.944670  0.947970  1.0  0.0219
  C  C730  1  0.080130  0.920970  0.924370  1.0  0.0466
  C  C731  1  0.058130  0.901270  0.893670  1.0  -0.117
  C  C732  1  0.080530  0.881570  0.870870  1.0  -0.1257
  C  C733  1  0.124430  0.879870  0.879770  1.0  0.0837
  C  C734  1  0.148230  0.904070  0.911270  1.0  -0.1496
  C  C735  1  0.127630  0.925370  0.932370  1.0  -0.1113
  C  C736  1  0.145630  0.855670  0.855970  1.0  -0.016
  C  C737  1  0.135030  0.804670  0.862570  1.0  0.0355
  C  C738  1  0.178130  0.884670  0.827170  1.0  0.0379
  C  C739  1  0.189630  0.935370  0.820470  1.0  -0.2077
  C  C740  1  0.219730  0.964770  0.791870  1.0  0.2242
  C  C741  1  0.209130  0.036570  0.803270  1.0  -0.0176
  C  C742  1  0.242130  0.940670  0.769570  1.0  0.2825
  C  C743  1  0.231230  0.893070  0.775570  1.0  -0.1691
  C  C744  1  0.292230  0.951770  0.718170  1.0  -0.0029
  C  C745  1  0.722000  0.445300  0.281300  1.0  0.0241
  C  C746  1  0.745700  0.492500  0.257700  1.0  0.0483
  C  C747  1  0.765400  0.490200  0.227000  1.0  -0.1148
  C  C748  1  0.785100  0.532300  0.204200  1.0  -0.1242
  C  C749  1  0.786800  0.577900  0.213100  1.0  0.0856
  C  C750  1  0.762600  0.577500  0.244600  1.0  -0.1499
  C  C751  1  0.741300  0.535600  0.265700  1.0  -0.1094
  C  C752  1  0.811000  0.623300  0.189300  1.0  -0.0157
  C  C753  1  0.862000  0.663700  0.195900  1.0  0.0347
  C  C754  1  0.782000  0.626800  0.160500  1.0  0.0383
  C  C755  1  0.731300  0.587600  0.153800  1.0  -0.2057
  C  C756  1  0.701900  0.588300  0.125200  1.0  0.2239
  C  C757  1  0.630100  0.505900  0.136600  1.0  -0.0193
  C  C758  1  0.726000  0.634800  0.102900  1.0  0.2819
  C  C759  1  0.773600  0.671500  0.108900  1.0  -0.168
  C  C760  1  0.714900  0.673800  0.051500  1.0  -0.0051
  C  C761  1  0.388670  0.778630  0.614630  1.0  0.0241
  C  C762  1  0.412370  0.825830  0.591030  1.0  0.0483
  C  C763  1  0.432070  0.823530  0.560330  1.0  -0.1148
  C  C764  1  0.451770  0.865630  0.537530  1.0  -0.1242
  C  C765  1  0.453470  0.911230  0.546430  1.0  0.0856
  C  C766  1  0.429270  0.910830  0.577930  1.0  -0.1499
  C  C767  1  0.407970  0.868930  0.599030  1.0  -0.1094
  C  C768  1  0.477670  0.956630  0.522630  1.0  -0.0157
  C  C769  1  0.528670  0.997030  0.529230  1.0  0.0346
  C  C770  1  0.448670  0.960130  0.493830  1.0  0.0382
  C  C771  1  0.397970  0.920930  0.487130  1.0  -0.2057
  C  C772  1  0.368570  0.921630  0.458530  1.0  0.2239
  C  C773  1  0.296770  0.839230  0.469930  1.0  -0.0193
  C  C774  1  0.392670  0.968130  0.436230  1.0  0.2819
  C  C775  1  0.440270  0.004830  0.442230  1.0  -0.1679
  C  C776  1  0.381570  0.007130  0.384830  1.0  -0.0051
  C  C777  1  0.055330  0.111970  0.947970  1.0  0.0241
  C  C778  1  0.079030  0.159170  0.924370  1.0  0.0482
  C  C779  1  0.098730  0.156870  0.893670  1.0  -0.1148
  C  C780  1  0.118430  0.198970  0.870870  1.0  -0.1242
  C  C781  1  0.120130  0.244570  0.879770  1.0  0.0856
  C  C782  1  0.095930  0.244170  0.911270  1.0  -0.1499
  C  C783  1  0.074630  0.202270  0.932370  1.0  -0.1094
  C  C784  1  0.144330  0.289970  0.855970  1.0  -0.0157
  C  C785  1  0.195330  0.330370  0.862570  1.0  0.0347
  C  C786  1  0.115330  0.293470  0.827170  1.0  0.0383
  C  C787  1  0.064630  0.254270  0.820470  1.0  -0.2057
  C  C788  1  0.035230  0.254970  0.791870  1.0  0.2242
  C  C789  1  0.963430  0.172570  0.803270  1.0  -0.0192
  C  C790  1  0.059330  0.301470  0.769570  1.0  0.2818
  C  C791  1  0.106930  0.338170  0.775570  1.0  -0.168
  C  C792  1  0.048230  0.340470  0.718170  1.0  -0.0051
  C  C793  1  0.554700  0.276700  0.281300  1.0  0.0247
  C  C794  1  0.507500  0.253200  0.257700  1.0  0.0485
  C  C795  1  0.509800  0.275200  0.227000  1.0  -0.113
  C  C796  1  0.467700  0.252800  0.204200  1.0  -0.1269
  C  C797  1  0.422100  0.208900  0.213100  1.0  0.0848
  C  C798  1  0.422500  0.185100  0.244600  1.0  -0.1486
  C  C799  1  0.464400  0.205700  0.265700  1.0  -0.1104
  C  C800  1  0.376700  0.187700  0.189300  1.0  -0.0156
  C  C801  1  0.336300  0.198300  0.195900  1.0  0.0342
  C  C802  1  0.373200  0.155200  0.160500  1.0  0.038
  C  C803  1  0.412400  0.143700  0.153800  1.0  -0.2076
  C  C804  1  0.411700  0.113600  0.125200  1.0  0.2241
  C  C805  1  0.494100  0.124200  0.136600  1.0  -0.0232
  C  C806  1  0.365200  0.091200  0.102900  1.0  0.2813
  C  C807  1  0.328500  0.102100  0.108900  1.0  -0.1724
  C  C808  1  0.326200  0.041100  0.051500  1.0  -0.0063
  C  C809  1  0.221370  0.610030  0.614630  1.0  0.0247
  C  C810  1  0.174170  0.586530  0.591030  1.0  0.0485
  C  C811  1  0.176470  0.608530  0.560330  1.0  -0.113
  C  C812  1  0.134370  0.586130  0.537530  1.0  -0.1269
  C  C813  1  0.088770  0.542230  0.546430  1.0  0.0849
  C  C814  1  0.089170  0.518430  0.577930  1.0  -0.1484
  C  C815  1  0.131070  0.539030  0.599030  1.0  -0.1104
  C  C816  1  0.043370  0.521030  0.522630  1.0  -0.0155
  C  C817  1  0.002970  0.531630  0.529230  1.0  0.0342
  C  C818  1  0.039870  0.488530  0.493830  1.0  0.0376
  C  C819  1  0.079070  0.477030  0.487130  1.0  -0.2076
  C  C820  1  0.078370  0.446930  0.458530  1.0  0.2241
  C  C821  1  0.160770  0.457530  0.469930  1.0  -0.0232
  C  C822  1  0.031870  0.424530  0.436230  1.0  0.2813
  C  C823  1  0.995170  0.435430  0.442230  1.0  -0.1729
  C  C824  1  0.992870  0.374430  0.384830  1.0  -0.0063
  C  C825  1  0.888030  0.943370  0.947970  1.0  0.0247
  C  C826  1  0.840830  0.919870  0.924370  1.0  0.0483
  C  C827  1  0.843130  0.941870  0.893670  1.0  -0.113
  C  C828  1  0.801030  0.919470  0.870870  1.0  -0.1269
  C  C829  1  0.755430  0.875570  0.879770  1.0  0.0848
  C  C830  1  0.755830  0.851770  0.911270  1.0  -0.1484
  C  C831  1  0.797730  0.872370  0.932370  1.0  -0.1104
  C  C832  1  0.710030  0.854370  0.855970  1.0  -0.0156
  C  C833  1  0.669630  0.864970  0.862570  1.0  0.0341
  C  C834  1  0.706530  0.821870  0.827170  1.0  0.0378
  C  C835  1  0.745730  0.810370  0.820470  1.0  -0.2076
  C  C836  1  0.745030  0.780270  0.791870  1.0  0.2242
  C  C837  1  0.827430  0.790870  0.803270  1.0  -0.0232
  C  C838  1  0.698530  0.757870  0.769570  1.0  0.2813
  C  C839  1  0.661830  0.768770  0.775570  1.0  -0.1723
  C  C840  1  0.659530  0.707770  0.718170  1.0  -0.0063
  C  C841  1  0.276700  0.722000  0.718700  1.0  0.0219
  C  C842  1  0.253200  0.745700  0.742300  1.0  0.0476
  C  C843  1  0.275200  0.765400  0.773000  1.0  -0.1184
  C  C844  1  0.252800  0.785100  0.795800  1.0  -0.1259
  C  C845  1  0.208900  0.786800  0.786900  1.0  0.0857
  C  C846  1  0.185100  0.762600  0.755400  1.0  -0.1502
  C  C847  1  0.205700  0.741300  0.734300  1.0  -0.1101
  C  C848  1  0.187700  0.811000  0.810700  1.0  -0.0158
  C  C849  1  0.198300  0.862000  0.804100  1.0  0.0349
  C  C850  1  0.155200  0.782000  0.839500  1.0  0.0389
  C  C851  1  0.143700  0.731300  0.846200  1.0  -0.2077
  C  C852  1  0.113600  0.701900  0.874800  1.0  0.2231
  C  C853  1  0.124200  0.630100  0.863400  1.0  -0.0195
  C  C854  1  0.091200  0.726000  0.897100  1.0  0.2788
  C  C855  1  0.102100  0.773600  0.891100  1.0  -0.1627
  C  C856  1  0.041100  0.714900  0.948500  1.0  -0.0021
  C  C857  1  0.943370  0.055330  0.052030  1.0  0.0219
  C  C858  1  0.919870  0.079030  0.075630  1.0  0.0475
  C  C859  1  0.941870  0.098730  0.106330  1.0  -0.1184
  C  C860  1  0.919470  0.118430  0.129130  1.0  -0.1259
  C  C861  1  0.875570  0.120130  0.120230  1.0  0.0857
  C  C862  1  0.851770  0.095930  0.088730  1.0  -0.1502
  C  C863  1  0.872370  0.074630  0.067630  1.0  -0.1101
  C  C864  1  0.854370  0.144330  0.144030  1.0  -0.0158
  C  C865  1  0.864970  0.195330  0.137430  1.0  0.0349
  C  C866  1  0.821870  0.115330  0.172830  1.0  0.0389
  C  C867  1  0.810370  0.064630  0.179530  1.0  -0.2078
  C  C868  1  0.780270  0.035230  0.208130  1.0  0.223
  C  C869  1  0.790870  0.963430  0.196730  1.0  -0.0195
  C  C870  1  0.757870  0.059330  0.230430  1.0  0.2788
  C  C871  1  0.768770  0.106930  0.224430  1.0  -0.1627
  C  C872  1  0.707770  0.048230  0.281830  1.0  -0.0021
  C  C873  1  0.610030  0.388670  0.385370  1.0  0.0219
  C  C874  1  0.586530  0.412370  0.408970  1.0  0.0476
  C  C875  1  0.608530  0.432070  0.439670  1.0  -0.1184
  C  C876  1  0.586130  0.451770  0.462470  1.0  -0.1259
  C  C877  1  0.542230  0.453470  0.453570  1.0  0.0857
  C  C878  1  0.518430  0.429270  0.422070  1.0  -0.1502
  C  C879  1  0.539030  0.407970  0.400970  1.0  -0.1101
  C  C880  1  0.521030  0.477670  0.477370  1.0  -0.0157
  C  C881  1  0.531630  0.528670  0.470770  1.0  0.0339
  C  C882  1  0.488530  0.448670  0.506170  1.0  0.0383
  C  C883  1  0.477030  0.397970  0.512870  1.0  -0.2084
  C  C884  1  0.446930  0.368570  0.541470  1.0  0.2231
  C  C885  1  0.457530  0.296770  0.530070  1.0  -0.0195
  C  C886  1  0.424530  0.392670  0.563770  1.0  0.2788
  C  C887  1  0.435430  0.440270  0.557770  1.0  -0.1631
  C  C888  1  0.374430  0.381570  0.615170  1.0  -0.0021
  C  C889  1  0.278000  0.554700  0.718700  1.0  0.024
  C  C890  1  0.254300  0.507500  0.742300  1.0  0.0475
  C  C891  1  0.234600  0.509800  0.773000  1.0  -0.1151
  C  C892  1  0.214900  0.467700  0.795800  1.0  -0.1239
  C  C893  1  0.213200  0.422100  0.786900  1.0  0.0847
  C  C894  1  0.237400  0.422500  0.755400  1.0  -0.1494
  C  C895  1  0.258700  0.464400  0.734300  1.0  -0.1106
  C  C896  1  0.189000  0.376700  0.810700  1.0  -0.0161
  C  C897  1  0.138000  0.336300  0.804100  1.0  0.0348
  C  C898  1  0.218000  0.373200  0.839500  1.0  0.0371
  C  C899  1  0.268700  0.412400  0.846200  1.0  -0.2073
  C  C900  1  0.298100  0.411700  0.874800  1.0  0.224
  C  C901  1  0.369900  0.494100  0.863400  1.0  -0.02
  C  C902  1  0.274000  0.365200  0.897100  1.0  0.2807
  C  C903  1  0.226400  0.328500  0.891100  1.0  -0.1605
  C  C904  1  0.285100  0.326200  0.948500  1.0  -0.0057
  C  C905  1  0.944670  0.888030  0.052030  1.0  0.024
  C  C906  1  0.920970  0.840830  0.075630  1.0  0.0474
  C  C907  1  0.901270  0.843130  0.106330  1.0  -0.1151
  C  C908  1  0.881570  0.801030  0.129130  1.0  -0.1239
  C  C909  1  0.879870  0.755430  0.120230  1.0  0.0847
  C  C910  1  0.904070  0.755830  0.088730  1.0  -0.1494
  C  C911  1  0.925370  0.797730  0.067630  1.0  -0.1106
  C  C912  1  0.855670  0.710030  0.144030  1.0  -0.0161
  C  C913  1  0.804670  0.669630  0.137430  1.0  0.0347
  C  C914  1  0.884670  0.706530  0.172830  1.0  0.0371
  C  C915  1  0.935370  0.745730  0.179530  1.0  -0.2073
  C  C916  1  0.964770  0.745030  0.208130  1.0  0.2243
  C  C917  1  0.036570  0.827430  0.196730  1.0  -0.02
  C  C918  1  0.940670  0.698530  0.230430  1.0  0.2807
  C  C919  1  0.893070  0.661830  0.224430  1.0  -0.1605
  C  C920  1  0.951770  0.659530  0.281830  1.0  -0.0057
  C  C921  1  0.611330  0.221370  0.385370  1.0  0.024
  C  C922  1  0.587630  0.174170  0.408970  1.0  0.0475
  C  C923  1  0.567930  0.176470  0.439670  1.0  -0.1151
  C  C924  1  0.548230  0.134370  0.462470  1.0  -0.1239
  C  C925  1  0.546530  0.088770  0.453570  1.0  0.0847
  C  C926  1  0.570730  0.089170  0.422070  1.0  -0.1494
  C  C927  1  0.592030  0.131070  0.400970  1.0  -0.1106
  C  C928  1  0.522330  0.043370  0.477370  1.0  -0.0161
  C  C929  1  0.471330  0.002970  0.470770  1.0  0.0346
  C  C930  1  0.551330  0.039870  0.506170  1.0  0.0373
  C  C931  1  0.602030  0.079070  0.512870  1.0  -0.2073
  C  C932  1  0.631430  0.078370  0.541470  1.0  0.224
  C  C933  1  0.703230  0.160770  0.530070  1.0  -0.02
  C  C934  1  0.607330  0.031870  0.563770  1.0  0.2807
  C  C935  1  0.559730  0.995170  0.557770  1.0  -0.1603
  C  C936  1  0.618430  0.992870  0.615170  1.0  -0.0057
  C  C937  1  0.445300  0.723300  0.718700  1.0  0.0233
  C  C938  1  0.492500  0.746800  0.742300  1.0  0.048
  C  C939  1  0.490200  0.724800  0.773000  1.0  -0.1149
  C  C940  1  0.532300  0.747200  0.795800  1.0  -0.1265
  C  C941  1  0.577900  0.791100  0.786900  1.0  0.0853
  C  C942  1  0.577500  0.814900  0.755400  1.0  -0.1501
  C  C943  1  0.535600  0.794300  0.734300  1.0  -0.1106
  C  C944  1  0.623300  0.812300  0.810700  1.0  -0.0156
  C  C945  1  0.663700  0.801700  0.804100  1.0  0.0342
  C  C946  1  0.626800  0.844800  0.839500  1.0  0.0379
  C  C947  1  0.587600  0.856300  0.846200  1.0  -0.2084
  C  C948  1  0.588300  0.886400  0.874800  1.0  0.2229
  C  C949  1  0.505900  0.875800  0.863400  1.0  -0.0228
  C  C950  1  0.634800  0.908800  0.897100  1.0  0.2796
  C  C951  1  0.671500  0.897900  0.891100  1.0  -0.1642
  C  C952  1  0.673800  0.958900  0.948500  1.0  -0.0063
  C  C953  1  0.111970  0.056630  0.052030  1.0  0.0233
  C  C954  1  0.159170  0.080130  0.075630  1.0  0.0479
  C  C955  1  0.156870  0.058130  0.106330  1.0  -0.1149
  C  C956  1  0.198970  0.080530  0.129130  1.0  -0.1265
  C  C957  1  0.244570  0.124430  0.120230  1.0  0.0853
  C  C958  1  0.244170  0.148230  0.088730  1.0  -0.1501
  C  C959  1  0.202270  0.127630  0.067630  1.0  -0.1106
  C  C960  1  0.289970  0.145630  0.144030  1.0  -0.0156
  C  C961  1  0.330370  0.135030  0.137430  1.0  0.0341
  C  C962  1  0.293470  0.178130  0.172830  1.0  0.0378
  C  C963  1  0.254270  0.189630  0.179530  1.0  -0.2084
  C  C964  1  0.254970  0.219730  0.208130  1.0  0.2229
  C  C965  1  0.172570  0.209130  0.196730  1.0  -0.0228
  C  C966  1  0.301470  0.242130  0.230430  1.0  0.2796
  C  C967  1  0.338170  0.231230  0.224430  1.0  -0.1641
  C  C968  1  0.340470  0.292230  0.281830  1.0  -0.0063
  C  C969  1  0.778630  0.389970  0.385370  1.0  0.0233
  C  C970  1  0.825830  0.413470  0.408970  1.0  0.048
  C  C971  1  0.823530  0.391470  0.439670  1.0  -0.1149
  C  C972  1  0.865630  0.413870  0.462470  1.0  -0.1265
  C  C973  1  0.911230  0.457770  0.453570  1.0  0.0854
  C  C974  1  0.910830  0.481570  0.422070  1.0  -0.1501
  C  C975  1  0.868930  0.460970  0.400970  1.0  -0.1106
  C  C976  1  0.956630  0.478970  0.477370  1.0  -0.0155
  C  C977  1  0.997030  0.468370  0.470770  1.0  0.0343
  C  C978  1  0.960130  0.511470  0.506170  1.0  0.0376
  C  C979  1  0.920930  0.522970  0.512870  1.0  -0.2084
  C  C980  1  0.921630  0.553070  0.541470  1.0  0.2229
  C  C981  1  0.839230  0.542470  0.530070  1.0  -0.0228
  C  C982  1  0.968130  0.575470  0.563770  1.0  0.2796
  C  C983  1  0.004830  0.564570  0.557770  1.0  -0.1649
  C  C984  1  0.007130  0.625570  0.615170  1.0  -0.0063
  C  C985  1  0.777600  0.389200  0.174800  1.0  0.6819
  C  C986  1  0.823900  0.410600  0.199400  1.0  -0.0985
  C  C987  1  0.831300  0.380100  0.223600  1.0  -0.0846
  C  C988  1  0.872000  0.401000  0.246400  1.0  -0.1457
  C  C989  1  0.909400  0.452200  0.244100  1.0  0.1007
  C  C990  1  0.902900  0.482000  0.218900  1.0  -0.1196
  C  C991  1  0.862600  0.463100  0.197600  1.0  -0.1187
  C  C992  1  0.953100  0.473700  0.267800  1.0  -0.0146
  C  C993  1  0.994300  0.461000  0.262300  1.0  -0.0539
  C  C994  1  0.990000  0.428200  0.234000  1.0  -0.1786
  C  C995  1  0.029600  0.415800  0.228400  1.0  0.2685
  C  C996  1  0.985700  0.366400  0.176700  1.0  -0.0204
  C  C997  1  0.069800  0.431500  0.252300  1.0  0.2411
  C  C998  1  0.146700  0.433600  0.270500  1.0  -0.0394
  C  C999  1  0.074300  0.466300  0.281200  1.0  -0.1882
  C  C1000  1  0.038700  0.482000  0.284000  1.0  -0.074
  C  C1001  1  0.041900  0.516400  0.312300  1.0  -0.0572
  C  C1002  1  0.003000  0.528900  0.316600  1.0  -0.1009
  C  C1003  1  0.009500  0.567100  0.344600  1.0  -0.1536
  C  C1004  1  0.970700  0.577500  0.349100  1.0  0.2761
  C  C1005  1  0.017400  0.638700  0.395200  1.0  -0.0375
  C  C1006  1  0.925400  0.554500  0.328700  1.0  0.2521
  C  C1007  1  0.842900  0.545400  0.320300  1.0  -0.0569
  C  C1008  1  0.919300  0.520000  0.302900  1.0  -0.1402
  C  C1009  1  0.959500  0.508200  0.295600  1.0  -0.1209
  C  C1010  1  0.087300  0.537700  0.335900  1.0  0.1164
  C  C1011  1  0.083500  0.524700  0.370600  1.0  -0.1102
  C  C1012  1  0.124200  0.543600  0.393100  1.0  -0.1489
  C  C1013  1  0.172500  0.580900  0.381100  1.0  -0.138
  C  C1014  1  0.218500  0.606100  0.405400  1.0  0.6674
  C  C1015  1  0.177800  0.596400  0.346600  1.0  -0.1003
  C  C1016  1  0.136400  0.575000  0.324400  1.0  -0.1165
  C  C1017  1  0.444270  0.722530  0.508130  1.0  0.6819
  C  C1018  1  0.490570  0.743930  0.532730  1.0  -0.0985
  C  C1019  1  0.497970  0.713430  0.556930  1.0  -0.0846
  C  C1020  1  0.538670  0.734330  0.579730  1.0  -0.1457
  C  C1021  1  0.576070  0.785530  0.577430  1.0  0.1007
  C  C1022  1  0.569570  0.815330  0.552230  1.0  -0.1196
  C  C1023  1  0.529270  0.796430  0.530930  1.0  -0.1187
  C  C1024  1  0.619770  0.807030  0.601130  1.0  -0.0146
  C  C1025  1  0.660970  0.794330  0.595630  1.0  -0.0539
  C  C1026  1  0.656670  0.761530  0.567330  1.0  -0.1786
  C  C1027  1  0.696270  0.749130  0.561730  1.0  0.2685
  C  C1028  1  0.652370  0.699730  0.510030  1.0  -0.0204
  C  C1029  1  0.736470  0.764830  0.585630  1.0  0.241
  C  C1030  1  0.813370  0.766930  0.603830  1.0  -0.0394
  C  C1031  1  0.740970  0.799630  0.614530  1.0  -0.1882
  C  C1032  1  0.705370  0.815330  0.617330  1.0  -0.074
  C  C1033  1  0.708570  0.849730  0.645630  1.0  -0.0572
  C  C1034  1  0.669670  0.862230  0.649930  1.0  -0.1009
  C  C1035  1  0.676170  0.900430  0.677930  1.0  -0.1538
  C  C1036  1  0.637370  0.910830  0.682430  1.0  0.2761
  C  C1037  1  0.684070  0.972030  0.728530  1.0  -0.0375
  C  C1038  1  0.592070  0.887830  0.662030  1.0  0.2521
  C  C1039  1  0.509570  0.878730  0.653630  1.0  -0.0569
  C  C1040  1  0.585970  0.853330  0.636230  1.0  -0.1402
  C  C1041  1  0.626170  0.841530  0.628930  1.0  -0.1209
  C  C1042  1  0.753970  0.871030  0.669230  1.0  0.1164
  C  C1043  1  0.750170  0.858030  0.703930  1.0  -0.1101
  C  C1044  1  0.790870  0.876930  0.726430  1.0  -0.1489
  C  C1045  1  0.839170  0.914230  0.714430  1.0  -0.1382
  C  C1046  1  0.885170  0.939430  0.738730  1.0  0.6674
  C  C1047  1  0.844470  0.929730  0.679930  1.0  -0.1003
  C  C1048  1  0.803070  0.908330  0.657730  1.0  -0.1164
  C  C1049  1  0.110930  0.055870  0.841470  1.0  0.6819
  C  C1050  1  0.157230  0.077270  0.866070  1.0  -0.0985
  C  C1051  1  0.164630  0.046770  0.890270  1.0  -0.0846
  C  C1052  1  0.205330  0.067670  0.913070  1.0  -0.1456
  C  C1053  1  0.242730  0.118870  0.910770  1.0  0.1007
  C  C1054  1  0.236230  0.148670  0.885570  1.0  -0.1196
  C  C1055  1  0.195930  0.129770  0.864270  1.0  -0.1187
  C  C1056  1  0.286430  0.140370  0.934470  1.0  -0.0146
  C  C1057  1  0.327630  0.127670  0.928970  1.0  -0.0539
  C  C1058  1  0.323330  0.094870  0.900670  1.0  -0.1786
  C  C1059  1  0.362930  0.082470  0.895070  1.0  0.2685
  C  C1060  1  0.319030  0.033070  0.843370  1.0  -0.0204
  C  C1061  1  0.403130  0.098170  0.918970  1.0  0.2411
  C  C1062  1  0.480030  0.100270  0.937170  1.0  -0.0394
  C  C1063  1  0.407630  0.132970  0.947870  1.0  -0.1882
  C  C1064  1  0.372030  0.148670  0.950670  1.0  -0.074
  C  C1065  1  0.375230  0.183070  0.978970  1.0  -0.0572
  C  C1066  1  0.336330  0.195570  0.983270  1.0  -0.1009
  C  C1067  1  0.342830  0.233770  0.011270  1.0  -0.1536
  C  C1068  1  0.304030  0.244170  0.015770  1.0  0.2761
  C  C1069  1  0.350730  0.305370  0.061870  1.0  -0.0375
  C  C1070  1  0.258730  0.221170  0.995370  1.0  0.2521
  C  C1071  1  0.176230  0.212070  0.986970  1.0  -0.0567
  C  C1072  1  0.252630  0.186670  0.969570  1.0  -0.1402
  C  C1073  1  0.292830  0.174870  0.962270  1.0  -0.121
  C  C1074  1  0.420630  0.204370  0.002570  1.0  0.1165
  C  C1075  1  0.416830  0.191370  0.037270  1.0  -0.1102
  C  C1076  1  0.457530  0.210270  0.059770  1.0  -0.1489
  C  C1077  1  0.505830  0.247570  0.047770  1.0  -0.138
  C  C1078  1  0.551830  0.272770  0.072070  1.0  0.6674
  C  C1079  1  0.511130  0.263070  0.013270  1.0  -0.1003
  C  C1080  1  0.469730  0.241670  0.991070  1.0  -0.1165
  C  C1081  1  0.610800  0.388400  0.174800  1.0  0.6842
  C  C1082  1  0.589400  0.413300  0.199400  1.0  -0.0985
  C  C1083  1  0.619900  0.451200  0.223600  1.0  -0.0864
  C  C1084  1  0.599000  0.471000  0.246400  1.0  -0.147
  C  C1085  1  0.547800  0.457200  0.244100  1.0  0.1014
  C  C1086  1  0.518000  0.420900  0.218900  1.0  -0.1144
  C  C1087  1  0.536900  0.399500  0.197600  1.0  -0.1127
  C  C1088  1  0.526300  0.479400  0.267800  1.0  -0.0152
  C  C1089  1  0.539000  0.533300  0.262300  1.0  -0.0516
  C  C1090  1  0.571800  0.561800  0.234000  1.0  -0.1763
  C  C1091  1  0.584200  0.613800  0.228400  1.0  0.2704
  C  C1092  1  0.633600  0.619300  0.176700  1.0  -0.0163
  C  C1093  1  0.568500  0.638300  0.252300  1.0  0.2412
  C  C1094  1  0.566400  0.713100  0.270500  1.0  -0.0362
  C  C1095  1  0.533700  0.608000  0.281200  1.0  -0.1922
  C  C1096  1  0.518000  0.556700  0.284000  1.0  -0.0716
  C  C1097  1  0.483600  0.525500  0.312300  1.0  -0.0567
  C  C1098  1  0.471100  0.474100  0.316600  1.0  -0.0993
  C  C1099  1  0.432900  0.442400  0.344600  1.0  -0.1513
  C  C1100  1  0.422500  0.393200  0.349100  1.0  0.2774
  C  C1101  1  0.361300  0.378700  0.395200  1.0  -0.0385
  C  C1102  1  0.445500  0.370900  0.328700  1.0  0.2501
  C  C1103  1  0.454600  0.297500  0.320300  1.0  -0.0584
  C  C1104  1  0.480000  0.399300  0.302900  1.0  -0.1386
  C  C1105  1  0.491800  0.451300  0.295600  1.0  -0.1216
  C  C1106  1  0.462300  0.549600  0.335900  1.0  0.1162
  C  C1107  1  0.475300  0.558800  0.370600  1.0  -0.1111
  C  C1108  1  0.456400  0.580600  0.393100  1.0  -0.1472
  C  C1109  1  0.419100  0.591600  0.381100  1.0  -0.1353
  C  C1110  1  0.393900  0.612400  0.405400  1.0  0.6689
  C  C1111  1  0.403600  0.581400  0.346600  1.0  -0.1003
  C  C1112  1  0.425000  0.561400  0.324400  1.0  -0.1172
  C  C1113  1  0.277470  0.721730  0.508130  1.0  0.6842
  C  C1114  1  0.256070  0.746630  0.532730  1.0  -0.0985
  C  C1115  1  0.286570  0.784530  0.556930  1.0  -0.0864
  C  C1116  1  0.265670  0.804330  0.579730  1.0  -0.147
  C  C1117  1  0.214470  0.790530  0.577430  1.0  0.1014
  C  C1118  1  0.184670  0.754230  0.552230  1.0  -0.1144
  C  C1119  1  0.203570  0.732830  0.530930  1.0  -0.1127
  C  C1120  1  0.192970  0.812730  0.601130  1.0  -0.0152
  C  C1121  1  0.205670  0.866630  0.595630  1.0  -0.0516
  C  C1122  1  0.238470  0.895130  0.567330  1.0  -0.1763
  C  C1123  1  0.250870  0.947130  0.561730  1.0  0.2705
  C  C1124  1  0.300270  0.952630  0.510030  1.0  -0.0163
  C  C1125  1  0.235170  0.971630  0.585630  1.0  0.2413
  C  C1126  1  0.233070  0.046430  0.603830  1.0  -0.0362
  C  C1127  1  0.200370  0.941330  0.614530  1.0  -0.1922
  C  C1128  1  0.184670  0.890030  0.617330  1.0  -0.0716
  C  C1129  1  0.150270  0.858830  0.645630  1.0  -0.0567
  C  C1130  1  0.137770  0.807430  0.649930  1.0  -0.0994
  C  C1131  1  0.099570  0.775730  0.677930  1.0  -0.1512
  C  C1132  1  0.089170  0.726530  0.682430  1.0  0.2774
  C  C1133  1  0.027970  0.712030  0.728530  1.0  -0.0385
  C  C1134  1  0.112170  0.704230  0.662030  1.0  0.2504
  C  C1135  1  0.121270  0.630830  0.653630  1.0  -0.0584
  C  C1136  1  0.146670  0.732630  0.636230  1.0  -0.1386
  C  C1137  1  0.158470  0.784630  0.628930  1.0  -0.1216
  C  C1138  1  0.128970  0.882930  0.669230  1.0  0.1162
  C  C1139  1  0.141970  0.892130  0.703930  1.0  -0.1112
  C  C1140  1  0.123070  0.913930  0.726430  1.0  -0.1472
  C  C1141  1  0.085770  0.924930  0.714430  1.0  -0.1353
  C  C1142  1  0.060570  0.945730  0.738730  1.0  0.6689
  C  C1143  1  0.070270  0.914730  0.679930  1.0  -0.1003
  C  C1144  1  0.091670  0.894730  0.657730  1.0  -0.1172
  C  C1145  1  0.944130  0.055070  0.841470  1.0  0.6842
  C  C1146  1  0.922730  0.079970  0.866070  1.0  -0.0985
  C  C1147  1  0.953230  0.117870  0.890270  1.0  -0.0864
  C  C1148  1  0.932330  0.137670  0.913070  1.0  -0.1468
  C  C1149  1  0.881130  0.123870  0.910770  1.0  0.1014
  C  C1150  1  0.851330  0.087570  0.885570  1.0  -0.1144
  C  C1151  1  0.870230  0.066170  0.864270  1.0  -0.1127
  C  C1152  1  0.859630  0.146070  0.934470  1.0  -0.0152
  C  C1153  1  0.872330  0.199970  0.928970  1.0  -0.0516
  C  C1154  1  0.905130  0.228470  0.900670  1.0  -0.1763
  C  C1155  1  0.917530  0.280470  0.895070  1.0  0.2705
  C  C1156  1  0.966930  0.285970  0.843370  1.0  -0.0163
  C  C1157  1  0.901830  0.304970  0.918970  1.0  0.2411
  C  C1158  1  0.899730  0.379770  0.937170  1.0  -0.036
  C  C1159  1  0.867030  0.274670  0.947870  1.0  -0.1922
  C  C1160  1  0.851330  0.223370  0.950670  1.0  -0.0716
  C  C1161  1  0.816930  0.192170  0.978970  1.0  -0.0567
  C  C1162  1  0.804430  0.140770  0.983270  1.0  -0.0994
  C  C1163  1  0.766230  0.109070  0.011270  1.0  -0.1515
  C  C1164  1  0.755830  0.059870  0.015770  1.0  0.2774
  C  C1165  1  0.694630  0.045370  0.061870  1.0  -0.0385
  C  C1166  1  0.778830  0.037570  0.995370  1.0  0.2501
  C  C1167  1  0.787930  0.964170  0.986970  1.0  -0.0583
  C  C1168  1  0.813330  0.065970  0.969570  1.0  -0.1386
  C  C1169  1  0.825130  0.117970  0.962270  1.0  -0.1216
  C  C1170  1  0.795630  0.216270  0.002570  1.0  0.1162
  C  C1171  1  0.808630  0.225470  0.037270  1.0  -0.1111
  C  C1172  1  0.789730  0.247270  0.059770  1.0  -0.1472
  C  C1173  1  0.752430  0.258270  0.047770  1.0  -0.1353
  C  C1174  1  0.727230  0.279070  0.072070  1.0  0.6689
  C  C1175  1  0.736930  0.248070  0.013270  1.0  -0.1003
  C  C1176  1  0.758330  0.228070  0.991070  1.0  -0.1172
  C  C1177  1  0.611600  0.222400  0.174800  1.0  0.684
  C  C1178  1  0.586700  0.176100  0.199400  1.0  -0.0954
  C  C1179  1  0.548800  0.168700  0.223600  1.0  -0.0825
  C  C1180  1  0.529000  0.128000  0.246400  1.0  -0.1465
  C  C1181  1  0.542800  0.090600  0.244100  1.0  0.1011
  C  C1182  1  0.579100  0.097100  0.218900  1.0  -0.1254
  C  C1183  1  0.600500  0.137400  0.197600  1.0  -0.1143
  C  C1184  1  0.520600  0.046900  0.267800  1.0  -0.0153
  C  C1185  1  0.466700  0.005700  0.262300  1.0  -0.0538
  C  C1186  1  0.438200  0.010000  0.234000  1.0  -0.177
  C  C1187  1  0.386200  0.970400  0.228400  1.0  0.2716
  C  C1188  1  0.380700  0.014300  0.176700  1.0  -0.015
  C  C1189  1  0.361700  0.930200  0.252300  1.0  0.2416
  C  C1190  1  0.286900  0.853300  0.270500  1.0  -0.0354
  C  C1191  1  0.392000  0.925700  0.281200  1.0  -0.1882
  C  C1192  1  0.443300  0.961300  0.284000  1.0  -0.075
  C  C1193  1  0.474500  0.958100  0.312300  1.0  -0.0577
  C  C1194  1  0.525900  0.997000  0.316600  1.0  -0.1024
  C  C1195  1  0.557600  0.990500  0.344600  1.0  -0.1531
  C  C1196  1  0.606800  0.029300  0.349100  1.0  0.2769
  C  C1197  1  0.621300  0.982600  0.395200  1.0  -0.0363
  C  C1198  1  0.629100  0.074600  0.328700  1.0  0.2519
  C  C1199  1  0.702500  0.157100  0.320300  1.0  -0.0554
  C  C1200  1  0.600700  0.080700  0.302900  1.0  -0.1417
  C  C1201  1  0.548700  0.040500  0.295600  1.0  -0.1214
  C  C1202  1  0.450400  0.912700  0.335900  1.0  0.1165
  C  C1203  1  0.441200  0.916500  0.370600  1.0  -0.1107
  C  C1204  1  0.419400  0.875800  0.393100  1.0  -0.1497
  C  C1205  1  0.408400  0.827500  0.381100  1.0  -0.1376
  C  C1206  1  0.387600  0.781500  0.405400  1.0  0.6687
  C  C1207  1  0.418600  0.822200  0.346600  1.0  -0.0995
  C  C1208  1  0.438600  0.863600  0.324400  1.0  -0.117
  C  C1209  1  0.278270  0.555730  0.508130  1.0  0.684
  C  C1210  1  0.253370  0.509430  0.532730  1.0  -0.0954
  C  C1211  1  0.215470  0.502030  0.556930  1.0  -0.0825
  C  C1212  1  0.195670  0.461330  0.579730  1.0  -0.1465
  C  C1213  1  0.209470  0.423930  0.577430  1.0  0.1011
  C  C1214  1  0.245770  0.430430  0.552230  1.0  -0.1254
  C  C1215  1  0.267170  0.470730  0.530930  1.0  -0.1143
  C  C1216  1  0.187270  0.380230  0.601130  1.0  -0.0153
  C  C1217  1  0.133370  0.339030  0.595630  1.0  -0.0538
  C  C1218  1  0.104870  0.343330  0.567330  1.0  -0.1773
  C  C1219  1  0.052870  0.303730  0.561730  1.0  0.2718
  C  C1220  1  0.047370  0.347630  0.510030  1.0  -0.015
  C  C1221  1  0.028370  0.263530  0.585630  1.0  0.2416
  C  C1222  1  0.953570  0.186630  0.603830  1.0  -0.0354
  C  C1223  1  0.058670  0.259030  0.614530  1.0  -0.1882
  C  C1224  1  0.109970  0.294630  0.617330  1.0  -0.075
  C  C1225  1  0.141170  0.291430  0.645630  1.0  -0.0577
  C  C1226  1  0.192570  0.330330  0.649930  1.0  -0.1026
  C  C1227  1  0.224270  0.323830  0.677930  1.0  -0.1529
  C  C1228  1  0.273470  0.362630  0.682430  1.0  0.2769
  C  C1229  1  0.287970  0.315930  0.728530  1.0  -0.0363
  C  C1230  1  0.295770  0.407930  0.662030  1.0  0.2522
  C  C1231  1  0.369170  0.490430  0.653630  1.0  -0.0555
  C  C1232  1  0.267370  0.414030  0.636230  1.0  -0.1417
  C  C1233  1  0.215370  0.373830  0.628930  1.0  -0.1214
  C  C1234  1  0.117070  0.246030  0.669230  1.0  0.1165
  C  C1235  1  0.107870  0.249830  0.703930  1.0  -0.1106
  C  C1236  1  0.086070  0.209130  0.726430  1.0  -0.1498
  C  C1237  1  0.075070  0.160830  0.714430  1.0  -0.1376
  C  C1238  1  0.054270  0.114830  0.738730  1.0  0.6687
  C  C1239  1  0.085270  0.155530  0.679930  1.0  -0.0995
  C  C1240  1  0.105270  0.196930  0.657730  1.0  -0.1169
  C  C1241  1  0.944930  0.889070  0.841470  1.0  0.684
  C  C1242  1  0.920030  0.842770  0.866070  1.0  -0.0954
  C  C1243  1  0.882130  0.835370  0.890270  1.0  -0.0825
  C  C1244  1  0.862330  0.794670  0.913070  1.0  -0.1463
  C  C1245  1  0.876130  0.757270  0.910770  1.0  0.1012
  C  C1246  1  0.912430  0.763770  0.885570  1.0  -0.1254
  C  C1247  1  0.933830  0.804070  0.864270  1.0  -0.1143
  C  C1248  1  0.853930  0.713570  0.934470  1.0  -0.0154
  C  C1249  1  0.800030  0.672370  0.928970  1.0  -0.0538
  C  C1250  1  0.771530  0.676670  0.900670  1.0  -0.177
  C  C1251  1  0.719530  0.637070  0.895070  1.0  0.2716
  C  C1252  1  0.714030  0.680970  0.843370  1.0  -0.015
  C  C1253  1  0.695030  0.596870  0.918970  1.0  0.2416
  C  C1254  1  0.620230  0.519970  0.937170  1.0  -0.0355
  C  C1255  1  0.725330  0.592370  0.947870  1.0  -0.1882
  C  C1256  1  0.776630  0.627970  0.950670  1.0  -0.075
  C  C1257  1  0.807830  0.624770  0.978970  1.0  -0.0577
  C  C1258  1  0.859230  0.663670  0.983270  1.0  -0.1024
  C  C1259  1  0.890930  0.657170  0.011270  1.0  -0.1528
  C  C1260  1  0.940130  0.695970  0.015770  1.0  0.2769
  C  C1261  1  0.954630  0.649270  0.061870  1.0  -0.0363
  C  C1262  1  0.962430  0.741270  0.995370  1.0  0.2519
  C  C1263  1  0.035830  0.823770  0.986970  1.0  -0.0553
  C  C1264  1  0.934030  0.747370  0.969570  1.0  -0.1417
  C  C1265  1  0.882030  0.707170  0.962270  1.0  -0.1214
  C  C1266  1  0.783730  0.579370  0.002570  1.0  0.1166
  C  C1267  1  0.774530  0.583170  0.037270  1.0  -0.1107
  C  C1268  1  0.752730  0.542470  0.059770  1.0  -0.1497
  C  C1269  1  0.741730  0.494170  0.047770  1.0  -0.1376
  C  C1270  1  0.720930  0.448170  0.072070  1.0  0.6687
  C  C1271  1  0.751930  0.488870  0.013270  1.0  -0.0995
  C  C1272  1  0.771930  0.530270  0.991070  1.0  -0.117
  C  C1273  1  0.222400  0.610800  0.825200  1.0  0.6833
  C  C1274  1  0.176100  0.589400  0.800600  1.0  -0.0975
  C  C1275  1  0.168700  0.619900  0.776400  1.0  -0.0858
  C  C1276  1  0.128000  0.599000  0.753600  1.0  -0.1451
  C  C1277  1  0.090600  0.547800  0.755900  1.0  0.1023
  C  C1278  1  0.097100  0.518000  0.781100  1.0  -0.1183
  C  C1279  1  0.137400  0.536900  0.802400  1.0  -0.1162
  C  C1280  1  0.046900  0.526300  0.732200  1.0  -0.0141
  C  C1281  1  0.005700  0.539000  0.737700  1.0  -0.0535
  C  C1282  1  0.010000  0.571800  0.766000  1.0  -0.1771
  C  C1283  1  0.970400  0.584200  0.771600  1.0  0.271
  C  C1284  1  0.014300  0.633600  0.823300  1.0  -0.0199
  C  C1285  1  0.930200  0.568500  0.747700  1.0  0.2415
  C  C1286  1  0.853300  0.566400  0.729500  1.0  -0.0402
  C  C1287  1  0.925700  0.533700  0.718800  1.0  -0.193
  C  C1288  1  0.961300  0.518000  0.716000  1.0  -0.072
  C  C1289  1  0.958100  0.483600  0.687700  1.0  -0.0577
  C  C1290  1  0.997000  0.471100  0.683400  1.0  -0.1026
  C  C1291  1  0.990500  0.432900  0.655400  1.0  -0.1534
  C  C1292  1  0.029300  0.422500  0.650900  1.0  0.2769
  C  C1293  1  0.982600  0.361300  0.604800  1.0  -0.0368
  C  C1294  1  0.074600  0.445500  0.671300  1.0  0.2502
  C  C1295  1  0.157100  0.454600  0.679700  1.0  -0.057
  C  C1296  1  0.080700  0.480000  0.697100  1.0  -0.14
  C  C1297  1  0.040500  0.491800  0.704400  1.0  -0.124
  C  C1298  1  0.912700  0.462300  0.664100  1.0  0.117
  C  C1299  1  0.916500  0.475300  0.629400  1.0  -0.1117
  C  C1300  1  0.875800  0.456400  0.606900  1.0  -0.1479
  C  C1301  1  0.827500  0.419100  0.618900  1.0  -0.1389
  C  C1302  1  0.781500  0.393900  0.594600  1.0  0.6656
  C  C1303  1  0.822200  0.403600  0.653400  1.0  -0.0999
  C  C1304  1  0.863600  0.425000  0.675600  1.0  -0.1173
  C  C1305  1  0.889070  0.944130  0.158530  1.0  0.6833
  C  C1306  1  0.842770  0.922730  0.133930  1.0  -0.0975
  C  C1307  1  0.835370  0.953230  0.109730  1.0  -0.0858
  C  C1308  1  0.794670  0.932330  0.086930  1.0  -0.1449
  C  C1309  1  0.757270  0.881130  0.089230  1.0  0.1023
  C  C1310  1  0.763770  0.851330  0.114430  1.0  -0.1183
  C  C1311  1  0.804070  0.870230  0.135730  1.0  -0.1162
  C  C1312  1  0.713570  0.859630  0.065530  1.0  -0.0141
  C  C1313  1  0.672370  0.872330  0.071030  1.0  -0.0535
  C  C1314  1  0.676670  0.905130  0.099330  1.0  -0.1771
  C  C1315  1  0.637070  0.917530  0.104930  1.0  0.2709
  C  C1316  1  0.680970  0.966930  0.156630  1.0  -0.0199
  C  C1317  1  0.596870  0.901830  0.081030  1.0  0.2415
  C  C1318  1  0.519970  0.899730  0.062830  1.0  -0.0402
  C  C1319  1  0.592370  0.867030  0.052130  1.0  -0.193
  C  C1320  1  0.627970  0.851330  0.049330  1.0  -0.072
  C  C1321  1  0.624770  0.816930  0.021030  1.0  -0.0577
  C  C1322  1  0.663670  0.804430  0.016730  1.0  -0.1026
  C  C1323  1  0.657170  0.766230  0.988730  1.0  -0.1533
  C  C1324  1  0.695970  0.755830  0.984230  1.0  0.2769
  C  C1325  1  0.649270  0.694630  0.938130  1.0  -0.0368
  C  C1326  1  0.741270  0.778830  0.004630  1.0  0.2502
  C  C1327  1  0.823770  0.787930  0.013030  1.0  -0.0569
  C  C1328  1  0.747370  0.813330  0.030430  1.0  -0.14
  C  C1329  1  0.707170  0.825130  0.037730  1.0  -0.1241
  C  C1330  1  0.579370  0.795630  0.997430  1.0  0.1171
  C  C1331  1  0.583170  0.808630  0.962730  1.0  -0.1117
  C  C1332  1  0.542470  0.789730  0.940230  1.0  -0.1479
  C  C1333  1  0.494170  0.752430  0.952230  1.0  -0.1389
  C  C1334  1  0.448170  0.727230  0.927930  1.0  0.6656
  C  C1335  1  0.488870  0.736930  0.986730  1.0  -0.0999
  C  C1336  1  0.530270  0.758330  0.008930  1.0  -0.1173
  C  C1337  1  0.555730  0.277470  0.491870  1.0  0.6833
  C  C1338  1  0.509430  0.256070  0.467270  1.0  -0.0975
  C  C1339  1  0.502030  0.286570  0.443070  1.0  -0.0858
  C  C1340  1  0.461330  0.265670  0.420270  1.0  -0.1451
  C  C1341  1  0.423930  0.214470  0.422570  1.0  0.1023
  C  C1342  1  0.430430  0.184670  0.447770  1.0  -0.1183
  C  C1343  1  0.470730  0.203570  0.469070  1.0  -0.1162
  C  C1344  1  0.380230  0.192970  0.398870  1.0  -0.0141
  C  C1345  1  0.339030  0.205670  0.404370  1.0  -0.0535
  C  C1346  1  0.343330  0.238470  0.432670  1.0  -0.1771
  C  C1347  1  0.303730  0.250870  0.438270  1.0  0.271
  C  C1348  1  0.347630  0.300270  0.489970  1.0  -0.0199
  C  C1349  1  0.263530  0.235170  0.414370  1.0  0.2415
  C  C1350  1  0.186630  0.233070  0.396170  1.0  -0.0402
  C  C1351  1  0.259030  0.200370  0.385470  1.0  -0.193
  C  C1352  1  0.294630  0.184670  0.382670  1.0  -0.072
  C  C1353  1  0.291430  0.150270  0.354370  1.0  -0.0577
  C  C1354  1  0.330330  0.137770  0.350070  1.0  -0.1027
  C  C1355  1  0.323830  0.099570  0.322070  1.0  -0.1535
  C  C1356  1  0.362630  0.089170  0.317570  1.0  0.2769
  C  C1357  1  0.315930  0.027970  0.271470  1.0  -0.0368
  C  C1358  1  0.407930  0.112170  0.337970  1.0  0.2502
  C  C1359  1  0.490430  0.121270  0.346370  1.0  -0.057
  C  C1360  1  0.414030  0.146670  0.363770  1.0  -0.14
  C  C1361  1  0.373830  0.158470  0.371070  1.0  -0.124
  C  C1362  1  0.246030  0.128970  0.330770  1.0  0.117
  C  C1363  1  0.249830  0.141970  0.296070  1.0  -0.1116
  C  C1364  1  0.209130  0.123070  0.273570  1.0  -0.1479
  C  C1365  1  0.160830  0.085770  0.285570  1.0  -0.1391
  C  C1366  1  0.114830  0.060570  0.261270  1.0  0.6656
  C  C1367  1  0.155530  0.070270  0.320070  1.0  -0.0999
  C  C1368  1  0.196930  0.091670  0.342270  1.0  -0.1173
  C  C1369  1  0.389200  0.611600  0.825200  1.0  0.6835
  C  C1370  1  0.410600  0.586700  0.800600  1.0  -0.0967
  C  C1371  1  0.380100  0.548800  0.776400  1.0  -0.0863
  C  C1372  1  0.401000  0.529000  0.753600  1.0  -0.146
  C  C1373  1  0.452200  0.542800  0.755900  1.0  0.1036
  C  C1374  1  0.482000  0.579100  0.781100  1.0  -0.1179
  C  C1375  1  0.463100  0.600500  0.802400  1.0  -0.1135
  C  C1376  1  0.473700  0.520600  0.732200  1.0  -0.0145
  C  C1377  1  0.461000  0.466700  0.737700  1.0  -0.0504
  C  C1378  1  0.428200  0.438200  0.766000  1.0  -0.1752
  C  C1379  1  0.415800  0.386200  0.771600  1.0  0.2683
  C  C1380  1  0.366400  0.380700  0.823300  1.0  -0.0158
  C  C1381  1  0.431500  0.361700  0.747700  1.0  0.2407
  C  C1382  1  0.433600  0.286900  0.729500  1.0  -0.0343
  C  C1383  1  0.466300  0.392000  0.718800  1.0  -0.1897
  C  C1384  1  0.482000  0.443300  0.716000  1.0  -0.0722
  C  C1385  1  0.516400  0.474500  0.687700  1.0  -0.0559
  C  C1386  1  0.528900  0.525900  0.683400  1.0  -0.1006
  C  C1387  1  0.567100  0.557600  0.655400  1.0  -0.1511
  C  C1388  1  0.577500  0.606800  0.650900  1.0  0.2787
  C  C1389  1  0.638700  0.621300  0.604800  1.0  -0.0419
  C  C1390  1  0.554500  0.629100  0.671300  1.0  0.2518
  C  C1391  1  0.545400  0.702500  0.679700  1.0  -0.0581
  C  C1392  1  0.520000  0.600700  0.697100  1.0  -0.1391
  C  C1393  1  0.508200  0.548700  0.704400  1.0  -0.1224
  C  C1394  1  0.537700  0.450400  0.664100  1.0  0.1168
  C  C1395  1  0.524700  0.441200  0.629400  1.0  -0.1097
  C  C1396  1  0.543600  0.419400  0.606900  1.0  -0.1462
  C  C1397  1  0.580900  0.408400  0.618900  1.0  -0.1345
  C  C1398  1  0.606100  0.387600  0.594600  1.0  0.6694
  C  C1399  1  0.596400  0.418600  0.653400  1.0  -0.0993
  C  C1400  1  0.575000  0.438600  0.675600  1.0  -0.1186
  C  C1401  1  0.055870  0.944930  0.158530  1.0  0.6835
  C  C1402  1  0.077270  0.920030  0.133930  1.0  -0.0967
  C  C1403  1  0.046770  0.882130  0.109730  1.0  -0.0863
  C  C1404  1  0.067670  0.862330  0.086930  1.0  -0.1458
  C  C1405  1  0.118870  0.876130  0.089230  1.0  0.1037
  C  C1406  1  0.148670  0.912430  0.114430  1.0  -0.1179
  C  C1407  1  0.129770  0.933830  0.135730  1.0  -0.1135
  C  C1408  1  0.140370  0.853930  0.065530  1.0  -0.0145
  C  C1409  1  0.127670  0.800030  0.071030  1.0  -0.0504
  C  C1410  1  0.094870  0.771530  0.099330  1.0  -0.1752
  C  C1411  1  0.082470  0.719530  0.104930  1.0  0.2682
  C  C1412  1  0.033070  0.714030  0.156630  1.0  -0.0158
  C  C1413  1  0.098170  0.695030  0.081030  1.0  0.2407
  C  C1414  1  0.100270  0.620230  0.062830  1.0  -0.0343
  C  C1415  1  0.132970  0.725330  0.052130  1.0  -0.1897
  C  C1416  1  0.148670  0.776630  0.049330  1.0  -0.0722
  C  C1417  1  0.183070  0.807830  0.021030  1.0  -0.0559
  C  C1418  1  0.195570  0.859230  0.016730  1.0  -0.1008
  C  C1419  1  0.233770  0.890930  0.988730  1.0  -0.1513
  C  C1420  1  0.244170  0.940130  0.984230  1.0  0.2786
  C  C1421  1  0.305370  0.954630  0.938130  1.0  -0.0419
  C  C1422  1  0.221170  0.962430  0.004630  1.0  0.2518
  C  C1423  1  0.212070  0.035830  0.013030  1.0  -0.058
  C  C1424  1  0.186670  0.934030  0.030430  1.0  -0.1391
  C  C1425  1  0.174870  0.882030  0.037730  1.0  -0.1224
  C  C1426  1  0.204370  0.783730  0.997430  1.0  0.1168
  C  C1427  1  0.191370  0.774530  0.962730  1.0  -0.1097
  C  C1428  1  0.210270  0.752730  0.940230  1.0  -0.1462
  C  C1429  1  0.247570  0.741730  0.952230  1.0  -0.1345
  C  C1430  1  0.272770  0.720930  0.927930  1.0  0.6694
  C  C1431  1  0.263070  0.751930  0.986730  1.0  -0.0993
  C  C1432  1  0.241670  0.771930  0.008930  1.0  -0.1186
  C  C1433  1  0.722530  0.278270  0.491870  1.0  0.6835
  C  C1434  1  0.743930  0.253370  0.467270  1.0  -0.0967
  C  C1435  1  0.713430  0.215470  0.443070  1.0  -0.0863
  C  C1436  1  0.734330  0.195670  0.420270  1.0  -0.146
  C  C1437  1  0.785530  0.209470  0.422570  1.0  0.1036
  C  C1438  1  0.815330  0.245770  0.447770  1.0  -0.1179
  C  C1439  1  0.796430  0.267170  0.469070  1.0  -0.1135
  C  C1440  1  0.807030  0.187270  0.398870  1.0  -0.0145
  C  C1441  1  0.794330  0.133370  0.404370  1.0  -0.0504
  C  C1442  1  0.761530  0.104870  0.432670  1.0  -0.1752
  C  C1443  1  0.749130  0.052870  0.438270  1.0  0.2684
  C  C1444  1  0.699730  0.047370  0.489970  1.0  -0.0158
  C  C1445  1  0.764830  0.028370  0.414370  1.0  0.2409
  C  C1446  1  0.766930  0.953570  0.396170  1.0  -0.0343
  C  C1447  1  0.799630  0.058670  0.385470  1.0  -0.1897
  C  C1448  1  0.815330  0.109970  0.382670  1.0  -0.0722
  C  C1449  1  0.849730  0.141170  0.354370  1.0  -0.0559
  C  C1450  1  0.862230  0.192570  0.350070  1.0  -0.1008
  C  C1451  1  0.900430  0.224270  0.322070  1.0  -0.151
  C  C1452  1  0.910830  0.273470  0.317570  1.0  0.2786
  C  C1453  1  0.972030  0.287970  0.271470  1.0  -0.0419
  C  C1454  1  0.887830  0.295770  0.337970  1.0  0.252
  C  C1455  1  0.878730  0.369170  0.346370  1.0  -0.0581
  C  C1456  1  0.853330  0.267370  0.363770  1.0  -0.1391
  C  C1457  1  0.841530  0.215370  0.371070  1.0  -0.1224
  C  C1458  1  0.871030  0.117070  0.330770  1.0  0.1168
  C  C1459  1  0.858030  0.107870  0.296070  1.0  -0.1098
  C  C1460  1  0.876930  0.086070  0.273570  1.0  -0.1463
  C  C1461  1  0.914230  0.075070  0.285570  1.0  -0.1345
  C  C1462  1  0.939430  0.054270  0.261270  1.0  0.6694
  C  C1463  1  0.929730  0.085270  0.320070  1.0  -0.0992
  C  C1464  1  0.908330  0.105270  0.342270  1.0  -0.1186
  C  C1465  1  0.388400  0.777600  0.825200  1.0  0.684
  C  C1466  1  0.413300  0.823900  0.800600  1.0  -0.0979
  C  C1467  1  0.451200  0.831300  0.776400  1.0  -0.084
  C  C1468  1  0.471000  0.872000  0.753600  1.0  -0.1453
  C  C1469  1  0.457200  0.909400  0.755900  1.0  0.1026
  C  C1470  1  0.420900  0.902900  0.781100  1.0  -0.1194
  C  C1471  1  0.399500  0.862600  0.802400  1.0  -0.1134
  C  C1472  1  0.479400  0.953100  0.732200  1.0  -0.0143
  C  C1473  1  0.533300  0.994300  0.737700  1.0  -0.0535
  C  C1474  1  0.561800  0.990000  0.766000  1.0  -0.1789
  C  C1475  1  0.613800  0.029600  0.771600  1.0  0.2727
  C  C1476  1  0.619300  0.985700  0.823300  1.0  -0.0166
  C  C1477  1  0.638300  0.069800  0.747700  1.0  0.2399
  C  C1478  1  0.713100  0.146700  0.729500  1.0  -0.0352
  C  C1479  1  0.608000  0.074300  0.718800  1.0  -0.1877
  C  C1480  1  0.556700  0.038700  0.716000  1.0  -0.0726
  C  C1481  1  0.525500  0.041900  0.687700  1.0  -0.0574
  C  C1482  1  0.474100  0.003000  0.683400  1.0  -0.1016
  C  C1483  1  0.442400  0.009500  0.655400  1.0  -0.1527
  C  C1484  1  0.393200  0.970700  0.650900  1.0  0.2772
  C  C1485  1  0.378700  0.017400  0.604800  1.0  -0.0368
  C  C1486  1  0.370900  0.925400  0.671300  1.0  0.2514
  C  C1487  1  0.297500  0.842900  0.679700  1.0  -0.0556
  C  C1488  1  0.399300  0.919300  0.697100  1.0  -0.1418
  C  C1489  1  0.451300  0.959500  0.704400  1.0  -0.1231
  C  C1490  1  0.549600  0.087300  0.664100  1.0  0.1175
  C  C1491  1  0.558800  0.083500  0.629400  1.0  -0.1124
  C  C1492  1  0.580600  0.124200  0.606900  1.0  -0.1483
  C  C1493  1  0.591600  0.172500  0.618900  1.0  -0.1385
  C  C1494  1  0.612400  0.218500  0.594600  1.0  0.6672
  C  C1495  1  0.581400  0.177800  0.653400  1.0  -0.1007
  C  C1496  1  0.561400  0.136400  0.675600  1.0  -0.1177
  C  C1497  1  0.055070  0.110930  0.158530  1.0  0.684
  C  C1498  1  0.079970  0.157230  0.133930  1.0  -0.0979
  C  C1499  1  0.117870  0.164630  0.109730  1.0  -0.084
  C  C1500  1  0.137670  0.205330  0.086930  1.0  -0.1451
  C  C1501  1  0.123870  0.242730  0.089230  1.0  0.1026
  C  C1502  1  0.087570  0.236230  0.114430  1.0  -0.1194
  C  C1503  1  0.066170  0.195930  0.135730  1.0  -0.1134
  C  C1504  1  0.146070  0.286430  0.065530  1.0  -0.0144
  C  C1505  1  0.199970  0.327630  0.071030  1.0  -0.0535
  C  C1506  1  0.228470  0.323330  0.099330  1.0  -0.1789
  C  C1507  1  0.280470  0.362930  0.104930  1.0  0.2728
  C  C1508  1  0.285970  0.319030  0.156630  1.0  -0.0166
  C  C1509  1  0.304970  0.403130  0.081030  1.0  0.2398
  C  C1510  1  0.379770  0.480030  0.062830  1.0  -0.0353
  C  C1511  1  0.274670  0.407630  0.052130  1.0  -0.1877
  C  C1512  1  0.223370  0.372030  0.049330  1.0  -0.0725
  C  C1513  1  0.192170  0.375230  0.021030  1.0  -0.0574
  C  C1514  1  0.140770  0.336330  0.016730  1.0  -0.1016
  C  C1515  1  0.109070  0.342830  0.988730  1.0  -0.1524
  C  C1516  1  0.059870  0.304030  0.984230  1.0  0.2772
  C  C1517  1  0.045370  0.350730  0.938130  1.0  -0.0368
  C  C1518  1  0.037570  0.258730  0.004630  1.0  0.2514
  C  C1519  1  0.964170  0.176230  0.013030  1.0  -0.0554
  C  C1520  1  0.065970  0.252630  0.030430  1.0  -0.1418
  C  C1521  1  0.117970  0.292830  0.037730  1.0  -0.1231
  C  C1522  1  0.216270  0.420630  0.997430  1.0  0.1176
  C  C1523  1  0.225470  0.416830  0.962730  1.0  -0.1124
  C  C1524  1  0.247270  0.457530  0.940230  1.0  -0.1483
  C  C1525  1  0.258270  0.505830  0.952230  1.0  -0.1385
  C  C1526  1  0.279070  0.551830  0.927930  1.0  0.6672
  C  C1527  1  0.248070  0.511130  0.986730  1.0  -0.1007
  C  C1528  1  0.228070  0.469730  0.008930  1.0  -0.1177
  C  C1529  1  0.721730  0.444270  0.491870  1.0  0.684
  C  C1530  1  0.746630  0.490570  0.467270  1.0  -0.0979
  C  C1531  1  0.784530  0.497970  0.443070  1.0  -0.084
  C  C1532  1  0.804330  0.538670  0.420270  1.0  -0.1453
  C  C1533  1  0.790530  0.576070  0.422570  1.0  0.1026
  C  C1534  1  0.754230  0.569570  0.447770  1.0  -0.1194
  C  C1535  1  0.732830  0.529270  0.469070  1.0  -0.1134
  C  C1536  1  0.812730  0.619770  0.398870  1.0  -0.0143
  C  C1537  1  0.866630  0.660970  0.404370  1.0  -0.0535
  C  C1538  1  0.895130  0.656670  0.432670  1.0  -0.1792
  C  C1539  1  0.947130  0.696270  0.438270  1.0  0.2729
  C  C1540  1  0.952630  0.652370  0.489970  1.0  -0.0166
  C  C1541  1  0.971630  0.736470  0.414370  1.0  0.2399
  C  C1542  1  0.046430  0.813370  0.396170  1.0  -0.0352
  C  C1543  1  0.941330  0.740970  0.385470  1.0  -0.1877
  C  C1544  1  0.890030  0.705370  0.382670  1.0  -0.0726
  C  C1545  1  0.858830  0.708570  0.354370  1.0  -0.0574
  C  C1546  1  0.807430  0.669670  0.350070  1.0  -0.1018
  C  C1547  1  0.775730  0.676170  0.322070  1.0  -0.1525
  C  C1548  1  0.726530  0.637370  0.317570  1.0  0.2772
  C  C1549  1  0.712030  0.684070  0.271470  1.0  -0.0368
  C  C1550  1  0.704230  0.592070  0.337970  1.0  0.2516
  C  C1551  1  0.630830  0.509570  0.346370  1.0  -0.0557
  C  C1552  1  0.732630  0.585970  0.363770  1.0  -0.1418
  C  C1553  1  0.784630  0.626170  0.371070  1.0  -0.1231
  C  C1554  1  0.882930  0.753970  0.330770  1.0  0.1175
  C  C1555  1  0.892130  0.750170  0.296070  1.0  -0.1122
  C  C1556  1  0.913930  0.790870  0.273570  1.0  -0.1485
  C  C1557  1  0.924930  0.839170  0.285570  1.0  -0.1385
  C  C1558  1  0.945730  0.885170  0.261270  1.0  0.6672
  C  C1559  1  0.914730  0.844470  0.320070  1.0  -0.1006
  C  C1560  1  0.894730  0.803070  0.342270  1.0  -0.1176
  O  O1561  1  0.740700  0.285400  0.316300  1.0  -0.6114
  O  O1562  1  0.757500  0.321200  0.294700  1.0  -0.5238
  O  O1563  1  0.684700  0.274300  0.274200  1.0  -0.6486
  O  O1564  1  0.899600  0.345600  0.116500  1.0  -0.3226
  O  O1565  1  0.937900  0.306200  0.077100  1.0  -0.2569
  O  O1566  1  0.407370  0.618730  0.649630  1.0  -0.6114
  O  O1567  1  0.424170  0.654530  0.628030  1.0  -0.5238
  O  O1568  1  0.351370  0.607630  0.607530  1.0  -0.6488
  O  O1569  1  0.566270  0.678930  0.449830  1.0  -0.3226
  O  O1570  1  0.604570  0.639530  0.410430  1.0  -0.257
  O  O1571  1  0.074030  0.952070  0.982970  1.0  -0.6113
  O  O1572  1  0.090830  0.987870  0.961370  1.0  -0.5238
  O  O1573  1  0.018030  0.940970  0.940870  1.0  -0.6485
  O  O1574  1  0.232930  0.012270  0.783170  1.0  -0.3226
  O  O1575  1  0.271230  0.972870  0.743770  1.0  -0.2569
  O  O1576  1  0.714600  0.455300  0.316300  1.0  -0.6148
  O  O1577  1  0.678800  0.436300  0.294700  1.0  -0.5266
  O  O1578  1  0.725700  0.410400  0.274200  1.0  -0.6458
  O  O1579  1  0.654400  0.554000  0.116500  1.0  -0.3218
  O  O1580  1  0.693800  0.631700  0.077100  1.0  -0.2605
  O  O1581  1  0.381270  0.788630  0.649630  1.0  -0.6148
  O  O1582  1  0.345470  0.769630  0.628030  1.0  -0.5266
  O  O1583  1  0.392370  0.743730  0.607530  1.0  -0.6458
  O  O1584  1  0.321070  0.887330  0.449830  1.0  -0.3217
  O  O1585  1  0.360470  0.965030  0.410430  1.0  -0.2606
  O  O1586  1  0.047930  0.121970  0.982970  1.0  -0.6148
  O  O1587  1  0.012130  0.102970  0.961370  1.0  -0.5266
  O  O1588  1  0.059030  0.077070  0.940870  1.0  -0.6459
  O  O1589  1  0.987730  0.220670  0.783170  1.0  -0.3217
  O  O1590  1  0.027130  0.298370  0.743770  1.0  -0.2606
  O  O1591  1  0.544700  0.259300  0.316300  1.0  -0.6142
  O  O1592  1  0.563700  0.242500  0.294700  1.0  -0.5281
  O  O1593  1  0.589600  0.315300  0.274200  1.0  -0.6467
  O  O1594  1  0.446000  0.100400  0.116500  1.0  -0.3236
  O  O1595  1  0.368300  0.062100  0.077100  1.0  -0.2597
  O  O1596  1  0.211370  0.592630  0.649630  1.0  -0.6142
  O  O1597  1  0.230370  0.575830  0.628030  1.0  -0.5281
  O  O1598  1  0.256270  0.648630  0.607530  1.0  -0.6468
  O  O1599  1  0.112670  0.433730  0.449830  1.0  -0.3236
  O  O1600  1  0.034970  0.395430  0.410430  1.0  -0.2597
  O  O1601  1  0.878030  0.925970  0.982970  1.0  -0.6144
  O  O1602  1  0.897030  0.909170  0.961370  1.0  -0.5281
  O  O1603  1  0.922930  0.981970  0.940870  1.0  -0.6468
  O  O1604  1  0.779330  0.767070  0.783170  1.0  -0.3236
  O  O1605  1  0.701630  0.728770  0.743770  1.0  -0.2597
  O  O1606  1  0.259300  0.714600  0.683700  1.0  -0.6122
  O  O1607  1  0.242500  0.678800  0.705300  1.0  -0.5239
  O  O1608  1  0.315300  0.725700  0.725800  1.0  -0.6468
  O  O1609  1  0.100400  0.654400  0.883500  1.0  -0.3257
  O  O1610  1  0.062100  0.693800  0.922900  1.0  -0.2571
  O  O1611  1  0.925970  0.047930  0.017030  1.0  -0.612
  O  O1612  1  0.909170  0.012130  0.038630  1.0  -0.5239
  O  O1613  1  0.981970  0.059030  0.059130  1.0  -0.6467
  O  O1614  1  0.767070  0.987730  0.216830  1.0  -0.3257
  O  O1615  1  0.728770  0.027130  0.256230  1.0  -0.2571
  O  O1616  1  0.592630  0.381270  0.350370  1.0  -0.6122
  O  O1617  1  0.575830  0.345470  0.371970  1.0  -0.5239
  O  O1618  1  0.648630  0.392370  0.392470  1.0  -0.6469
  O  O1619  1  0.433730  0.321070  0.550170  1.0  -0.3257
  O  O1620  1  0.395430  0.360470  0.589570  1.0  -0.2571
  O  O1621  1  0.285400  0.544700  0.683700  1.0  -0.6131
  O  O1622  1  0.321200  0.563700  0.705300  1.0  -0.5244
  O  O1623  1  0.274300  0.589600  0.725800  1.0  -0.6469
  O  O1624  1  0.345600  0.446000  0.883500  1.0  -0.3253
  O  O1625  1  0.306200  0.368300  0.922900  1.0  -0.2578
  O  O1626  1  0.952070  0.878030  0.017030  1.0  -0.6131
  O  O1627  1  0.987870  0.897030  0.038630  1.0  -0.5243
  O  O1628  1  0.940970  0.922930  0.059130  1.0  -0.647
  O  O1629  1  0.012270  0.779330  0.216830  1.0  -0.3252
  O  O1630  1  0.972870  0.701630  0.256230  1.0  -0.2578
  O  O1631  1  0.618730  0.211370  0.350370  1.0  -0.6131
  O  O1632  1  0.654530  0.230370  0.371970  1.0  -0.5244
  O  O1633  1  0.607630  0.256270  0.392470  1.0  -0.6469
  O  O1634  1  0.678930  0.112670  0.550170  1.0  -0.3252
  O  O1635  1  0.639530  0.034970  0.589570  1.0  -0.2578
  O  O1636  1  0.455300  0.740700  0.683700  1.0  -0.6123
  O  O1637  1  0.436300  0.757500  0.705300  1.0  -0.5286
  O  O1638  1  0.410400  0.684700  0.725800  1.0  -0.646
  O  O1639  1  0.554000  0.899600  0.883500  1.0  -0.3252
  O  O1640  1  0.631700  0.937900  0.922900  1.0  -0.2641
  O  O1641  1  0.121970  0.074030  0.017030  1.0  -0.6125
  O  O1642  1  0.102970  0.090830  0.038630  1.0  -0.5285
  O  O1643  1  0.077070  0.018030  0.059130  1.0  -0.6461
  O  O1644  1  0.220670  0.232930  0.216830  1.0  -0.3252
  O  O1645  1  0.298370  0.271230  0.256230  1.0  -0.2641
  O  O1646  1  0.788630  0.407370  0.350370  1.0  -0.6123
  O  O1647  1  0.769630  0.424170  0.371970  1.0  -0.5286
  O  O1648  1  0.743730  0.351370  0.392470  1.0  -0.6462
  O  O1649  1  0.887330  0.566270  0.550170  1.0  -0.3252
  O  O1650  1  0.965030  0.604570  0.589570  1.0  -0.2641
  O  O1651  1  0.666667  0.333333  0.333333  1.0  -0.8253
  O  O1652  1  0.333333  0.666667  0.666667  1.0  -0.8251
  O  O1653  1  0.000000  0.000000  0.000000  1.0  -0.8251
  O  O1654  1  0.749800  0.339300  0.174340  1.0  -0.6116
  O  O1655  1  0.209400  0.594800  0.437500  1.0  -0.5748
  O  O1656  1  0.767300  0.418100  0.159510  1.0  -0.5595
  O  O1657  1  0.263100  0.634500  0.390600  1.0  -0.6691
  O  O1658  1  0.027600  0.385500  0.202600  1.0  -0.3304
  O  O1659  1  0.102400  0.415700  0.246500  1.0  -0.3504
  O  O1660  1  0.889900  0.567800  0.338400  1.0  -0.2598
  O  O1661  1  0.972900  0.612100  0.374000  1.0  -0.2438
  O  O1662  1  0.416470  0.672630  0.507670  1.0  -0.6116
  O  O1663  1  0.876070  0.928130  0.770830  1.0  -0.5748
  O  O1664  1  0.433970  0.751430  0.492840  1.0  -0.5595
  O  O1665  1  0.929770  0.967830  0.723930  1.0  -0.6692
  O  O1666  1  0.694270  0.718830  0.535930  1.0  -0.3304
  O  O1667  1  0.769070  0.749030  0.579830  1.0  -0.3504
  O  O1668  1  0.556570  0.901130  0.671730  1.0  -0.2598
  O  O1669  1  0.639570  0.945430  0.707330  1.0  -0.2438
  O  O1670  1  0.083130  0.005970  0.841010  1.0  -0.6116
  O  O1671  1  0.542730  0.261470  0.104170  1.0  -0.5748
  O  O1672  1  0.100630  0.084770  0.826180  1.0  -0.5595
  O  O1673  1  0.596430  0.301170  0.057270  1.0  -0.6693
  O  O1674  1  0.360930  0.052170  0.869270  1.0  -0.3304
  O  O1675  1  0.435730  0.082370  0.913170  1.0  -0.3504
  O  O1676  1  0.223230  0.234470  0.005070  1.0  -0.2648
  O  O1677  1  0.306230  0.278770  0.040670  1.0  -0.2437
  O  O1678  1  0.660700  0.410500  0.174340  1.0  -0.6109
  O  O1679  1  0.405200  0.614600  0.437500  1.0  -0.5758
  O  O1680  1  0.581900  0.349200  0.159510  1.0  -0.5605
  O  O1681  1  0.365500  0.628600  0.390600  1.0  -0.6673
  O  O1682  1  0.614500  0.642100  0.202600  1.0  -0.3314
  O  O1683  1  0.584300  0.686700  0.246500  1.0  -0.352
  O  O1684  1  0.432200  0.322100  0.338400  1.0  -0.2617
  O  O1685  1  0.387900  0.360800  0.374000  1.0  -0.2447
  O  O1686  1  0.327370  0.743830  0.507670  1.0  -0.6109
  O  O1687  1  0.071870  0.947930  0.770830  1.0  -0.5762
  O  O1688  1  0.248570  0.682530  0.492840  1.0  -0.5605
  O  O1689  1  0.032170  0.961930  0.723930  1.0  -0.6677
  O  O1690  1  0.281170  0.975430  0.535930  1.0  -0.3314
  O  O1691  1  0.250970  0.020030  0.579830  1.0  -0.3519
  O  O1692  1  0.098870  0.655430  0.671730  1.0  -0.2617
  O  O1693  1  0.054570  0.694130  0.707330  1.0  -0.2447
  O  O1694  1  0.994030  0.077170  0.841010  1.0  -0.6109
  O  O1695  1  0.738530  0.281270  0.104170  1.0  -0.5758
  O  O1696  1  0.915230  0.015870  0.826180  1.0  -0.5604
  O  O1697  1  0.698830  0.295270  0.057270  1.0  -0.6673
  O  O1698  1  0.947830  0.308770  0.869270  1.0  -0.3314
  O  O1699  1  0.917630  0.353370  0.913170  1.0  -0.352
  O  O1700  1  0.765530  0.988770  0.005070  1.0  -0.2617
  O  O1701  1  0.721230  0.027470  0.040670  1.0  -0.2447
  O  O1702  1  0.589500  0.250200  0.174340  1.0  -0.6105
  O  O1703  1  0.385400  0.790600  0.437500  1.0  -0.5762
  O  O1704  1  0.650800  0.232700  0.159510  1.0  -0.5594
  O  O1705  1  0.371400  0.736900  0.390600  1.0  -0.6693
  O  O1706  1  0.357900  0.972400  0.202600  1.0  -0.3284
  O  O1707  1  0.313300  0.897600  0.246500  1.0  -0.3503
  O  O1708  1  0.677900  0.110100  0.338400  1.0  -0.2621
  O  O1709  1  0.639200  0.027100  0.374000  1.0  -0.2454
  O  O1710  1  0.256170  0.583530  0.507670  1.0  -0.6105
  O  O1711  1  0.052070  0.123930  0.770830  1.0  -0.5766
  O  O1712  1  0.317470  0.566030  0.492840  1.0  -0.5594
  O  O1713  1  0.038070  0.070230  0.723930  1.0  -0.6694
  O  O1714  1  0.024570  0.305730  0.535930  1.0  -0.3284
  O  O1715  1  0.979970  0.230930  0.579830  1.0  -0.3503
  O  O1716  1  0.344570  0.443430  0.671730  1.0  -0.2621
  O  O1717  1  0.305870  0.360430  0.707330  1.0  -0.2454
  O  O1718  1  0.922830  0.916870  0.841010  1.0  -0.6105
  O  O1719  1  0.718730  0.457270  0.104170  1.0  -0.5762
  O  O1720  1  0.984130  0.899370  0.826180  1.0  -0.5594
  O  O1721  1  0.704730  0.403570  0.057270  1.0  -0.6696
  O  O1722  1  0.691230  0.639070  0.869270  1.0  -0.3284
  O  O1723  1  0.646630  0.564270  0.913170  1.0  -0.3503
  O  O1724  1  0.011230  0.776770  0.005070  1.0  -0.2663
  O  O1725  1  0.972530  0.693770  0.040670  1.0  -0.2454
  O  O1726  1  0.666667  0.333333  0.119000  1.0  -1.1996
  O  O1727  1  0.333333  0.666667  0.452330  1.0  -1.1996
  O  O1728  1  0.000000  0.000000  0.785670  1.0  -1.1994
  O  O1729  1  0.250200  0.660700  0.825660  1.0  -0.6093
  O  O1730  1  0.790600  0.405200  0.562500  1.0  -0.5747
  O  O1731  1  0.232700  0.581900  0.840490  1.0  -0.5608
  O  O1732  1  0.736900  0.365500  0.609400  1.0  -0.669
  O  O1733  1  0.972400  0.614500  0.797400  1.0  -0.3273
  O  O1734  1  0.897600  0.584300  0.753500  1.0  -0.3487
  O  O1735  1  0.110100  0.432200  0.661600  1.0  -0.2596
  O  O1736  1  0.027100  0.387900  0.626000  1.0  -0.247
  O  O1737  1  0.916870  0.994030  0.158990  1.0  -0.6093
  O  O1738  1  0.457270  0.738530  0.895830  1.0  -0.5747
  O  O1739  1  0.899370  0.915230  0.173820  1.0  -0.5608
  O  O1740  1  0.403570  0.698830  0.942730  1.0  -0.6693
  O  O1741  1  0.639070  0.947830  0.130730  1.0  -0.3273
  O  O1742  1  0.564270  0.917630  0.086830  1.0  -0.3488
  O  O1743  1  0.776770  0.765530  0.994930  1.0  -0.2645
  O  O1744  1  0.693770  0.721230  0.959330  1.0  -0.2469
  O  O1745  1  0.583530  0.327370  0.492330  1.0  -0.6093
  O  O1746  1  0.123930  0.071870  0.229170  1.0  -0.5747
  O  O1747  1  0.566030  0.248570  0.507160  1.0  -0.5608
  O  O1748  1  0.070230  0.032170  0.276070  1.0  -0.6691
  O  O1749  1  0.305730  0.281170  0.464070  1.0  -0.3273
  O  O1750  1  0.230930  0.250970  0.420170  1.0  -0.3487
  O  O1751  1  0.443430  0.098870  0.328270  1.0  -0.2596
  O  O1752  1  0.360430  0.054570  0.292670  1.0  -0.247
  O  O1753  1  0.339300  0.589500  0.825660  1.0  -0.6102
  O  O1754  1  0.594800  0.385400  0.562500  1.0  -0.575
  O  O1755  1  0.418100  0.650800  0.840490  1.0  -0.5614
  O  O1756  1  0.634500  0.371400  0.609400  1.0  -0.6685
  O  O1757  1  0.385500  0.357900  0.797400  1.0  -0.3312
  O  O1758  1  0.415700  0.313300  0.753500  1.0  -0.3538
  O  O1759  1  0.567800  0.677900  0.661600  1.0  -0.2587
  O  O1760  1  0.612100  0.639200  0.626000  1.0  -0.245
  O  O1761  1  0.005970  0.922830  0.158990  1.0  -0.6102
  O  O1762  1  0.261470  0.718730  0.895830  1.0  -0.575
  O  O1763  1  0.084770  0.984130  0.173820  1.0  -0.5613
  O  O1764  1  0.301170  0.704730  0.942730  1.0  -0.6685
  O  O1765  1  0.052170  0.691230  0.130730  1.0  -0.3312
  O  O1766  1  0.082370  0.646630  0.086830  1.0  -0.3538
  O  O1767  1  0.234470  0.011230  0.994930  1.0  -0.2587
  O  O1768  1  0.278770  0.972530  0.959330  1.0  -0.245
  O  O1769  1  0.672630  0.256170  0.492330  1.0  -0.6102
  O  O1770  1  0.928130  0.052070  0.229170  1.0  -0.5757
  O  O1771  1  0.751430  0.317470  0.507160  1.0  -0.5614
  O  O1772  1  0.967830  0.038070  0.276070  1.0  -0.6688
  O  O1773  1  0.718830  0.024570  0.464070  1.0  -0.3312
  O  O1774  1  0.749030  0.979970  0.420170  1.0  -0.3536
  O  O1775  1  0.901130  0.344570  0.328270  1.0  -0.2587
  O  O1776  1  0.945430  0.305870  0.292670  1.0  -0.245
  O  O1777  1  0.410500  0.749800  0.825660  1.0  -0.6113
  O  O1778  1  0.614600  0.209400  0.562500  1.0  -0.5759
  O  O1779  1  0.349200  0.767300  0.840490  1.0  -0.5603
  O  O1780  1  0.628600  0.263100  0.609400  1.0  -0.6717
  O  O1781  1  0.642100  0.027600  0.797400  1.0  -0.3294
  O  O1782  1  0.686700  0.102400  0.753500  1.0  -0.3534
  O  O1783  1  0.322100  0.889900  0.661600  1.0  -0.2602
  O  O1784  1  0.360800  0.972900  0.626000  1.0  -0.2424
  O  O1785  1  0.077170  0.083130  0.158990  1.0  -0.6113
  O  O1786  1  0.281270  0.542730  0.895830  1.0  -0.5759
  O  O1787  1  0.015870  0.100630  0.173820  1.0  -0.5603
  O  O1788  1  0.295270  0.596430  0.942730  1.0  -0.6721
  O  O1789  1  0.308770  0.360930  0.130730  1.0  -0.3294
  O  O1790  1  0.353370  0.435730  0.086830  1.0  -0.3534
  O  O1791  1  0.988770  0.223230  0.994930  1.0  -0.2647
  O  O1792  1  0.027470  0.306230  0.959330  1.0  -0.2424
  O  O1793  1  0.743830  0.416470  0.492330  1.0  -0.6113
  O  O1794  1  0.947930  0.876070  0.229170  1.0  -0.5761
  O  O1795  1  0.682530  0.433970  0.507160  1.0  -0.5603
  O  O1796  1  0.961930  0.929770  0.276070  1.0  -0.6719
  O  O1797  1  0.975430  0.694270  0.464070  1.0  -0.3294
  O  O1798  1  0.020030  0.769070  0.420170  1.0  -0.3533
  O  O1799  1  0.655430  0.556570  0.328270  1.0  -0.2603
  O  O1800  1  0.694130  0.639570  0.292670  1.0  -0.2424
  O  O1801  1  0.333333  0.666667  0.881000  1.0  -1.1989
  O  O1802  1  0.000000  0.000000  0.214330  1.0  -1.1988
  O  O1803  1  0.666667  0.333333  0.547670  1.0  -1.1989
