# generated using pymatgen
data_Zn3H60C94(NO3)4
_symmetry_space_group_name_H-M   'P 1'
_cell_length_a   36.80000000
_cell_length_b   21.66100000
_cell_length_c   44.65000000
_cell_angle_alpha   90.00000000
_cell_angle_beta   100.40000000
_cell_angle_gamma   90.00000000
_symmetry_Int_Tables_number   1
_chemical_formula_structural   Zn3H60C94(NO3)4
_chemical_formula_sum   'Zn24 H480 C752 N32 O96'
_cell_volume   35006.90431392
_cell_formula_units_Z   8
loop_
 _symmetry_equiv_pos_site_id
 _symmetry_equiv_pos_as_xyz
  1  'x, y, z'
loop_
 _atom_site_type_symbol
 _atom_site_label
 _atom_site_symmetry_multiplicity
 _atom_site_fract_x
 _atom_site_fract_y
 _atom_site_fract_z
 _atom_site_occupancy
 _atom_site_charge
  Zn  Zn1  1  0.929030  0.024520  0.026260  1.0  0.9138
  Zn  Zn2  1  0.926560  0.054060  0.682040  1.0  0.979
  Zn  Zn3  1  0.910410  0.048440  0.601230  1.0  1.1595
  Zn  Zn4  1  0.429030  0.524520  0.026260  1.0  0.9143
  Zn  Zn5  1  0.426560  0.554060  0.682040  1.0  0.979
  Zn  Zn6  1  0.410410  0.548440  0.601230  1.0  1.1595
  Zn  Zn7  1  0.929030  0.975480  0.526260  1.0  0.9139
  Zn  Zn8  1  0.926560  0.945940  0.182040  1.0  0.9789
  Zn  Zn9  1  0.910410  0.951560  0.101230  1.0  1.1602
  Zn  Zn10  1  0.429030  0.475480  0.526260  1.0  0.9143
  Zn  Zn11  1  0.426560  0.445940  0.182040  1.0  0.9789
  Zn  Zn12  1  0.410410  0.451560  0.101230  1.0  1.1602
  Zn  Zn13  1  0.070970  0.024520  0.473740  1.0  0.9157
  Zn  Zn14  1  0.073440  0.054060  0.817960  1.0  0.9792
  Zn  Zn15  1  0.089590  0.048440  0.898770  1.0  1.1589
  Zn  Zn16  1  0.570970  0.524520  0.473740  1.0  0.9162
  Zn  Zn17  1  0.573440  0.554060  0.817960  1.0  0.9792
  Zn  Zn18  1  0.589590  0.548440  0.898770  1.0  1.1589
  Zn  Zn19  1  0.070970  0.975480  0.973740  1.0  0.9156
  Zn  Zn20  1  0.073440  0.945940  0.317960  1.0  0.9791
  Zn  Zn21  1  0.089590  0.951560  0.398770  1.0  1.1593
  Zn  Zn22  1  0.570970  0.475480  0.973740  1.0  0.9161
  Zn  Zn23  1  0.573440  0.445940  0.317960  1.0  0.9791
  Zn  Zn24  1  0.589590  0.451560  0.398770  1.0  1.1593
  H  H25  1  0.967700  0.990100  0.737300  1.0  0.0794
  H  H26  1  0.889100  0.111900  0.728400  1.0  0.1018
  H  H27  1  0.987700  0.022600  0.887700  1.0  0.1223
  H  H28  1  0.981600  0.856600  0.009300  1.0  0.1077
  H  H29  1  0.081900  0.323200  0.076700  1.0  0.1271
  H  H30  1  0.974000  0.979200  0.929100  1.0  0.0995
  H  H31  1  0.067400  0.709700  0.020300  1.0  0.0924
  H  H32  1  0.022500  0.148900  0.053800  1.0  0.1259
  H  H33  1  0.995500  0.852100  0.100100  1.0  0.1161
  H  H34  1  0.055600  0.238200  0.056200  1.0  0.1038
  H  H35  1  0.972700  0.968900  0.979600  1.0  0.1233
  H  H36  1  0.030900  0.497500  0.027500  1.0  0.0913
  H  H37  1  0.266700  0.571900  0.086300  1.0  0.1094
  H  H38  1  0.877100  0.068100  0.824300  1.0  0.1202
  H  H39  1  0.013500  0.761400  0.010800  1.0  0.106
  H  H40  1  0.025500  0.648900  0.090600  1.0  0.0957
  H  H41  1  0.025500  0.751400  0.098400  1.0  0.097
  H  H42  1  0.962800  0.339900  0.043900  1.0  0.1181
  H  H43  1  0.967600  0.978500  0.788500  1.0  0.1215
  H  H44  1  0.330700  0.566300  0.086100  1.0  0.1248
  H  H45  1  0.113100  0.415200  0.079600  1.0  0.0769
  H  H46  1  0.135700  0.440600  0.030100  1.0  0.1114
  H  H47  1  0.996400  0.413200  0.026200  1.0  0.1002
  H  H48  1  0.929500  0.249700  0.039700  1.0  0.1086
  H  H49  1  0.148300  0.602300  0.073500  1.0  0.0953
  H  H50  1  0.883200  0.064800  0.874900  1.0  0.0733
  H  H51  1  0.095400  0.615800  0.016900  1.0  0.1337
  H  H52  1  0.199600  0.445900  0.024000  1.0  0.1217
  H  H53  1  0.055600  0.557000  0.090100  1.0  0.1324
  H  H54  1  0.208500  0.601400  0.073300  1.0  0.1082
  H  H55  1  0.309400  0.473400  0.007200  1.0  0.1013
  H  H56  1  0.986300  0.028900  0.835500  1.0  0.0846
  H  H57  1  0.247800  0.478100  0.008200  1.0  0.1171
  H  H58  1  0.895500  0.119500  0.778300  1.0  0.091
  H  H59  1  0.898700  0.110700  0.921400  1.0  0.1294
  H  H60  1  0.898200  0.099700  0.971600  1.0  0.072
  H  H61  1  0.320900  0.589500  0.691400  1.0  0.1129
  H  H62  1  0.965000  0.873300  0.694700  1.0  0.1086
  H  H63  1  0.994100  0.780400  0.698400  1.0  0.1219
  H  H64  1  0.006400  0.796100  0.610900  1.0  0.0874
  H  H65  1  0.234600  0.559200  0.604300  1.0  0.1249
  H  H66  1  0.975700  0.892800  0.609000  1.0  0.0828
  H  H67  1  0.297100  0.552300  0.605700  1.0  0.0641
  H  H68  1  0.257700  0.600100  0.693500  1.0  0.1169
  H  H69  1  0.125000  0.487600  0.627400  1.0  0.1201
  H  H70  1  0.092900  0.653500  0.633500  1.0  0.0788
  H  H71  1  0.016700  0.182900  0.687800  1.0  0.0891
  H  H72  1  0.966100  0.342600  0.625900  1.0  0.1277
  H  H73  1  0.052100  0.274600  0.685400  1.0  0.1246
  H  H74  1  0.999300  0.675500  0.687400  1.0  0.1141
  H  H75  1  0.078600  0.357700  0.688500  1.0  0.1254
  H  H76  1  0.937500  0.244400  0.622400  1.0  0.1301
  H  H77  1  0.022800  0.524900  0.633200  1.0  0.1353
  H  H78  1  0.110000  0.445900  0.683700  1.0  0.1063
  H  H79  1  0.201300  0.636800  0.684300  1.0  0.1631
  H  H80  1  0.064000  0.744100  0.630300  1.0  0.1193
  H  H81  1  0.031000  0.584600  0.688600  1.0  0.121
  H  H82  1  0.990800  0.428800  0.635600  1.0  0.1137
  H  H83  1  0.138000  0.622800  0.691400  1.0  0.111
  H  H84  1  0.182900  0.501100  0.621500  1.0  0.082
  H  H85  1  0.467700  0.490100  0.737300  1.0  0.0794
  H  H86  1  0.389100  0.611900  0.728400  1.0  0.1015
  H  H87  1  0.487700  0.522600  0.887700  1.0  0.1223
  H  H88  1  0.481600  0.356600  0.009300  1.0  0.1077
  H  H89  1  0.581900  0.823200  0.076700  1.0  0.1271
  H  H90  1  0.474000  0.479200  0.929100  1.0  0.0995
  H  H91  1  0.567400  0.209700  0.020300  1.0  0.0924
  H  H92  1  0.522500  0.648900  0.053800  1.0  0.1259
  H  H93  1  0.495500  0.352100  0.100100  1.0  0.1161
  H  H94  1  0.555600  0.738200  0.056200  1.0  0.1038
  H  H95  1  0.472700  0.468900  0.979600  1.0  0.1233
  H  H96  1  0.530900  0.997500  0.027500  1.0  0.0913
  H  H97  1  0.766700  0.071900  0.086300  1.0  0.1094
  H  H98  1  0.377100  0.568100  0.824300  1.0  0.1202
  H  H99  1  0.513500  0.261400  0.010800  1.0  0.106
  H  H100  1  0.525500  0.148900  0.090600  1.0  0.0957
  H  H101  1  0.525500  0.251400  0.098400  1.0  0.097
  H  H102  1  0.462800  0.839900  0.043900  1.0  0.1181
  H  H103  1  0.467600  0.478500  0.788500  1.0  0.1215
  H  H104  1  0.830700  0.066300  0.086100  1.0  0.1248
  H  H105  1  0.613100  0.915200  0.079600  1.0  0.0769
  H  H106  1  0.635700  0.940600  0.030100  1.0  0.1114
  H  H107  1  0.496400  0.913200  0.026200  1.0  0.1002
  H  H108  1  0.429500  0.749700  0.039700  1.0  0.1086
  H  H109  1  0.648300  0.102300  0.073500  1.0  0.0953
  H  H110  1  0.383200  0.564800  0.874900  1.0  0.0733
  H  H111  1  0.595400  0.115800  0.016900  1.0  0.1337
  H  H112  1  0.699600  0.945900  0.024000  1.0  0.1217
  H  H113  1  0.555600  0.057000  0.090100  1.0  0.1324
  H  H114  1  0.708500  0.101400  0.073300  1.0  0.1082
  H  H115  1  0.809400  0.973400  0.007200  1.0  0.1015
  H  H116  1  0.486300  0.528900  0.835500  1.0  0.0846
  H  H117  1  0.747800  0.978100  0.008200  1.0  0.1173
  H  H118  1  0.395500  0.619500  0.778300  1.0  0.091
  H  H119  1  0.398700  0.610700  0.921400  1.0  0.1294
  H  H120  1  0.398200  0.599700  0.971600  1.0  0.072
  H  H121  1  0.820900  0.089500  0.691400  1.0  0.1129
  H  H122  1  0.465000  0.373300  0.694700  1.0  0.1086
  H  H123  1  0.494100  0.280400  0.698400  1.0  0.1219
  H  H124  1  0.506400  0.296100  0.610900  1.0  0.0874
  H  H125  1  0.734600  0.059200  0.604300  1.0  0.1249
  H  H126  1  0.475700  0.392800  0.609000  1.0  0.0828
  H  H127  1  0.797100  0.052300  0.605700  1.0  0.0641
  H  H128  1  0.757700  0.100100  0.693500  1.0  0.1169
  H  H129  1  0.625000  0.987600  0.627400  1.0  0.1201
  H  H130  1  0.592900  0.153500  0.633500  1.0  0.0788
  H  H131  1  0.516700  0.682900  0.687800  1.0  0.0891
  H  H132  1  0.466100  0.842600  0.625900  1.0  0.1277
  H  H133  1  0.552100  0.774600  0.685400  1.0  0.1246
  H  H134  1  0.499300  0.175500  0.687400  1.0  0.1141
  H  H135  1  0.578600  0.857700  0.688500  1.0  0.1254
  H  H136  1  0.437500  0.744400  0.622400  1.0  0.1301
  H  H137  1  0.522800  0.024900  0.633200  1.0  0.1353
  H  H138  1  0.610000  0.945900  0.683700  1.0  0.1063
  H  H139  1  0.701300  0.136800  0.684300  1.0  0.1631
  H  H140  1  0.564000  0.244100  0.630300  1.0  0.1193
  H  H141  1  0.531000  0.084600  0.688600  1.0  0.121
  H  H142  1  0.490800  0.928800  0.635600  1.0  0.1137
  H  H143  1  0.638000  0.122800  0.691400  1.0  0.111
  H  H144  1  0.682900  0.001100  0.621500  1.0  0.082
  H  H145  1  0.967700  0.009900  0.237300  1.0  0.0795
  H  H146  1  0.889100  0.888100  0.228400  1.0  0.1015
  H  H147  1  0.987700  0.977400  0.387700  1.0  0.1222
  H  H148  1  0.981600  0.143400  0.509300  1.0  0.108
  H  H149  1  0.081900  0.676800  0.576700  1.0  0.1261
  H  H150  1  0.974000  0.020800  0.429100  1.0  0.1002
  H  H151  1  0.067400  0.290300  0.520300  1.0  0.0921
  H  H152  1  0.022500  0.851100  0.553800  1.0  0.1259
  H  H153  1  0.995500  0.147900  0.600100  1.0  0.1164
  H  H154  1  0.055600  0.761800  0.556200  1.0  0.1045
  H  H155  1  0.972700  0.031100  0.479600  1.0  0.1232
  H  H156  1  0.030900  0.502500  0.527500  1.0  0.091
  H  H157  1  0.266700  0.428100  0.586300  1.0  0.1096
  H  H158  1  0.877100  0.931900  0.324300  1.0  0.1202
  H  H159  1  0.013500  0.238600  0.510800  1.0  0.1058
  H  H160  1  0.025500  0.351100  0.590600  1.0  0.096
  H  H161  1  0.025500  0.248600  0.598400  1.0  0.0971
  H  H162  1  0.962800  0.660100  0.543900  1.0  0.1172
  H  H163  1  0.967600  0.021500  0.288500  1.0  0.1219
  H  H164  1  0.330700  0.433700  0.586100  1.0  0.1254
  H  H165  1  0.113100  0.584800  0.579600  1.0  0.0773
  H  H166  1  0.135700  0.559400  0.530100  1.0  0.1117
  H  H167  1  0.996400  0.586800  0.526200  1.0  0.1001
  H  H168  1  0.929500  0.750300  0.539700  1.0  0.1086
  H  H169  1  0.148300  0.397700  0.573500  1.0  0.0955
  H  H170  1  0.883200  0.935200  0.374900  1.0  0.0733
  H  H171  1  0.095400  0.384200  0.516900  1.0  0.1336
  H  H172  1  0.199600  0.554100  0.524000  1.0  0.122
  H  H173  1  0.055600  0.443000  0.590100  1.0  0.1327
  H  H174  1  0.208500  0.398600  0.573300  1.0  0.1085
  H  H175  1  0.309400  0.526600  0.507200  1.0  0.1005
  H  H176  1  0.986300  0.971100  0.335500  1.0  0.0847
  H  H177  1  0.247800  0.521900  0.508200  1.0  0.1164
  H  H178  1  0.895500  0.880500  0.278300  1.0  0.0905
  H  H179  1  0.898700  0.889300  0.421400  1.0  0.129
  H  H180  1  0.898200  0.900300  0.471600  1.0  0.0724
  H  H181  1  0.320900  0.410500  0.191400  1.0  0.1127
  H  H182  1  0.965000  0.126700  0.194700  1.0  0.1084
  H  H183  1  0.994100  0.219600  0.198400  1.0  0.1218
  H  H184  1  0.006400  0.203900  0.110900  1.0  0.0873
  H  H185  1  0.234600  0.440800  0.104300  1.0  0.1247
  H  H186  1  0.975700  0.107200  0.109000  1.0  0.0829
  H  H187  1  0.297100  0.447700  0.105700  1.0  0.0643
  H  H188  1  0.257700  0.399900  0.193500  1.0  0.1167
  H  H189  1  0.125000  0.512400  0.127400  1.0  0.1207
  H  H190  1  0.092900  0.346500  0.133500  1.0  0.0786
  H  H191  1  0.016700  0.817100  0.187800  1.0  0.0895
  H  H192  1  0.966100  0.657400  0.125900  1.0  0.127
  H  H193  1  0.052100  0.725400  0.185400  1.0  0.124
  H  H194  1  0.999300  0.324500  0.187400  1.0  0.1138
  H  H195  1  0.078600  0.642300  0.188500  1.0  0.1253
  H  H196  1  0.937500  0.755600  0.122400  1.0  0.1299
  H  H197  1  0.022800  0.475100  0.133200  1.0  0.1345
  H  H198  1  0.110000  0.554100  0.183700  1.0  0.1062
  H  H199  1  0.201300  0.363200  0.184300  1.0  0.1633
  H  H200  1  0.064000  0.255900  0.130300  1.0  0.1187
  H  H201  1  0.031000  0.415400  0.188600  1.0  0.1207
  H  H202  1  0.990800  0.571200  0.135600  1.0  0.1128
  H  H203  1  0.138000  0.377200  0.191400  1.0  0.1111
  H  H204  1  0.182900  0.498900  0.121500  1.0  0.0822
  H  H205  1  0.467700  0.509900  0.237300  1.0  0.0795
  H  H206  1  0.389100  0.388100  0.228400  1.0  0.1012
  H  H207  1  0.487700  0.477400  0.387700  1.0  0.1222
  H  H208  1  0.481600  0.643400  0.509300  1.0  0.108
  H  H209  1  0.581900  0.176800  0.576700  1.0  0.1261
  H  H210  1  0.474000  0.520800  0.429100  1.0  0.1002
  H  H211  1  0.567400  0.790300  0.520300  1.0  0.0921
  H  H212  1  0.522500  0.351100  0.553800  1.0  0.1259
  H  H213  1  0.495500  0.647900  0.600100  1.0  0.1164
  H  H214  1  0.555600  0.261800  0.556200  1.0  0.1045
  H  H215  1  0.472700  0.531100  0.479600  1.0  0.1232
  H  H216  1  0.530900  0.002500  0.527500  1.0  0.091
  H  H217  1  0.766700  0.928100  0.586300  1.0  0.1096
  H  H218  1  0.377100  0.431900  0.324300  1.0  0.1202
  H  H219  1  0.513500  0.738600  0.510800  1.0  0.1058
  H  H220  1  0.525500  0.851100  0.590600  1.0  0.096
  H  H221  1  0.525500  0.748600  0.598400  1.0  0.0971
  H  H222  1  0.462800  0.160100  0.543900  1.0  0.1172
  H  H223  1  0.467600  0.521500  0.288500  1.0  0.1219
  H  H224  1  0.830700  0.933700  0.586100  1.0  0.1254
  H  H225  1  0.613100  0.084800  0.579600  1.0  0.0773
  H  H226  1  0.635700  0.059400  0.530100  1.0  0.1117
  H  H227  1  0.496400  0.086800  0.526200  1.0  0.1001
  H  H228  1  0.429500  0.250300  0.539700  1.0  0.1086
  H  H229  1  0.648300  0.897700  0.573500  1.0  0.0955
  H  H230  1  0.383200  0.435200  0.374900  1.0  0.0733
  H  H231  1  0.595400  0.884200  0.516900  1.0  0.1336
  H  H232  1  0.699600  0.054100  0.524000  1.0  0.122
  H  H233  1  0.555600  0.943000  0.590100  1.0  0.1327
  H  H234  1  0.708500  0.898600  0.573300  1.0  0.1085
  H  H235  1  0.809400  0.026600  0.507200  1.0  0.1005
  H  H236  1  0.486300  0.471100  0.335500  1.0  0.0847
  H  H237  1  0.747800  0.021900  0.508200  1.0  0.1165
  H  H238  1  0.395500  0.380500  0.278300  1.0  0.0905
  H  H239  1  0.398700  0.389300  0.421400  1.0  0.129
  H  H240  1  0.398200  0.400300  0.471600  1.0  0.0724
  H  H241  1  0.820900  0.910500  0.191400  1.0  0.1127
  H  H242  1  0.465000  0.626700  0.194700  1.0  0.1084
  H  H243  1  0.494100  0.719600  0.198400  1.0  0.1218
  H  H244  1  0.506400  0.703900  0.110900  1.0  0.0873
  H  H245  1  0.734600  0.940800  0.104300  1.0  0.1247
  H  H246  1  0.475700  0.607200  0.109000  1.0  0.0829
  H  H247  1  0.797100  0.947700  0.105700  1.0  0.0643
  H  H248  1  0.757700  0.899900  0.193500  1.0  0.1167
  H  H249  1  0.625000  0.012400  0.127400  1.0  0.1207
  H  H250  1  0.592900  0.846500  0.133500  1.0  0.0786
  H  H251  1  0.516700  0.317100  0.187800  1.0  0.0895
  H  H252  1  0.466100  0.157400  0.125900  1.0  0.127
  H  H253  1  0.552100  0.225400  0.185400  1.0  0.124
  H  H254  1  0.499300  0.824500  0.187400  1.0  0.1138
  H  H255  1  0.578600  0.142300  0.188500  1.0  0.1253
  H  H256  1  0.437500  0.255600  0.122400  1.0  0.1299
  H  H257  1  0.522800  0.975100  0.133200  1.0  0.1345
  H  H258  1  0.610000  0.054100  0.183700  1.0  0.1062
  H  H259  1  0.701300  0.863200  0.184300  1.0  0.1633
  H  H260  1  0.564000  0.755900  0.130300  1.0  0.1187
  H  H261  1  0.531000  0.915400  0.188600  1.0  0.1207
  H  H262  1  0.490800  0.071200  0.135600  1.0  0.1128
  H  H263  1  0.638000  0.877200  0.191400  1.0  0.1111
  H  H264  1  0.682900  0.998900  0.121500  1.0  0.0822
  H  H265  1  0.032300  0.990100  0.762700  1.0  0.08
  H  H266  1  0.110900  0.111900  0.771600  1.0  0.1017
  H  H267  1  0.012300  0.022600  0.612300  1.0  0.1221
  H  H268  1  0.018400  0.856600  0.490700  1.0  0.1077
  H  H269  1  0.918100  0.323200  0.423300  1.0  0.1269
  H  H270  1  0.026000  0.979200  0.570900  1.0  0.1
  H  H271  1  0.932600  0.709700  0.479700  1.0  0.0916
  H  H272  1  0.977500  0.148900  0.446200  1.0  0.1256
  H  H273  1  0.004500  0.852100  0.399900  1.0  0.1158
  H  H274  1  0.944400  0.238200  0.443800  1.0  0.1065
  H  H275  1  0.027300  0.968900  0.520400  1.0  0.1226
  H  H276  1  0.969100  0.497500  0.472500  1.0  0.0913
  H  H277  1  0.733300  0.571900  0.413700  1.0  0.1101
  H  H278  1  0.122900  0.068100  0.675700  1.0  0.1207
  H  H279  1  0.986500  0.761400  0.489200  1.0  0.1062
  H  H280  1  0.974500  0.648900  0.409400  1.0  0.096
  H  H281  1  0.974500  0.751400  0.401600  1.0  0.0973
  H  H282  1  0.037200  0.339900  0.456100  1.0  0.1177
  H  H283  1  0.032400  0.978500  0.711500  1.0  0.121
  H  H284  1  0.669300  0.566300  0.413900  1.0  0.1247
  H  H285  1  0.886900  0.415200  0.420400  1.0  0.0765
  H  H286  1  0.864300  0.440600  0.469900  1.0  0.1126
  H  H287  1  0.003600  0.413200  0.473800  1.0  0.0998
  H  H288  1  0.070500  0.249700  0.460300  1.0  0.107
  H  H289  1  0.851700  0.602300  0.426500  1.0  0.0967
  H  H290  1  0.116800  0.064800  0.625100  1.0  0.0732
  H  H291  1  0.904600  0.615800  0.483100  1.0  0.1342
  H  H292  1  0.800400  0.445900  0.476000  1.0  0.1227
  H  H293  1  0.944400  0.557000  0.409900  1.0  0.1319
  H  H294  1  0.791500  0.601400  0.426700  1.0  0.1091
  H  H295  1  0.690600  0.473400  0.492800  1.0  0.1005
  H  H296  1  0.013700  0.028900  0.664500  1.0  0.0849
  H  H297  1  0.752200  0.478100  0.491800  1.0  0.118
  H  H298  1  0.104500  0.119500  0.721700  1.0  0.0916
  H  H299  1  0.101300  0.110700  0.578600  1.0  0.1295
  H  H300  1  0.101800  0.099700  0.528400  1.0  0.0727
  H  H301  1  0.679100  0.589500  0.808600  1.0  0.1124
  H  H302  1  0.035000  0.873300  0.805300  1.0  0.1089
  H  H303  1  0.005900  0.780400  0.801600  1.0  0.1214
  H  H304  1  0.993600  0.796100  0.889100  1.0  0.0875
  H  H305  1  0.765400  0.559200  0.895700  1.0  0.1249
  H  H306  1  0.024300  0.892800  0.891000  1.0  0.0823
  H  H307  1  0.702900  0.552300  0.894300  1.0  0.0631
  H  H308  1  0.742300  0.600100  0.806500  1.0  0.1159
  H  H309  1  0.875000  0.487600  0.872600  1.0  0.1209
  H  H310  1  0.907100  0.653500  0.866500  1.0  0.0785
  H  H311  1  0.983300  0.182900  0.812200  1.0  0.0887
  H  H312  1  0.033900  0.342600  0.874100  1.0  0.1266
  H  H313  1  0.947900  0.274600  0.814600  1.0  0.1243
  H  H314  1  0.000700  0.675500  0.812600  1.0  0.114
  H  H315  1  0.921400  0.357700  0.811500  1.0  0.1256
  H  H316  1  0.062500  0.244400  0.877600  1.0  0.129
  H  H317  1  0.977200  0.524900  0.866800  1.0  0.1337
  H  H318  1  0.890000  0.445900  0.816300  1.0  0.1079
  H  H319  1  0.798700  0.636800  0.815700  1.0  0.1637
  H  H320  1  0.936000  0.744100  0.869700  1.0  0.1191
  H  H321  1  0.969000  0.584600  0.811400  1.0  0.1212
  H  H322  1  0.009200  0.428800  0.864400  1.0  0.1141
  H  H323  1  0.862000  0.622800  0.808600  1.0  0.1113
  H  H324  1  0.817100  0.501100  0.878500  1.0  0.0811
  H  H325  1  0.532300  0.490100  0.762700  1.0  0.08
  H  H326  1  0.610900  0.611900  0.771600  1.0  0.1013
  H  H327  1  0.512300  0.522600  0.612300  1.0  0.1221
  H  H328  1  0.518400  0.356600  0.490700  1.0  0.1077
  H  H329  1  0.418100  0.823200  0.423300  1.0  0.1269
  H  H330  1  0.526000  0.479200  0.570900  1.0  0.1
  H  H331  1  0.432600  0.209700  0.479700  1.0  0.0916
  H  H332  1  0.477500  0.648900  0.446200  1.0  0.1256
  H  H333  1  0.504500  0.352100  0.399900  1.0  0.1158
  H  H334  1  0.444400  0.738200  0.443800  1.0  0.1065
  H  H335  1  0.527300  0.468900  0.520400  1.0  0.1226
  H  H336  1  0.469100  0.997500  0.472500  1.0  0.0913
  H  H337  1  0.233300  0.071900  0.413700  1.0  0.1101
  H  H338  1  0.622900  0.568100  0.675700  1.0  0.1207
  H  H339  1  0.486500  0.261400  0.489200  1.0  0.1062
  H  H340  1  0.474500  0.148900  0.409400  1.0  0.096
  H  H341  1  0.474500  0.251400  0.401600  1.0  0.0973
  H  H342  1  0.537200  0.839900  0.456100  1.0  0.1177
  H  H343  1  0.532400  0.478500  0.711500  1.0  0.121
  H  H344  1  0.169300  0.066300  0.413900  1.0  0.1247
  H  H345  1  0.386900  0.915200  0.420400  1.0  0.0765
  H  H346  1  0.364300  0.940600  0.469900  1.0  0.1126
  H  H347  1  0.503600  0.913200  0.473800  1.0  0.0998
  H  H348  1  0.570500  0.749700  0.460300  1.0  0.107
  H  H349  1  0.351700  0.102300  0.426500  1.0  0.0967
  H  H350  1  0.616800  0.564800  0.625100  1.0  0.0732
  H  H351  1  0.404600  0.115800  0.483100  1.0  0.1342
  H  H352  1  0.300400  0.945900  0.476000  1.0  0.1227
  H  H353  1  0.444400  0.057000  0.409900  1.0  0.1319
  H  H354  1  0.291500  0.101400  0.426700  1.0  0.1091
  H  H355  1  0.190600  0.973400  0.492800  1.0  0.1005
  H  H356  1  0.513700  0.528900  0.664500  1.0  0.0849
  H  H357  1  0.252200  0.978100  0.491800  1.0  0.118
  H  H358  1  0.604500  0.619500  0.721700  1.0  0.0916
  H  H359  1  0.601300  0.610700  0.578600  1.0  0.1295
  H  H360  1  0.601800  0.599700  0.528400  1.0  0.0727
  H  H361  1  0.179100  0.089500  0.808600  1.0  0.1124
  H  H362  1  0.535000  0.373300  0.805300  1.0  0.1089
  H  H363  1  0.505900  0.280400  0.801600  1.0  0.1214
  H  H364  1  0.493600  0.296100  0.889100  1.0  0.0875
  H  H365  1  0.265400  0.059200  0.895700  1.0  0.1249
  H  H366  1  0.524300  0.392800  0.891000  1.0  0.0823
  H  H367  1  0.202900  0.052300  0.894300  1.0  0.0631
  H  H368  1  0.242300  0.100100  0.806500  1.0  0.1159
  H  H369  1  0.375000  0.987600  0.872600  1.0  0.1209
  H  H370  1  0.407100  0.153500  0.866500  1.0  0.0785
  H  H371  1  0.483300  0.682900  0.812200  1.0  0.0887
  H  H372  1  0.533900  0.842600  0.874100  1.0  0.1266
  H  H373  1  0.447900  0.774600  0.814600  1.0  0.1243
  H  H374  1  0.500700  0.175500  0.812600  1.0  0.114
  H  H375  1  0.421400  0.857700  0.811500  1.0  0.1256
  H  H376  1  0.562500  0.744400  0.877600  1.0  0.129
  H  H377  1  0.477200  0.024900  0.866800  1.0  0.1337
  H  H378  1  0.390000  0.945900  0.816300  1.0  0.1079
  H  H379  1  0.298700  0.136800  0.815700  1.0  0.1637
  H  H380  1  0.436000  0.244100  0.869700  1.0  0.1191
  H  H381  1  0.469000  0.084600  0.811400  1.0  0.1212
  H  H382  1  0.509200  0.928800  0.864400  1.0  0.1141
  H  H383  1  0.362000  0.122800  0.808600  1.0  0.1113
  H  H384  1  0.317100  0.001100  0.878500  1.0  0.0811
  H  H385  1  0.032300  0.009900  0.262700  1.0  0.0794
  H  H386  1  0.110900  0.888100  0.271600  1.0  0.1018
  H  H387  1  0.012300  0.977400  0.112300  1.0  0.1225
  H  H388  1  0.018400  0.143400  0.990700  1.0  0.1078
  H  H389  1  0.918100  0.676800  0.923300  1.0  0.126
  H  H390  1  0.026000  0.020800  0.070900  1.0  0.1
  H  H391  1  0.932600  0.290300  0.979700  1.0  0.0918
  H  H392  1  0.977500  0.851100  0.946200  1.0  0.1259
  H  H393  1  0.004500  0.147900  0.899900  1.0  0.1164
  H  H394  1  0.944400  0.761800  0.943800  1.0  0.1062
  H  H395  1  0.027300  0.031100  0.020400  1.0  0.1232
  H  H396  1  0.969100  0.502500  0.972500  1.0  0.0916
  H  H397  1  0.733300  0.428100  0.913700  1.0  0.1097
  H  H398  1  0.122900  0.931900  0.175700  1.0  0.1207
  H  H399  1  0.986500  0.238600  0.989200  1.0  0.106
  H  H400  1  0.974500  0.351100  0.909400  1.0  0.0961
  H  H401  1  0.974500  0.248600  0.901600  1.0  0.0977
  H  H402  1  0.037200  0.660100  0.956100  1.0  0.1173
  H  H403  1  0.032400  0.021500  0.211500  1.0  0.1217
  H  H404  1  0.669300  0.433700  0.913900  1.0  0.1248
  H  H405  1  0.886900  0.584800  0.920400  1.0  0.0764
  H  H406  1  0.864300  0.559400  0.969900  1.0  0.1117
  H  H407  1  0.003600  0.586800  0.973800  1.0  0.0999
  H  H408  1  0.070500  0.750300  0.960300  1.0  0.1072
  H  H409  1  0.851700  0.397700  0.926500  1.0  0.0953
  H  H410  1  0.116800  0.935200  0.125100  1.0  0.073
  H  H411  1  0.904600  0.384200  0.983100  1.0  0.1343
  H  H412  1  0.800400  0.554100  0.976000  1.0  0.1226
  H  H413  1  0.944400  0.443000  0.909900  1.0  0.1323
  H  H414  1  0.791500  0.398600  0.926700  1.0  0.1082
  H  H415  1  0.690600  0.526600  0.992800  1.0  0.1017
  H  H416  1  0.013700  0.971100  0.164500  1.0  0.0848
  H  H417  1  0.752200  0.521900  0.991800  1.0  0.1189
  H  H418  1  0.104500  0.880500  0.221700  1.0  0.091
  H  H419  1  0.101300  0.889300  0.078600  1.0  0.1294
  H  H420  1  0.101800  0.900300  0.028400  1.0  0.0722
  H  H421  1  0.679100  0.410500  0.308600  1.0  0.1123
  H  H422  1  0.035000  0.126700  0.305300  1.0  0.1088
  H  H423  1  0.005900  0.219600  0.301600  1.0  0.1216
  H  H424  1  0.993600  0.203900  0.389100  1.0  0.0873
  H  H425  1  0.765400  0.440800  0.395700  1.0  0.1253
  H  H426  1  0.024300  0.107200  0.391000  1.0  0.0822
  H  H427  1  0.702900  0.447700  0.394300  1.0  0.0635
  H  H428  1  0.742300  0.399900  0.306500  1.0  0.1159
  H  H429  1  0.875000  0.512400  0.372600  1.0  0.121
  H  H430  1  0.907100  0.346500  0.366500  1.0  0.0786
  H  H431  1  0.983300  0.817100  0.312200  1.0  0.0884
  H  H432  1  0.033900  0.657400  0.374100  1.0  0.1264
  H  H433  1  0.947900  0.725400  0.314600  1.0  0.1243
  H  H434  1  0.000700  0.324500  0.312600  1.0  0.1137
  H  H435  1  0.921400  0.642300  0.311500  1.0  0.1255
  H  H436  1  0.062500  0.755600  0.377600  1.0  0.129
  H  H437  1  0.977200  0.475100  0.366800  1.0  0.1339
  H  H438  1  0.890000  0.554100  0.316300  1.0  0.1075
  H  H439  1  0.798700  0.363200  0.315700  1.0  0.1628
  H  H440  1  0.936000  0.255900  0.369700  1.0  0.1186
  H  H441  1  0.969000  0.415400  0.311400  1.0  0.1216
  H  H442  1  0.009200  0.571200  0.364400  1.0  0.1127
  H  H443  1  0.862000  0.377200  0.308600  1.0  0.1109
  H  H444  1  0.817100  0.498900  0.378500  1.0  0.0811
  H  H445  1  0.532300  0.509900  0.262700  1.0  0.0794
  H  H446  1  0.610900  0.388100  0.271600  1.0  0.1013
  H  H447  1  0.512300  0.477400  0.112300  1.0  0.1225
  H  H448  1  0.518400  0.643400  0.990700  1.0  0.1078
  H  H449  1  0.418100  0.176800  0.923300  1.0  0.126
  H  H450  1  0.526000  0.520800  0.070900  1.0  0.1
  H  H451  1  0.432600  0.790300  0.979700  1.0  0.0918
  H  H452  1  0.477500  0.351100  0.946200  1.0  0.1259
  H  H453  1  0.504500  0.647900  0.899900  1.0  0.1164
  H  H454  1  0.444400  0.261800  0.943800  1.0  0.1062
  H  H455  1  0.527300  0.531100  0.020400  1.0  0.1232
  H  H456  1  0.469100  0.002500  0.972500  1.0  0.0916
  H  H457  1  0.233300  0.928100  0.913700  1.0  0.1097
  H  H458  1  0.622900  0.431900  0.175700  1.0  0.1207
  H  H459  1  0.486500  0.738600  0.989200  1.0  0.106
  H  H460  1  0.474500  0.851100  0.909400  1.0  0.0961
  H  H461  1  0.474500  0.748600  0.901600  1.0  0.0977
  H  H462  1  0.537200  0.160100  0.956100  1.0  0.1173
  H  H463  1  0.532400  0.521500  0.211500  1.0  0.1217
  H  H464  1  0.169300  0.933700  0.913900  1.0  0.1248
  H  H465  1  0.386900  0.084800  0.920400  1.0  0.0764
  H  H466  1  0.364300  0.059400  0.969900  1.0  0.1117
  H  H467  1  0.503600  0.086800  0.973800  1.0  0.0999
  H  H468  1  0.570500  0.250300  0.960300  1.0  0.1072
  H  H469  1  0.351700  0.897700  0.926500  1.0  0.0953
  H  H470  1  0.616800  0.435200  0.125100  1.0  0.073
  H  H471  1  0.404600  0.884200  0.983100  1.0  0.1343
  H  H472  1  0.300400  0.054100  0.976000  1.0  0.1226
  H  H473  1  0.444400  0.943000  0.909900  1.0  0.1323
  H  H474  1  0.291500  0.898600  0.926700  1.0  0.1082
  H  H475  1  0.190600  0.026600  0.992800  1.0  0.1017
  H  H476  1  0.513700  0.471100  0.164500  1.0  0.0848
  H  H477  1  0.252200  0.021900  0.991800  1.0  0.119
  H  H478  1  0.604500  0.380500  0.221700  1.0  0.091
  H  H479  1  0.601300  0.389300  0.078600  1.0  0.1294
  H  H480  1  0.601800  0.400300  0.028400  1.0  0.0722
  H  H481  1  0.179100  0.910500  0.308600  1.0  0.1123
  H  H482  1  0.535000  0.626700  0.305300  1.0  0.1088
  H  H483  1  0.505900  0.719600  0.301600  1.0  0.1216
  H  H484  1  0.493600  0.703900  0.389100  1.0  0.0873
  H  H485  1  0.265400  0.940800  0.395700  1.0  0.1253
  H  H486  1  0.524300  0.607200  0.391000  1.0  0.0822
  H  H487  1  0.202900  0.947700  0.394300  1.0  0.0635
  H  H488  1  0.242300  0.899900  0.306500  1.0  0.1159
  H  H489  1  0.375000  0.012400  0.372600  1.0  0.121
  H  H490  1  0.407100  0.846500  0.366500  1.0  0.0786
  H  H491  1  0.483300  0.317100  0.312200  1.0  0.0884
  H  H492  1  0.533900  0.157400  0.374100  1.0  0.1264
  H  H493  1  0.447900  0.225400  0.314600  1.0  0.1243
  H  H494  1  0.500700  0.824500  0.312600  1.0  0.1137
  H  H495  1  0.421400  0.142300  0.311500  1.0  0.1255
  H  H496  1  0.562500  0.255600  0.377600  1.0  0.129
  H  H497  1  0.477200  0.975100  0.366800  1.0  0.1339
  H  H498  1  0.390000  0.054100  0.316300  1.0  0.1075
  H  H499  1  0.298700  0.863200  0.315700  1.0  0.1628
  H  H500  1  0.436000  0.755900  0.369700  1.0  0.1186
  H  H501  1  0.469000  0.915400  0.311400  1.0  0.1216
  H  H502  1  0.509200  0.071200  0.364400  1.0  0.1127
  H  H503  1  0.362000  0.877200  0.308600  1.0  0.1109
  H  H504  1  0.317100  0.998900  0.378500  1.0  0.0811
  C  C505  1  0.951370  0.014600  0.745700  1.0  0.1622
  C  C506  1  0.932230  0.055700  0.790150  1.0  0.04
  C  C507  1  0.906970  0.087600  0.740320  1.0  0.1418
  C  C508  1  0.934000  0.050700  0.824210  1.0  0.0456
  C  C509  1  0.966000  0.032700  0.874420  1.0  -0.1571
  C  C510  1  0.990300  0.836700  0.027600  1.0  -0.0016
  C  C511  1  0.325890  0.517300  0.044800  1.0  -0.0836
  C  C512  1  0.070860  0.358100  0.066820  1.0  -0.2407
  C  C513  1  0.044750  0.689900  0.055600  1.0  -0.0297
  C  C514  1  0.076600  0.466900  0.053500  1.0  0.204
  C  C515  1  0.934760  0.044000  0.884700  1.0  0.0508
  C  C516  1  0.972680  0.189400  0.045960  1.0  -0.0743
  C  C517  1  0.985250  0.859300  0.053600  1.0  -0.1063
  C  C518  1  0.958010  0.003600  0.937850  1.0  -0.1191
  C  C519  1  0.064900  0.678900  0.034290  1.0  -0.1546
  C  C520  1  0.951900  0.132600  0.040800  1.0  0.6205
  C  C521  1  0.010390  0.186700  0.051450  1.0  -0.2037
  C  C522  1  0.079430  0.579200  0.053600  1.0  0.2331
  C  C523  1  0.998440  0.833500  0.082000  1.0  -0.1081
  C  C524  1  0.030030  0.241200  0.053370  1.0  -0.0898
  C  C525  1  0.033450  0.356100  0.049700  1.0  0.0013
  C  C526  1  0.957740  0.997800  0.967910  1.0  0.0856
  C  C527  1  0.935850  0.043400  0.920390  1.0  0.021
  C  C528  1  0.015020  0.299400  0.051450  1.0  -0.0025
  C  C529  1  0.041300  0.462700  0.037900  1.0  -0.1421
  C  C530  1  0.275000  0.551800  0.070400  1.0  -0.1542
  C  C531  1  0.899800  0.060400  0.836620  1.0  -0.1546
  C  C532  1  0.009730  0.780300  0.028710  1.0  -0.135
  C  C533  1  0.040610  0.642300  0.076360  1.0  -0.1104
  C  C534  1  0.017570  0.773800  0.080620  1.0  -0.1294
  C  C535  1  0.022900  0.753900  0.056060  1.0  0.2739
  C  C536  1  0.974930  0.302000  0.045770  1.0  -0.2346
  C  C537  1  0.953750  0.008900  0.776960  1.0  -0.1923
  C  C538  1  0.313680  0.548800  0.070400  1.0  -0.1403
  C  C539  1  0.089500  0.413900  0.067930  1.0  -0.1176
  C  C540  1  0.150250  0.473900  0.038100  1.0  -0.1393
  C  C541  1  0.020700  0.411400  0.036600  1.0  -0.1347
  C  C542  1  0.955200  0.247900  0.043270  1.0  -0.093
  C  C543  1  0.158070  0.568900  0.064600  1.0  -0.1438
  C  C544  1  0.903910  0.057100  0.866240  1.0  -0.1353
  C  C545  1  0.960440  0.920400  0.053200  1.0  0.637
  C  C546  1  0.367300  0.517700  0.047600  1.0  0.6319
  C  C547  1  0.210490  0.523800  0.048350  1.0  0.0106
  C  C548  1  0.082120  0.623300  0.032420  1.0  -0.2011
  C  C549  1  0.134600  0.521700  0.053100  1.0  0.2094
  C  C550  1  0.189510  0.476100  0.034900  1.0  -0.1821
  C  C551  1  0.057870  0.587700  0.076100  1.0  -0.2219
  C  C552  1  0.193930  0.569600  0.063600  1.0  -0.1478
  C  C553  1  0.301600  0.493200  0.023400  1.0  -0.0668
  C  C554  1  0.964890  0.036500  0.843200  1.0  -0.1432
  C  C555  1  0.249120  0.525300  0.047100  1.0  0.1093
  C  C556  1  0.264000  0.496400  0.024100  1.0  -0.1625
  C  C557  1  0.910040  0.090700  0.770500  1.0  -0.1449
  C  C558  1  0.913540  0.081400  0.932940  1.0  -0.2269
  C  C559  1  0.914000  0.074600  0.962900  1.0  0.196
  C  C560  1  0.312600  0.569400  0.647600  1.0  0.0057
  C  C561  1  0.303000  0.582600  0.674200  1.0  -0.0555
  C  C562  1  0.973200  0.857500  0.677730  1.0  -0.0246
  C  C563  1  0.966470  0.890900  0.650700  1.0  -0.1257
  C  C564  1  0.991300  0.802500  0.680300  1.0  -0.1541
  C  C565  1  0.998700  0.811500  0.628200  1.0  -0.1676
  C  C566  1  0.251200  0.562000  0.622700  1.0  -0.1438
  C  C567  1  0.979200  0.869900  0.626920  1.0  -0.0103
  C  C568  1  0.288700  0.560500  0.623700  1.0  -0.0685
  C  C569  1  0.265100  0.585900  0.675900  1.0  -0.1349
  C  C570  1  0.005760  0.778800  0.655280  1.0  0.0642
  C  C571  1  0.238700  0.568000  0.650900  1.0  0.0368
  C  C572  1  0.025290  0.721300  0.656520  1.0  0.0283
  C  C573  1  0.139500  0.517600  0.638700  1.0  -0.1696
  C  C574  1  0.032300  0.381500  0.659800  1.0  0.0642
  C  C575  1  0.010300  0.320300  0.658800  1.0  0.0051
  C  C576  1  0.073700  0.658600  0.644280  1.0  -0.1603
  C  C577  1  0.976300  0.206200  0.655400  1.0  -0.088
  C  C578  1  0.952300  0.144700  0.655800  1.0  0.633
  C  C579  1  0.198900  0.563500  0.653100  1.0  0.0364
  C  C580  1  0.007600  0.214300  0.674370  1.0  -0.0204
  C  C581  1  0.976770  0.310300  0.638200  1.0  -0.0935
  C  C582  1  0.028000  0.271200  0.674800  1.0  -0.1563
  C  C583  1  0.017700  0.671100  0.675700  1.0  -0.1471
  C  C584  1  0.067300  0.389600  0.676400  1.0  -0.1056
  C  C585  1  0.959300  0.251800  0.636100  1.0  -0.1019
  C  C586  1  0.067900  0.497000  0.661300  1.0  0.228
  C  C587  1  0.065800  0.610700  0.661400  1.0  0.1769
  C  C588  1  0.124300  0.556700  0.659000  1.0  0.1697
  C  C589  1  0.034000  0.492100  0.644700  1.0  -0.1667
  C  C590  1  0.085100  0.443800  0.675100  1.0  -0.1476
  C  C591  1  0.186100  0.606600  0.673900  1.0  -0.1515
  C  C592  1  0.056200  0.712400  0.641710  1.0  -0.1548
  C  C593  1  0.037200  0.617300  0.677000  1.0  -0.1707
  C  C594  1  0.015300  0.432200  0.645400  1.0  -0.1109
  C  C595  1  0.147400  0.599200  0.677200  1.0  -0.0977
  C  C596  1  0.949220  0.956800  0.650600  1.0  0.6327
  C  C597  1  0.174300  0.524700  0.636200  1.0  -0.0534
  C  C598  1  0.354100  0.563300  0.645100  1.0  0.7104
  C  C599  1  0.451370  0.514600  0.745700  1.0  0.1622
  C  C600  1  0.432230  0.555700  0.790150  1.0  0.04
  C  C601  1  0.406970  0.587600  0.740320  1.0  0.1418
  C  C602  1  0.434000  0.550700  0.824210  1.0  0.0456
  C  C603  1  0.466000  0.532700  0.874420  1.0  -0.1571
  C  C604  1  0.490300  0.336700  0.027600  1.0  -0.0016
  C  C605  1  0.825890  0.017300  0.044800  1.0  -0.0836
  C  C606  1  0.570860  0.858100  0.066820  1.0  -0.2407
  C  C607  1  0.544750  0.189900  0.055600  1.0  -0.0297
  C  C608  1  0.576600  0.966900  0.053500  1.0  0.204
  C  C609  1  0.434760  0.544000  0.884700  1.0  0.0508
  C  C610  1  0.472680  0.689400  0.045960  1.0  -0.0743
  C  C611  1  0.485250  0.359300  0.053600  1.0  -0.1063
  C  C612  1  0.458010  0.503600  0.937850  1.0  -0.1191
  C  C613  1  0.564900  0.178900  0.034290  1.0  -0.1546
  C  C614  1  0.451900  0.632600  0.040800  1.0  0.6205
  C  C615  1  0.510390  0.686700  0.051450  1.0  -0.2037
  C  C616  1  0.579430  0.079200  0.053600  1.0  0.2331
  C  C617  1  0.498440  0.333500  0.082000  1.0  -0.1081
  C  C618  1  0.530030  0.741200  0.053370  1.0  -0.0898
  C  C619  1  0.533450  0.856100  0.049700  1.0  0.0013
  C  C620  1  0.457740  0.497800  0.967910  1.0  0.0856
  C  C621  1  0.435850  0.543400  0.920390  1.0  0.021
  C  C622  1  0.515020  0.799400  0.051450  1.0  -0.0025
  C  C623  1  0.541300  0.962700  0.037900  1.0  -0.1421
  C  C624  1  0.775000  0.051800  0.070400  1.0  -0.1542
  C  C625  1  0.399800  0.560400  0.836620  1.0  -0.1546
  C  C626  1  0.509730  0.280300  0.028710  1.0  -0.135
  C  C627  1  0.540610  0.142300  0.076360  1.0  -0.1104
  C  C628  1  0.517570  0.273800  0.080620  1.0  -0.1294
  C  C629  1  0.522900  0.253900  0.056060  1.0  0.2739
  C  C630  1  0.474930  0.802000  0.045770  1.0  -0.2346
  C  C631  1  0.453750  0.508900  0.776960  1.0  -0.1923
  C  C632  1  0.813680  0.048800  0.070400  1.0  -0.1403
  C  C633  1  0.589500  0.913900  0.067930  1.0  -0.1176
  C  C634  1  0.650250  0.973900  0.038100  1.0  -0.1393
  C  C635  1  0.520700  0.911400  0.036600  1.0  -0.1347
  C  C636  1  0.455200  0.747900  0.043270  1.0  -0.093
  C  C637  1  0.658070  0.068900  0.064600  1.0  -0.1438
  C  C638  1  0.403910  0.557100  0.866240  1.0  -0.1353
  C  C639  1  0.460440  0.420400  0.053200  1.0  0.637
  C  C640  1  0.867300  0.017700  0.047600  1.0  0.6319
  C  C641  1  0.710490  0.023800  0.048350  1.0  0.0106
  C  C642  1  0.582120  0.123300  0.032420  1.0  -0.2011
  C  C643  1  0.634600  0.021700  0.053100  1.0  0.2094
  C  C644  1  0.689510  0.976100  0.034900  1.0  -0.1821
  C  C645  1  0.557870  0.087700  0.076100  1.0  -0.2219
  C  C646  1  0.693930  0.069600  0.063600  1.0  -0.1478
  C  C647  1  0.801600  0.993200  0.023400  1.0  -0.0668
  C  C648  1  0.464890  0.536500  0.843200  1.0  -0.1432
  C  C649  1  0.749120  0.025300  0.047100  1.0  0.1093
  C  C650  1  0.764000  0.996400  0.024100  1.0  -0.1625
  C  C651  1  0.410040  0.590700  0.770500  1.0  -0.1449
  C  C652  1  0.413540  0.581400  0.932940  1.0  -0.2269
  C  C653  1  0.414000  0.574600  0.962900  1.0  0.196
  C  C654  1  0.812600  0.069400  0.647600  1.0  0.0057
  C  C655  1  0.803000  0.082600  0.674200  1.0  -0.0555
  C  C656  1  0.473200  0.357500  0.677730  1.0  -0.0246
  C  C657  1  0.466470  0.390900  0.650700  1.0  -0.1257
  C  C658  1  0.491300  0.302500  0.680300  1.0  -0.1541
  C  C659  1  0.498700  0.311500  0.628200  1.0  -0.1676
  C  C660  1  0.751200  0.062000  0.622700  1.0  -0.1438
  C  C661  1  0.479200  0.369900  0.626920  1.0  -0.0103
  C  C662  1  0.788700  0.060500  0.623700  1.0  -0.0685
  C  C663  1  0.765100  0.085900  0.675900  1.0  -0.1349
  C  C664  1  0.505760  0.278800  0.655280  1.0  0.0642
  C  C665  1  0.738700  0.068000  0.650900  1.0  0.0368
  C  C666  1  0.525290  0.221300  0.656520  1.0  0.0283
  C  C667  1  0.639500  0.017600  0.638700  1.0  -0.1696
  C  C668  1  0.532300  0.881500  0.659800  1.0  0.0642
  C  C669  1  0.510300  0.820300  0.658800  1.0  0.0051
  C  C670  1  0.573700  0.158600  0.644280  1.0  -0.1603
  C  C671  1  0.476300  0.706200  0.655400  1.0  -0.088
  C  C672  1  0.452300  0.644700  0.655800  1.0  0.633
  C  C673  1  0.698900  0.063500  0.653100  1.0  0.0364
  C  C674  1  0.507600  0.714300  0.674370  1.0  -0.0204
  C  C675  1  0.476770  0.810300  0.638200  1.0  -0.0935
  C  C676  1  0.528000  0.771200  0.674800  1.0  -0.1563
  C  C677  1  0.517700  0.171100  0.675700  1.0  -0.1471
  C  C678  1  0.567300  0.889600  0.676400  1.0  -0.1056
  C  C679  1  0.459300  0.751800  0.636100  1.0  -0.1019
  C  C680  1  0.567900  0.997000  0.661300  1.0  0.228
  C  C681  1  0.565800  0.110700  0.661400  1.0  0.1769
  C  C682  1  0.624300  0.056700  0.659000  1.0  0.1697
  C  C683  1  0.534000  0.992100  0.644700  1.0  -0.1667
  C  C684  1  0.585100  0.943800  0.675100  1.0  -0.1476
  C  C685  1  0.686100  0.106600  0.673900  1.0  -0.1515
  C  C686  1  0.556200  0.212400  0.641710  1.0  -0.1548
  C  C687  1  0.537200  0.117300  0.677000  1.0  -0.1707
  C  C688  1  0.515300  0.932200  0.645400  1.0  -0.1109
  C  C689  1  0.647400  0.099200  0.677200  1.0  -0.0977
  C  C690  1  0.449220  0.456800  0.650600  1.0  0.6327
  C  C691  1  0.674300  0.024700  0.636200  1.0  -0.0534
  C  C692  1  0.854100  0.063300  0.645100  1.0  0.7104
  C  C693  1  0.951370  0.985400  0.245700  1.0  0.163
  C  C694  1  0.932230  0.944300  0.290150  1.0  0.0398
  C  C695  1  0.906970  0.912400  0.240320  1.0  0.1419
  C  C696  1  0.934000  0.949300  0.324210  1.0  0.0453
  C  C697  1  0.966000  0.967300  0.374420  1.0  -0.1569
  C  C698  1  0.990300  0.163300  0.527600  1.0  -0.0017
  C  C699  1  0.325890  0.482700  0.544800  1.0  -0.0839
  C  C700  1  0.070860  0.641900  0.566820  1.0  -0.2411
  C  C701  1  0.044750  0.310100  0.555600  1.0  -0.0308
  C  C702  1  0.076600  0.533100  0.553500  1.0  0.2042
  C  C703  1  0.934760  0.956000  0.384700  1.0  0.052
  C  C704  1  0.972680  0.810600  0.545960  1.0  -0.0743
  C  C705  1  0.985250  0.140700  0.553600  1.0  -0.1061
  C  C706  1  0.958010  0.996400  0.437850  1.0  -0.115
  C  C707  1  0.064900  0.321100  0.534290  1.0  -0.1543
  C  C708  1  0.951900  0.867400  0.540800  1.0  0.6215
  C  C709  1  0.010390  0.813300  0.551450  1.0  -0.2036
  C  C710  1  0.079430  0.420800  0.553600  1.0  0.2328
  C  C711  1  0.998440  0.166500  0.582000  1.0  -0.1089
  C  C712  1  0.030030  0.758800  0.553370  1.0  -0.0902
  C  C713  1  0.033450  0.643900  0.549700  1.0  0.0014
  C  C714  1  0.957740  0.002200  0.467910  1.0  0.0843
  C  C715  1  0.935850  0.956600  0.420390  1.0  0.0213
  C  C716  1  0.015020  0.700600  0.551450  1.0  -0.0024
  C  C717  1  0.041300  0.537300  0.537900  1.0  -0.1427
  C  C718  1  0.275000  0.448200  0.570400  1.0  -0.1539
  C  C719  1  0.899800  0.939600  0.336620  1.0  -0.1543
  C  C720  1  0.009730  0.219700  0.528710  1.0  -0.1341
  C  C721  1  0.040610  0.357700  0.576360  1.0  -0.1105
  C  C722  1  0.017570  0.226200  0.580620  1.0  -0.1291
  C  C723  1  0.022900  0.246100  0.556060  1.0  0.2741
  C  C724  1  0.974930  0.698000  0.545770  1.0  -0.2329
  C  C725  1  0.953750  0.991100  0.276960  1.0  -0.1922
  C  C726  1  0.313680  0.451200  0.570400  1.0  -0.1397
  C  C727  1  0.089500  0.586100  0.567930  1.0  -0.118
  C  C728  1  0.150250  0.526100  0.538100  1.0  -0.139
  C  C729  1  0.020700  0.588600  0.536600  1.0  -0.1343
  C  C730  1  0.955200  0.752100  0.543270  1.0  -0.0928
  C  C731  1  0.158070  0.431100  0.564600  1.0  -0.1422
  C  C732  1  0.903910  0.942900  0.366240  1.0  -0.1353
  C  C733  1  0.960440  0.079600  0.553200  1.0  0.6366
  C  C734  1  0.367300  0.482300  0.547600  1.0  0.6319
  C  C735  1  0.210490  0.476200  0.548350  1.0  0.0103
  C  C736  1  0.082120  0.376700  0.532420  1.0  -0.2007
  C  C737  1  0.134600  0.478300  0.553100  1.0  0.2096
  C  C738  1  0.189510  0.523900  0.534900  1.0  -0.1826
  C  C739  1  0.057870  0.412300  0.576100  1.0  -0.2229
  C  C740  1  0.193930  0.430400  0.563600  1.0  -0.1477
  C  C741  1  0.301600  0.506800  0.523400  1.0  -0.0665
  C  C742  1  0.964890  0.963500  0.343200  1.0  -0.1434
  C  C743  1  0.249120  0.474700  0.547100  1.0  0.1078
  C  C744  1  0.264000  0.503600  0.524100  1.0  -0.1628
  C  C745  1  0.910040  0.909300  0.270500  1.0  -0.1423
  C  C746  1  0.913540  0.918600  0.432940  1.0  -0.226
  C  C747  1  0.914000  0.925400  0.462900  1.0  0.1958
  C  C748  1  0.312600  0.430600  0.147600  1.0  0.005
  C  C749  1  0.303000  0.417400  0.174200  1.0  -0.0555
  C  C750  1  0.973200  0.142500  0.177730  1.0  -0.0257
  C  C751  1  0.966470  0.109100  0.150700  1.0  -0.1243
  C  C752  1  0.991300  0.197500  0.180300  1.0  -0.1547
  C  C753  1  0.998700  0.188500  0.128200  1.0  -0.1677
  C  C754  1  0.251200  0.438000  0.122700  1.0  -0.1442
  C  C755  1  0.979200  0.130100  0.126920  1.0  -0.0101
  C  C756  1  0.288700  0.439500  0.123700  1.0  -0.0689
  C  C757  1  0.265100  0.414100  0.175900  1.0  -0.1347
  C  C758  1  0.005760  0.221200  0.155280  1.0  0.0641
  C  C759  1  0.238700  0.432000  0.150900  1.0  0.0367
  C  C760  1  0.025290  0.278700  0.156520  1.0  0.0282
  C  C761  1  0.139500  0.482400  0.138700  1.0  -0.1702
  C  C762  1  0.032300  0.618500  0.159800  1.0  0.0626
  C  C763  1  0.010300  0.679700  0.158800  1.0  0.005
  C  C764  1  0.073700  0.341400  0.144280  1.0  -0.1593
  C  C765  1  0.976300  0.793800  0.155400  1.0  -0.0879
  C  C766  1  0.952300  0.855300  0.155800  1.0  0.6312
  C  C767  1  0.198900  0.436500  0.153100  1.0  0.0368
  C  C768  1  0.007600  0.785700  0.174370  1.0  -0.0198
  C  C769  1  0.976770  0.689700  0.138200  1.0  -0.0934
  C  C770  1  0.028000  0.728800  0.174800  1.0  -0.1567
  C  C771  1  0.017700  0.328900  0.175700  1.0  -0.1468
  C  C772  1  0.067300  0.610400  0.176400  1.0  -0.105
  C  C773  1  0.959300  0.748200  0.136100  1.0  -0.1016
  C  C774  1  0.067900  0.503000  0.161300  1.0  0.2279
  C  C775  1  0.065800  0.389300  0.161400  1.0  0.1765
  C  C776  1  0.124300  0.443300  0.159000  1.0  0.1697
  C  C777  1  0.034000  0.507900  0.144700  1.0  -0.1675
  C  C778  1  0.085100  0.556200  0.175100  1.0  -0.1469
  C  C779  1  0.186100  0.393400  0.173900  1.0  -0.1516
  C  C780  1  0.056200  0.287600  0.141710  1.0  -0.1554
  C  C781  1  0.037200  0.382700  0.177000  1.0  -0.1711
  C  C782  1  0.015300  0.567800  0.145400  1.0  -0.1101
  C  C783  1  0.147400  0.400800  0.177200  1.0  -0.0973
  C  C784  1  0.949220  0.043200  0.150600  1.0  0.6317
  C  C785  1  0.174300  0.475300  0.136200  1.0  -0.0543
  C  C786  1  0.354100  0.436700  0.145100  1.0  0.7106
  C  C787  1  0.451370  0.485400  0.245700  1.0  0.163
  C  C788  1  0.432230  0.444300  0.290150  1.0  0.0398
  C  C789  1  0.406970  0.412400  0.240320  1.0  0.1419
  C  C790  1  0.434000  0.449300  0.324210  1.0  0.0453
  C  C791  1  0.466000  0.467300  0.374420  1.0  -0.1569
  C  C792  1  0.490300  0.663300  0.527600  1.0  -0.0017
  C  C793  1  0.825890  0.982700  0.544800  1.0  -0.0839
  C  C794  1  0.570860  0.141900  0.566820  1.0  -0.2411
  C  C795  1  0.544750  0.810100  0.555600  1.0  -0.0308
  C  C796  1  0.576600  0.033100  0.553500  1.0  0.2042
  C  C797  1  0.434760  0.456000  0.384700  1.0  0.052
  C  C798  1  0.472680  0.310600  0.545960  1.0  -0.0743
  C  C799  1  0.485250  0.640700  0.553600  1.0  -0.1061
  C  C800  1  0.458010  0.496400  0.437850  1.0  -0.115
  C  C801  1  0.564900  0.821100  0.534290  1.0  -0.1543
  C  C802  1  0.451900  0.367400  0.540800  1.0  0.6215
  C  C803  1  0.510390  0.313300  0.551450  1.0  -0.2036
  C  C804  1  0.579430  0.920800  0.553600  1.0  0.2328
  C  C805  1  0.498440  0.666500  0.582000  1.0  -0.1089
  C  C806  1  0.530030  0.258800  0.553370  1.0  -0.0902
  C  C807  1  0.533450  0.143900  0.549700  1.0  0.0014
  C  C808  1  0.457740  0.502200  0.467910  1.0  0.0843
  C  C809  1  0.435850  0.456600  0.420390  1.0  0.0213
  C  C810  1  0.515020  0.200600  0.551450  1.0  -0.0024
  C  C811  1  0.541300  0.037300  0.537900  1.0  -0.1427
  C  C812  1  0.775000  0.948200  0.570400  1.0  -0.1539
  C  C813  1  0.399800  0.439600  0.336620  1.0  -0.1543
  C  C814  1  0.509730  0.719700  0.528710  1.0  -0.1341
  C  C815  1  0.540610  0.857700  0.576360  1.0  -0.1105
  C  C816  1  0.517570  0.726200  0.580620  1.0  -0.1291
  C  C817  1  0.522900  0.746100  0.556060  1.0  0.2741
  C  C818  1  0.474930  0.198000  0.545770  1.0  -0.2329
  C  C819  1  0.453750  0.491100  0.276960  1.0  -0.1922
  C  C820  1  0.813680  0.951200  0.570400  1.0  -0.1397
  C  C821  1  0.589500  0.086100  0.567930  1.0  -0.118
  C  C822  1  0.650250  0.026100  0.538100  1.0  -0.139
  C  C823  1  0.520700  0.088600  0.536600  1.0  -0.1343
  C  C824  1  0.455200  0.252100  0.543270  1.0  -0.0928
  C  C825  1  0.658070  0.931100  0.564600  1.0  -0.1422
  C  C826  1  0.403910  0.442900  0.366240  1.0  -0.1353
  C  C827  1  0.460440  0.579600  0.553200  1.0  0.6366
  C  C828  1  0.867300  0.982300  0.547600  1.0  0.6319
  C  C829  1  0.710490  0.976200  0.548350  1.0  0.0103
  C  C830  1  0.582120  0.876700  0.532420  1.0  -0.2007
  C  C831  1  0.634600  0.978300  0.553100  1.0  0.2096
  C  C832  1  0.689510  0.023900  0.534900  1.0  -0.1826
  C  C833  1  0.557870  0.912300  0.576100  1.0  -0.2229
  C  C834  1  0.693930  0.930400  0.563600  1.0  -0.1477
  C  C835  1  0.801600  0.006800  0.523400  1.0  -0.0665
  C  C836  1  0.464890  0.463500  0.343200  1.0  -0.1434
  C  C837  1  0.749120  0.974700  0.547100  1.0  0.1078
  C  C838  1  0.764000  0.003600  0.524100  1.0  -0.1628
  C  C839  1  0.410040  0.409300  0.270500  1.0  -0.1423
  C  C840  1  0.413540  0.418600  0.432940  1.0  -0.226
  C  C841  1  0.414000  0.425400  0.462900  1.0  0.1958
  C  C842  1  0.812600  0.930600  0.147600  1.0  0.005
  C  C843  1  0.803000  0.917400  0.174200  1.0  -0.0555
  C  C844  1  0.473200  0.642500  0.177730  1.0  -0.0257
  C  C845  1  0.466470  0.609100  0.150700  1.0  -0.1243
  C  C846  1  0.491300  0.697500  0.180300  1.0  -0.1547
  C  C847  1  0.498700  0.688500  0.128200  1.0  -0.1677
  C  C848  1  0.751200  0.938000  0.122700  1.0  -0.1442
  C  C849  1  0.479200  0.630100  0.126920  1.0  -0.0101
  C  C850  1  0.788700  0.939500  0.123700  1.0  -0.0689
  C  C851  1  0.765100  0.914100  0.175900  1.0  -0.1347
  C  C852  1  0.505760  0.721200  0.155280  1.0  0.0641
  C  C853  1  0.738700  0.932000  0.150900  1.0  0.0367
  C  C854  1  0.525290  0.778700  0.156520  1.0  0.0282
  C  C855  1  0.639500  0.982400  0.138700  1.0  -0.1702
  C  C856  1  0.532300  0.118500  0.159800  1.0  0.0626
  C  C857  1  0.510300  0.179700  0.158800  1.0  0.005
  C  C858  1  0.573700  0.841400  0.144280  1.0  -0.1593
  C  C859  1  0.476300  0.293800  0.155400  1.0  -0.0879
  C  C860  1  0.452300  0.355300  0.155800  1.0  0.6312
  C  C861  1  0.698900  0.936500  0.153100  1.0  0.0368
  C  C862  1  0.507600  0.285700  0.174370  1.0  -0.0198
  C  C863  1  0.476770  0.189700  0.138200  1.0  -0.0934
  C  C864  1  0.528000  0.228800  0.174800  1.0  -0.1567
  C  C865  1  0.517700  0.828900  0.175700  1.0  -0.1468
  C  C866  1  0.567300  0.110400  0.176400  1.0  -0.105
  C  C867  1  0.459300  0.248200  0.136100  1.0  -0.1016
  C  C868  1  0.567900  0.003000  0.161300  1.0  0.2279
  C  C869  1  0.565800  0.889300  0.161400  1.0  0.1765
  C  C870  1  0.624300  0.943300  0.159000  1.0  0.1697
  C  C871  1  0.534000  0.007900  0.144700  1.0  -0.1675
  C  C872  1  0.585100  0.056200  0.175100  1.0  -0.1469
  C  C873  1  0.686100  0.893400  0.173900  1.0  -0.1516
  C  C874  1  0.556200  0.787600  0.141710  1.0  -0.1554
  C  C875  1  0.537200  0.882700  0.177000  1.0  -0.1711
  C  C876  1  0.515300  0.067800  0.145400  1.0  -0.1101
  C  C877  1  0.647400  0.900800  0.177200  1.0  -0.0973
  C  C878  1  0.449220  0.543200  0.150600  1.0  0.6317
  C  C879  1  0.674300  0.975300  0.136200  1.0  -0.0543
  C  C880  1  0.854100  0.936700  0.145100  1.0  0.7106
  C  C881  1  0.048630  0.014600  0.754300  1.0  0.1616
  C  C882  1  0.067770  0.055700  0.709850  1.0  0.0405
  C  C883  1  0.093030  0.087600  0.759680  1.0  0.1412
  C  C884  1  0.066000  0.050700  0.675790  1.0  0.0467
  C  C885  1  0.034000  0.032700  0.625580  1.0  -0.1548
  C  C886  1  0.009700  0.836700  0.472400  1.0  -0.0039
  C  C887  1  0.674110  0.517300  0.455200  1.0  -0.0879
  C  C888  1  0.929140  0.358100  0.433180  1.0  -0.2412
  C  C889  1  0.955250  0.689900  0.444400  1.0  -0.0295
  C  C890  1  0.923400  0.466900  0.446500  1.0  0.2031
  C  C891  1  0.065240  0.044000  0.615300  1.0  0.0537
  C  C892  1  0.027320  0.189400  0.454040  1.0  -0.0722
  C  C893  1  0.014750  0.859300  0.446400  1.0  -0.1103
  C  C894  1  0.041990  0.003600  0.562150  1.0  -0.1151
  C  C895  1  0.935100  0.678900  0.465710  1.0  -0.1528
  C  C896  1  0.048100  0.132600  0.459200  1.0  0.6206
  C  C897  1  0.989610  0.186700  0.448550  1.0  -0.202
  C  C898  1  0.920570  0.579200  0.446400  1.0  0.2339
  C  C899  1  0.001560  0.833500  0.418000  1.0  -0.1077
  C  C900  1  0.969970  0.241200  0.446630  1.0  -0.0912
  C  C901  1  0.966550  0.356100  0.450300  1.0  0.0017
  C  C902  1  0.042260  0.997800  0.532090  1.0  0.0873
  C  C903  1  0.064150  0.043400  0.579610  1.0  0.02
  C  C904  1  0.984980  0.299400  0.448550  1.0  -0.0026
  C  C905  1  0.958700  0.462700  0.462100  1.0  -0.1398
  C  C906  1  0.725000  0.551800  0.429600  1.0  -0.1539
  C  C907  1  0.100200  0.060400  0.663380  1.0  -0.154
  C  C908  1  0.990270  0.780300  0.471290  1.0  -0.1344
  C  C909  1  0.959390  0.642300  0.423640  1.0  -0.1099
  C  C910  1  0.982430  0.773800  0.419380  1.0  -0.1313
  C  C911  1  0.977100  0.753900  0.443940  1.0  0.2733
  C  C912  1  0.025070  0.302000  0.454230  1.0  -0.2332
  C  C913  1  0.046250  0.008900  0.723040  1.0  -0.1909
  C  C914  1  0.686320  0.548800  0.429600  1.0  -0.1376
  C  C915  1  0.910500  0.413900  0.432070  1.0  -0.1173
  C  C916  1  0.849750  0.473900  0.461900  1.0  -0.141
  C  C917  1  0.979300  0.411400  0.463400  1.0  -0.1349
  C  C918  1  0.044800  0.247900  0.456730  1.0  -0.096
  C  C919  1  0.841930  0.568900  0.435400  1.0  -0.1435
  C  C920  1  0.096090  0.057100  0.633760  1.0  -0.1345
  C  C921  1  0.039560  0.920400  0.446800  1.0  0.636
  C  C922  1  0.632700  0.517700  0.452400  1.0  0.6302
  C  C923  1  0.789510  0.523800  0.451650  1.0  0.0113
  C  C924  1  0.917880  0.623300  0.467580  1.0  -0.2008
  C  C925  1  0.865400  0.521700  0.446900  1.0  0.2087
  C  C926  1  0.810490  0.476100  0.465100  1.0  -0.1815
  C  C927  1  0.942130  0.587700  0.423900  1.0  -0.2235
  C  C928  1  0.806070  0.569600  0.436400  1.0  -0.1487
  C  C929  1  0.698400  0.493200  0.476600  1.0  -0.0671
  C  C930  1  0.035110  0.036500  0.656800  1.0  -0.1417
  C  C931  1  0.750880  0.525300  0.452900  1.0  0.1088
  C  C932  1  0.736000  0.496400  0.475900  1.0  -0.1632
  C  C933  1  0.089960  0.090700  0.729500  1.0  -0.1447
  C  C934  1  0.086460  0.081400  0.567060  1.0  -0.2281
  C  C935  1  0.086000  0.074600  0.537100  1.0  0.1937
  C  C936  1  0.687400  0.569400  0.852400  1.0  0.0061
  C  C937  1  0.697000  0.582600  0.825800  1.0  -0.0561
  C  C938  1  0.026800  0.857500  0.822270  1.0  -0.0235
  C  C939  1  0.033530  0.890900  0.849300  1.0  -0.1238
  C  C940  1  0.008700  0.802500  0.819700  1.0  -0.153
  C  C941  1  0.001300  0.811500  0.871800  1.0  -0.1687
  C  C942  1  0.748800  0.562000  0.877300  1.0  -0.1428
  C  C943  1  0.020800  0.869900  0.873080  1.0  -0.0086
  C  C944  1  0.711300  0.560500  0.876300  1.0  -0.0673
  C  C945  1  0.734900  0.585900  0.824100  1.0  -0.1335
  C  C946  1  0.994240  0.778800  0.844720  1.0  0.0646
  C  C947  1  0.761300  0.568000  0.849100  1.0  0.0367
  C  C948  1  0.974710  0.721300  0.843480  1.0  0.0265
  C  C949  1  0.860500  0.517600  0.861300  1.0  -0.1703
  C  C950  1  0.967700  0.381500  0.840200  1.0  0.0618
  C  C951  1  0.989700  0.320300  0.841200  1.0  0.0039
  C  C952  1  0.926300  0.658600  0.855720  1.0  -0.159
  C  C953  1  0.023700  0.206200  0.844600  1.0  -0.0881
  C  C954  1  0.047700  0.144700  0.844200  1.0  0.6353
  C  C955  1  0.801100  0.563500  0.846900  1.0  0.035
  C  C956  1  0.992400  0.214300  0.825630  1.0  -0.0212
  C  C957  1  0.023230  0.310300  0.861800  1.0  -0.0915
  C  C958  1  0.972000  0.271200  0.825200  1.0  -0.1557
  C  C959  1  0.982300  0.671100  0.824300  1.0  -0.1462
  C  C960  1  0.932700  0.389600  0.823600  1.0  -0.1058
  C  C961  1  0.040700  0.251800  0.863900  1.0  -0.1007
  C  C962  1  0.932100  0.497000  0.838700  1.0  0.2289
  C  C963  1  0.934200  0.610700  0.838600  1.0  0.1762
  C  C964  1  0.875700  0.556700  0.841000  1.0  0.1711
  C  C965  1  0.966000  0.492100  0.855300  1.0  -0.1661
  C  C966  1  0.914900  0.443800  0.824900  1.0  -0.1437
  C  C967  1  0.813900  0.606600  0.826100  1.0  -0.1526
  C  C968  1  0.943800  0.712400  0.858290  1.0  -0.1542
  C  C969  1  0.962800  0.617300  0.823000  1.0  -0.1686
  C  C970  1  0.984700  0.432200  0.854600  1.0  -0.1063
  C  C971  1  0.852600  0.599200  0.822800  1.0  -0.095
  C  C972  1  0.050780  0.956800  0.849400  1.0  0.6316
  C  C973  1  0.825700  0.524700  0.863800  1.0  -0.0542
  C  C974  1  0.645900  0.563300  0.854900  1.0  0.7125
  C  C975  1  0.548630  0.514600  0.754300  1.0  0.1616
  C  C976  1  0.567770  0.555700  0.709850  1.0  0.0405
  C  C977  1  0.593030  0.587600  0.759680  1.0  0.1412
  C  C978  1  0.566000  0.550700  0.675790  1.0  0.0467
  C  C979  1  0.534000  0.532700  0.625580  1.0  -0.1548
  C  C980  1  0.509700  0.336700  0.472400  1.0  -0.0039
  C  C981  1  0.174110  0.017300  0.455200  1.0  -0.0879
  C  C982  1  0.429140  0.858100  0.433180  1.0  -0.2412
  C  C983  1  0.455250  0.189900  0.444400  1.0  -0.0295
  C  C984  1  0.423400  0.966900  0.446500  1.0  0.2031
  C  C985  1  0.565240  0.544000  0.615300  1.0  0.0537
  C  C986  1  0.527320  0.689400  0.454040  1.0  -0.0722
  C  C987  1  0.514750  0.359300  0.446400  1.0  -0.1103
  C  C988  1  0.541990  0.503600  0.562150  1.0  -0.1151
  C  C989  1  0.435100  0.178900  0.465710  1.0  -0.1528
  C  C990  1  0.548100  0.632600  0.459200  1.0  0.6206
  C  C991  1  0.489610  0.686700  0.448550  1.0  -0.202
  C  C992  1  0.420570  0.079200  0.446400  1.0  0.2339
  C  C993  1  0.501560  0.333500  0.418000  1.0  -0.1077
  C  C994  1  0.469970  0.741200  0.446630  1.0  -0.0912
  C  C995  1  0.466550  0.856100  0.450300  1.0  0.0017
  C  C996  1  0.542260  0.497800  0.532090  1.0  0.0873
  C  C997  1  0.564150  0.543400  0.579610  1.0  0.02
  C  C998  1  0.484980  0.799400  0.448550  1.0  -0.0026
  C  C999  1  0.458700  0.962700  0.462100  1.0  -0.1398
  C  C1000  1  0.225000  0.051800  0.429600  1.0  -0.1539
  C  C1001  1  0.600200  0.560400  0.663380  1.0  -0.154
  C  C1002  1  0.490270  0.280300  0.471290  1.0  -0.1344
  C  C1003  1  0.459390  0.142300  0.423640  1.0  -0.1099
  C  C1004  1  0.482430  0.273800  0.419380  1.0  -0.1313
  C  C1005  1  0.477100  0.253900  0.443940  1.0  0.2733
  C  C1006  1  0.525070  0.802000  0.454230  1.0  -0.2332
  C  C1007  1  0.546250  0.508900  0.723040  1.0  -0.1909
  C  C1008  1  0.186320  0.048800  0.429600  1.0  -0.1376
  C  C1009  1  0.410500  0.913900  0.432070  1.0  -0.1173
  C  C1010  1  0.349750  0.973900  0.461900  1.0  -0.141
  C  C1011  1  0.479300  0.911400  0.463400  1.0  -0.1349
  C  C1012  1  0.544800  0.747900  0.456730  1.0  -0.096
  C  C1013  1  0.341930  0.068900  0.435400  1.0  -0.1435
  C  C1014  1  0.596090  0.557100  0.633760  1.0  -0.1345
  C  C1015  1  0.539560  0.420400  0.446800  1.0  0.636
  C  C1016  1  0.132700  0.017700  0.452400  1.0  0.6302
  C  C1017  1  0.289510  0.023800  0.451650  1.0  0.0113
  C  C1018  1  0.417880  0.123300  0.467580  1.0  -0.2008
  C  C1019  1  0.365400  0.021700  0.446900  1.0  0.2087
  C  C1020  1  0.310490  0.976100  0.465100  1.0  -0.1815
  C  C1021  1  0.442130  0.087700  0.423900  1.0  -0.2235
  C  C1022  1  0.306070  0.069600  0.436400  1.0  -0.1487
  C  C1023  1  0.198400  0.993200  0.476600  1.0  -0.0671
  C  C1024  1  0.535110  0.536500  0.656800  1.0  -0.1417
  C  C1025  1  0.250880  0.025300  0.452900  1.0  0.1088
  C  C1026  1  0.236000  0.996400  0.475900  1.0  -0.1632
  C  C1027  1  0.589960  0.590700  0.729500  1.0  -0.1447
  C  C1028  1  0.586460  0.581400  0.567060  1.0  -0.2281
  C  C1029  1  0.586000  0.574600  0.537100  1.0  0.1937
  C  C1030  1  0.187400  0.069400  0.852400  1.0  0.0061
  C  C1031  1  0.197000  0.082600  0.825800  1.0  -0.0561
  C  C1032  1  0.526800  0.357500  0.822270  1.0  -0.0235
  C  C1033  1  0.533530  0.390900  0.849300  1.0  -0.1238
  C  C1034  1  0.508700  0.302500  0.819700  1.0  -0.153
  C  C1035  1  0.501300  0.311500  0.871800  1.0  -0.1687
  C  C1036  1  0.248800  0.062000  0.877300  1.0  -0.1428
  C  C1037  1  0.520800  0.369900  0.873080  1.0  -0.0086
  C  C1038  1  0.211300  0.060500  0.876300  1.0  -0.0673
  C  C1039  1  0.234900  0.085900  0.824100  1.0  -0.1335
  C  C1040  1  0.494240  0.278800  0.844720  1.0  0.0646
  C  C1041  1  0.261300  0.068000  0.849100  1.0  0.0367
  C  C1042  1  0.474710  0.221300  0.843480  1.0  0.0265
  C  C1043  1  0.360500  0.017600  0.861300  1.0  -0.1703
  C  C1044  1  0.467700  0.881500  0.840200  1.0  0.0618
  C  C1045  1  0.489700  0.820300  0.841200  1.0  0.0039
  C  C1046  1  0.426300  0.158600  0.855720  1.0  -0.159
  C  C1047  1  0.523700  0.706200  0.844600  1.0  -0.0881
  C  C1048  1  0.547700  0.644700  0.844200  1.0  0.6353
  C  C1049  1  0.301100  0.063500  0.846900  1.0  0.035
  C  C1050  1  0.492400  0.714300  0.825630  1.0  -0.0212
  C  C1051  1  0.523230  0.810300  0.861800  1.0  -0.0915
  C  C1052  1  0.472000  0.771200  0.825200  1.0  -0.1557
  C  C1053  1  0.482300  0.171100  0.824300  1.0  -0.1462
  C  C1054  1  0.432700  0.889600  0.823600  1.0  -0.1058
  C  C1055  1  0.540700  0.751800  0.863900  1.0  -0.1007
  C  C1056  1  0.432100  0.997000  0.838700  1.0  0.2289
  C  C1057  1  0.434200  0.110700  0.838600  1.0  0.1762
  C  C1058  1  0.375700  0.056700  0.841000  1.0  0.1711
  C  C1059  1  0.466000  0.992100  0.855300  1.0  -0.1661
  C  C1060  1  0.414900  0.943800  0.824900  1.0  -0.1437
  C  C1061  1  0.313900  0.106600  0.826100  1.0  -0.1526
  C  C1062  1  0.443800  0.212400  0.858290  1.0  -0.1542
  C  C1063  1  0.462800  0.117300  0.823000  1.0  -0.1686
  C  C1064  1  0.484700  0.932200  0.854600  1.0  -0.1063
  C  C1065  1  0.352600  0.099200  0.822800  1.0  -0.095
  C  C1066  1  0.550780  0.456800  0.849400  1.0  0.6316
  C  C1067  1  0.325700  0.024700  0.863800  1.0  -0.0542
  C  C1068  1  0.145900  0.063300  0.854900  1.0  0.7125
  C  C1069  1  0.048630  0.985400  0.254300  1.0  0.1616
  C  C1070  1  0.067770  0.944300  0.209850  1.0  0.0407
  C  C1071  1  0.093030  0.912400  0.259680  1.0  0.1418
  C  C1072  1  0.066000  0.949300  0.175790  1.0  0.0464
  C  C1073  1  0.034000  0.967300  0.125580  1.0  -0.1549
  C  C1074  1  0.009700  0.163300  0.972400  1.0  -0.0046
  C  C1075  1  0.674110  0.482700  0.955200  1.0  -0.0879
  C  C1076  1  0.929140  0.641900  0.933180  1.0  -0.2417
  C  C1077  1  0.955250  0.310100  0.944400  1.0  -0.0302
  C  C1078  1  0.923400  0.533100  0.946500  1.0  0.2031
  C  C1079  1  0.065240  0.956000  0.115300  1.0  0.0541
  C  C1080  1  0.027320  0.810600  0.954040  1.0  -0.0726
  C  C1081  1  0.014750  0.140700  0.946400  1.0  -0.1101
  C  C1082  1  0.041990  0.996400  0.062150  1.0  -0.1124
  C  C1083  1  0.935100  0.321100  0.965710  1.0  -0.1532
  C  C1084  1  0.048100  0.867400  0.959200  1.0  0.6214
  C  C1085  1  0.989610  0.813300  0.948550  1.0  -0.2013
  C  C1086  1  0.920570  0.420800  0.946400  1.0  0.2338
  C  C1087  1  0.001560  0.166500  0.918000  1.0  -0.1084
  C  C1088  1  0.969970  0.758800  0.946630  1.0  -0.0907
  C  C1089  1  0.966550  0.643900  0.950300  1.0  0.0018
  C  C1090  1  0.042260  0.002200  0.032090  1.0  0.0882
  C  C1091  1  0.064150  0.956600  0.079610  1.0  0.0208
  C  C1092  1  0.984980  0.700600  0.948550  1.0  -0.0025
  C  C1093  1  0.958700  0.537300  0.962100  1.0  -0.1403
  C  C1094  1  0.725000  0.448200  0.929600  1.0  -0.1539
  C  C1095  1  0.100200  0.939600  0.163380  1.0  -0.154
  C  C1096  1  0.990270  0.219700  0.971290  1.0  -0.1342
  C  C1097  1  0.959390  0.357700  0.923640  1.0  -0.1103
  C  C1098  1  0.982430  0.226200  0.919380  1.0  -0.1313
  C  C1099  1  0.977100  0.246100  0.943940  1.0  0.274
  C  C1100  1  0.025070  0.698000  0.954230  1.0  -0.2324
  C  C1101  1  0.046250  0.991100  0.223040  1.0  -0.1917
  C  C1102  1  0.686320  0.451200  0.929600  1.0  -0.1373
  C  C1103  1  0.910500  0.586100  0.932070  1.0  -0.1183
  C  C1104  1  0.849750  0.526100  0.961900  1.0  -0.1401
  C  C1105  1  0.979300  0.588600  0.963400  1.0  -0.1347
  C  C1106  1  0.044800  0.752100  0.956730  1.0  -0.095
  C  C1107  1  0.841930  0.431100  0.935400  1.0  -0.142
  C  C1108  1  0.096090  0.942900  0.133760  1.0  -0.1346
  C  C1109  1  0.039560  0.079600  0.946800  1.0  0.6364
  C  C1110  1  0.632700  0.482300  0.952400  1.0  0.6302
  C  C1111  1  0.789510  0.476200  0.951650  1.0  0.0118
  C  C1112  1  0.917880  0.376700  0.967580  1.0  -0.2006
  C  C1113  1  0.865400  0.478300  0.946900  1.0  0.2086
  C  C1114  1  0.810490  0.523900  0.965100  1.0  -0.182
  C  C1115  1  0.942130  0.412300  0.923900  1.0  -0.2243
  C  C1116  1  0.806070  0.430400  0.936400  1.0  -0.1476
  C  C1117  1  0.698400  0.506800  0.976600  1.0  -0.0677
  C  C1118  1  0.035110  0.963500  0.156800  1.0  -0.1415
  C  C1119  1  0.750880  0.474700  0.952900  1.0  0.1091
  C  C1120  1  0.736000  0.503600  0.975900  1.0  -0.1632
  C  C1121  1  0.089960  0.909300  0.229500  1.0  -0.143
  C  C1122  1  0.086460  0.918600  0.067060  1.0  -0.2273
  C  C1123  1  0.086000  0.925400  0.037100  1.0  0.1929
  C  C1124  1  0.687400  0.430600  0.352400  1.0  0.0054
  C  C1125  1  0.697000  0.417400  0.325800  1.0  -0.0557
  C  C1126  1  0.026800  0.142500  0.322270  1.0  -0.024
  C  C1127  1  0.033530  0.109100  0.349300  1.0  -0.124
  C  C1128  1  0.008700  0.197500  0.319700  1.0  -0.1538
  C  C1129  1  0.001300  0.188500  0.371800  1.0  -0.1689
  C  C1130  1  0.748800  0.438000  0.377300  1.0  -0.1433
  C  C1131  1  0.020800  0.130100  0.373080  1.0  -0.0082
  C  C1132  1  0.711300  0.439500  0.376300  1.0  -0.0676
  C  C1133  1  0.734900  0.414100  0.324100  1.0  -0.1324
  C  C1134  1  0.994240  0.221200  0.344720  1.0  0.0647
  C  C1135  1  0.761300  0.432000  0.349100  1.0  0.0374
  C  C1136  1  0.974710  0.278700  0.343480  1.0  0.0264
  C  C1137  1  0.860500  0.482400  0.361300  1.0  -0.1708
  C  C1138  1  0.967700  0.618500  0.340200  1.0  0.0627
  C  C1139  1  0.989700  0.679700  0.341200  1.0  0.0034
  C  C1140  1  0.926300  0.341400  0.355720  1.0  -0.158
  C  C1141  1  0.023700  0.793800  0.344600  1.0  -0.0877
  C  C1142  1  0.047700  0.855300  0.344200  1.0  0.6344
  C  C1143  1  0.801100  0.436500  0.346900  1.0  0.035
  C  C1144  1  0.992400  0.785700  0.325630  1.0  -0.0207
  C  C1145  1  0.023230  0.689700  0.361800  1.0  -0.0919
  C  C1146  1  0.972000  0.728800  0.325200  1.0  -0.1556
  C  C1147  1  0.982300  0.328900  0.324300  1.0  -0.1459
  C  C1148  1  0.932700  0.610400  0.323600  1.0  -0.1055
  C  C1149  1  0.040700  0.748200  0.363900  1.0  -0.1011
  C  C1150  1  0.932100  0.503000  0.338700  1.0  0.2283
  C  C1151  1  0.934200  0.389300  0.338600  1.0  0.177
  C  C1152  1  0.875700  0.443300  0.341000  1.0  0.1715
  C  C1153  1  0.966000  0.507900  0.355300  1.0  -0.1667
  C  C1154  1  0.914900  0.556200  0.324900  1.0  -0.1424
  C  C1155  1  0.813900  0.393400  0.326100  1.0  -0.1519
  C  C1156  1  0.943800  0.287600  0.358290  1.0  -0.1542
  C  C1157  1  0.962800  0.382700  0.323000  1.0  -0.1684
  C  C1158  1  0.984700  0.567800  0.354600  1.0  -0.1068
  C  C1159  1  0.852600  0.400800  0.322800  1.0  -0.0951
  C  C1160  1  0.050780  0.043200  0.349400  1.0  0.6319
  C  C1161  1  0.825700  0.475300  0.363800  1.0  -0.0549
  C  C1162  1  0.645900  0.436700  0.354900  1.0  0.7129
  C  C1163  1  0.548630  0.485400  0.254300  1.0  0.1616
  C  C1164  1  0.567770  0.444300  0.209850  1.0  0.0407
  C  C1165  1  0.593030  0.412400  0.259680  1.0  0.1418
  C  C1166  1  0.566000  0.449300  0.175790  1.0  0.0464
  C  C1167  1  0.534000  0.467300  0.125580  1.0  -0.1549
  C  C1168  1  0.509700  0.663300  0.972400  1.0  -0.0046
  C  C1169  1  0.174110  0.982700  0.955200  1.0  -0.0879
  C  C1170  1  0.429140  0.141900  0.933180  1.0  -0.2417
  C  C1171  1  0.455250  0.810100  0.944400  1.0  -0.0302
  C  C1172  1  0.423400  0.033100  0.946500  1.0  0.2031
  C  C1173  1  0.565240  0.456000  0.115300  1.0  0.0541
  C  C1174  1  0.527320  0.310600  0.954040  1.0  -0.0726
  C  C1175  1  0.514750  0.640700  0.946400  1.0  -0.1101
  C  C1176  1  0.541990  0.496400  0.062150  1.0  -0.1124
  C  C1177  1  0.435100  0.821100  0.965710  1.0  -0.1532
  C  C1178  1  0.548100  0.367400  0.959200  1.0  0.6214
  C  C1179  1  0.489610  0.313300  0.948550  1.0  -0.2013
  C  C1180  1  0.420570  0.920800  0.946400  1.0  0.2338
  C  C1181  1  0.501560  0.666500  0.918000  1.0  -0.1084
  C  C1182  1  0.469970  0.258800  0.946630  1.0  -0.0907
  C  C1183  1  0.466550  0.143900  0.950300  1.0  0.0018
  C  C1184  1  0.542260  0.502200  0.032090  1.0  0.0882
  C  C1185  1  0.564150  0.456600  0.079610  1.0  0.0208
  C  C1186  1  0.484980  0.200600  0.948550  1.0  -0.0025
  C  C1187  1  0.458700  0.037300  0.962100  1.0  -0.1403
  C  C1188  1  0.225000  0.948200  0.929600  1.0  -0.1539
  C  C1189  1  0.600200  0.439600  0.163380  1.0  -0.154
  C  C1190  1  0.490270  0.719700  0.971290  1.0  -0.1342
  C  C1191  1  0.459390  0.857700  0.923640  1.0  -0.1103
  C  C1192  1  0.482430  0.726200  0.919380  1.0  -0.1313
  C  C1193  1  0.477100  0.746100  0.943940  1.0  0.274
  C  C1194  1  0.525070  0.198000  0.954230  1.0  -0.2324
  C  C1195  1  0.546250  0.491100  0.223040  1.0  -0.1917
  C  C1196  1  0.186320  0.951200  0.929600  1.0  -0.1373
  C  C1197  1  0.410500  0.086100  0.932070  1.0  -0.1183
  C  C1198  1  0.349750  0.026100  0.961900  1.0  -0.1401
  C  C1199  1  0.479300  0.088600  0.963400  1.0  -0.1347
  C  C1200  1  0.544800  0.252100  0.956730  1.0  -0.095
  C  C1201  1  0.341930  0.931100  0.935400  1.0  -0.142
  C  C1202  1  0.596090  0.442900  0.133760  1.0  -0.1346
  C  C1203  1  0.539560  0.579600  0.946800  1.0  0.6364
  C  C1204  1  0.132700  0.982300  0.952400  1.0  0.6302
  C  C1205  1  0.289510  0.976200  0.951650  1.0  0.0118
  C  C1206  1  0.417880  0.876700  0.967580  1.0  -0.2006
  C  C1207  1  0.365400  0.978300  0.946900  1.0  0.2086
  C  C1208  1  0.310490  0.023900  0.965100  1.0  -0.182
  C  C1209  1  0.442130  0.912300  0.923900  1.0  -0.2243
  C  C1210  1  0.306070  0.930400  0.936400  1.0  -0.1476
  C  C1211  1  0.198400  0.006800  0.976600  1.0  -0.0677
  C  C1212  1  0.535110  0.463500  0.156800  1.0  -0.1415
  C  C1213  1  0.250880  0.974700  0.952900  1.0  0.1091
  C  C1214  1  0.236000  0.003600  0.975900  1.0  -0.1632
  C  C1215  1  0.589960  0.409300  0.229500  1.0  -0.143
  C  C1216  1  0.586460  0.418600  0.067060  1.0  -0.2273
  C  C1217  1  0.586000  0.425400  0.037100  1.0  0.1929
  C  C1218  1  0.187400  0.930600  0.352400  1.0  0.0054
  C  C1219  1  0.197000  0.917400  0.325800  1.0  -0.0557
  C  C1220  1  0.526800  0.642500  0.322270  1.0  -0.024
  C  C1221  1  0.533530  0.609100  0.349300  1.0  -0.124
  C  C1222  1  0.508700  0.697500  0.319700  1.0  -0.1538
  C  C1223  1  0.501300  0.688500  0.371800  1.0  -0.1689
  C  C1224  1  0.248800  0.938000  0.377300  1.0  -0.1433
  C  C1225  1  0.520800  0.630100  0.373080  1.0  -0.0082
  C  C1226  1  0.211300  0.939500  0.376300  1.0  -0.0676
  C  C1227  1  0.234900  0.914100  0.324100  1.0  -0.1324
  C  C1228  1  0.494240  0.721200  0.344720  1.0  0.0647
  C  C1229  1  0.261300  0.932000  0.349100  1.0  0.0374
  C  C1230  1  0.474710  0.778700  0.343480  1.0  0.0264
  C  C1231  1  0.360500  0.982400  0.361300  1.0  -0.1708
  C  C1232  1  0.467700  0.118500  0.340200  1.0  0.0627
  C  C1233  1  0.489700  0.179700  0.341200  1.0  0.0034
  C  C1234  1  0.426300  0.841400  0.355720  1.0  -0.158
  C  C1235  1  0.523700  0.293800  0.344600  1.0  -0.0877
  C  C1236  1  0.547700  0.355300  0.344200  1.0  0.6344
  C  C1237  1  0.301100  0.936500  0.346900  1.0  0.035
  C  C1238  1  0.492400  0.285700  0.325630  1.0  -0.0207
  C  C1239  1  0.523230  0.189700  0.361800  1.0  -0.0919
  C  C1240  1  0.472000  0.228800  0.325200  1.0  -0.1556
  C  C1241  1  0.482300  0.828900  0.324300  1.0  -0.1459
  C  C1242  1  0.432700  0.110400  0.323600  1.0  -0.1055
  C  C1243  1  0.540700  0.248200  0.363900  1.0  -0.1011
  C  C1244  1  0.432100  0.003000  0.338700  1.0  0.2283
  C  C1245  1  0.434200  0.889300  0.338600  1.0  0.177
  C  C1246  1  0.375700  0.943300  0.341000  1.0  0.1715
  C  C1247  1  0.466000  0.007900  0.355300  1.0  -0.1667
  C  C1248  1  0.414900  0.056200  0.324900  1.0  -0.1424
  C  C1249  1  0.313900  0.893400  0.326100  1.0  -0.1519
  C  C1250  1  0.443800  0.787600  0.358290  1.0  -0.1542
  C  C1251  1  0.462800  0.882700  0.323000  1.0  -0.1684
  C  C1252  1  0.484700  0.067800  0.354600  1.0  -0.1068
  C  C1253  1  0.352600  0.900800  0.322800  1.0  -0.0951
  C  C1254  1  0.550780  0.543200  0.349400  1.0  0.6319
  C  C1255  1  0.325700  0.975300  0.363800  1.0  -0.0549
  C  C1256  1  0.145900  0.936700  0.354900  1.0  0.7129
  N  N1257  1  0.928780  0.050400  0.725840  1.0  -0.2319
  N  N1258  1  0.096200  0.523500  0.052650  1.0  -0.0981
  N  N1259  1  0.934480  0.036300  0.980900  1.0  -0.3485
  N  N1260  1  0.086460  0.554400  0.661320  1.0  -0.1474
  N  N1261  1  0.428780  0.550400  0.725840  1.0  -0.2319
  N  N1262  1  0.596200  0.023500  0.052650  1.0  -0.0981
  N  N1263  1  0.434480  0.536300  0.980900  1.0  -0.3485
  N  N1264  1  0.586460  0.054400  0.661320  1.0  -0.1474
  N  N1265  1  0.928780  0.949600  0.225840  1.0  -0.2318
  N  N1266  1  0.096200  0.476500  0.552650  1.0  -0.0979
  N  N1267  1  0.934480  0.963700  0.480900  1.0  -0.3495
  N  N1268  1  0.086460  0.445600  0.161320  1.0  -0.1475
  N  N1269  1  0.428780  0.449600  0.225840  1.0  -0.2318
  N  N1270  1  0.596200  0.976500  0.552650  1.0  -0.0979
  N  N1271  1  0.434480  0.463700  0.480900  1.0  -0.3495
  N  N1272  1  0.586460  0.945600  0.161320  1.0  -0.1475
  N  N1273  1  0.071220  0.050400  0.774160  1.0  -0.2316
  N  N1274  1  0.903800  0.523500  0.447350  1.0  -0.0992
  N  N1275  1  0.065520  0.036300  0.519100  1.0  -0.348
  N  N1276  1  0.913540  0.554400  0.838680  1.0  -0.1471
  N  N1277  1  0.571220  0.550400  0.774160  1.0  -0.2316
  N  N1278  1  0.403800  0.023500  0.447350  1.0  -0.0992
  N  N1279  1  0.565520  0.536300  0.519100  1.0  -0.348
  N  N1280  1  0.413540  0.054400  0.838680  1.0  -0.1471
  N  N1281  1  0.071220  0.949600  0.274160  1.0  -0.2315
  N  N1282  1  0.903800  0.476500  0.947350  1.0  -0.0992
  N  N1283  1  0.065520  0.963700  0.019100  1.0  -0.3469
  N  N1284  1  0.913540  0.445600  0.338680  1.0  -0.1471
  N  N1285  1  0.571220  0.449600  0.274160  1.0  -0.2315
  N  N1286  1  0.403800  0.976500  0.947350  1.0  -0.0992
  N  N1287  1  0.565520  0.463700  0.019100  1.0  -0.3469
  N  N1288  1  0.413540  0.945600  0.338680  1.0  -0.1471
  O  O1289  1  0.967180  0.081000  0.046240  1.0  -0.5817
  O  O1290  1  0.948520  0.941400  0.028250  1.0  -0.5798
  O  O1291  1  0.916710  0.134950  0.029180  1.0  -0.6286
  O  O1292  1  0.389740  0.520700  0.070080  1.0  -0.6263
  O  O1293  1  0.956250  0.936500  0.079430  1.0  -0.5992
  O  O1294  1  0.374560  0.511700  0.019610  1.0  -0.5793
  O  O1295  1  0.941640  0.973200  0.677450  1.0  -0.5797
  O  O1296  1  0.942490  0.983100  0.626580  1.0  -0.5924
  O  O1297  1  0.963980  0.114500  0.677500  1.0  -0.5764
  O  O1298  1  0.363880  0.547600  0.623210  1.0  -0.6309
  O  O1299  1  0.374760  0.574200  0.671060  1.0  -0.5998
  O  O1300  1  0.931540  0.128700  0.629910  1.0  -0.6534
  O  O1301  1  0.467180  0.581000  0.046240  1.0  -0.5817
  O  O1302  1  0.448520  0.441400  0.028250  1.0  -0.5798
  O  O1303  1  0.416710  0.634950  0.029180  1.0  -0.6286
  O  O1304  1  0.889740  0.020700  0.070080  1.0  -0.6263
  O  O1305  1  0.456250  0.436500  0.079430  1.0  -0.5992
  O  O1306  1  0.874560  0.011700  0.019610  1.0  -0.5793
  O  O1307  1  0.441640  0.473200  0.677450  1.0  -0.5797
  O  O1308  1  0.442490  0.483100  0.626580  1.0  -0.5924
  O  O1309  1  0.463980  0.614500  0.677500  1.0  -0.5764
  O  O1310  1  0.863880  0.047600  0.623210  1.0  -0.6309
  O  O1311  1  0.874760  0.074200  0.671060  1.0  -0.5997
  O  O1312  1  0.431540  0.628700  0.629910  1.0  -0.6534
  O  O1313  1  0.967180  0.919000  0.546240  1.0  -0.5817
  O  O1314  1  0.948520  0.058600  0.528250  1.0  -0.579
  O  O1315  1  0.916710  0.865050  0.529180  1.0  -0.6275
  O  O1316  1  0.389740  0.479300  0.570080  1.0  -0.6254
  O  O1317  1  0.956250  0.063500  0.579430  1.0  -0.599
  O  O1318  1  0.374560  0.488300  0.519610  1.0  -0.5797
  O  O1319  1  0.941640  0.026800  0.177450  1.0  -0.5796
  O  O1320  1  0.942490  0.016900  0.126580  1.0  -0.5921
  O  O1321  1  0.963980  0.885500  0.177500  1.0  -0.5761
  O  O1322  1  0.363880  0.452400  0.123210  1.0  -0.6311
  O  O1323  1  0.374760  0.425800  0.171060  1.0  -0.5996
  O  O1324  1  0.931540  0.871300  0.129910  1.0  -0.6534
  O  O1325  1  0.467180  0.419000  0.546240  1.0  -0.5817
  O  O1326  1  0.448520  0.558600  0.528250  1.0  -0.579
  O  O1327  1  0.416710  0.365050  0.529180  1.0  -0.6275
  O  O1328  1  0.889740  0.979300  0.570080  1.0  -0.6254
  O  O1329  1  0.456250  0.563500  0.579430  1.0  -0.599
  O  O1330  1  0.874560  0.988300  0.519610  1.0  -0.5797
  O  O1331  1  0.441640  0.526800  0.177450  1.0  -0.5796
  O  O1332  1  0.442490  0.516900  0.126580  1.0  -0.5921
  O  O1333  1  0.463980  0.385500  0.177500  1.0  -0.5761
  O  O1334  1  0.863880  0.952400  0.123210  1.0  -0.6311
  O  O1335  1  0.874760  0.925800  0.171060  1.0  -0.5995
  O  O1336  1  0.431540  0.371300  0.129910  1.0  -0.6534
  O  O1337  1  0.032820  0.081000  0.453760  1.0  -0.5819
  O  O1338  1  0.051480  0.941400  0.471750  1.0  -0.5778
  O  O1339  1  0.083290  0.134950  0.470820  1.0  -0.6245
  O  O1340  1  0.610260  0.520700  0.429920  1.0  -0.6258
  O  O1341  1  0.043750  0.936500  0.420570  1.0  -0.6001
  O  O1342  1  0.625440  0.511700  0.480390  1.0  -0.5805
  O  O1343  1  0.058360  0.973200  0.822550  1.0  -0.5791
  O  O1344  1  0.057510  0.983100  0.873420  1.0  -0.5918
  O  O1345  1  0.036020  0.114500  0.822500  1.0  -0.5733
  O  O1346  1  0.636120  0.547600  0.876790  1.0  -0.6303
  O  O1347  1  0.625240  0.574200  0.828940  1.0  -0.6006
  O  O1348  1  0.068460  0.128700  0.870090  1.0  -0.6535
  O  O1349  1  0.532820  0.581000  0.453760  1.0  -0.5819
  O  O1350  1  0.551480  0.441400  0.471750  1.0  -0.5778
  O  O1351  1  0.583290  0.634950  0.470820  1.0  -0.6245
  O  O1352  1  0.110260  0.020700  0.429920  1.0  -0.6258
  O  O1353  1  0.543750  0.436500  0.420570  1.0  -0.6001
  O  O1354  1  0.125440  0.011700  0.480390  1.0  -0.5805
  O  O1355  1  0.558360  0.473200  0.822550  1.0  -0.5791
  O  O1356  1  0.557510  0.483100  0.873420  1.0  -0.5918
  O  O1357  1  0.536020  0.614500  0.822500  1.0  -0.5733
  O  O1358  1  0.136120  0.047600  0.876790  1.0  -0.6303
  O  O1359  1  0.125240  0.074200  0.828940  1.0  -0.6006
  O  O1360  1  0.568460  0.628700  0.870090  1.0  -0.6535
  O  O1361  1  0.032820  0.919000  0.953760  1.0  -0.5817
  O  O1362  1  0.051480  0.058600  0.971750  1.0  -0.5776
  O  O1363  1  0.083290  0.865050  0.970820  1.0  -0.6248
  O  O1364  1  0.610260  0.479300  0.929920  1.0  -0.6264
  O  O1365  1  0.043750  0.063500  0.920570  1.0  -0.5997
  O  O1366  1  0.625440  0.488300  0.980390  1.0  -0.5811
  O  O1367  1  0.058360  0.026800  0.322550  1.0  -0.5796
  O  O1368  1  0.057510  0.016900  0.373420  1.0  -0.5925
  O  O1369  1  0.036020  0.885500  0.322500  1.0  -0.5734
  O  O1370  1  0.636120  0.452400  0.376790  1.0  -0.6299
  O  O1371  1  0.625240  0.425800  0.328940  1.0  -0.6008
  O  O1372  1  0.068460  0.871300  0.370090  1.0  -0.6534
  O  O1373  1  0.532820  0.419000  0.953760  1.0  -0.5817
  O  O1374  1  0.551480  0.558600  0.971750  1.0  -0.5776
  O  O1375  1  0.583290  0.365050  0.970820  1.0  -0.6248
  O  O1376  1  0.110260  0.979300  0.929920  1.0  -0.6264
  O  O1377  1  0.543750  0.563500  0.920570  1.0  -0.5997
  O  O1378  1  0.125440  0.988300  0.980390  1.0  -0.5811
  O  O1379  1  0.558360  0.526800  0.322550  1.0  -0.5796
  O  O1380  1  0.557510  0.516900  0.373420  1.0  -0.5925
  O  O1381  1  0.536020  0.385500  0.322500  1.0  -0.5734
  O  O1382  1  0.136120  0.952400  0.376790  1.0  -0.6299
  O  O1383  1  0.125240  0.925800  0.328940  1.0  -0.6008
  O  O1384  1  0.568460  0.371300  0.370090  1.0  -0.6534
