# generated using pymatgen
data_NiH26C22(NO3)2
_symmetry_space_group_name_H-M   'P 1'
_cell_length_a   28.40000000
_cell_length_b   28.40000000
_cell_length_c   28.40000000
_cell_angle_alpha   90.00000000
_cell_angle_beta   90.00000000
_cell_angle_gamma   90.00000000
_symmetry_Int_Tables_number   1
_chemical_formula_structural   NiH26C22(NO3)2
_chemical_formula_sum   'Ni24 H624 C528 N48 O144'
_cell_volume   22906.30400000
_cell_formula_units_Z   24
loop_
 _symmetry_equiv_pos_site_id
 _symmetry_equiv_pos_as_xyz
  1  'x, y, z'
loop_
 _atom_site_type_symbol
 _atom_site_label
 _atom_site_symmetry_multiplicity
 _atom_site_fract_x
 _atom_site_fract_y
 _atom_site_fract_z
 _atom_site_occupancy
 _atom_site_charge
  Ni  Ni1  1  0.399000  0.851000  0.125000  1.0  0.7342
  Ni  Ni2  1  0.101000  0.149000  0.625000  1.0  0.7369
  Ni  Ni3  1  0.601000  0.351000  0.375000  1.0  0.7361
  Ni  Ni4  1  0.899000  0.649000  0.875000  1.0  0.7341
  Ni  Ni5  1  0.125000  0.399000  0.851000  1.0  0.7377
  Ni  Ni6  1  0.625000  0.101000  0.149000  1.0  0.738
  Ni  Ni7  1  0.375000  0.601000  0.351000  1.0  0.7386
  Ni  Ni8  1  0.875000  0.899000  0.649000  1.0  0.7368
  Ni  Ni9  1  0.851000  0.125000  0.399000  1.0  0.7345
  Ni  Ni10  1  0.149000  0.625000  0.101000  1.0  0.7355
  Ni  Ni11  1  0.351000  0.375000  0.601000  1.0  0.7369
  Ni  Ni12  1  0.649000  0.875000  0.899000  1.0  0.7341
  Ni  Ni13  1  0.601000  0.649000  0.125000  1.0  0.7349
  Ni  Ni14  1  0.899000  0.351000  0.625000  1.0  0.7356
  Ni  Ni15  1  0.101000  0.851000  0.875000  1.0  0.7341
  Ni  Ni16  1  0.399000  0.149000  0.375000  1.0  0.7356
  Ni  Ni17  1  0.149000  0.375000  0.399000  1.0  0.7356
  Ni  Ni18  1  0.851000  0.875000  0.101000  1.0  0.735
  Ni  Ni19  1  0.351000  0.625000  0.899000  1.0  0.7364
  Ni  Ni20  1  0.649000  0.125000  0.601000  1.0  0.734
  Ni  Ni21  1  0.875000  0.101000  0.851000  1.0  0.7371
  Ni  Ni22  1  0.375000  0.399000  0.149000  1.0  0.7381
  Ni  Ni23  1  0.125000  0.601000  0.649000  1.0  0.7367
  Ni  Ni24  1  0.625000  0.899000  0.351000  1.0  0.7391
  H  H25  1  0.498800  0.891000  0.022400  1.0  0.1164
  H  H26  1  0.290900  0.873100  0.171700  1.0  0.1029
  H  H27  1  0.267900  0.924400  0.175300  1.0  0.1089
  H  H28  1  0.305600  0.907700  0.213600  1.0  0.1089
  H  H29  1  0.349300  0.991500  0.166700  1.0  0.104
  H  H30  1  0.330900  0.962500  0.211300  1.0  0.1278
  H  H31  1  0.294500  0.979600  0.171900  1.0  0.1013
  H  H32  1  0.417800  0.744500  0.121500  1.0  0.1101
  H  H33  1  0.438500  0.688600  0.068900  1.0  0.0909
  H  H34  1  0.446500  0.702900  0.993300  1.0  0.1091
  H  H35  1  0.437800  0.781100  0.967700  1.0  0.113
  H  H36  1  0.418600  0.840300  0.020900  1.0  0.1216
  H  H37  1  0.399200  0.920600  0.149100  1.0  0.3188
  H  H38  1  0.001200  0.109000  0.522400  1.0  0.1166
  H  H39  1  0.209100  0.126900  0.671700  1.0  0.1037
  H  H40  1  0.232100  0.075600  0.675300  1.0  0.1093
  H  H41  1  0.194400  0.092300  0.713600  1.0  0.1093
  H  H42  1  0.150700  0.008500  0.666667  1.0  0.1059
  H  H43  1  0.169100  0.037500  0.711300  1.0  0.1269
  H  H44  1  0.205500  0.020400  0.671900  1.0  0.1091
  H  H45  1  0.082200  0.255500  0.621500  1.0  0.1106
  H  H46  1  0.061500  0.311400  0.568900  1.0  0.0908
  H  H47  1  0.053500  0.297100  0.493300  1.0  0.109
  H  H48  1  0.062200  0.218900  0.467700  1.0  0.1128
  H  H49  1  0.081400  0.159700  0.520900  1.0  0.1212
  H  H50  1  0.100800  0.079400  0.649100  1.0  0.3193
  H  H51  1  0.501200  0.391000  0.477600  1.0  0.1163
  H  H52  1  0.709100  0.373100  0.328300  1.0  0.1034
  H  H53  1  0.732100  0.424400  0.324700  1.0  0.1101
  H  H54  1  0.694400  0.407700  0.286400  1.0  0.1065
  H  H55  1  0.650700  0.491500  0.333333  1.0  0.1068
  H  H56  1  0.669100  0.462500  0.288700  1.0  0.126
  H  H57  1  0.705500  0.479600  0.328100  1.0  0.108
  H  H58  1  0.582200  0.244500  0.378500  1.0  0.1108
  H  H59  1  0.561500  0.188600  0.431100  1.0  0.0908
  H  H60  1  0.553500  0.202900  0.506700  1.0  0.1091
  H  H61  1  0.562200  0.281100  0.532300  1.0  0.1132
  H  H62  1  0.581400  0.340300  0.479100  1.0  0.1203
  H  H63  1  0.600800  0.420600  0.350900  1.0  0.319
  H  H64  1  0.998800  0.609000  0.977600  1.0  0.1164
  H  H65  1  0.790900  0.626900  0.828300  1.0  0.1029
  H  H66  1  0.767900  0.575600  0.824700  1.0  0.1068
  H  H67  1  0.805600  0.592300  0.786400  1.0  0.106
  H  H68  1  0.849300  0.508500  0.833300  1.0  0.1036
  H  H69  1  0.830900  0.537500  0.788700  1.0  0.1248
  H  H70  1  0.794500  0.520400  0.828100  1.0  0.1053
  H  H71  1  0.917800  0.755500  0.878500  1.0  0.1104
  H  H72  1  0.938500  0.811400  0.931100  1.0  0.0908
  H  H73  1  0.946500  0.797100  0.006700  1.0  0.1094
  H  H74  1  0.937800  0.718900  0.032300  1.0  0.1136
  H  H75  1  0.918600  0.659700  0.979100  1.0  0.1207
  H  H76  1  0.899200  0.579400  0.850900  1.0  0.319
  H  H77  1  0.022400  0.498800  0.891000  1.0  0.1186
  H  H78  1  0.171700  0.290900  0.873100  1.0  0.1029
  H  H79  1  0.175300  0.267900  0.924400  1.0  0.1104
  H  H80  1  0.213600  0.305600  0.907700  1.0  0.1044
  H  H81  1  0.166700  0.349300  0.991500  1.0  0.1004
  H  H82  1  0.211300  0.330900  0.962500  1.0  0.128
  H  H83  1  0.171900  0.294500  0.979600  1.0  0.1051
  H  H84  1  0.121500  0.417800  0.744500  1.0  0.1096
  H  H85  1  0.068900  0.438500  0.688600  1.0  0.0908
  H  H86  1  0.993300  0.446500  0.702900  1.0  0.1088
  H  H87  1  0.967700  0.437800  0.781100  1.0  0.1118
  H  H88  1  0.020900  0.418600  0.840300  1.0  0.1217
  H  H89  1  0.149100  0.399200  0.920600  1.0  0.3178
  H  H90  1  0.522400  0.001200  0.109000  1.0  0.1186
  H  H91  1  0.671700  0.209100  0.126900  1.0  0.1
  H  H92  1  0.675300  0.232100  0.075600  1.0  0.1064
  H  H93  1  0.713600  0.194400  0.092300  1.0  0.1064
  H  H94  1  0.666667  0.150700  0.008500  1.0  0.1035
  H  H95  1  0.711300  0.169100  0.037500  1.0  0.1255
  H  H96  1  0.671900  0.205500  0.020400  1.0  0.1059
  H  H97  1  0.621500  0.082200  0.255500  1.0  0.1093
  H  H98  1  0.568900  0.061500  0.311400  1.0  0.0899
  H  H99  1  0.493300  0.053500  0.297100  1.0  0.1087
  H  H100  1  0.467700  0.062200  0.218900  1.0  0.1118
  H  H101  1  0.520900  0.081400  0.159700  1.0  0.1219
  H  H102  1  0.649100  0.100800  0.079400  1.0  0.3185
  H  H103  1  0.477600  0.501200  0.391000  1.0  0.1189
  H  H104  1  0.328300  0.709100  0.373100  1.0  0.1038
  H  H105  1  0.324700  0.732100  0.424400  1.0  0.1083
  H  H106  1  0.286400  0.694400  0.407700  1.0  0.1024
  H  H107  1  0.333333  0.650700  0.491500  1.0  0.1039
  H  H108  1  0.288700  0.669100  0.462500  1.0  0.1233
  H  H109  1  0.328100  0.705500  0.479600  1.0  0.1087
  H  H110  1  0.378500  0.582200  0.244500  1.0  0.1098
  H  H111  1  0.431100  0.561500  0.188600  1.0  0.0905
  H  H112  1  0.506700  0.553500  0.202900  1.0  0.1091
  H  H113  1  0.532300  0.562200  0.281100  1.0  0.1135
  H  H114  1  0.479100  0.581400  0.340300  1.0  0.1212
  H  H115  1  0.350900  0.600800  0.420600  1.0  0.3209
  H  H116  1  0.977600  0.998800  0.609000  1.0  0.1188
  H  H117  1  0.828300  0.790900  0.626900  1.0  0.1018
  H  H118  1  0.824700  0.767900  0.575600  1.0  0.1106
  H  H119  1  0.786400  0.805600  0.592300  1.0  0.1017
  H  H120  1  0.833300  0.849300  0.508500  1.0  0.1012
  H  H121  1  0.788700  0.830900  0.537500  1.0  0.1244
  H  H122  1  0.828100  0.794500  0.520400  1.0  0.1088
  H  H123  1  0.878500  0.917800  0.755500  1.0  0.1094
  H  H124  1  0.931100  0.938500  0.811400  1.0  0.0897
  H  H125  1  0.006700  0.946500  0.797100  1.0  0.1091
  H  H126  1  0.032300  0.937800  0.718900  1.0  0.1147
  H  H127  1  0.979100  0.918600  0.659700  1.0  0.1222
  H  H128  1  0.850900  0.899200  0.579400  1.0  0.3201
  H  H129  1  0.891000  0.022400  0.498800  1.0  0.1176
  H  H130  1  0.873100  0.171700  0.290900  1.0  0.0949
  H  H131  1  0.924400  0.175300  0.267900  1.0  0.1108
  H  H132  1  0.907700  0.213600  0.305600  1.0  0.1033
  H  H133  1  0.991500  0.166700  0.349300  1.0  0.1023
  H  H134  1  0.962500  0.211300  0.330900  1.0  0.1179
  H  H135  1  0.979600  0.171900  0.294500  1.0  0.1061
  H  H136  1  0.744500  0.121500  0.417800  1.0  0.1099
  H  H137  1  0.688600  0.068900  0.438500  1.0  0.0916
  H  H138  1  0.702900  0.993300  0.446500  1.0  0.1097
  H  H139  1  0.781100  0.967700  0.437800  1.0  0.1154
  H  H140  1  0.840300  0.020900  0.418600  1.0  0.1201
  H  H141  1  0.920600  0.149100  0.399200  1.0  0.3203
  H  H142  1  0.109000  0.522400  0.001200  1.0  0.118
  H  H143  1  0.126900  0.671700  0.209100  1.0  0.0978
  H  H144  1  0.075600  0.675300  0.232100  1.0  0.1111
  H  H145  1  0.092300  0.713600  0.194400  1.0  0.1026
  H  H146  1  0.008500  0.666667  0.150700  1.0  0.1056
  H  H147  1  0.037500  0.711300  0.169100  1.0  0.1171
  H  H148  1  0.020400  0.671900  0.205500  1.0  0.1119
  H  H149  1  0.255500  0.621500  0.082200  1.0  0.1095
  H  H150  1  0.311400  0.568900  0.061500  1.0  0.0918
  H  H151  1  0.297100  0.493300  0.053500  1.0  0.1097
  H  H152  1  0.218900  0.467700  0.062200  1.0  0.1153
  H  H153  1  0.159700  0.520900  0.081400  1.0  0.1203
  H  H154  1  0.079400  0.649100  0.100800  1.0  0.3229
  H  H155  1  0.391000  0.477600  0.501200  1.0  0.1174
  H  H156  1  0.373100  0.328300  0.709100  1.0  0.0994
  H  H157  1  0.424400  0.324700  0.732100  1.0  0.1127
  H  H158  1  0.407700  0.286400  0.694400  1.0  0.1013
  H  H159  1  0.491500  0.333333  0.650700  1.0  0.1046
  H  H160  1  0.462500  0.288700  0.669100  1.0  0.119
  H  H161  1  0.479600  0.328100  0.705500  1.0  0.111
  H  H162  1  0.244500  0.378500  0.582200  1.0  0.1097
  H  H163  1  0.188600  0.431100  0.561500  1.0  0.0914
  H  H164  1  0.202900  0.506700  0.553500  1.0  0.1094
  H  H165  1  0.281100  0.532300  0.562200  1.0  0.114
  H  H166  1  0.340300  0.479100  0.581400  1.0  0.1199
  H  H167  1  0.420600  0.350900  0.600800  1.0  0.3211
  H  H168  1  0.609000  0.977600  0.998800  1.0  0.1177
  H  H169  1  0.626900  0.828300  0.790900  1.0  0.0973
  H  H170  1  0.575600  0.824700  0.767900  1.0  0.11
  H  H171  1  0.592300  0.786400  0.805600  1.0  0.1044
  H  H172  1  0.508500  0.833300  0.849300  1.0  0.1026
  H  H173  1  0.537500  0.788700  0.830900  1.0  0.119
  H  H174  1  0.520400  0.828100  0.794500  1.0  0.1083
  H  H175  1  0.755500  0.878500  0.917800  1.0  0.1101
  H  H176  1  0.811400  0.931100  0.938500  1.0  0.0921
  H  H177  1  0.797100  0.006700  0.946500  1.0  0.1097
  H  H178  1  0.718900  0.032300  0.937800  1.0  0.1139
  H  H179  1  0.659700  0.979100  0.918600  1.0  0.1188
  H  H180  1  0.579400  0.850900  0.899200  1.0  0.3209
  H  H181  1  0.141000  0.248800  0.727600  1.0  0.1159
  H  H182  1  0.123100  0.040900  0.578300  1.0  0.0965
  H  H183  1  0.174400  0.017900  0.574700  1.0  0.1123
  H  H184  1  0.157700  0.055600  0.536400  1.0  0.1044
  H  H185  1  0.241500  0.099300  0.583300  1.0  0.1034
  H  H186  1  0.212500  0.080900  0.538700  1.0  0.1256
  H  H187  1  0.229600  0.044500  0.578100  1.0  0.1075
  H  H188  1  0.994500  0.167800  0.628500  1.0  0.1109
  H  H189  1  0.938600  0.188500  0.681100  1.0  0.0911
  H  H190  1  0.952900  0.196500  0.756700  1.0  0.109
  H  H191  1  0.031100  0.187800  0.782300  1.0  0.1136
  H  H192  1  0.090300  0.168600  0.729100  1.0  0.1208
  H  H193  1  0.170600  0.149200  0.600900  1.0  0.3197
  H  H194  1  0.359000  0.751200  0.227600  1.0  0.1161
  H  H195  1  0.376900  0.959100  0.078300  1.0  0.0983
  H  H196  1  0.325600  0.982100  0.074700  1.0  0.1096
  H  H197  1  0.342300  0.944400  0.036400  1.0  0.1057
  H  H198  1  0.258500  0.900700  0.083300  1.0  0.1018
  H  H199  1  0.287500  0.919100  0.038700  1.0  0.1246
  H  H200  1  0.270400  0.955500  0.078100  1.0  0.1017
  H  H201  1  0.505500  0.832200  0.128500  1.0  0.1109
  H  H202  1  0.561400  0.811500  0.181100  1.0  0.0921
  H  H203  1  0.547100  0.803500  0.256700  1.0  0.1095
  H  H204  1  0.468900  0.812200  0.282300  1.0  0.1151
  H  H205  1  0.409700  0.831400  0.229100  1.0  0.1204
  H  H206  1  0.329400  0.850800  0.100900  1.0  0.3204
  H  H207  1  0.641000  0.251200  0.272400  1.0  0.1165
  H  H208  1  0.623100  0.459100  0.421700  1.0  0.0962
  H  H209  1  0.674400  0.482100  0.425300  1.0  0.1103
  H  H210  1  0.657700  0.444400  0.463600  1.0  0.1091
  H  H211  1  0.741500  0.400700  0.416700  1.0  0.1025
  H  H212  1  0.712500  0.419100  0.461300  1.0  0.1273
  H  H213  1  0.729600  0.455500  0.421900  1.0  0.1053
  H  H214  1  0.494500  0.332200  0.371500  1.0  0.1103
  H  H215  1  0.438600  0.311500  0.318900  1.0  0.0914
  H  H216  1  0.452900  0.303500  0.243300  1.0  0.1086
  H  H217  1  0.531100  0.312200  0.217700  1.0  0.1144
  H  H218  1  0.590300  0.331400  0.270900  1.0  0.1222
  H  H219  1  0.670600  0.350800  0.399100  1.0  0.3197
  H  H220  1  0.859000  0.748800  0.772400  1.0  0.116
  H  H221  1  0.876900  0.540900  0.921700  1.0  0.098
  H  H222  1  0.825600  0.517900  0.925300  1.0  0.1108
  H  H223  1  0.842300  0.555600  0.963600  1.0  0.1087
  H  H224  1  0.758500  0.599300  0.916700  1.0  0.104
  H  H225  1  0.787500  0.580900  0.961300  1.0  0.1274
  H  H226  1  0.770400  0.544500  0.921900  1.0  0.1074
  H  H227  1  0.005500  0.667800  0.871500  1.0  0.1107
  H  H228  1  0.061400  0.688500  0.818900  1.0  0.0917
  H  H229  1  0.047100  0.696500  0.743300  1.0  0.1093
  H  H230  1  0.968900  0.687800  0.717700  1.0  0.1136
  H  H231  1  0.909700  0.668600  0.770900  1.0  0.1212
  H  H232  1  0.829400  0.649200  0.899100  1.0  0.3201
  H  H233  1  0.748800  0.772400  0.859000  1.0  0.1185
  H  H234  1  0.540900  0.921700  0.876900  1.0  0.0989
  H  H235  1  0.517900  0.925300  0.825600  1.0  0.1063
  H  H236  1  0.555600  0.963600  0.842300  1.0  0.1016
  H  H237  1  0.599300  0.916700  0.758500  1.0  0.1008
  H  H238  1  0.580900  0.961300  0.787500  1.0  0.12
  H  H239  1  0.544500  0.921900  0.770400  1.0  0.1063
  H  H240  1  0.667800  0.871500  0.005500  1.0  0.1091
  H  H241  1  0.688500  0.818900  0.061400  1.0  0.0896
  H  H242  1  0.696500  0.743300  0.047100  1.0  0.1092
  H  H243  1  0.687800  0.717700  0.968900  1.0  0.1157
  H  H244  1  0.668600  0.770900  0.909700  1.0  0.1218
  H  H245  1  0.649200  0.899100  0.829400  1.0  0.3203
  H  H246  1  0.251200  0.272400  0.641000  1.0  0.1182
  H  H247  1  0.459100  0.421700  0.623100  1.0  0.1015
  H  H248  1  0.482100  0.425300  0.674400  1.0  0.1098
  H  H249  1  0.444400  0.463600  0.657700  1.0  0.1013
  H  H250  1  0.400700  0.416700  0.741500  1.0  0.1004
  H  H251  1  0.419100  0.461300  0.712500  1.0  0.1193
  H  H252  1  0.455500  0.421900  0.729600  1.0  0.11
  H  H253  1  0.332200  0.371500  0.494500  1.0  0.1103
  H  H254  1  0.311500  0.318900  0.438600  1.0  0.0907
  H  H255  1  0.303500  0.243300  0.452900  1.0  0.109
  H  H256  1  0.312200  0.217700  0.531100  1.0  0.1153
  H  H257  1  0.331400  0.270900  0.590300  1.0  0.1213
  H  H258  1  0.350800  0.399100  0.670600  1.0  0.3195
  H  H259  1  0.751200  0.227600  0.359000  1.0  0.1182
  H  H260  1  0.959100  0.078300  0.376900  1.0  0.0994
  H  H261  1  0.982100  0.074700  0.325600  1.0  0.1089
  H  H262  1  0.944400  0.036400  0.342300  1.0  0.1022
  H  H263  1  0.900700  0.083300  0.258500  1.0  0.1017
  H  H264  1  0.919100  0.038700  0.287500  1.0  0.1222
  H  H265  1  0.955500  0.078100  0.270400  1.0  0.1066
  H  H266  1  0.832200  0.128500  0.505500  1.0  0.1102
  H  H267  1  0.811500  0.181100  0.561400  1.0  0.0897
  H  H268  1  0.803500  0.256700  0.547100  1.0  0.1087
  H  H269  1  0.812200  0.282300  0.468900  1.0  0.114
  H  H270  1  0.831400  0.229100  0.409700  1.0  0.1212
  H  H271  1  0.850800  0.100900  0.329400  1.0  0.3197
  H  H272  1  0.248800  0.727600  0.141000  1.0  0.1187
  H  H273  1  0.040900  0.578300  0.123100  1.0  0.1026
  H  H274  1  0.017900  0.574700  0.174400  1.0  0.1068
  H  H275  1  0.055600  0.536400  0.157700  1.0  0.1021
  H  H276  1  0.099300  0.583300  0.241500  1.0  0.1006
  H  H277  1  0.080900  0.538700  0.212500  1.0  0.1202
  H  H278  1  0.044500  0.578100  0.229600  1.0  0.1079
  H  H279  1  0.167800  0.628500  0.994500  1.0  0.1098
  H  H280  1  0.188500  0.681100  0.938600  1.0  0.0907
  H  H281  1  0.196500  0.756700  0.952900  1.0  0.1089
  H  H282  1  0.187800  0.782300  0.031100  1.0  0.1133
  H  H283  1  0.168600  0.729100  0.090300  1.0  0.1207
  H  H284  1  0.149200  0.600900  0.170600  1.0  0.3205
  H  H285  1  0.272400  0.641000  0.251200  1.0  0.1182
  H  H286  1  0.421700  0.623100  0.459100  1.0  0.1041
  H  H287  1  0.425300  0.674400  0.482100  1.0  0.1098
  H  H288  1  0.463600  0.657700  0.444400  1.0  0.1041
  H  H289  1  0.416700  0.741500  0.400700  1.0  0.1033
  H  H290  1  0.461300  0.712500  0.419100  1.0  0.1251
  H  H291  1  0.421900  0.729600  0.455500  1.0  0.1102
  H  H292  1  0.371500  0.494500  0.332200  1.0  0.1095
  H  H293  1  0.318900  0.438600  0.311500  1.0  0.0914
  H  H294  1  0.243300  0.452900  0.303500  1.0  0.109
  H  H295  1  0.217700  0.531100  0.312200  1.0  0.1123
  H  H296  1  0.270900  0.590300  0.331400  1.0  0.121
  H  H297  1  0.399100  0.670600  0.350800  1.0  0.3197
  H  H298  1  0.772400  0.859000  0.748800  1.0  0.1187
  H  H299  1  0.921700  0.876900  0.540900  1.0  0.1038
  H  H300  1  0.925300  0.825600  0.517900  1.0  0.1104
  H  H301  1  0.963600  0.842300  0.555600  1.0  0.1069
  H  H302  1  0.916700  0.758500  0.599300  1.0  0.1034
  H  H303  1  0.961300  0.787500  0.580900  1.0  0.1253
  H  H304  1  0.921900  0.770400  0.544500  1.0  0.108
  H  H305  1  0.871500  0.005500  0.667800  1.0  0.1096
  H  H306  1  0.818900  0.061400  0.688500  1.0  0.0914
  H  H307  1  0.743300  0.047100  0.696500  1.0  0.1095
  H  H308  1  0.717700  0.968900  0.687800  1.0  0.1127
  H  H309  1  0.770900  0.909700  0.668600  1.0  0.1199
  H  H310  1  0.899100  0.829400  0.649200  1.0  0.3185
  H  H311  1  0.727600  0.141000  0.248800  1.0  0.1185
  H  H312  1  0.578300  0.123100  0.040900  1.0  0.1025
  H  H313  1  0.574700  0.174400  0.017900  1.0  0.1112
  H  H314  1  0.536400  0.157700  0.055600  1.0  0.1027
  H  H315  1  0.583300  0.241500  0.099300  1.0  0.1032
  H  H316  1  0.538700  0.212500  0.080900  1.0  0.1237
  H  H317  1  0.578100  0.229600  0.044500  1.0  0.1077
  H  H318  1  0.628500  0.994500  0.167800  1.0  0.1094
  H  H319  1  0.681100  0.938600  0.188500  1.0  0.0912
  H  H320  1  0.756700  0.952900  0.196500  1.0  0.1101
  H  H321  1  0.782300  0.031100  0.187800  1.0  0.1145
  H  H322  1  0.729100  0.090300  0.168600  1.0  0.1213
  H  H323  1  0.600900  0.170600  0.149200  1.0  0.32
  H  H324  1  0.227600  0.359000  0.751200  1.0  0.1184
  H  H325  1  0.078300  0.376900  0.959100  1.0  0.1057
  H  H326  1  0.074700  0.325600  0.982100  1.0  0.1129
  H  H327  1  0.036400  0.342300  0.944400  1.0  0.102
  H  H328  1  0.083300  0.258500  0.900700  1.0  0.1017
  H  H329  1  0.038700  0.287500  0.919100  1.0  0.121
  H  H330  1  0.078100  0.270400  0.955500  1.0  0.107
  H  H331  1  0.128500  0.505500  0.832200  1.0  0.109
  H  H332  1  0.181100  0.561400  0.811500  1.0  0.0911
  H  H333  1  0.256700  0.547100  0.803500  1.0  0.1097
  H  H334  1  0.282300  0.468900  0.812200  1.0  0.1142
  H  H335  1  0.229100  0.409700  0.831400  1.0  0.1207
  H  H336  1  0.100900  0.329400  0.850800  1.0  0.3212
  H  H337  1  0.998800  0.391000  0.522400  1.0  0.1164
  H  H338  1  0.790900  0.373100  0.671700  1.0  0.1029
  H  H339  1  0.767900  0.424400  0.675300  1.0  0.1087
  H  H340  1  0.805600  0.407700  0.713600  1.0  0.1089
  H  H341  1  0.849300  0.491500  0.666667  1.0  0.1067
  H  H342  1  0.830900  0.462500  0.711300  1.0  0.1278
  H  H343  1  0.794500  0.479600  0.671900  1.0  0.1044
  H  H344  1  0.917800  0.244500  0.621500  1.0  0.1101
  H  H345  1  0.938500  0.188600  0.568900  1.0  0.0909
  H  H346  1  0.946500  0.202900  0.493300  1.0  0.109
  H  H347  1  0.937800  0.281100  0.467700  1.0  0.113
  H  H348  1  0.918600  0.340300  0.520900  1.0  0.1216
  H  H349  1  0.899200  0.420600  0.649100  1.0  0.3189
  H  H350  1  0.501200  0.609000  0.022400  1.0  0.1166
  H  H351  1  0.709100  0.626900  0.171700  1.0  0.1037
  H  H352  1  0.732100  0.575600  0.175300  1.0  0.1093
  H  H353  1  0.694400  0.592300  0.213600  1.0  0.1093
  H  H354  1  0.650700  0.508500  0.166700  1.0  0.1032
  H  H355  1  0.669100  0.537500  0.211300  1.0  0.1269
  H  H356  1  0.705500  0.520400  0.171900  1.0  0.1091
  H  H357  1  0.582200  0.755500  0.121500  1.0  0.1106
  H  H358  1  0.561500  0.811400  0.068900  1.0  0.0908
  H  H359  1  0.553500  0.797100  0.993300  1.0  0.109
  H  H360  1  0.562200  0.718900  0.967700  1.0  0.1128
  H  H361  1  0.581400  0.659700  0.020900  1.0  0.1212
  H  H362  1  0.600800  0.579400  0.149100  1.0  0.3194
  H  H363  1  0.001200  0.891000  0.977600  1.0  0.1163
  H  H364  1  0.209100  0.873100  0.828300  1.0  0.1034
  H  H365  1  0.232100  0.924400  0.824700  1.0  0.1101
  H  H366  1  0.194400  0.907700  0.786400  1.0  0.1065
  H  H367  1  0.150700  0.991500  0.833300  1.0  0.104
  H  H368  1  0.169100  0.962500  0.788700  1.0  0.126
  H  H369  1  0.205500  0.979600  0.828100  1.0  0.1045
  H  H370  1  0.082200  0.744500  0.878500  1.0  0.1108
  H  H371  1  0.061500  0.688600  0.931100  1.0  0.0908
  H  H372  1  0.053500  0.702900  0.006700  1.0  0.1091
  H  H373  1  0.062200  0.781100  0.032300  1.0  0.1132
  H  H374  1  0.081400  0.840300  0.979100  1.0  0.1203
  H  H375  1  0.100800  0.920600  0.850900  1.0  0.3192
  H  H376  1  0.498800  0.109000  0.477600  1.0  0.1165
  H  H377  1  0.290900  0.126900  0.328300  1.0  0.1029
  H  H378  1  0.267900  0.075600  0.324700  1.0  0.1071
  H  H379  1  0.305600  0.092300  0.286400  1.0  0.106
  H  H380  1  0.349300  0.008500  0.333333  1.0  0.1062
  H  H381  1  0.330900  0.037500  0.288700  1.0  0.1247
  H  H382  1  0.294500  0.020400  0.328100  1.0  0.1043
  H  H383  1  0.417800  0.255500  0.378500  1.0  0.1104
  H  H384  1  0.438500  0.311400  0.431100  1.0  0.0908
  H  H385  1  0.446500  0.297100  0.506700  1.0  0.1094
  H  H386  1  0.437800  0.218900  0.532300  1.0  0.1136
  H  H387  1  0.418600  0.159700  0.479100  1.0  0.1207
  H  H388  1  0.399200  0.079400  0.350900  1.0  0.319
  H  H389  1  0.522400  0.998800  0.391000  1.0  0.1186
  H  H390  1  0.671700  0.790900  0.373100  1.0  0.1029
  H  H391  1  0.675300  0.767900  0.424400  1.0  0.1099
  H  H392  1  0.713600  0.805600  0.407700  1.0  0.1044
  H  H393  1  0.666667  0.849300  0.491500  1.0  0.1032
  H  H394  1  0.711300  0.830900  0.462500  1.0  0.1278
  H  H395  1  0.671900  0.794500  0.479600  1.0  0.1092
  H  H396  1  0.621500  0.917800  0.244500  1.0  0.1096
  H  H397  1  0.568900  0.938500  0.188600  1.0  0.0908
  H  H398  1  0.493300  0.946500  0.202900  1.0  0.1087
  H  H399  1  0.467700  0.937800  0.281100  1.0  0.1118
  H  H400  1  0.520900  0.918600  0.340300  1.0  0.1217
  H  H401  1  0.649100  0.899200  0.420600  1.0  0.3178
  H  H402  1  0.022400  0.501200  0.609000  1.0  0.1186
  H  H403  1  0.171700  0.709100  0.626900  1.0  0.1
  H  H404  1  0.175300  0.732100  0.575600  1.0  0.1064
  H  H405  1  0.213600  0.694400  0.592300  1.0  0.1064
  H  H406  1  0.166700  0.650700  0.508500  1.0  0.1006
  H  H407  1  0.211300  0.669100  0.537500  1.0  0.1256
  H  H408  1  0.171900  0.705500  0.520400  1.0  0.1061
  H  H409  1  0.121500  0.582200  0.755500  1.0  0.1093
  H  H410  1  0.068900  0.561500  0.811400  1.0  0.0899
  H  H411  1  0.993300  0.553500  0.797100  1.0  0.1087
  H  H412  1  0.967700  0.562200  0.718900  1.0  0.1118
  H  H413  1  0.020900  0.581400  0.659700  1.0  0.1219
  H  H414  1  0.149100  0.600800  0.579400  1.0  0.3184
  H  H415  1  0.977600  0.001200  0.891000  1.0  0.1189
  H  H416  1  0.828300  0.209100  0.873100  1.0  0.1038
  H  H417  1  0.824700  0.232100  0.924400  1.0  0.1083
  H  H418  1  0.786400  0.194400  0.907700  1.0  0.1024
  H  H419  1  0.833300  0.150700  0.991500  1.0  0.1009
  H  H420  1  0.788700  0.169100  0.962500  1.0  0.1234
  H  H421  1  0.828100  0.205500  0.979600  1.0  0.1041
  H  H422  1  0.878500  0.082200  0.744500  1.0  0.1098
  H  H423  1  0.931100  0.061500  0.688600  1.0  0.0905
  H  H424  1  0.006700  0.053500  0.702900  1.0  0.1092
  H  H425  1  0.032300  0.062200  0.781100  1.0  0.1135
  H  H426  1  0.979100  0.081400  0.840300  1.0  0.1212
  H  H427  1  0.850900  0.100800  0.920600  1.0  0.3209
  H  H428  1  0.477600  0.498800  0.109000  1.0  0.1188
  H  H429  1  0.328300  0.290900  0.126900  1.0  0.1018
  H  H430  1  0.324700  0.267900  0.075600  1.0  0.1112
  H  H431  1  0.286400  0.305600  0.092300  1.0  0.1017
  H  H432  1  0.333333  0.349300  0.008500  1.0  0.1041
  H  H433  1  0.288700  0.330900  0.037500  1.0  0.1243
  H  H434  1  0.328100  0.294500  0.020400  1.0  0.1062
  H  H435  1  0.378500  0.417800  0.255500  1.0  0.1094
  H  H436  1  0.431100  0.438500  0.311400  1.0  0.0897
  H  H437  1  0.506700  0.446500  0.297100  1.0  0.1091
  H  H438  1  0.532300  0.437800  0.218900  1.0  0.1147
  H  H439  1  0.479100  0.418600  0.159700  1.0  0.1222
  H  H440  1  0.350900  0.399200  0.079400  1.0  0.32
  H  H441  1  0.391000  0.522400  0.998800  1.0  0.1176
  H  H442  1  0.373100  0.671700  0.790900  1.0  0.0949
  H  H443  1  0.424400  0.675300  0.767900  1.0  0.111
  H  H444  1  0.407700  0.713600  0.805600  1.0  0.1033
  H  H445  1  0.491500  0.666667  0.849300  1.0  0.1051
  H  H446  1  0.462500  0.711300  0.830900  1.0  0.1179
  H  H447  1  0.479600  0.671900  0.794500  1.0  0.1093
  H  H448  1  0.244500  0.621500  0.917800  1.0  0.1099
  H  H449  1  0.188600  0.568900  0.938500  1.0  0.0916
  H  H450  1  0.202900  0.493300  0.946500  1.0  0.1097
  H  H451  1  0.281100  0.467700  0.937800  1.0  0.1154
  H  H452  1  0.340300  0.520900  0.918600  1.0  0.1201
  H  H453  1  0.420600  0.649100  0.899200  1.0  0.3203
  H  H454  1  0.609000  0.022400  0.501200  1.0  0.118
  H  H455  1  0.626900  0.171700  0.709100  1.0  0.0978
  H  H456  1  0.575600  0.175300  0.732100  1.0  0.1111
  H  H457  1  0.592300  0.213600  0.694400  1.0  0.1026
  H  H458  1  0.508500  0.166700  0.650700  1.0  0.1027
  H  H459  1  0.537500  0.211300  0.669100  1.0  0.1171
  H  H460  1  0.520400  0.171900  0.705500  1.0  0.112
  H  H461  1  0.755500  0.121500  0.582200  1.0  0.1095
  H  H462  1  0.811400  0.068900  0.561500  1.0  0.0918
  H  H463  1  0.797100  0.993300  0.553500  1.0  0.1096
  H  H464  1  0.718900  0.967700  0.562200  1.0  0.1153
  H  H465  1  0.659700  0.020900  0.581400  1.0  0.1203
  H  H466  1  0.579400  0.149100  0.600800  1.0  0.3229
  H  H467  1  0.891000  0.977600  0.001200  1.0  0.1174
  H  H468  1  0.873100  0.828300  0.209100  1.0  0.0994
  H  H469  1  0.924400  0.824700  0.232100  1.0  0.1127
  H  H470  1  0.907700  0.786400  0.194400  1.0  0.1013
  H  H471  1  0.991500  0.833300  0.150700  1.0  0.1019
  H  H472  1  0.962500  0.788700  0.169100  1.0  0.1191
  H  H473  1  0.979600  0.828100  0.205500  1.0  0.1065
  H  H474  1  0.744500  0.878500  0.082200  1.0  0.1097
  H  H475  1  0.688600  0.931100  0.061500  1.0  0.0914
  H  H476  1  0.702900  0.006700  0.053500  1.0  0.1095
  H  H477  1  0.781100  0.032300  0.062200  1.0  0.114
  H  H478  1  0.840300  0.979100  0.081400  1.0  0.1199
  H  H479  1  0.920600  0.850900  0.100800  1.0  0.3211
  H  H480  1  0.109000  0.477600  0.498800  1.0  0.1177
  H  H481  1  0.126900  0.328300  0.290900  1.0  0.0973
  H  H482  1  0.075600  0.324700  0.267900  1.0  0.1106
  H  H483  1  0.092300  0.286400  0.305600  1.0  0.1044
  H  H484  1  0.008500  0.333333  0.349300  1.0  0.1053
  H  H485  1  0.037500  0.288700  0.330900  1.0  0.119
  H  H486  1  0.020400  0.328100  0.294500  1.0  0.1067
  H  H487  1  0.255500  0.378500  0.417800  1.0  0.1101
  H  H488  1  0.311400  0.431100  0.438500  1.0  0.0921
  H  H489  1  0.297100  0.506700  0.446500  1.0  0.1098
  H  H490  1  0.218900  0.532300  0.437800  1.0  0.1139
  H  H491  1  0.159700  0.479100  0.418600  1.0  0.1188
  H  H492  1  0.079400  0.350900  0.399200  1.0  0.3209
  H  H493  1  0.641000  0.748800  0.227600  1.0  0.1159
  H  H494  1  0.623100  0.540900  0.078300  1.0  0.0965
  H  H495  1  0.674400  0.517900  0.074700  1.0  0.1123
  H  H496  1  0.657700  0.555600  0.036400  1.0  0.1044
  H  H497  1  0.741500  0.599300  0.083300  1.0  0.1034
  H  H498  1  0.712500  0.580900  0.038700  1.0  0.1257
  H  H499  1  0.729600  0.544500  0.078100  1.0  0.1075
  H  H500  1  0.494500  0.667800  0.128500  1.0  0.1109
  H  H501  1  0.438600  0.688500  0.181100  1.0  0.0911
  H  H502  1  0.452900  0.696500  0.256700  1.0  0.109
  H  H503  1  0.531100  0.687800  0.282300  1.0  0.1136
  H  H504  1  0.590300  0.668600  0.229100  1.0  0.1207
  H  H505  1  0.670600  0.649200  0.100900  1.0  0.3197
  H  H506  1  0.859000  0.251200  0.727600  1.0  0.1161
  H  H507  1  0.876900  0.459100  0.578300  1.0  0.0983
  H  H508  1  0.825600  0.482100  0.574700  1.0  0.1086
  H  H509  1  0.842300  0.444400  0.536400  1.0  0.1057
  H  H510  1  0.758500  0.400700  0.583300  1.0  0.1018
  H  H511  1  0.787500  0.419100  0.538700  1.0  0.1246
  H  H512  1  0.770400  0.455500  0.578100  1.0  0.1058
  H  H513  1  0.005500  0.332200  0.628500  1.0  0.1109
  H  H514  1  0.061400  0.311500  0.681100  1.0  0.0921
  H  H515  1  0.047100  0.303500  0.756700  1.0  0.1095
  H  H516  1  0.968900  0.312200  0.782300  1.0  0.1151
  H  H517  1  0.909700  0.331400  0.729100  1.0  0.1204
  H  H518  1  0.829400  0.350800  0.600900  1.0  0.3204
  H  H519  1  0.141000  0.751200  0.772400  1.0  0.1165
  H  H520  1  0.123100  0.959100  0.921700  1.0  0.0962
  H  H521  1  0.174400  0.982100  0.925300  1.0  0.1106
  H  H522  1  0.157700  0.944400  0.963600  1.0  0.1091
  H  H523  1  0.241500  0.900700  0.916700  1.0  0.1025
  H  H524  1  0.212500  0.919100  0.961300  1.0  0.1273
  H  H525  1  0.229600  0.955500  0.921900  1.0  0.1038
  H  H526  1  0.994500  0.832200  0.871500  1.0  0.1103
  H  H527  1  0.938600  0.811500  0.818900  1.0  0.0914
  H  H528  1  0.952900  0.803500  0.743300  1.0  0.1086
  H  H529  1  0.031100  0.812200  0.717700  1.0  0.1144
  H  H530  1  0.090300  0.831400  0.770900  1.0  0.1221
  H  H531  1  0.170600  0.850800  0.899100  1.0  0.3197
  H  H532  1  0.359000  0.248800  0.272400  1.0  0.116
  H  H533  1  0.376900  0.040900  0.421700  1.0  0.098
  H  H534  1  0.325600  0.017900  0.425300  1.0  0.1108
  H  H535  1  0.342300  0.055600  0.463600  1.0  0.1087
  H  H536  1  0.258500  0.099300  0.416700  1.0  0.104
  H  H537  1  0.287500  0.080900  0.461300  1.0  0.1274
  H  H538  1  0.270400  0.044500  0.421900  1.0  0.1074
  H  H539  1  0.505500  0.167800  0.371500  1.0  0.1107
  H  H540  1  0.561400  0.188500  0.318900  1.0  0.0917
  H  H541  1  0.547100  0.196500  0.243300  1.0  0.1093
  H  H542  1  0.468900  0.187800  0.217700  1.0  0.1136
  H  H543  1  0.409700  0.168600  0.270900  1.0  0.1213
  H  H544  1  0.329400  0.149200  0.399100  1.0  0.3201
  H  H545  1  0.248800  0.272400  0.359000  1.0  0.1185
  H  H546  1  0.040900  0.421700  0.376900  1.0  0.0989
  H  H547  1  0.017900  0.425300  0.325600  1.0  0.1063
  H  H548  1  0.055600  0.463600  0.342300  1.0  0.1016
  H  H549  1  0.099300  0.416700  0.258500  1.0  0.1008
  H  H550  1  0.080900  0.461300  0.287500  1.0  0.12
  H  H551  1  0.044500  0.421900  0.270400  1.0  0.1063
  H  H552  1  0.167800  0.371500  0.505500  1.0  0.1091
  H  H553  1  0.188500  0.318900  0.561400  1.0  0.0896
  H  H554  1  0.196500  0.243300  0.547100  1.0  0.1092
  H  H555  1  0.187800  0.217700  0.468900  1.0  0.1157
  H  H556  1  0.168600  0.270900  0.409700  1.0  0.1218
  H  H557  1  0.149200  0.399100  0.329400  1.0  0.3203
  H  H558  1  0.751200  0.772400  0.141000  1.0  0.1182
  H  H559  1  0.959100  0.921700  0.123100  1.0  0.1015
  H  H560  1  0.982100  0.925300  0.174400  1.0  0.1092
  H  H561  1  0.944400  0.963600  0.157700  1.0  0.1013
  H  H562  1  0.900700  0.916700  0.241500  1.0  0.1004
  H  H563  1  0.919100  0.961300  0.212500  1.0  0.1193
  H  H564  1  0.955500  0.921900  0.229600  1.0  0.1091
  H  H565  1  0.832200  0.871500  0.994500  1.0  0.1103
  H  H566  1  0.811500  0.818900  0.938600  1.0  0.0907
  H  H567  1  0.803500  0.743300  0.952900  1.0  0.109
  H  H568  1  0.812200  0.717700  0.031100  1.0  0.1153
  H  H569  1  0.831400  0.770900  0.090300  1.0  0.1212
  H  H570  1  0.850800  0.899100  0.170600  1.0  0.3195
  H  H571  1  0.251200  0.727600  0.859000  1.0  0.1182
  H  H572  1  0.459100  0.578300  0.876900  1.0  0.0994
  H  H573  1  0.482100  0.574700  0.825600  1.0  0.1089
  H  H574  1  0.444400  0.536400  0.842300  1.0  0.1022
  H  H575  1  0.400700  0.583300  0.758500  1.0  0.1017
  H  H576  1  0.419100  0.538700  0.787500  1.0  0.1222
  H  H577  1  0.455500  0.578100  0.770400  1.0  0.1095
  H  H578  1  0.332200  0.628500  0.005500  1.0  0.1102
  H  H579  1  0.311500  0.681100  0.061400  1.0  0.0897
  H  H580  1  0.303500  0.756700  0.047100  1.0  0.1087
  H  H581  1  0.312200  0.782300  0.968900  1.0  0.114
  H  H582  1  0.331400  0.729100  0.909700  1.0  0.1213
  H  H583  1  0.350800  0.600900  0.829400  1.0  0.3197
  H  H584  1  0.748800  0.227600  0.641000  1.0  0.1187
  H  H585  1  0.540900  0.078300  0.623100  1.0  0.1026
  H  H586  1  0.517900  0.074700  0.674400  1.0  0.1068
  H  H587  1  0.555600  0.036400  0.657700  1.0  0.1021
  H  H588  1  0.599300  0.083300  0.741500  1.0  0.1006
  H  H589  1  0.580900  0.038700  0.712500  1.0  0.1202
  H  H590  1  0.544500  0.078100  0.729600  1.0  0.1079
  H  H591  1  0.667800  0.128500  0.494500  1.0  0.1098
  H  H592  1  0.688500  0.181100  0.438600  1.0  0.0907
  H  H593  1  0.696500  0.256700  0.452900  1.0  0.1089
  H  H594  1  0.687800  0.282300  0.531100  1.0  0.1133
  H  H595  1  0.668600  0.229100  0.590300  1.0  0.1206
  H  H596  1  0.649200  0.100900  0.670600  1.0  0.3205
  H  H597  1  0.772400  0.141000  0.751200  1.0  0.1182
  H  H598  1  0.921700  0.123100  0.959100  1.0  0.1041
  H  H599  1  0.925300  0.174400  0.982100  1.0  0.1113
  H  H600  1  0.963600  0.157700  0.944400  1.0  0.1041
  H  H601  1  0.916700  0.241500  0.900700  1.0  0.1033
  H  H602  1  0.961300  0.212500  0.919100  1.0  0.1251
  H  H603  1  0.921900  0.229600  0.955500  1.0  0.1086
  H  H604  1  0.871500  0.994500  0.832200  1.0  0.1095
  H  H605  1  0.818900  0.938600  0.811500  1.0  0.0914
  H  H606  1  0.743300  0.952900  0.803500  1.0  0.109
  H  H607  1  0.717700  0.031100  0.812200  1.0  0.1123
  H  H608  1  0.770900  0.090300  0.831400  1.0  0.1209
  H  H609  1  0.899100  0.170600  0.850800  1.0  0.3197
  H  H610  1  0.272400  0.359000  0.248800  1.0  0.1187
  H  H611  1  0.421700  0.376900  0.040900  1.0  0.1038
  H  H612  1  0.425300  0.325600  0.017900  1.0  0.1104
  H  H613  1  0.463600  0.342300  0.055600  1.0  0.1069
  H  H614  1  0.416700  0.258500  0.099300  1.0  0.1034
  H  H615  1  0.461300  0.287500  0.080900  1.0  0.1253
  H  H616  1  0.421900  0.270400  0.044500  1.0  0.108
  H  H617  1  0.371500  0.505500  0.167800  1.0  0.1096
  H  H618  1  0.318900  0.561400  0.188500  1.0  0.0914
  H  H619  1  0.243300  0.547100  0.196500  1.0  0.1095
  H  H620  1  0.217700  0.468900  0.187800  1.0  0.1127
  H  H621  1  0.270900  0.409700  0.168600  1.0  0.12
  H  H622  1  0.399100  0.329400  0.149200  1.0  0.3185
  H  H623  1  0.227600  0.641000  0.748800  1.0  0.1185
  H  H624  1  0.078300  0.623100  0.540900  1.0  0.1025
  H  H625  1  0.074700  0.674400  0.517900  1.0  0.1112
  H  H626  1  0.036400  0.657700  0.555600  1.0  0.1027
  H  H627  1  0.083300  0.741500  0.599300  1.0  0.1032
  H  H628  1  0.038700  0.712500  0.580900  1.0  0.1237
  H  H629  1  0.078100  0.729600  0.544500  1.0  0.1077
  H  H630  1  0.128500  0.494500  0.667800  1.0  0.1094
  H  H631  1  0.181100  0.438600  0.688500  1.0  0.0912
  H  H632  1  0.256700  0.452900  0.696500  1.0  0.1101
  H  H633  1  0.282300  0.531100  0.687800  1.0  0.1145
  H  H634  1  0.229100  0.590300  0.668600  1.0  0.1212
  H  H635  1  0.100900  0.670600  0.649200  1.0  0.32
  H  H636  1  0.727600  0.859000  0.251200  1.0  0.1184
  H  H637  1  0.578300  0.876900  0.459100  1.0  0.1057
  H  H638  1  0.574700  0.825600  0.482100  1.0  0.1118
  H  H639  1  0.536400  0.842300  0.444400  1.0  0.102
  H  H640  1  0.583300  0.758500  0.400700  1.0  0.1017
  H  H641  1  0.538700  0.787500  0.419100  1.0  0.121
  H  H642  1  0.578100  0.770400  0.455500  1.0  0.1105
  H  H643  1  0.628500  0.005500  0.332200  1.0  0.109
  H  H644  1  0.681100  0.061400  0.311500  1.0  0.0911
  H  H645  1  0.756700  0.047100  0.303500  1.0  0.1097
  H  H646  1  0.782300  0.968900  0.312200  1.0  0.1142
  H  H647  1  0.729100  0.909700  0.331400  1.0  0.1208
  H  H648  1  0.600900  0.829400  0.350800  1.0  0.3212
  C  C649  1  0.462500  0.930600  0.098900  1.0  0.6425
  C  C650  1  0.504300  0.944500  0.069500  1.0  -0.1342
  C  C651  1  0.516780  0.917890  0.030780  1.0  -0.0114
  C  C652  1  0.333500  0.924500  0.152200  1.0  0.1962
  C  C653  1  0.296600  0.906000  0.180400  1.0  -0.347
  C  C654  1  0.326500  0.968000  0.177600  1.0  -0.3388
  C  C655  1  0.422000  0.753100  0.089400  1.0  0.1042
  C  C656  1  0.433800  0.719800  0.057800  1.0  -0.1076
  C  C657  1  0.439100  0.727500  0.014800  1.0  -0.1207
  C  C658  1  0.433600  0.773500  0.000100  1.0  -0.107
  C  C659  1  0.422100  0.808700  0.031500  1.0  0.1125
  C  C660  1  0.037500  0.069400  0.598900  1.0  0.6435
  C  C661  1  0.995700  0.055500  0.569500  1.0  -0.1339
  C  C662  1  0.983220  0.082110  0.530780  1.0  -0.0122
  C  C663  1  0.166500  0.075500  0.652200  1.0  0.1976
  C  C664  1  0.203400  0.094000  0.680400  1.0  -0.3458
  C  C665  1  0.173500  0.032000  0.677600  1.0  -0.3384
  C  C666  1  0.078000  0.246900  0.589400  1.0  0.1038
  C  C667  1  0.066200  0.280200  0.557800  1.0  -0.105
  C  C668  1  0.060900  0.272500  0.514800  1.0  -0.122
  C  C669  1  0.066400  0.226500  0.500100  1.0  -0.1058
  C  C670  1  0.077900  0.191300  0.531500  1.0  0.1128
  C  C671  1  0.537500  0.430600  0.401100  1.0  0.6426
  C  C672  1  0.495700  0.444500  0.430500  1.0  -0.1336
  C  C673  1  0.483220  0.417890  0.469220  1.0  -0.0122
  C  C674  1  0.666500  0.424500  0.347800  1.0  0.1993
  C  C675  1  0.703400  0.406000  0.319600  1.0  -0.35
  C  C676  1  0.673500  0.468000  0.322400  1.0  -0.3399
  C  C677  1  0.578000  0.253100  0.410600  1.0  0.1032
  C  C678  1  0.566200  0.219800  0.442200  1.0  -0.1087
  C  C679  1  0.560900  0.227500  0.485200  1.0  -0.121
  C  C680  1  0.566400  0.273500  0.499900  1.0  -0.1053
  C  C681  1  0.577900  0.308700  0.468500  1.0  0.1118
  C  C682  1  0.962500  0.569400  0.901100  1.0  0.6413
  C  C683  1  0.004300  0.555500  0.930500  1.0  -0.134
  C  C684  1  0.016780  0.582110  0.969220  1.0  -0.0116
  C  C685  1  0.833500  0.575500  0.847800  1.0  0.1987
  C  C686  1  0.796600  0.594000  0.819600  1.0  -0.3495
  C  C687  1  0.826500  0.532000  0.822400  1.0  -0.3382
  C  C688  1  0.922000  0.746900  0.910600  1.0  0.1036
  C  C689  1  0.933800  0.780200  0.942200  1.0  -0.1059
  C  C690  1  0.939100  0.772500  0.985200  1.0  -0.1192
  C  C691  1  0.933600  0.726500  0.999900  1.0  -0.1039
  C  C692  1  0.922100  0.691300  0.968500  1.0  0.1123
  C  C693  1  0.098900  0.462500  0.930600  1.0  0.6427
  C  C694  1  0.069500  0.504300  0.944500  1.0  -0.1335
  C  C695  1  0.030780  0.516780  0.917890  1.0  -0.0086
  C  C696  1  0.152200  0.333500  0.924500  1.0  0.1982
  C  C697  1  0.180400  0.296600  0.906000  1.0  -0.3501
  C  C698  1  0.177600  0.326500  0.968000  1.0  -0.3377
  C  C699  1  0.089400  0.422000  0.753100  1.0  0.1042
  C  C700  1  0.057800  0.433800  0.719800  1.0  -0.1082
  C  C701  1  0.014800  0.439100  0.727500  1.0  -0.1216
  C  C702  1  0.000100  0.433600  0.773500  1.0  -0.1101
  C  C703  1  0.031500  0.422100  0.808700  1.0  0.1138
  C  C704  1  0.598900  0.037500  0.069400  1.0  0.6454
  C  C705  1  0.569500  0.995700  0.055500  1.0  -0.1337
  C  C706  1  0.530780  0.983220  0.082110  1.0  -0.0089
  C  C707  1  0.652200  0.166500  0.075500  1.0  0.2002
  C  C708  1  0.680400  0.203400  0.094000  1.0  -0.3481
  C  C709  1  0.677600  0.173500  0.032000  1.0  -0.3406
  C  C710  1  0.589400  0.078000  0.246900  1.0  0.1049
  C  C711  1  0.557800  0.066200  0.280200  1.0  -0.1084
  C  C712  1  0.514800  0.060900  0.272500  1.0  -0.1215
  C  C713  1  0.500100  0.066400  0.226500  1.0  -0.1103
  C  C714  1  0.531500  0.077900  0.191300  1.0  0.115
  C  C715  1  0.401100  0.537500  0.430600  1.0  0.6433
  C  C716  1  0.430500  0.495700  0.444500  1.0  -0.1348
  C  C717  1  0.469220  0.483220  0.417890  1.0  -0.0099
  C  C718  1  0.347800  0.666500  0.424500  1.0  0.1964
  C  C719  1  0.319600  0.703400  0.406000  1.0  -0.3483
  C  C720  1  0.322400  0.673500  0.468000  1.0  -0.3381
  C  C721  1  0.410600  0.578000  0.253100  1.0  0.1039
  C  C722  1  0.442200  0.566200  0.219800  1.0  -0.1086
  C  C723  1  0.485200  0.560900  0.227500  1.0  -0.1193
  C  C724  1  0.499900  0.566400  0.273500  1.0  -0.1088
  C  C725  1  0.468500  0.577900  0.308700  1.0  0.1136
  C  C726  1  0.901100  0.962500  0.569400  1.0  0.6453
  C  C727  1  0.930500  0.004300  0.555500  1.0  -0.1336
  C  C728  1  0.969220  0.016780  0.582110  1.0  -0.0094
  C  C729  1  0.847800  0.833500  0.575500  1.0  0.1966
  C  C730  1  0.819600  0.796600  0.594000  1.0  -0.3492
  C  C731  1  0.822400  0.826500  0.532000  1.0  -0.3411
  C  C732  1  0.910600  0.922000  0.746900  1.0  0.1046
  C  C733  1  0.942200  0.933800  0.780200  1.0  -0.1091
  C  C734  1  0.985200  0.939100  0.772500  1.0  -0.1191
  C  C735  1  0.999900  0.933600  0.726500  1.0  -0.1078
  C  C736  1  0.968500  0.922100  0.691300  1.0  0.1149
  C  C737  1  0.930600  0.098900  0.462500  1.0  0.6459
  C  C738  1  0.944500  0.069500  0.504300  1.0  -0.135
  C  C739  1  0.917890  0.030780  0.516780  1.0  -0.0104
  C  C740  1  0.924500  0.152200  0.333500  1.0  0.1997
  C  C741  1  0.906000  0.180400  0.296600  1.0  -0.3477
  C  C742  1  0.968000  0.177600  0.326500  1.0  -0.3391
  C  C743  1  0.753100  0.089400  0.422000  1.0  0.1008
  C  C744  1  0.719800  0.057800  0.433800  1.0  -0.1119
  C  C745  1  0.727500  0.014800  0.439100  1.0  -0.1194
  C  C746  1  0.773500  0.000100  0.433600  1.0  -0.1092
  C  C747  1  0.808700  0.031500  0.422100  1.0  0.1111
  C  C748  1  0.069400  0.598900  0.037500  1.0  0.6446
  C  C749  1  0.055500  0.569500  0.995700  1.0  -0.1352
  C  C750  1  0.082110  0.530780  0.983220  1.0  -0.0103
  C  C751  1  0.075500  0.652200  0.166500  1.0  0.1978
  C  C752  1  0.094000  0.680400  0.203400  1.0  -0.3452
  C  C753  1  0.032000  0.677600  0.173500  1.0  -0.3372
  C  C754  1  0.246900  0.589400  0.078000  1.0  0.0994
  C  C755  1  0.280200  0.557800  0.066200  1.0  -0.1096
  C  C756  1  0.272500  0.514800  0.060900  1.0  -0.1189
  C  C757  1  0.226500  0.500100  0.066400  1.0  -0.1098
  C  C758  1  0.191300  0.531500  0.077900  1.0  0.1112
  C  C759  1  0.430600  0.401100  0.537500  1.0  0.6455
  C  C760  1  0.444500  0.430500  0.495700  1.0  -0.1351
  C  C761  1  0.417890  0.469220  0.483220  1.0  -0.011
  C  C762  1  0.424500  0.347800  0.666500  1.0  0.1996
  C  C763  1  0.406000  0.319600  0.703400  1.0  -0.3459
  C  C764  1  0.468000  0.322400  0.673500  1.0  -0.3379
  C  C765  1  0.253100  0.410600  0.578000  1.0  0.1
  C  C766  1  0.219800  0.442200  0.566200  1.0  -0.1114
  C  C767  1  0.227500  0.485200  0.560900  1.0  -0.1183
  C  C768  1  0.273500  0.499900  0.566400  1.0  -0.107
  C  C769  1  0.308700  0.468500  0.577900  1.0  0.1102
  C  C770  1  0.569400  0.901100  0.962500  1.0  0.6454
  C  C771  1  0.555500  0.930500  0.004300  1.0  -0.1359
  C  C772  1  0.582110  0.969220  0.016780  1.0  -0.01
  C  C773  1  0.575500  0.847800  0.833500  1.0  0.1997
  C  C774  1  0.594000  0.819600  0.796600  1.0  -0.3488
  C  C775  1  0.532000  0.822400  0.826500  1.0  -0.3388
  C  C776  1  0.746900  0.910600  0.922000  1.0  0.0999
  C  C777  1  0.780200  0.942200  0.933800  1.0  -0.1089
  C  C778  1  0.772500  0.985200  0.939100  1.0  -0.1169
  C  C779  1  0.726500  0.999900  0.933600  1.0  -0.1086
  C  C780  1  0.691300  0.968500  0.922100  1.0  0.11
  C  C781  1  0.180600  0.212500  0.651100  1.0  0.6462
  C  C782  1  0.194500  0.254300  0.680500  1.0  -0.1336
  C  C783  1  0.167890  0.266780  0.719220  1.0  -0.0105
  C  C784  1  0.174500  0.083500  0.597800  1.0  0.1986
  C  C785  1  0.156000  0.046600  0.569600  1.0  -0.3482
  C  C786  1  0.218000  0.076500  0.572400  1.0  -0.3412
  C  C787  1  0.003100  0.172000  0.660600  1.0  0.1023
  C  C788  1  0.969800  0.183800  0.692200  1.0  -0.1123
  C  C789  1  0.977500  0.189100  0.735200  1.0  -0.1192
  C  C790  1  0.023500  0.183600  0.749900  1.0  -0.1076
  C  C791  1  0.058700  0.172100  0.718500  1.0  0.1125
  C  C792  1  0.319400  0.787500  0.151100  1.0  0.6459
  C  C793  1  0.305500  0.745700  0.180500  1.0  -0.1352
  C  C794  1  0.332110  0.733220  0.219220  1.0  -0.0108
  C  C795  1  0.325500  0.916500  0.097800  1.0  0.1985
  C  C796  1  0.344000  0.953400  0.069600  1.0  -0.3472
  C  C797  1  0.282000  0.923500  0.072400  1.0  -0.3403
  C  C798  1  0.496900  0.828000  0.160600  1.0  0.1017
  C  C799  1  0.530200  0.816200  0.192200  1.0  -0.1096
  C  C800  1  0.522500  0.810900  0.235200  1.0  -0.1174
  C  C801  1  0.476500  0.816400  0.249900  1.0  -0.1102
  C  C802  1  0.441300  0.827900  0.218500  1.0  0.1115
  C  C803  1  0.680600  0.287500  0.348900  1.0  0.6467
  C  C804  1  0.694500  0.245700  0.319500  1.0  -0.1341
  C  C805  1  0.667890  0.233220  0.280780  1.0  -0.0112
  C  C806  1  0.674500  0.416500  0.402200  1.0  0.1979
  C  C807  1  0.656000  0.453400  0.430400  1.0  -0.3459
  C  C808  1  0.718000  0.423500  0.427600  1.0  -0.3401
  C  C809  1  0.503100  0.328000  0.339400  1.0  0.103
  C  C810  1  0.469800  0.316200  0.307800  1.0  -0.1109
  C  C811  1  0.477500  0.310900  0.264800  1.0  -0.1196
  C  C812  1  0.523500  0.316400  0.250100  1.0  -0.1098
  C  C813  1  0.558700  0.327900  0.281500  1.0  0.1131
  C  C814  1  0.819400  0.712500  0.848900  1.0  0.6466
  C  C815  1  0.805500  0.754300  0.819500  1.0  -0.1342
  C  C816  1  0.832110  0.766780  0.780780  1.0  -0.0106
  C  C817  1  0.825500  0.583500  0.902200  1.0  0.1964
  C  C818  1  0.844000  0.546600  0.930400  1.0  -0.3464
  C  C819  1  0.782000  0.576500  0.927600  1.0  -0.3411
  C  C820  1  0.996900  0.672000  0.839400  1.0  0.1019
  C  C821  1  0.030200  0.683800  0.807800  1.0  -0.1087
  C  C822  1  0.022500  0.689100  0.764800  1.0  -0.1189
  C  C823  1  0.976500  0.683600  0.750100  1.0  -0.1094
  C  C824  1  0.941300  0.672100  0.781500  1.0  0.1135
  C  C825  1  0.712500  0.848900  0.819400  1.0  0.6425
  C  C826  1  0.754300  0.819500  0.805500  1.0  -0.1339
  C  C827  1  0.766780  0.780780  0.832110  1.0  -0.0086
  C  C828  1  0.583500  0.902200  0.825500  1.0  0.1994
  C  C829  1  0.546600  0.930400  0.844000  1.0  -0.3484
  C  C830  1  0.576500  0.927600  0.782000  1.0  -0.3357
  C  C831  1  0.672000  0.839400  0.996900  1.0  0.1029
  C  C832  1  0.683800  0.807800  0.030200  1.0  -0.1079
  C  C833  1  0.689100  0.764800  0.022500  1.0  -0.118
  C  C834  1  0.683600  0.750100  0.976500  1.0  -0.107
  C  C835  1  0.672100  0.781500  0.941300  1.0  0.1146
  C  C836  1  0.287500  0.348900  0.680600  1.0  0.6415
  C  C837  1  0.245700  0.319500  0.694500  1.0  -0.1338
  C  C838  1  0.233220  0.280780  0.667890  1.0  -0.0095
  C  C839  1  0.416500  0.402200  0.674500  1.0  0.1998
  C  C840  1  0.453400  0.430400  0.656000  1.0  -0.3512
  C  C841  1  0.423500  0.427600  0.718000  1.0  -0.3348
  C  C842  1  0.328000  0.339400  0.503100  1.0  0.1022
  C  C843  1  0.316200  0.307800  0.469800  1.0  -0.108
  C  C844  1  0.310900  0.264800  0.477500  1.0  -0.1197
  C  C845  1  0.316400  0.250100  0.523500  1.0  -0.1065
  C  C846  1  0.327900  0.281500  0.558700  1.0  0.114
  C  C847  1  0.787500  0.151100  0.319400  1.0  0.6426
  C  C848  1  0.745700  0.180500  0.305500  1.0  -0.1328
  C  C849  1  0.733220  0.219220  0.332110  1.0  -0.0097
  C  C850  1  0.916500  0.097800  0.325500  1.0  0.2016
  C  C851  1  0.953400  0.069600  0.344000  1.0  -0.3491
  C  C852  1  0.923500  0.072400  0.282000  1.0  -0.3386
  C  C853  1  0.828000  0.160600  0.496900  1.0  0.1024
  C  C854  1  0.816200  0.192200  0.530200  1.0  -0.1076
  C  C855  1  0.810900  0.235200  0.522500  1.0  -0.1178
  C  C856  1  0.816400  0.249900  0.476500  1.0  -0.1043
  C  C857  1  0.827900  0.218500  0.441300  1.0  0.114
  C  C858  1  0.212500  0.651100  0.180600  1.0  0.64
  C  C859  1  0.254300  0.680500  0.194500  1.0  -0.1334
  C  C860  1  0.266780  0.719220  0.167890  1.0  -0.009
  C  C861  1  0.083500  0.597800  0.174500  1.0  0.2002
  C  C862  1  0.046600  0.569600  0.156000  1.0  -0.3508
  C  C863  1  0.076500  0.572400  0.218000  1.0  -0.3355
  C  C864  1  0.172000  0.660600  0.003100  1.0  0.1022
  C  C865  1  0.183800  0.692200  0.969800  1.0  -0.1075
  C  C866  1  0.189100  0.735200  0.977500  1.0  -0.1172
  C  C867  1  0.183600  0.749900  0.023500  1.0  -0.1036
  C  C868  1  0.172100  0.718500  0.058700  1.0  0.1124
  C  C869  1  0.348900  0.680600  0.287500  1.0  0.6435
  C  C870  1  0.319500  0.694500  0.245700  1.0  -0.1352
  C  C871  1  0.280780  0.667890  0.233220  1.0  -0.0114
  C  C872  1  0.402200  0.674500  0.416500  1.0  0.1962
  C  C873  1  0.430400  0.656000  0.453400  1.0  -0.3457
  C  C874  1  0.427600  0.718000  0.423500  1.0  -0.3408
  C  C875  1  0.339400  0.503100  0.328000  1.0  0.1043
  C  C876  1  0.307800  0.469800  0.316200  1.0  -0.1095
  C  C877  1  0.264800  0.477500  0.310900  1.0  -0.1237
  C  C878  1  0.250100  0.523500  0.316400  1.0  -0.1103
  C  C879  1  0.281500  0.558700  0.327900  1.0  0.1095
  C  C880  1  0.848900  0.819400  0.712500  1.0  0.6441
  C  C881  1  0.819500  0.805500  0.754300  1.0  -0.1354
  C  C882  1  0.780780  0.832110  0.766780  1.0  -0.011
  C  C883  1  0.902200  0.825500  0.583500  1.0  0.1983
  C  C884  1  0.930400  0.844000  0.546600  1.0  -0.3504
  C  C885  1  0.927600  0.782000  0.576500  1.0  -0.3396
  C  C886  1  0.839400  0.996900  0.672000  1.0  0.1042
  C  C887  1  0.807800  0.030200  0.683800  1.0  -0.1068
  C  C888  1  0.764800  0.022500  0.689100  1.0  -0.1234
  C  C889  1  0.750100  0.976500  0.683600  1.0  -0.109
  C  C890  1  0.781500  0.941300  0.672100  1.0  0.1104
  C  C891  1  0.651100  0.180600  0.212500  1.0  0.6442
  C  C892  1  0.680500  0.194500  0.254300  1.0  -0.1353
  C  C893  1  0.719220  0.167890  0.266780  1.0  -0.0114
  C  C894  1  0.597800  0.174500  0.083500  1.0  0.1949
  C  C895  1  0.569600  0.156000  0.046600  1.0  -0.3498
  C  C896  1  0.572400  0.218000  0.076500  1.0  -0.3403
  C  C897  1  0.660600  0.003100  0.172000  1.0  0.1039
  C  C898  1  0.692200  0.969800  0.183800  1.0  -0.1094
  C  C899  1  0.735200  0.977500  0.189100  1.0  -0.1212
  C  C900  1  0.749900  0.023500  0.183600  1.0  -0.1078
  C  C901  1  0.718500  0.058700  0.172100  1.0  0.11
  C  C902  1  0.151100  0.319400  0.787500  1.0  0.6436
  C  C903  1  0.180500  0.305500  0.745700  1.0  -0.1361
  C  C904  1  0.219220  0.332110  0.733220  1.0  -0.0116
  C  C905  1  0.097800  0.325500  0.916500  1.0  0.1933
  C  C906  1  0.069600  0.344000  0.953400  1.0  -0.3456
  C  C907  1  0.072400  0.282000  0.923500  1.0  -0.3389
  C  C908  1  0.160600  0.496900  0.828000  1.0  0.1034
  C  C909  1  0.192200  0.530200  0.816200  1.0  -0.1066
  C  C910  1  0.235200  0.522500  0.810900  1.0  -0.121
  C  C911  1  0.249900  0.476500  0.816400  1.0  -0.1077
  C  C912  1  0.218500  0.441300  0.827900  1.0  0.1106
  C  C913  1  0.962500  0.430600  0.598900  1.0  0.6425
  C  C914  1  0.004300  0.444500  0.569500  1.0  -0.1342
  C  C915  1  0.016780  0.417890  0.530780  1.0  -0.0114
  C  C916  1  0.833500  0.424500  0.652200  1.0  0.1966
  C  C917  1  0.796600  0.406000  0.680400  1.0  -0.3469
  C  C918  1  0.826500  0.468000  0.677600  1.0  -0.3391
  C  C919  1  0.922000  0.253100  0.589400  1.0  0.1042
  C  C920  1  0.933800  0.219800  0.557800  1.0  -0.1076
  C  C921  1  0.939100  0.227500  0.514800  1.0  -0.1207
  C  C922  1  0.933600  0.273500  0.500100  1.0  -0.107
  C  C923  1  0.922100  0.308700  0.531500  1.0  0.1125
  C  C924  1  0.537500  0.569400  0.098900  1.0  0.6435
  C  C925  1  0.495700  0.555500  0.069500  1.0  -0.1339
  C  C926  1  0.483220  0.582110  0.030780  1.0  -0.0122
  C  C927  1  0.666500  0.575500  0.152200  1.0  0.197
  C  C928  1  0.703400  0.594000  0.180400  1.0  -0.346
  C  C929  1  0.673500  0.532000  0.177600  1.0  -0.3385
  C  C930  1  0.578000  0.746900  0.089400  1.0  0.1038
  C  C931  1  0.566200  0.780200  0.057800  1.0  -0.105
  C  C932  1  0.560900  0.772500  0.014800  1.0  -0.122
  C  C933  1  0.566400  0.726500  0.000100  1.0  -0.1058
  C  C934  1  0.577900  0.691300  0.031500  1.0  0.1128
  C  C935  1  0.037500  0.930600  0.901100  1.0  0.6426
  C  C936  1  0.995700  0.944500  0.930500  1.0  -0.1336
  C  C937  1  0.983220  0.917890  0.969220  1.0  -0.0122
  C  C938  1  0.166500  0.924500  0.847800  1.0  0.1987
  C  C939  1  0.203400  0.906000  0.819600  1.0  -0.3502
  C  C940  1  0.173500  0.968000  0.822400  1.0  -0.3398
  C  C941  1  0.078000  0.753100  0.910600  1.0  0.1032
  C  C942  1  0.066200  0.719800  0.942200  1.0  -0.1087
  C  C943  1  0.060900  0.727500  0.985200  1.0  -0.121
  C  C944  1  0.066400  0.773500  0.999900  1.0  -0.1053
  C  C945  1  0.077900  0.808700  0.968500  1.0  0.1118
  C  C946  1  0.462500  0.069400  0.401100  1.0  0.6413
  C  C947  1  0.504300  0.055500  0.430500  1.0  -0.134
  C  C948  1  0.516780  0.082110  0.469220  1.0  -0.0116
  C  C949  1  0.333500  0.075500  0.347800  1.0  0.1991
  C  C950  1  0.296600  0.094000  0.319600  1.0  -0.3493
  C  C951  1  0.326500  0.032000  0.322400  1.0  -0.3381
  C  C952  1  0.422000  0.246900  0.410600  1.0  0.1036
  C  C953  1  0.433800  0.280200  0.442200  1.0  -0.1059
  C  C954  1  0.439100  0.272500  0.485200  1.0  -0.1192
  C  C955  1  0.433600  0.226500  0.499900  1.0  -0.1039
  C  C956  1  0.422100  0.191300  0.468500  1.0  0.1123
  C  C957  1  0.598900  0.962500  0.430600  1.0  0.6427
  C  C958  1  0.569500  0.004300  0.444500  1.0  -0.1335
  C  C959  1  0.530780  0.016780  0.417890  1.0  -0.0086
  C  C960  1  0.652200  0.833500  0.424500  1.0  0.1987
  C  C961  1  0.680400  0.796600  0.406000  1.0  -0.35
  C  C962  1  0.677600  0.826500  0.468000  1.0  -0.3377
  C  C963  1  0.589400  0.922000  0.253100  1.0  0.1042
  C  C964  1  0.557800  0.933800  0.219800  1.0  -0.1082
  C  C965  1  0.514800  0.939100  0.227500  1.0  -0.1216
  C  C966  1  0.500100  0.933600  0.273500  1.0  -0.1101
  C  C967  1  0.531500  0.922100  0.308700  1.0  0.1138
  C  C968  1  0.098900  0.537500  0.569400  1.0  0.6454
  C  C969  1  0.069500  0.495700  0.555500  1.0  -0.1337
  C  C970  1  0.030780  0.483220  0.582110  1.0  -0.0089
  C  C971  1  0.152200  0.666500  0.575500  1.0  0.1996
  C  C972  1  0.180400  0.703400  0.594000  1.0  -0.3483
  C  C973  1  0.177600  0.673500  0.532000  1.0  -0.3407
  C  C974  1  0.089400  0.578000  0.746900  1.0  0.1049
  C  C975  1  0.057800  0.566200  0.780200  1.0  -0.1084
  C  C976  1  0.014800  0.560900  0.772500  1.0  -0.1215
  C  C977  1  0.000100  0.566400  0.726500  1.0  -0.1103
  C  C978  1  0.031500  0.577900  0.691300  1.0  0.115
  C  C979  1  0.901100  0.037500  0.930600  1.0  0.6433
  C  C980  1  0.930500  0.995700  0.944500  1.0  -0.1348
  C  C981  1  0.969220  0.983220  0.917890  1.0  -0.0099
  C  C982  1  0.847800  0.166500  0.924500  1.0  0.1958
  C  C983  1  0.819600  0.203400  0.906000  1.0  -0.3484
  C  C984  1  0.822400  0.173500  0.968000  1.0  -0.3382
  C  C985  1  0.910600  0.078000  0.753100  1.0  0.1039
  C  C986  1  0.942200  0.066200  0.719800  1.0  -0.1086
  C  C987  1  0.985200  0.060900  0.727500  1.0  -0.1193
  C  C988  1  0.999900  0.066400  0.773500  1.0  -0.1088
  C  C989  1  0.968500  0.077900  0.808700  1.0  0.1136
  C  C990  1  0.401100  0.462500  0.069400  1.0  0.6453
  C  C991  1  0.430500  0.504300  0.055500  1.0  -0.1336
  C  C992  1  0.469220  0.516780  0.082110  1.0  -0.0094
  C  C993  1  0.347800  0.333500  0.075500  1.0  0.1972
  C  C994  1  0.319600  0.296600  0.094000  1.0  -0.349
  C  C995  1  0.322400  0.326500  0.032000  1.0  -0.341
  C  C996  1  0.410600  0.422000  0.246900  1.0  0.1046
  C  C997  1  0.442200  0.433800  0.280200  1.0  -0.1091
  C  C998  1  0.485200  0.439100  0.272500  1.0  -0.1191
  C  C999  1  0.499900  0.433600  0.226500  1.0  -0.1077
  C  C1000  1  0.468500  0.422100  0.191300  1.0  0.1149
  C  C1001  1  0.430600  0.598900  0.962500  1.0  0.6459
  C  C1002  1  0.444500  0.569500  0.004300  1.0  -0.135
  C  C1003  1  0.417890  0.530780  0.016780  1.0  -0.0104
  C  C1004  1  0.424500  0.652200  0.833500  1.0  0.2002
  C  C1005  1  0.406000  0.680400  0.796600  1.0  -0.3476
  C  C1006  1  0.468000  0.677600  0.826500  1.0  -0.3392
  C  C1007  1  0.253100  0.589400  0.922000  1.0  0.1008
  C  C1008  1  0.219800  0.557800  0.933800  1.0  -0.1119
  C  C1009  1  0.227500  0.514800  0.939100  1.0  -0.1194
  C  C1010  1  0.273500  0.500100  0.933600  1.0  -0.1092
  C  C1011  1  0.308700  0.531500  0.922100  1.0  0.1111
  C  C1012  1  0.569400  0.098900  0.537500  1.0  0.6446
  C  C1013  1  0.555500  0.069500  0.495700  1.0  -0.1352
  C  C1014  1  0.582110  0.030780  0.483220  1.0  -0.0103
  C  C1015  1  0.575500  0.152200  0.666500  1.0  0.1974
  C  C1016  1  0.594000  0.180400  0.703400  1.0  -0.3453
  C  C1017  1  0.532000  0.177600  0.673500  1.0  -0.3369
  C  C1018  1  0.746900  0.089400  0.578000  1.0  0.0994
  C  C1019  1  0.780200  0.057800  0.566200  1.0  -0.1096
  C  C1020  1  0.772500  0.014800  0.560900  1.0  -0.1189
  C  C1021  1  0.726500  0.000100  0.566400  1.0  -0.1098
  C  C1022  1  0.691300  0.031500  0.577900  1.0  0.1112
  C  C1023  1  0.930600  0.901100  0.037500  1.0  0.6455
  C  C1024  1  0.944500  0.930500  0.995700  1.0  -0.1351
  C  C1025  1  0.917890  0.969220  0.983220  1.0  -0.011
  C  C1026  1  0.924500  0.847800  0.166500  1.0  0.1991
  C  C1027  1  0.906000  0.819600  0.203400  1.0  -0.3461
  C  C1028  1  0.968000  0.822400  0.173500  1.0  -0.3379
  C  C1029  1  0.753100  0.910600  0.078000  1.0  0.1
  C  C1030  1  0.719800  0.942200  0.066200  1.0  -0.1114
  C  C1031  1  0.727500  0.985200  0.060900  1.0  -0.1183
  C  C1032  1  0.773500  0.999900  0.066400  1.0  -0.107
  C  C1033  1  0.808700  0.968500  0.077900  1.0  0.1102
  C  C1034  1  0.069400  0.401100  0.462500  1.0  0.6454
  C  C1035  1  0.055500  0.430500  0.504300  1.0  -0.1359
  C  C1036  1  0.082110  0.469220  0.516780  1.0  -0.01
  C  C1037  1  0.075500  0.347800  0.333500  1.0  0.2001
  C  C1038  1  0.094000  0.319600  0.296600  1.0  -0.3486
  C  C1039  1  0.032000  0.322400  0.326500  1.0  -0.3389
  C  C1040  1  0.246900  0.410600  0.422000  1.0  0.0999
  C  C1041  1  0.280200  0.442200  0.433800  1.0  -0.1089
  C  C1042  1  0.272500  0.485200  0.439100  1.0  -0.1169
  C  C1043  1  0.226500  0.499900  0.433600  1.0  -0.1086
  C  C1044  1  0.191300  0.468500  0.422100  1.0  0.11
  C  C1045  1  0.680600  0.712500  0.151100  1.0  0.6462
  C  C1046  1  0.694500  0.754300  0.180500  1.0  -0.1336
  C  C1047  1  0.667890  0.766780  0.219220  1.0  -0.0105
  C  C1048  1  0.674500  0.583500  0.097800  1.0  0.1986
  C  C1049  1  0.656000  0.546600  0.069600  1.0  -0.3482
  C  C1050  1  0.718000  0.576500  0.072400  1.0  -0.3412
  C  C1051  1  0.503100  0.672000  0.160600  1.0  0.1023
  C  C1052  1  0.469800  0.683800  0.192200  1.0  -0.1123
  C  C1053  1  0.477500  0.689100  0.235200  1.0  -0.1192
  C  C1054  1  0.523500  0.683600  0.249900  1.0  -0.1076
  C  C1055  1  0.558700  0.672100  0.218500  1.0  0.1125
  C  C1056  1  0.819400  0.287500  0.651100  1.0  0.6459
  C  C1057  1  0.805500  0.245700  0.680500  1.0  -0.1352
  C  C1058  1  0.832110  0.233220  0.719220  1.0  -0.0108
  C  C1059  1  0.825500  0.416500  0.597800  1.0  0.1984
  C  C1060  1  0.844000  0.453400  0.569600  1.0  -0.3473
  C  C1061  1  0.782000  0.423500  0.572400  1.0  -0.3403
  C  C1062  1  0.996900  0.328000  0.660600  1.0  0.1017
  C  C1063  1  0.030200  0.316200  0.692200  1.0  -0.1096
  C  C1064  1  0.022500  0.310900  0.735200  1.0  -0.1174
  C  C1065  1  0.976500  0.316400  0.749900  1.0  -0.1102
  C  C1066  1  0.941300  0.327900  0.718500  1.0  0.1115
  C  C1067  1  0.180600  0.787500  0.848900  1.0  0.6467
  C  C1068  1  0.194500  0.745700  0.819500  1.0  -0.1341
  C  C1069  1  0.167890  0.733220  0.780780  1.0  -0.0112
  C  C1070  1  0.174500  0.916500  0.902200  1.0  0.1979
  C  C1071  1  0.156000  0.953400  0.930400  1.0  -0.3458
  C  C1072  1  0.218000  0.923500  0.927600  1.0  -0.3401
  C  C1073  1  0.003100  0.828000  0.839400  1.0  0.103
  C  C1074  1  0.969800  0.816200  0.807800  1.0  -0.1109
  C  C1075  1  0.977500  0.810900  0.764800  1.0  -0.1196
  C  C1076  1  0.023500  0.816400  0.750100  1.0  -0.1098
  C  C1077  1  0.058700  0.827900  0.781500  1.0  0.1132
  C  C1078  1  0.319400  0.212500  0.348900  1.0  0.6466
  C  C1079  1  0.305500  0.254300  0.319500  1.0  -0.1342
  C  C1080  1  0.332110  0.266780  0.280780  1.0  -0.0106
  C  C1081  1  0.325500  0.083500  0.402200  1.0  0.1963
  C  C1082  1  0.344000  0.046600  0.430400  1.0  -0.3464
  C  C1083  1  0.282000  0.076500  0.427600  1.0  -0.3411
  C  C1084  1  0.496900  0.172000  0.339400  1.0  0.1019
  C  C1085  1  0.530200  0.183800  0.307800  1.0  -0.1087
  C  C1086  1  0.522500  0.189100  0.264800  1.0  -0.1189
  C  C1087  1  0.476500  0.183600  0.250100  1.0  -0.1094
  C  C1088  1  0.441300  0.172100  0.281500  1.0  0.1134
  C  C1089  1  0.212500  0.348900  0.319400  1.0  0.6425
  C  C1090  1  0.254300  0.319500  0.305500  1.0  -0.1339
  C  C1091  1  0.266780  0.280780  0.332110  1.0  -0.0086
  C  C1092  1  0.083500  0.402200  0.325500  1.0  0.1994
  C  C1093  1  0.046600  0.430400  0.344000  1.0  -0.3485
  C  C1094  1  0.076500  0.427600  0.282000  1.0  -0.3357
  C  C1095  1  0.172000  0.339400  0.496900  1.0  0.1029
  C  C1096  1  0.183800  0.307800  0.530200  1.0  -0.1079
  C  C1097  1  0.189100  0.264800  0.522500  1.0  -0.118
  C  C1098  1  0.183600  0.250100  0.476500  1.0  -0.107
  C  C1099  1  0.172100  0.281500  0.441300  1.0  0.1146
  C  C1100  1  0.787500  0.848900  0.180600  1.0  0.6415
  C  C1101  1  0.745700  0.819500  0.194500  1.0  -0.1339
  C  C1102  1  0.733220  0.780780  0.167890  1.0  -0.0095
  C  C1103  1  0.916500  0.902200  0.174500  1.0  0.1998
  C  C1104  1  0.953400  0.930400  0.156000  1.0  -0.3512
  C  C1105  1  0.923500  0.927600  0.218000  1.0  -0.3348
  C  C1106  1  0.828000  0.839400  0.003100  1.0  0.1022
  C  C1107  1  0.816200  0.807800  0.969800  1.0  -0.108
  C  C1108  1  0.810900  0.764800  0.977500  1.0  -0.1197
  C  C1109  1  0.816400  0.750100  0.023500  1.0  -0.1065
  C  C1110  1  0.827900  0.781500  0.058700  1.0  0.1141
  C  C1111  1  0.287500  0.651100  0.819400  1.0  0.6426
  C  C1112  1  0.245700  0.680500  0.805500  1.0  -0.1328
  C  C1113  1  0.233220  0.719220  0.832110  1.0  -0.0097
  C  C1114  1  0.416500  0.597800  0.825500  1.0  0.2016
  C  C1115  1  0.453400  0.569600  0.844000  1.0  -0.3491
  C  C1116  1  0.423500  0.572400  0.782000  1.0  -0.3386
  C  C1117  1  0.328000  0.660600  0.996900  1.0  0.1024
  C  C1118  1  0.316200  0.692200  0.030200  1.0  -0.1076
  C  C1119  1  0.310900  0.735200  0.022500  1.0  -0.1178
  C  C1120  1  0.316400  0.749900  0.976500  1.0  -0.1043
  C  C1121  1  0.327900  0.718500  0.941300  1.0  0.114
  C  C1122  1  0.712500  0.151100  0.680600  1.0  0.64
  C  C1123  1  0.754300  0.180500  0.694500  1.0  -0.1334
  C  C1124  1  0.766780  0.219220  0.667890  1.0  -0.009
  C  C1125  1  0.583500  0.097800  0.674500  1.0  0.2002
  C  C1126  1  0.546600  0.069600  0.656000  1.0  -0.3507
  C  C1127  1  0.576500  0.072400  0.718000  1.0  -0.3355
  C  C1128  1  0.672000  0.160600  0.503100  1.0  0.1022
  C  C1129  1  0.683800  0.192200  0.469800  1.0  -0.1075
  C  C1130  1  0.689100  0.235200  0.477500  1.0  -0.1172
  C  C1131  1  0.683600  0.249900  0.523500  1.0  -0.1036
  C  C1132  1  0.672100  0.218500  0.558700  1.0  0.1125
  C  C1133  1  0.848900  0.180600  0.787500  1.0  0.6435
  C  C1134  1  0.819500  0.194500  0.745700  1.0  -0.1352
  C  C1135  1  0.780780  0.167890  0.733220  1.0  -0.0114
  C  C1136  1  0.902200  0.174500  0.916500  1.0  0.1962
  C  C1137  1  0.930400  0.156000  0.953400  1.0  -0.3457
  C  C1138  1  0.927600  0.218000  0.923500  1.0  -0.3408
  C  C1139  1  0.839400  0.003100  0.828000  1.0  0.1043
  C  C1140  1  0.807800  0.969800  0.816200  1.0  -0.1095
  C  C1141  1  0.764800  0.977500  0.810900  1.0  -0.1237
  C  C1142  1  0.750100  0.023500  0.816400  1.0  -0.1103
  C  C1143  1  0.781500  0.058700  0.827900  1.0  0.1096
  C  C1144  1  0.348900  0.319400  0.212500  1.0  0.6441
  C  C1145  1  0.319500  0.305500  0.254300  1.0  -0.1354
  C  C1146  1  0.280780  0.332110  0.266780  1.0  -0.011
  C  C1147  1  0.402200  0.325500  0.083500  1.0  0.1983
  C  C1148  1  0.430400  0.344000  0.046600  1.0  -0.3505
  C  C1149  1  0.427600  0.282000  0.076500  1.0  -0.3396
  C  C1150  1  0.339400  0.496900  0.172000  1.0  0.1042
  C  C1151  1  0.307800  0.530200  0.183800  1.0  -0.1068
  C  C1152  1  0.264800  0.522500  0.189100  1.0  -0.1234
  C  C1153  1  0.250100  0.476500  0.183600  1.0  -0.109
  C  C1154  1  0.281500  0.441300  0.172100  1.0  0.1104
  C  C1155  1  0.151100  0.680600  0.712500  1.0  0.6442
  C  C1156  1  0.180500  0.694500  0.754300  1.0  -0.1353
  C  C1157  1  0.219220  0.667890  0.766780  1.0  -0.0114
  C  C1158  1  0.097800  0.674500  0.583500  1.0  0.1949
  C  C1159  1  0.069600  0.656000  0.546600  1.0  -0.3497
  C  C1160  1  0.072400  0.718000  0.576500  1.0  -0.3403
  C  C1161  1  0.160600  0.503100  0.672000  1.0  0.1039
  C  C1162  1  0.192200  0.469800  0.683800  1.0  -0.1094
  C  C1163  1  0.235200  0.477500  0.689100  1.0  -0.1212
  C  C1164  1  0.249900  0.523500  0.683600  1.0  -0.1078
  C  C1165  1  0.218500  0.558700  0.672100  1.0  0.11
  C  C1166  1  0.651100  0.819400  0.287500  1.0  0.6436
  C  C1167  1  0.680500  0.805500  0.245700  1.0  -0.1361
  C  C1168  1  0.719220  0.832110  0.233220  1.0  -0.0116
  C  C1169  1  0.597800  0.825500  0.416500  1.0  0.1933
  C  C1170  1  0.569600  0.844000  0.453400  1.0  -0.3457
  C  C1171  1  0.572400  0.782000  0.423500  1.0  -0.3389
  C  C1172  1  0.660600  0.996900  0.328000  1.0  0.1034
  C  C1173  1  0.692200  0.030200  0.316200  1.0  -0.1066
  C  C1174  1  0.735200  0.022500  0.310900  1.0  -0.121
  C  C1175  1  0.749900  0.976500  0.316400  1.0  -0.1077
  C  C1176  1  0.718500  0.941300  0.327900  1.0  0.1105
  N  N1177  1  0.416130  0.798130  0.076500  1.0  -0.2901
  N  N1178  1  0.083870  0.201870  0.576500  1.0  -0.2899
  N  N1179  1  0.583870  0.298130  0.423500  1.0  -0.2904
  N  N1180  1  0.916130  0.701870  0.923500  1.0  -0.2899
  N  N1181  1  0.076500  0.416130  0.798130  1.0  -0.2906
  N  N1182  1  0.576500  0.083870  0.201870  1.0  -0.2903
  N  N1183  1  0.423500  0.583870  0.298130  1.0  -0.2923
  N  N1184  1  0.923500  0.916130  0.701870  1.0  -0.2917
  N  N1185  1  0.798130  0.076500  0.416130  1.0  -0.2895
  N  N1186  1  0.201870  0.576500  0.083870  1.0  -0.2906
  N  N1187  1  0.298130  0.423500  0.583870  1.0  -0.2903
  N  N1188  1  0.701870  0.923500  0.916130  1.0  -0.2911
  N  N1189  1  0.048130  0.166130  0.673500  1.0  -0.2901
  N  N1190  1  0.451870  0.833870  0.173500  1.0  -0.2911
  N  N1191  1  0.548130  0.333870  0.326500  1.0  -0.2901
  N  N1192  1  0.951870  0.666130  0.826500  1.0  -0.2912
  N  N1193  1  0.666130  0.826500  0.951870  1.0  -0.2899
  N  N1194  1  0.333870  0.326500  0.548130  1.0  -0.2904
  N  N1195  1  0.833870  0.173500  0.451870  1.0  -0.2912
  N  N1196  1  0.166130  0.673500  0.048130  1.0  -0.291
  N  N1197  1  0.326500  0.548130  0.333870  1.0  -0.2897
  N  N1198  1  0.826500  0.951870  0.666130  1.0  -0.2899
  N  N1199  1  0.673500  0.048130  0.166130  1.0  -0.291
  N  N1200  1  0.173500  0.451870  0.833870  1.0  -0.2913
  N  N1201  1  0.916130  0.298130  0.576500  1.0  -0.2901
  N  N1202  1  0.583870  0.701870  0.076500  1.0  -0.2899
  N  N1203  1  0.083870  0.798130  0.923500  1.0  -0.2904
  N  N1204  1  0.416130  0.201870  0.423500  1.0  -0.2899
  N  N1205  1  0.576500  0.916130  0.298130  1.0  -0.2906
  N  N1206  1  0.076500  0.583870  0.701870  1.0  -0.2903
  N  N1207  1  0.923500  0.083870  0.798130  1.0  -0.2923
  N  N1208  1  0.423500  0.416130  0.201870  1.0  -0.2917
  N  N1209  1  0.298130  0.576500  0.916130  1.0  -0.2895
  N  N1210  1  0.701870  0.076500  0.583870  1.0  -0.2906
  N  N1211  1  0.798130  0.923500  0.083870  1.0  -0.2903
  N  N1212  1  0.201870  0.423500  0.416130  1.0  -0.2911
  N  N1213  1  0.548130  0.666130  0.173500  1.0  -0.2901
  N  N1214  1  0.951870  0.333870  0.673500  1.0  -0.2911
  N  N1215  1  0.048130  0.833870  0.826500  1.0  -0.2901
  N  N1216  1  0.451870  0.166130  0.326500  1.0  -0.2912
  N  N1217  1  0.166130  0.326500  0.451870  1.0  -0.2899
  N  N1218  1  0.833870  0.826500  0.048130  1.0  -0.2904
  N  N1219  1  0.333870  0.673500  0.951870  1.0  -0.2912
  N  N1220  1  0.666130  0.173500  0.548130  1.0  -0.291
  N  N1221  1  0.826500  0.048130  0.833870  1.0  -0.2897
  N  N1222  1  0.326500  0.451870  0.166130  1.0  -0.2899
  N  N1223  1  0.173500  0.548130  0.666130  1.0  -0.291
  N  N1224  1  0.673500  0.951870  0.333870  1.0  -0.2913
  O  O1225  1  0.443380  0.891960  0.088020  1.0  -0.5796
  O  O1226  1  0.448440  0.957510  0.130870  1.0  -0.5811
  O  O1227  1  0.378470  0.908760  0.166640  1.0  -0.4344
  O  O1228  1  0.056620  0.108040  0.588020  1.0  -0.5805
  O  O1229  1  0.051560  0.042490  0.630870  1.0  -0.5816
  O  O1230  1  0.121530  0.091240  0.666667  1.0  -0.4362
  O  O1231  1  0.556620  0.391960  0.411980  1.0  -0.5822
  O  O1232  1  0.551560  0.457510  0.369130  1.0  -0.583
  O  O1233  1  0.621530  0.408760  0.333333  1.0  -0.4381
  O  O1234  1  0.943380  0.608040  0.911980  1.0  -0.5806
  O  O1235  1  0.948440  0.542490  0.869130  1.0  -0.5826
  O  O1236  1  0.878470  0.591240  0.833360  1.0  -0.4358
  O  O1237  1  0.088020  0.443380  0.891960  1.0  -0.579
  O  O1238  1  0.130870  0.448440  0.957510  1.0  -0.5842
  O  O1239  1  0.166640  0.378470  0.908760  1.0  -0.4351
  O  O1240  1  0.588020  0.056620  0.108040  1.0  -0.5792
  O  O1241  1  0.630870  0.051560  0.042490  1.0  -0.584
  O  O1242  1  0.666667  0.121530  0.091240  1.0  -0.4356
  O  O1243  1  0.411980  0.556620  0.391960  1.0  -0.5787
  O  O1244  1  0.369130  0.551560  0.457510  1.0  -0.5832
  O  O1245  1  0.333333  0.621530  0.408760  1.0  -0.4381
  O  O1246  1  0.911980  0.943380  0.608040  1.0  -0.5791
  O  O1247  1  0.869130  0.948440  0.542490  1.0  -0.5839
  O  O1248  1  0.833360  0.878470  0.591240  1.0  -0.4371
  O  O1249  1  0.891960  0.088020  0.443380  1.0  -0.5788
  O  O1250  1  0.957510  0.130870  0.448440  1.0  -0.5821
  O  O1251  1  0.908760  0.166640  0.378470  1.0  -0.4328
  O  O1252  1  0.108040  0.588020  0.056620  1.0  -0.5801
  O  O1253  1  0.042490  0.630870  0.051560  1.0  -0.5837
  O  O1254  1  0.091240  0.666667  0.121530  1.0  -0.4338
  O  O1255  1  0.391960  0.411980  0.556620  1.0  -0.5786
  O  O1256  1  0.457510  0.369130  0.551560  1.0  -0.5808
  O  O1257  1  0.408760  0.333333  0.621530  1.0  -0.434
  O  O1258  1  0.608040  0.911980  0.943380  1.0  -0.5802
  O  O1259  1  0.542490  0.869130  0.948440  1.0  -0.5826
  O  O1260  1  0.591240  0.833360  0.878470  1.0  -0.4337
  O  O1261  1  0.141960  0.193380  0.661980  1.0  -0.5787
  O  O1262  1  0.207510  0.198440  0.619130  1.0  -0.5823
  O  O1263  1  0.158760  0.128470  0.583360  1.0  -0.4351
  O  O1264  1  0.358040  0.806620  0.161980  1.0  -0.5802
  O  O1265  1  0.292490  0.801560  0.119130  1.0  -0.5831
  O  O1266  1  0.341240  0.871530  0.083360  1.0  -0.4365
  O  O1267  1  0.641960  0.306620  0.338020  1.0  -0.579
  O  O1268  1  0.707510  0.301560  0.380870  1.0  -0.5803
  O  O1269  1  0.658760  0.371530  0.416640  1.0  -0.4351
  O  O1270  1  0.858040  0.693380  0.838020  1.0  -0.5792
  O  O1271  1  0.792490  0.698440  0.880870  1.0  -0.5821
  O  O1272  1  0.841240  0.628470  0.916640  1.0  -0.436
  O  O1273  1  0.693380  0.838020  0.858040  1.0  -0.5803
  O  O1274  1  0.698440  0.880870  0.792490  1.0  -0.5833
  O  O1275  1  0.628470  0.916640  0.841240  1.0  -0.4365
  O  O1276  1  0.306620  0.338020  0.641960  1.0  -0.5815
  O  O1277  1  0.301560  0.380870  0.707510  1.0  -0.5836
  O  O1278  1  0.371530  0.416640  0.658760  1.0  -0.4363
  O  O1279  1  0.806620  0.161980  0.358040  1.0  -0.5811
  O  O1280  1  0.801560  0.119130  0.292490  1.0  -0.5837
  O  O1281  1  0.871530  0.083360  0.341240  1.0  -0.4392
  O  O1282  1  0.193380  0.661980  0.141960  1.0  -0.5801
  O  O1283  1  0.198440  0.619130  0.207510  1.0  -0.5829
  O  O1284  1  0.128470  0.583360  0.158760  1.0  -0.4379
  O  O1285  1  0.338020  0.641960  0.306620  1.0  -0.5784
  O  O1286  1  0.380870  0.707510  0.301560  1.0  -0.5822
  O  O1287  1  0.416640  0.658760  0.371530  1.0  -0.4322
  O  O1288  1  0.838020  0.858040  0.693380  1.0  -0.5792
  O  O1289  1  0.880870  0.792490  0.698440  1.0  -0.5821
  O  O1290  1  0.916640  0.841240  0.628470  1.0  -0.4328
  O  O1291  1  0.661980  0.141960  0.193380  1.0  -0.5793
  O  O1292  1  0.619130  0.207510  0.198440  1.0  -0.5817
  O  O1293  1  0.583360  0.158760  0.128470  1.0  -0.4342
  O  O1294  1  0.161980  0.358040  0.806620  1.0  -0.5789
  O  O1295  1  0.119130  0.292490  0.801560  1.0  -0.5822
  O  O1296  1  0.083360  0.341240  0.871530  1.0  -0.4339
  O  O1297  1  0.943380  0.391960  0.588020  1.0  -0.5796
  O  O1298  1  0.948440  0.457510  0.630870  1.0  -0.581
  O  O1299  1  0.878470  0.408760  0.666667  1.0  -0.4349
  O  O1300  1  0.556620  0.608040  0.088020  1.0  -0.5805
  O  O1301  1  0.551560  0.542490  0.130870  1.0  -0.5816
  O  O1302  1  0.621530  0.591240  0.166640  1.0  -0.4358
  O  O1303  1  0.056620  0.891960  0.911980  1.0  -0.5822
  O  O1304  1  0.051560  0.957510  0.869130  1.0  -0.5828
  O  O1305  1  0.121530  0.908760  0.833360  1.0  -0.437
  O  O1306  1  0.443380  0.108040  0.411980  1.0  -0.5806
  O  O1307  1  0.448440  0.042490  0.369130  1.0  -0.5826
  O  O1308  1  0.378470  0.091240  0.333333  1.0  -0.4366
  O  O1309  1  0.588020  0.943380  0.391960  1.0  -0.579
  O  O1310  1  0.630870  0.948440  0.457510  1.0  -0.5842
  O  O1311  1  0.666667  0.878470  0.408760  1.0  -0.4357
  O  O1312  1  0.088020  0.556620  0.608040  1.0  -0.5792
  O  O1313  1  0.130870  0.551560  0.542490  1.0  -0.5837
  O  O1314  1  0.166640  0.621530  0.591240  1.0  -0.4356
  O  O1315  1  0.911980  0.056620  0.891960  1.0  -0.5787
  O  O1316  1  0.869130  0.051560  0.957510  1.0  -0.5831
  O  O1317  1  0.833360  0.121530  0.908760  1.0  -0.4374
  O  O1318  1  0.411980  0.443380  0.108040  1.0  -0.5791
  O  O1319  1  0.369130  0.448440  0.042490  1.0  -0.5837
  O  O1320  1  0.333333  0.378470  0.091240  1.0  -0.4378
  O  O1321  1  0.391960  0.588020  0.943380  1.0  -0.5788
  O  O1322  1  0.457510  0.630870  0.948440  1.0  -0.582
  O  O1323  1  0.408760  0.666667  0.878470  1.0  -0.4337
  O  O1324  1  0.608040  0.088020  0.556620  1.0  -0.5801
  O  O1325  1  0.542490  0.130870  0.551560  1.0  -0.5835
  O  O1326  1  0.591240  0.166640  0.621530  1.0  -0.4332
  O  O1327  1  0.891960  0.911980  0.056620  1.0  -0.5786
  O  O1328  1  0.957510  0.869130  0.051560  1.0  -0.5808
  O  O1329  1  0.908760  0.833360  0.121530  1.0  -0.4335
  O  O1330  1  0.108040  0.411980  0.443380  1.0  -0.5802
  O  O1331  1  0.042490  0.369130  0.448440  1.0  -0.5827
  O  O1332  1  0.091240  0.333333  0.378470  1.0  -0.4342
  O  O1333  1  0.641960  0.693380  0.161980  1.0  -0.5787
  O  O1334  1  0.707510  0.698440  0.119130  1.0  -0.5823
  O  O1335  1  0.658760  0.628470  0.083360  1.0  -0.4351
  O  O1336  1  0.858040  0.306620  0.661980  1.0  -0.5802
  O  O1337  1  0.792490  0.301560  0.619130  1.0  -0.5831
  O  O1338  1  0.841240  0.371530  0.583360  1.0  -0.4365
  O  O1339  1  0.141960  0.806620  0.838020  1.0  -0.579
  O  O1340  1  0.207510  0.801560  0.880870  1.0  -0.5803
  O  O1341  1  0.158760  0.871530  0.916640  1.0  -0.4351
  O  O1342  1  0.358040  0.193380  0.338020  1.0  -0.5792
  O  O1343  1  0.292490  0.198440  0.380870  1.0  -0.5821
  O  O1344  1  0.341240  0.128470  0.416640  1.0  -0.436
  O  O1345  1  0.193380  0.338020  0.358040  1.0  -0.5803
  O  O1346  1  0.198440  0.380870  0.292490  1.0  -0.5833
  O  O1347  1  0.128470  0.416640  0.341240  1.0  -0.4365
  O  O1348  1  0.806620  0.838020  0.141960  1.0  -0.5815
  O  O1349  1  0.801560  0.880870  0.207510  1.0  -0.5836
  O  O1350  1  0.871530  0.916640  0.158760  1.0  -0.4363
  O  O1351  1  0.306620  0.661980  0.858040  1.0  -0.5811
  O  O1352  1  0.301560  0.619130  0.792490  1.0  -0.5837
  O  O1353  1  0.371530  0.583360  0.841240  1.0  -0.4392
  O  O1354  1  0.693380  0.161980  0.641960  1.0  -0.5801
  O  O1355  1  0.698440  0.119130  0.707510  1.0  -0.5829
  O  O1356  1  0.628470  0.083360  0.658760  1.0  -0.4379
  O  O1357  1  0.838020  0.141960  0.806620  1.0  -0.5784
  O  O1358  1  0.880870  0.207510  0.801560  1.0  -0.5822
  O  O1359  1  0.916640  0.158760  0.871530  1.0  -0.4322
  O  O1360  1  0.338020  0.358040  0.193380  1.0  -0.5792
  O  O1361  1  0.380870  0.292490  0.198440  1.0  -0.5821
  O  O1362  1  0.416640  0.341240  0.128470  1.0  -0.4328
  O  O1363  1  0.161980  0.641960  0.693380  1.0  -0.5793
  O  O1364  1  0.119130  0.707510  0.698440  1.0  -0.5817
  O  O1365  1  0.083360  0.658760  0.628470  1.0  -0.4342
  O  O1366  1  0.661980  0.858040  0.306620  1.0  -0.5789
  O  O1367  1  0.619130  0.792490  0.301560  1.0  -0.5822
  O  O1368  1  0.583360  0.841240  0.371530  1.0  -0.4339
