# generated using pymatgen
data_NiH16C24(NO3)2
_symmetry_space_group_name_H-M   'P 1'
_cell_length_a   28.80370000
_cell_length_b   28.80370000
_cell_length_c   28.80370000
_cell_angle_alpha   90.00000000
_cell_angle_beta   90.00000000
_cell_angle_gamma   90.00000000
_symmetry_Int_Tables_number   1
_chemical_formula_structural   NiH16C24(NO3)2
_chemical_formula_sum   'Ni24 H384 C576 N48 O144'
_cell_volume   23897.07996687
_cell_formula_units_Z   24
loop_
 _symmetry_equiv_pos_site_id
 _symmetry_equiv_pos_as_xyz
  1  'x, y, z'
loop_
 _atom_site_type_symbol
 _atom_site_label
 _atom_site_symmetry_multiplicity
 _atom_site_fract_x
 _atom_site_fract_y
 _atom_site_fract_z
 _atom_site_occupancy
 _atom_site_charge
  Ni  Ni1  1  0.904070  0.654070  0.875000  1.0  0.7732
  Ni  Ni2  1  0.595930  0.345930  0.375000  1.0  0.7719
  Ni  Ni3  1  0.095930  0.154070  0.625000  1.0  0.7724
  Ni  Ni4  1  0.404070  0.845930  0.125000  1.0  0.7729
  Ni  Ni5  1  0.875000  0.904070  0.654070  1.0  0.7763
  Ni  Ni6  1  0.375000  0.595930  0.345930  1.0  0.7759
  Ni  Ni7  1  0.625000  0.095930  0.154070  1.0  0.7758
  Ni  Ni8  1  0.125000  0.404070  0.845930  1.0  0.7761
  Ni  Ni9  1  0.654070  0.875000  0.904070  1.0  0.773
  Ni  Ni10  1  0.345930  0.375000  0.595930  1.0  0.7721
  Ni  Ni11  1  0.154070  0.625000  0.095930  1.0  0.7731
  Ni  Ni12  1  0.845930  0.125000  0.404070  1.0  0.7723
  Ni  Ni13  1  0.404070  0.154070  0.375000  1.0  0.7732
  Ni  Ni14  1  0.095930  0.845930  0.875000  1.0  0.7716
  Ni  Ni15  1  0.904070  0.345930  0.625000  1.0  0.7729
  Ni  Ni16  1  0.595930  0.654070  0.125000  1.0  0.7723
  Ni  Ni17  1  0.654070  0.125000  0.595930  1.0  0.7732
  Ni  Ni18  1  0.345930  0.625000  0.904070  1.0  0.7723
  Ni  Ni19  1  0.845930  0.875000  0.095930  1.0  0.7721
  Ni  Ni20  1  0.154070  0.375000  0.404070  1.0  0.773
  Ni  Ni21  1  0.625000  0.904070  0.345930  1.0  0.7761
  Ni  Ni22  1  0.125000  0.595930  0.654070  1.0  0.7757
  Ni  Ni23  1  0.375000  0.404070  0.154070  1.0  0.7763
  Ni  Ni24  1  0.875000  0.095930  0.845930  1.0  0.7759
  H  H25  1  0.002600  0.609800  0.976700  1.0  0.1118
  H  H26  1  0.816900  0.604100  0.832000  1.0  0.1225
  H  H27  1  0.921100  0.662900  0.974300  1.0  0.0999
  H  H28  1  0.936100  0.717100  0.033800  1.0  0.1444
  H  H29  1  0.948000  0.792400  0.012900  1.0  0.1129
  H  H30  1  0.939400  0.814400  0.940100  1.0  0.1079
  H  H31  1  0.923000  0.758300  0.880600  1.0  0.0919
  H  H32  1  0.902600  0.579800  0.846300  1.0  0.3911
  H  H33  1  0.497400  0.390200  0.476700  1.0  0.1116
  H  H34  1  0.683100  0.395900  0.332000  1.0  0.1229
  H  H35  1  0.578900  0.337100  0.474300  1.0  0.0997
  H  H36  1  0.563900  0.282900  0.533800  1.0  0.1436
  H  H37  1  0.552000  0.207600  0.512900  1.0  0.1131
  H  H38  1  0.560600  0.185600  0.440100  1.0  0.1081
  H  H39  1  0.577000  0.241700  0.380600  1.0  0.0912
  H  H40  1  0.597400  0.420200  0.346300  1.0  0.391
  H  H41  1  0.997400  0.109800  0.523300  1.0  0.1113
  H  H42  1  0.183100  0.104100  0.668000  1.0  0.1221
  H  H43  1  0.078900  0.162900  0.525700  1.0  0.0998
  H  H44  1  0.063900  0.217100  0.466200  1.0  0.1445
  H  H45  1  0.052000  0.292400  0.487100  1.0  0.1129
  H  H46  1  0.060600  0.314400  0.559900  1.0  0.1078
  H  H47  1  0.077000  0.258300  0.619400  1.0  0.0907
  H  H48  1  0.097400  0.079800  0.653700  1.0  0.3901
  H  H49  1  0.502600  0.890200  0.023300  1.0  0.1116
  H  H50  1  0.316900  0.895900  0.168000  1.0  0.1224
  H  H51  1  0.421100  0.837100  0.025700  1.0  0.0993
  H  H52  1  0.436100  0.782900  0.966200  1.0  0.1444
  H  H53  1  0.448000  0.707600  0.987100  1.0  0.1126
  H  H54  1  0.439400  0.685600  0.059900  1.0  0.1083
  H  H55  1  0.423000  0.741700  0.119400  1.0  0.0909
  H  H56  1  0.402600  0.920200  0.153700  1.0  0.3908
  H  H57  1  0.976700  0.002600  0.609800  1.0  0.1117
  H  H58  1  0.832000  0.816900  0.604100  1.0  0.1209
  H  H59  1  0.974300  0.921100  0.662900  1.0  0.1001
  H  H60  1  0.033800  0.936100  0.717100  1.0  0.1458
  H  H61  1  0.012900  0.948000  0.792400  1.0  0.1122
  H  H62  1  0.940100  0.939400  0.814400  1.0  0.1088
  H  H63  1  0.880600  0.923000  0.758300  1.0  0.0914
  H  H64  1  0.846300  0.902600  0.579800  1.0  0.3903
  H  H65  1  0.476700  0.497400  0.390200  1.0  0.1109
  H  H66  1  0.332000  0.683100  0.395900  1.0  0.1214
  H  H67  1  0.474300  0.578900  0.337100  1.0  0.0996
  H  H68  1  0.533800  0.563900  0.282900  1.0  0.1449
  H  H69  1  0.512900  0.552000  0.207600  1.0  0.1118
  H  H70  1  0.440100  0.560600  0.185600  1.0  0.1083
  H  H71  1  0.380600  0.577000  0.241700  1.0  0.0924
  H  H72  1  0.346300  0.597400  0.420200  1.0  0.3892
  H  H73  1  0.523300  0.997400  0.109800  1.0  0.1118
  H  H74  1  0.668000  0.183100  0.104100  1.0  0.1217
  H  H75  1  0.525700  0.078900  0.162900  1.0  0.1006
  H  H76  1  0.466200  0.063900  0.217100  1.0  0.1471
  H  H77  1  0.487100  0.052000  0.292400  1.0  0.1118
  H  H78  1  0.559900  0.060600  0.314400  1.0  0.1088
  H  H79  1  0.619400  0.077000  0.258300  1.0  0.0918
  H  H80  1  0.653700  0.097400  0.079800  1.0  0.3885
  H  H81  1  0.023300  0.502600  0.890200  1.0  0.1117
  H  H82  1  0.168000  0.316900  0.895900  1.0  0.1212
  H  H83  1  0.025700  0.421100  0.837100  1.0  0.1005
  H  H84  1  0.966200  0.436100  0.782900  1.0  0.1449
  H  H85  1  0.987100  0.448000  0.707600  1.0  0.1121
  H  H86  1  0.059900  0.439400  0.685600  1.0  0.1087
  H  H87  1  0.119400  0.423000  0.741700  1.0  0.0921
  H  H88  1  0.153700  0.402600  0.920200  1.0  0.3898
  H  H89  1  0.609800  0.976700  0.002600  1.0  0.111
  H  H90  1  0.604100  0.832000  0.816900  1.0  0.1222
  H  H91  1  0.662900  0.974300  0.921100  1.0  0.0996
  H  H92  1  0.717100  0.033800  0.936100  1.0  0.1428
  H  H93  1  0.792400  0.012900  0.948000  1.0  0.1138
  H  H94  1  0.814400  0.940100  0.939400  1.0  0.109
  H  H95  1  0.758300  0.880600  0.923000  1.0  0.091
  H  H96  1  0.579800  0.846300  0.902600  1.0  0.3911
  H  H97  1  0.390200  0.476700  0.497400  1.0  0.1116
  H  H98  1  0.395900  0.332000  0.683100  1.0  0.123
  H  H99  1  0.337100  0.474300  0.578900  1.0  0.0999
  H  H100  1  0.282900  0.533800  0.563900  1.0  0.1422
  H  H101  1  0.207600  0.512900  0.552000  1.0  0.1137
  H  H102  1  0.185600  0.440100  0.560600  1.0  0.1104
  H  H103  1  0.241700  0.380600  0.577000  1.0  0.0907
  H  H104  1  0.420200  0.346300  0.597400  1.0  0.3922
  H  H105  1  0.109800  0.523300  0.997400  1.0  0.1117
  H  H106  1  0.104100  0.668000  0.183100  1.0  0.1241
  H  H107  1  0.162900  0.525700  0.078900  1.0  0.0999
  H  H108  1  0.217100  0.466200  0.063900  1.0  0.1438
  H  H109  1  0.292400  0.487100  0.052000  1.0  0.1136
  H  H110  1  0.314400  0.559900  0.060600  1.0  0.1092
  H  H111  1  0.258300  0.619400  0.077000  1.0  0.091
  H  H112  1  0.079800  0.653700  0.097400  1.0  0.3912
  H  H113  1  0.890200  0.023300  0.502600  1.0  0.1114
  H  H114  1  0.895900  0.168000  0.316900  1.0  0.1232
  H  H115  1  0.837100  0.025700  0.421100  1.0  0.0997
  H  H116  1  0.782900  0.966200  0.436100  1.0  0.1443
  H  H117  1  0.707600  0.987100  0.448000  1.0  0.1132
  H  H118  1  0.685600  0.059900  0.439400  1.0  0.1102
  H  H119  1  0.741700  0.119400  0.423000  1.0  0.0912
  H  H120  1  0.920200  0.153700  0.402600  1.0  0.3915
  H  H121  1  0.859800  0.752600  0.773300  1.0  0.111
  H  H122  1  0.854100  0.566900  0.918000  1.0  0.1227
  H  H123  1  0.912900  0.671100  0.775700  1.0  0.1002
  H  H124  1  0.967100  0.686100  0.716200  1.0  0.1448
  H  H125  1  0.042400  0.698000  0.737100  1.0  0.1131
  H  H126  1  0.064400  0.689400  0.809900  1.0  0.1089
  H  H127  1  0.008300  0.673000  0.869400  1.0  0.0913
  H  H128  1  0.829800  0.652600  0.903700  1.0  0.3903
  H  H129  1  0.640200  0.247400  0.273300  1.0  0.1115
  H  H130  1  0.645900  0.433100  0.418000  1.0  0.12
  H  H131  1  0.587100  0.328900  0.275700  1.0  0.1009
  H  H132  1  0.532900  0.313900  0.216200  1.0  0.1456
  H  H133  1  0.457600  0.302000  0.237100  1.0  0.1123
  H  H134  1  0.435600  0.310600  0.309900  1.0  0.11
  H  H135  1  0.491700  0.327000  0.369400  1.0  0.091
  H  H136  1  0.670200  0.347400  0.403700  1.0  0.3904
  H  H137  1  0.359800  0.747400  0.226700  1.0  0.1108
  H  H138  1  0.354100  0.933100  0.082000  1.0  0.1203
  H  H139  1  0.412900  0.828900  0.224300  1.0  0.1007
  H  H140  1  0.467100  0.813900  0.283800  1.0  0.145
  H  H141  1  0.542400  0.802000  0.262900  1.0  0.1135
  H  H142  1  0.564400  0.810600  0.190100  1.0  0.109
  H  H143  1  0.508300  0.827000  0.130600  1.0  0.0919
  H  H144  1  0.329800  0.847400  0.096300  1.0  0.3895
  H  H145  1  0.140200  0.252600  0.726700  1.0  0.1117
  H  H146  1  0.145900  0.066900  0.582000  1.0  0.1194
  H  H147  1  0.087100  0.171100  0.724300  1.0  0.1003
  H  H148  1  0.032900  0.186100  0.783800  1.0  0.1438
  H  H149  1  0.957600  0.198000  0.762900  1.0  0.1129
  H  H150  1  0.935600  0.189400  0.690100  1.0  0.1099
  H  H151  1  0.991700  0.173000  0.630600  1.0  0.0922
  H  H152  1  0.170200  0.152600  0.596300  1.0  0.3914
  H  H153  1  0.252600  0.726700  0.140200  1.0  0.1118
  H  H154  1  0.066900  0.582000  0.145900  1.0  0.12
  H  H155  1  0.171100  0.724300  0.087100  1.0  0.0995
  H  H156  1  0.186100  0.783800  0.032900  1.0  0.1428
  H  H157  1  0.198000  0.762900  0.957600  1.0  0.1124
  H  H158  1  0.189400  0.690100  0.935600  1.0  0.1086
  H  H159  1  0.173000  0.630600  0.991700  1.0  0.0916
  H  H160  1  0.152600  0.596300  0.170200  1.0  0.3925
  H  H161  1  0.747400  0.226700  0.359800  1.0  0.1117
  H  H162  1  0.933100  0.082000  0.354100  1.0  0.1206
  H  H163  1  0.828900  0.224300  0.412900  1.0  0.0997
  H  H164  1  0.813900  0.283800  0.467100  1.0  0.1435
  H  H165  1  0.802000  0.262900  0.542400  1.0  0.1125
  H  H166  1  0.810600  0.190100  0.564400  1.0  0.1091
  H  H167  1  0.827000  0.130600  0.508300  1.0  0.0913
  H  H168  1  0.847400  0.096300  0.329800  1.0  0.39
  H  H169  1  0.247400  0.273300  0.640200  1.0  0.111
  H  H170  1  0.433100  0.418000  0.645900  1.0  0.1209
  H  H171  1  0.328900  0.275700  0.587100  1.0  0.0992
  H  H172  1  0.313900  0.216200  0.532900  1.0  0.1445
  H  H173  1  0.302000  0.237100  0.457600  1.0  0.112
  H  H174  1  0.310600  0.309900  0.435600  1.0  0.1086
  H  H175  1  0.327000  0.369400  0.491700  1.0  0.0916
  H  H176  1  0.347400  0.403700  0.670200  1.0  0.39
  H  H177  1  0.752600  0.773300  0.859800  1.0  0.112
  H  H178  1  0.566900  0.918000  0.854100  1.0  0.1222
  H  H179  1  0.671100  0.775700  0.912900  1.0  0.0998
  H  H180  1  0.686100  0.716200  0.967100  1.0  0.1451
  H  H181  1  0.698000  0.737100  0.042400  1.0  0.1123
  H  H182  1  0.689400  0.809900  0.064400  1.0  0.1085
  H  H183  1  0.673000  0.869400  0.008300  1.0  0.0914
  H  H184  1  0.652600  0.903700  0.829800  1.0  0.3919
  H  H185  1  0.226700  0.359800  0.747400  1.0  0.1115
  H  H186  1  0.082000  0.354100  0.933100  1.0  0.1224
  H  H187  1  0.224300  0.412900  0.828900  1.0  0.0994
  H  H188  1  0.283800  0.467100  0.813900  1.0  0.1446
  H  H189  1  0.262900  0.542400  0.802000  1.0  0.1132
  H  H190  1  0.190100  0.564400  0.810600  1.0  0.1083
  H  H191  1  0.130600  0.508300  0.827000  1.0  0.0907
  H  H192  1  0.096300  0.329800  0.847400  1.0  0.3902
  H  H193  1  0.726700  0.140200  0.252600  1.0  0.1119
  H  H194  1  0.582000  0.145900  0.066900  1.0  0.1207
  H  H195  1  0.724300  0.087100  0.171100  1.0  0.0998
  H  H196  1  0.783800  0.032900  0.186100  1.0  0.1442
  H  H197  1  0.762900  0.957600  0.198000  1.0  0.1132
  H  H198  1  0.690100  0.935600  0.189400  1.0  0.1082
  H  H199  1  0.630600  0.991700  0.173000  1.0  0.0906
  H  H200  1  0.596300  0.170200  0.152600  1.0  0.3894
  H  H201  1  0.773300  0.859800  0.752600  1.0  0.1118
  H  H202  1  0.918000  0.854100  0.566900  1.0  0.1229
  H  H203  1  0.775700  0.912900  0.671100  1.0  0.0994
  H  H204  1  0.716200  0.967100  0.686100  1.0  0.1449
  H  H205  1  0.737100  0.042400  0.698000  1.0  0.113
  H  H206  1  0.809900  0.064400  0.689400  1.0  0.1081
  H  H207  1  0.869400  0.008300  0.673000  1.0  0.0911
  H  H208  1  0.903700  0.829800  0.652600  1.0  0.3887
  H  H209  1  0.273300  0.640200  0.247400  1.0  0.1119
  H  H210  1  0.418000  0.645900  0.433100  1.0  0.121
  H  H211  1  0.275700  0.587100  0.328900  1.0  0.0999
  H  H212  1  0.216200  0.532900  0.313900  1.0  0.1447
  H  H213  1  0.237100  0.457600  0.302000  1.0  0.1128
  H  H214  1  0.309900  0.435600  0.310600  1.0  0.1088
  H  H215  1  0.369400  0.491700  0.327000  1.0  0.0909
  H  H216  1  0.403700  0.670200  0.347400  1.0  0.3901
  H  H217  1  0.502600  0.109800  0.476700  1.0  0.1118
  H  H218  1  0.316900  0.104100  0.332000  1.0  0.1225
  H  H219  1  0.421100  0.162900  0.474300  1.0  0.0999
  H  H220  1  0.436100  0.217100  0.533800  1.0  0.1449
  H  H221  1  0.448000  0.292400  0.512900  1.0  0.1128
  H  H222  1  0.439400  0.314400  0.440100  1.0  0.1083
  H  H223  1  0.423000  0.258300  0.380600  1.0  0.0919
  H  H224  1  0.402600  0.079800  0.346300  1.0  0.3911
  H  H225  1  0.997400  0.890200  0.976700  1.0  0.1116
  H  H226  1  0.183100  0.895900  0.832000  1.0  0.1229
  H  H227  1  0.078900  0.837100  0.974300  1.0  0.0997
  H  H228  1  0.063900  0.782900  0.033800  1.0  0.144
  H  H229  1  0.052000  0.707600  0.012900  1.0  0.113
  H  H230  1  0.060600  0.685600  0.940100  1.0  0.1087
  H  H231  1  0.077000  0.741700  0.880600  1.0  0.0912
  H  H232  1  0.097400  0.920200  0.846300  1.0  0.391
  H  H233  1  0.497400  0.609800  0.023300  1.0  0.1113
  H  H234  1  0.683100  0.604100  0.168000  1.0  0.1221
  H  H235  1  0.578900  0.662900  0.025700  1.0  0.0998
  H  H236  1  0.563900  0.717100  0.966200  1.0  0.1453
  H  H237  1  0.552000  0.792400  0.987100  1.0  0.1128
  H  H238  1  0.560600  0.814400  0.059900  1.0  0.1082
  H  H239  1  0.577000  0.758300  0.119400  1.0  0.0907
  H  H240  1  0.597400  0.579800  0.153700  1.0  0.3902
  H  H241  1  0.002600  0.390200  0.523300  1.0  0.1116
  H  H242  1  0.816900  0.395900  0.668000  1.0  0.1224
  H  H243  1  0.921100  0.337100  0.525700  1.0  0.0993
  H  H244  1  0.936100  0.282900  0.466200  1.0  0.145
  H  H245  1  0.948000  0.207600  0.487100  1.0  0.1124
  H  H246  1  0.939400  0.185600  0.559900  1.0  0.1088
  H  H247  1  0.923000  0.241700  0.619400  1.0  0.0909
  H  H248  1  0.902600  0.420200  0.653700  1.0  0.3908
  H  H249  1  0.476700  0.502600  0.109800  1.0  0.1117
  H  H250  1  0.332000  0.316900  0.104100  1.0  0.1209
  H  H251  1  0.474300  0.421100  0.162900  1.0  0.1001
  H  H252  1  0.533800  0.436100  0.217100  1.0  0.1465
  H  H253  1  0.512900  0.448000  0.292400  1.0  0.1122
  H  H254  1  0.440100  0.439400  0.314400  1.0  0.1092
  H  H255  1  0.380600  0.423000  0.258300  1.0  0.0914
  H  H256  1  0.346300  0.402600  0.079800  1.0  0.3903
  H  H257  1  0.976700  0.997400  0.890200  1.0  0.1109
  H  H258  1  0.832000  0.183100  0.895900  1.0  0.1214
  H  H259  1  0.974300  0.078900  0.837100  1.0  0.0996
  H  H260  1  0.033800  0.063900  0.782900  1.0  0.1455
  H  H261  1  0.012900  0.052000  0.707600  1.0  0.1117
  H  H262  1  0.940100  0.060600  0.685600  1.0  0.1087
  H  H263  1  0.880600  0.077000  0.741700  1.0  0.0924
  H  H264  1  0.846300  0.097400  0.920200  1.0  0.3891
  H  H265  1  0.023300  0.497400  0.609800  1.0  0.1118
  H  H266  1  0.168000  0.683100  0.604100  1.0  0.1217
  H  H267  1  0.025700  0.578900  0.662900  1.0  0.1006
  H  H268  1  0.966200  0.563900  0.717100  1.0  0.1478
  H  H269  1  0.987100  0.552000  0.792400  1.0  0.1117
  H  H270  1  0.059900  0.560600  0.814400  1.0  0.1093
  H  H271  1  0.119400  0.577000  0.758300  1.0  0.0918
  H  H272  1  0.153700  0.597400  0.579800  1.0  0.3886
  H  H273  1  0.523300  0.002600  0.390200  1.0  0.1117
  H  H274  1  0.668000  0.816900  0.395900  1.0  0.1212
  H  H275  1  0.525700  0.921100  0.337100  1.0  0.1005
  H  H276  1  0.466200  0.936100  0.282900  1.0  0.1455
  H  H277  1  0.487100  0.948000  0.207600  1.0  0.1119
  H  H278  1  0.559900  0.939400  0.185600  1.0  0.1091
  H  H279  1  0.619400  0.923000  0.241700  1.0  0.0921
  H  H280  1  0.653700  0.902600  0.420200  1.0  0.3898
  H  H281  1  0.109800  0.476700  0.502600  1.0  0.111
  H  H282  1  0.104100  0.332000  0.316900  1.0  0.1222
  H  H283  1  0.162900  0.474300  0.421100  1.0  0.0996
  H  H284  1  0.217100  0.533800  0.436100  1.0  0.1435
  H  H285  1  0.292400  0.512900  0.448000  1.0  0.1137
  H  H286  1  0.314400  0.440100  0.439400  1.0  0.1093
  H  H287  1  0.258300  0.380600  0.423000  1.0  0.091
  H  H288  1  0.079800  0.346300  0.402600  1.0  0.3911
  H  H289  1  0.890200  0.976700  0.997400  1.0  0.1116
  H  H290  1  0.895900  0.832000  0.183100  1.0  0.1229
  H  H291  1  0.837100  0.974300  0.078900  1.0  0.0999
  H  H292  1  0.782900  0.033800  0.063900  1.0  0.1429
  H  H293  1  0.707600  0.012900  0.052000  1.0  0.1135
  H  H294  1  0.685600  0.940100  0.060600  1.0  0.1112
  H  H295  1  0.741700  0.880600  0.077000  1.0  0.0907
  H  H296  1  0.920200  0.846300  0.097400  1.0  0.3922
  H  H297  1  0.609800  0.023300  0.497400  1.0  0.1117
  H  H298  1  0.604100  0.168000  0.683100  1.0  0.1241
  H  H299  1  0.662900  0.025700  0.578900  1.0  0.0999
  H  H300  1  0.717100  0.966200  0.563900  1.0  0.1446
  H  H301  1  0.792400  0.987100  0.552000  1.0  0.1134
  H  H302  1  0.814400  0.059900  0.560600  1.0  0.1095
  H  H303  1  0.758300  0.119400  0.577000  1.0  0.091
  H  H304  1  0.579800  0.153700  0.597400  1.0  0.3912
  H  H305  1  0.390200  0.523300  0.002600  1.0  0.1114
  H  H306  1  0.395900  0.668000  0.816900  1.0  0.1232
  H  H307  1  0.337100  0.525700  0.921100  1.0  0.0997
  H  H308  1  0.282900  0.466200  0.936100  1.0  0.1451
  H  H309  1  0.207600  0.487100  0.948000  1.0  0.113
  H  H310  1  0.185600  0.559900  0.939400  1.0  0.1108
  H  H311  1  0.241700  0.619400  0.923000  1.0  0.0912
  H  H312  1  0.420200  0.653700  0.902600  1.0  0.3915
  H  H313  1  0.359800  0.252600  0.273300  1.0  0.111
  H  H314  1  0.354100  0.066900  0.418000  1.0  0.1205
  H  H315  1  0.412900  0.171100  0.275700  1.0  0.1002
  H  H316  1  0.467100  0.186100  0.216200  1.0  0.1455
  H  H317  1  0.542400  0.198000  0.237100  1.0  0.113
  H  H318  1  0.564400  0.189400  0.309900  1.0  0.1096
  H  H319  1  0.508300  0.173000  0.369400  1.0  0.0913
  H  H320  1  0.329800  0.152600  0.403700  1.0  0.3903
  H  H321  1  0.140200  0.747400  0.773300  1.0  0.1115
  H  H322  1  0.145900  0.933100  0.918000  1.0  0.1199
  H  H323  1  0.087100  0.828900  0.775700  1.0  0.1009
  H  H324  1  0.032900  0.813900  0.716200  1.0  0.1463
  H  H325  1  0.957600  0.802000  0.737100  1.0  0.1121
  H  H326  1  0.935600  0.810600  0.809900  1.0  0.1108
  H  H327  1  0.991700  0.827000  0.869400  1.0  0.091
  H  H328  1  0.170200  0.847400  0.903700  1.0  0.3903
  H  H329  1  0.859800  0.247400  0.726700  1.0  0.1108
  H  H330  1  0.854100  0.433100  0.582000  1.0  0.1223
  H  H331  1  0.912900  0.328900  0.724300  1.0  0.1007
  H  H332  1  0.967100  0.313900  0.783800  1.0  0.1454
  H  H333  1  0.042400  0.302000  0.762900  1.0  0.1133
  H  H334  1  0.064400  0.310600  0.690100  1.0  0.1097
  H  H335  1  0.008300  0.327000  0.630600  1.0  0.0919
  H  H336  1  0.829800  0.347400  0.596300  1.0  0.3895
  H  H337  1  0.640200  0.752600  0.226700  1.0  0.1117
  H  H338  1  0.645900  0.566900  0.082000  1.0  0.1197
  H  H339  1  0.587100  0.671100  0.224300  1.0  0.1003
  H  H340  1  0.532900  0.686100  0.283800  1.0  0.1442
  H  H341  1  0.457600  0.698000  0.262900  1.0  0.1127
  H  H342  1  0.435600  0.689400  0.190100  1.0  0.1108
  H  H343  1  0.491700  0.673000  0.130600  1.0  0.0922
  H  H344  1  0.670200  0.652600  0.096300  1.0  0.3914
  H  H345  1  0.752600  0.226700  0.640200  1.0  0.1118
  H  H346  1  0.566900  0.082000  0.645900  1.0  0.1198
  H  H347  1  0.671100  0.224300  0.587100  1.0  0.0995
  H  H348  1  0.686100  0.283800  0.532900  1.0  0.1435
  H  H349  1  0.698000  0.262900  0.457600  1.0  0.1123
  H  H350  1  0.689400  0.190100  0.435600  1.0  0.1093
  H  H351  1  0.673000  0.130600  0.491700  1.0  0.0916
  H  H352  1  0.652600  0.096300  0.670200  1.0  0.3926
  H  H353  1  0.247400  0.726700  0.859800  1.0  0.1117
  H  H354  1  0.433100  0.582000  0.854100  1.0  0.122
  H  H355  1  0.328900  0.724300  0.912900  1.0  0.0997
  H  H356  1  0.313900  0.783800  0.967100  1.0  0.1442
  H  H357  1  0.302000  0.762900  0.042400  1.0  0.1124
  H  H358  1  0.310600  0.690100  0.064400  1.0  0.1098
  H  H359  1  0.327000  0.630600  0.008300  1.0  0.0913
  H  H360  1  0.347400  0.596300  0.829800  1.0  0.39
  H  H361  1  0.747400  0.773300  0.140200  1.0  0.111
  H  H362  1  0.933100  0.918000  0.145900  1.0  0.1214
  H  H363  1  0.828900  0.775700  0.087100  1.0  0.0992
  H  H364  1  0.813900  0.716200  0.032900  1.0  0.1451
  H  H365  1  0.802000  0.737100  0.957600  1.0  0.1118
  H  H366  1  0.810600  0.809900  0.935600  1.0  0.1092
  H  H367  1  0.827000  0.869400  0.991700  1.0  0.0916
  H  H368  1  0.847400  0.903700  0.170200  1.0  0.39
  H  H369  1  0.252600  0.273300  0.359800  1.0  0.112
  H  H370  1  0.066900  0.418000  0.354100  1.0  0.1206
  H  H371  1  0.171100  0.275700  0.412900  1.0  0.0998
  H  H372  1  0.186100  0.216200  0.467100  1.0  0.1459
  H  H373  1  0.198000  0.237100  0.542400  1.0  0.1121
  H  H374  1  0.189400  0.309900  0.564400  1.0  0.1092
  H  H375  1  0.173000  0.369400  0.508300  1.0  0.0914
  H  H376  1  0.152600  0.403700  0.329800  1.0  0.3919
  H  H377  1  0.726700  0.859800  0.247400  1.0  0.1115
  H  H378  1  0.582000  0.854100  0.433100  1.0  0.1233
  H  H379  1  0.724300  0.912900  0.328900  1.0  0.0994
  H  H380  1  0.783800  0.967100  0.313900  1.0  0.1454
  H  H381  1  0.762900  0.042400  0.302000  1.0  0.1132
  H  H382  1  0.690100  0.064400  0.310600  1.0  0.109
  H  H383  1  0.630600  0.008300  0.327000  1.0  0.0907
  H  H384  1  0.596300  0.829800  0.347400  1.0  0.3902
  H  H385  1  0.226700  0.640200  0.752600  1.0  0.1119
  H  H386  1  0.082000  0.645900  0.566900  1.0  0.1202
  H  H387  1  0.224300  0.587100  0.671100  1.0  0.0998
  H  H388  1  0.283800  0.532900  0.686100  1.0  0.1449
  H  H389  1  0.262900  0.457600  0.698000  1.0  0.1131
  H  H390  1  0.190100  0.435600  0.689400  1.0  0.109
  H  H391  1  0.130600  0.491700  0.673000  1.0  0.0906
  H  H392  1  0.096300  0.670200  0.652600  1.0  0.3895
  H  H393  1  0.273300  0.359800  0.252600  1.0  0.1118
  H  H394  1  0.418000  0.354100  0.066900  1.0  0.1219
  H  H395  1  0.275700  0.412900  0.171100  1.0  0.0994
  H  H396  1  0.216200  0.467100  0.186100  1.0  0.1457
  H  H397  1  0.237100  0.542400  0.198000  1.0  0.1129
  H  H398  1  0.309900  0.564400  0.189400  1.0  0.1088
  H  H399  1  0.369400  0.508300  0.173000  1.0  0.0911
  H  H400  1  0.403700  0.329800  0.152600  1.0  0.3887
  H  H401  1  0.773300  0.140200  0.747400  1.0  0.1119
  H  H402  1  0.918000  0.145900  0.933100  1.0  0.1218
  H  H403  1  0.775700  0.087100  0.828900  1.0  0.0999
  H  H404  1  0.716200  0.032900  0.813900  1.0  0.1454
  H  H405  1  0.737100  0.957600  0.802000  1.0  0.1126
  H  H406  1  0.809900  0.935600  0.810600  1.0  0.1096
  H  H407  1  0.869400  0.991700  0.827000  1.0  0.0909
  H  H408  1  0.903700  0.170200  0.847400  1.0  0.3901
  C  C409  1  0.965000  0.573500  0.901500  1.0  0.6637
  C  C410  1  0.006200  0.558900  0.929500  1.0  -0.1266
  C  C411  1  0.019600  0.583900  0.967800  1.0  -0.006
  C  C412  1  0.839300  0.583400  0.847200  1.0  0.0156
  C  C413  1  0.834900  0.535400  0.825100  1.0  -0.0293
  C  C414  1  0.838900  0.532000  0.771700  1.0  -0.0236
  C  C415  1  0.877000  0.532000  0.735200  1.0  -0.0507
  C  C416  1  0.924500  0.694000  0.966300  1.0  0.1495
  C  C417  1  0.934200  0.726400  0.003000  1.0  -0.141
  C  C418  1  0.940400  0.770500  0.990500  1.0  -0.0425
  C  C419  1  0.936000  0.783200  0.947900  1.0  -0.1004
  C  C420  1  0.925600  0.748800  0.911300  1.0  0.139
  C  C421  1  0.535000  0.426500  0.401500  1.0  0.6665
  C  C422  1  0.493800  0.441100  0.429500  1.0  -0.1268
  C  C423  1  0.480400  0.416100  0.467800  1.0  -0.0046
  C  C424  1  0.660700  0.416600  0.347200  1.0  0.0118
  C  C425  1  0.665100  0.464600  0.325100  1.0  -0.0292
  C  C426  1  0.661100  0.468000  0.271700  1.0  -0.0227
  C  C427  1  0.623000  0.468000  0.235200  1.0  -0.0502
  C  C428  1  0.575500  0.306000  0.466300  1.0  0.1475
  C  C429  1  0.565800  0.273600  0.503000  1.0  -0.1396
  C  C430  1  0.559600  0.229500  0.490500  1.0  -0.0444
  C  C431  1  0.564000  0.216800  0.447900  1.0  -0.1005
  C  C432  1  0.574400  0.251200  0.411300  1.0  0.1392
  C  C433  1  0.035000  0.073500  0.598500  1.0  0.6643
  C  C434  1  0.993800  0.058900  0.570500  1.0  -0.1273
  C  C435  1  0.980400  0.083900  0.532200  1.0  -0.006
  C  C436  1  0.160700  0.083400  0.652800  1.0  0.0154
  C  C437  1  0.165100  0.035400  0.674900  1.0  -0.0272
  C  C438  1  0.161100  0.032000  0.728300  1.0  -0.0225
  C  C439  1  0.123000  0.032000  0.764800  1.0  -0.0511
  C  C440  1  0.075500  0.194000  0.533700  1.0  0.1478
  C  C441  1  0.065800  0.226400  0.497000  1.0  -0.1435
  C  C442  1  0.059600  0.270500  0.509500  1.0  -0.0433
  C  C443  1  0.064000  0.283200  0.552100  1.0  -0.0995
  C  C444  1  0.074400  0.248800  0.588700  1.0  0.138
  C  C445  1  0.465000  0.926500  0.098500  1.0  0.6628
  C  C446  1  0.506200  0.941100  0.070500  1.0  -0.1265
  C  C447  1  0.519600  0.916100  0.032200  1.0  -0.0057
  C  C448  1  0.339300  0.916600  0.152800  1.0  0.0137
  C  C449  1  0.334900  0.964600  0.174900  1.0  -0.0223
  C  C450  1  0.338900  0.968000  0.228300  1.0  -0.0223
  C  C451  1  0.377000  0.968000  0.264800  1.0  -0.0495
  C  C452  1  0.424500  0.806000  0.033700  1.0  0.147
  C  C453  1  0.434200  0.773600  0.997000  1.0  -0.1418
  C  C454  1  0.440400  0.729500  0.009500  1.0  -0.0426
  C  C455  1  0.436000  0.716800  0.052100  1.0  -0.1006
  C  C456  1  0.425600  0.751200  0.088700  1.0  0.1382
  C  C457  1  0.901500  0.965000  0.573500  1.0  0.6662
  C  C458  1  0.929500  0.006200  0.558900  1.0  -0.1268
  C  C459  1  0.967800  0.019600  0.583900  1.0  -0.0037
  C  C460  1  0.847200  0.839300  0.583400  1.0  0.016
  C  C461  1  0.825100  0.834900  0.535400  1.0  -0.0287
  C  C462  1  0.771700  0.838900  0.532000  1.0  -0.0241
  C  C463  1  0.735200  0.877000  0.532000  1.0  -0.0487
  C  C464  1  0.966300  0.924500  0.694000  1.0  0.1522
  C  C465  1  0.003000  0.934200  0.726400  1.0  -0.1482
  C  C466  1  0.990500  0.940400  0.770500  1.0  -0.0424
  C  C467  1  0.947900  0.936000  0.783200  1.0  -0.1039
  C  C468  1  0.911300  0.925600  0.748800  1.0  0.1359
  C  C469  1  0.401500  0.535000  0.426500  1.0  0.6653
  C  C470  1  0.429500  0.493800  0.441100  1.0  -0.1259
  C  C471  1  0.467800  0.480400  0.416100  1.0  -0.0038
  C  C472  1  0.347200  0.660700  0.416600  1.0  0.0134
  C  C473  1  0.325100  0.665100  0.464600  1.0  -0.0305
  C  C474  1  0.271700  0.661100  0.468000  1.0  -0.0241
  C  C475  1  0.235200  0.623000  0.468000  1.0  -0.0485
  C  C476  1  0.466300  0.575500  0.306000  1.0  0.1512
  C  C477  1  0.503000  0.565800  0.273600  1.0  -0.1476
  C  C478  1  0.490500  0.559600  0.229500  1.0  -0.0429
  C  C479  1  0.447900  0.564000  0.216800  1.0  -0.1036
  C  C480  1  0.411300  0.574400  0.251200  1.0  0.1356
  C  C481  1  0.598500  0.035000  0.073500  1.0  0.6657
  C  C482  1  0.570500  0.993800  0.058900  1.0  -0.1252
  C  C483  1  0.532200  0.980400  0.083900  1.0  -0.0026
  C  C484  1  0.652800  0.160700  0.083400  1.0  0.0122
  C  C485  1  0.674900  0.165100  0.035400  1.0  -0.034
  C  C486  1  0.728300  0.161100  0.032000  1.0  -0.0247
  C  C487  1  0.764800  0.123000  0.032000  1.0  -0.0464
  C  C488  1  0.533700  0.075500  0.194000  1.0  0.1519
  C  C489  1  0.497000  0.065800  0.226400  1.0  -0.149
  C  C490  1  0.509500  0.059600  0.270500  1.0  -0.0444
  C  C491  1  0.552100  0.064000  0.283200  1.0  -0.1024
  C  C492  1  0.588700  0.074400  0.248800  1.0  0.1367
  C  C493  1  0.098500  0.465000  0.926500  1.0  0.6648
  C  C494  1  0.070500  0.506200  0.941100  1.0  -0.1255
  C  C495  1  0.032200  0.519600  0.916100  1.0  -0.0034
  C  C496  1  0.152800  0.339300  0.916600  1.0  0.0129
  C  C497  1  0.174900  0.334900  0.964600  1.0  -0.0258
  C  C498  1  0.228300  0.338900  0.968000  1.0  -0.0245
  C  C499  1  0.264800  0.377000  0.968000  1.0  -0.0492
  C  C500  1  0.033700  0.424500  0.806000  1.0  0.1513
  C  C501  1  0.997000  0.434200  0.773600  1.0  -0.1466
  C  C502  1  0.009500  0.440400  0.729500  1.0  -0.044
  C  C503  1  0.052100  0.436000  0.716800  1.0  -0.1022
  C  C504  1  0.088700  0.425600  0.751200  1.0  0.1357
  C  C505  1  0.573500  0.901500  0.965000  1.0  0.6667
  C  C506  1  0.558900  0.929500  0.006200  1.0  -0.1266
  C  C507  1  0.583900  0.967800  0.019600  1.0  -0.0037
  C  C508  1  0.583400  0.847200  0.839300  1.0  0.0145
  C  C509  1  0.535400  0.825100  0.834900  1.0  -0.0254
  C  C510  1  0.532000  0.771700  0.838900  1.0  -0.0229
  C  C511  1  0.532000  0.735200  0.877000  1.0  -0.0492
  C  C512  1  0.694000  0.966300  0.924500  1.0  0.1433
  C  C513  1  0.726400  0.003000  0.934200  1.0  -0.1471
  C  C514  1  0.770500  0.990500  0.940400  1.0  -0.0401
  C  C515  1  0.783200  0.947900  0.936000  1.0  -0.1039
  C  C516  1  0.748800  0.911300  0.925600  1.0  0.1347
  C  C517  1  0.426500  0.401500  0.535000  1.0  0.6654
  C  C518  1  0.441100  0.429500  0.493800  1.0  -0.1279
  C  C519  1  0.416100  0.467800  0.480400  1.0  -0.0049
  C  C520  1  0.416600  0.347200  0.660700  1.0  0.0115
  C  C521  1  0.464600  0.325100  0.665100  1.0  -0.0253
  C  C522  1  0.468000  0.271700  0.661100  1.0  -0.021
  C  C523  1  0.468000  0.235200  0.623000  1.0  -0.0519
  C  C524  1  0.306000  0.466300  0.575500  1.0  0.145
  C  C525  1  0.273600  0.503000  0.565800  1.0  -0.1464
  C  C526  1  0.229500  0.490500  0.559600  1.0  -0.0424
  C  C527  1  0.216800  0.447900  0.564000  1.0  -0.1063
  C  C528  1  0.251200  0.411300  0.574400  1.0  0.1358
  C  C529  1  0.073500  0.598500  0.035000  1.0  0.6671
  C  C530  1  0.058900  0.570500  0.993800  1.0  -0.1273
  C  C531  1  0.083900  0.532200  0.980400  1.0  -0.0034
  C  C532  1  0.083400  0.652800  0.160700  1.0  0.0144
  C  C533  1  0.035400  0.674900  0.165100  1.0  -0.0237
  C  C534  1  0.032000  0.728300  0.161100  1.0  -0.0228
  C  C535  1  0.032000  0.764800  0.123000  1.0  -0.0517
  C  C536  1  0.194000  0.533700  0.075500  1.0  0.1433
  C  C537  1  0.226400  0.497000  0.065800  1.0  -0.1509
  C  C538  1  0.270500  0.509500  0.059600  1.0  -0.0408
  C  C539  1  0.283200  0.552100  0.064000  1.0  -0.1033
  C  C540  1  0.248800  0.588700  0.074400  1.0  0.1341
  C  C541  1  0.926500  0.098500  0.465000  1.0  0.6651
  C  C542  1  0.941100  0.070500  0.506200  1.0  -0.1277
  C  C543  1  0.916100  0.032200  0.519600  1.0  -0.005
  C  C544  1  0.916600  0.152800  0.339300  1.0  0.0144
  C  C545  1  0.964600  0.174900  0.334900  1.0  -0.0188
  C  C546  1  0.968000  0.228300  0.338900  1.0  -0.0256
  C  C547  1  0.968000  0.264800  0.377000  1.0  -0.0503
  C  C548  1  0.806000  0.033700  0.424500  1.0  0.1453
  C  C549  1  0.773600  0.997000  0.434200  1.0  -0.1505
  C  C550  1  0.729500  0.009500  0.440400  1.0  -0.0428
  C  C551  1  0.716800  0.052100  0.436000  1.0  -0.1063
  C  C552  1  0.751200  0.088700  0.425600  1.0  0.1353
  C  C553  1  0.823500  0.715000  0.848500  1.0  0.6669
  C  C554  1  0.808900  0.756200  0.820500  1.0  -0.1267
  C  C555  1  0.833900  0.769600  0.782200  1.0  -0.0042
  C  C556  1  0.833400  0.589300  0.902800  1.0  0.016
  C  C557  1  0.785400  0.584900  0.924900  1.0  -0.0281
  C  C558  1  0.782000  0.588900  0.978300  1.0  -0.025
  C  C559  1  0.782000  0.627000  0.014800  1.0  -0.0483
  C  C560  1  0.944000  0.674500  0.783700  1.0  0.1463
  C  C561  1  0.976400  0.684200  0.747000  1.0  -0.1469
  C  C562  1  0.020500  0.690400  0.759500  1.0  -0.0417
  C  C563  1  0.033200  0.686000  0.802100  1.0  -0.1038
  C  C564  1  0.998800  0.675600  0.838700  1.0  0.1357
  C  C565  1  0.676500  0.285000  0.348500  1.0  0.6655
  C  C566  1  0.691100  0.243800  0.320500  1.0  -0.1268
  C  C567  1  0.666100  0.230400  0.282200  1.0  -0.0053
  C  C568  1  0.666667  0.410700  0.402800  1.0  0.0174
  C  C569  1  0.714600  0.415100  0.424900  1.0  -0.0319
  C  C570  1  0.718000  0.411100  0.478300  1.0  -0.0248
  C  C571  1  0.718000  0.373000  0.514800  1.0  -0.0479
  C  C572  1  0.556000  0.325500  0.283700  1.0  0.1484
  C  C573  1  0.523600  0.315800  0.247000  1.0  -0.1459
  C  C574  1  0.479500  0.309600  0.259500  1.0  -0.044
  C  C575  1  0.466800  0.314000  0.302100  1.0  -0.1063
  C  C576  1  0.501200  0.324400  0.338700  1.0  0.1378
  C  C577  1  0.323500  0.785000  0.151500  1.0  0.6677
  C  C578  1  0.308900  0.743800  0.179500  1.0  -0.1253
  C  C579  1  0.333900  0.730400  0.217800  1.0  -0.0031
  C  C580  1  0.333400  0.910700  0.097200  1.0  0.0143
  C  C581  1  0.285400  0.915100  0.075100  1.0  -0.0276
  C  C582  1  0.282000  0.911100  0.021700  1.0  -0.0207
  C  C583  1  0.282000  0.873000  0.985200  1.0  -0.0476
  C  C584  1  0.444000  0.825500  0.216300  1.0  0.1477
  C  C585  1  0.476400  0.815800  0.253000  1.0  -0.1459
  C  C586  1  0.520500  0.809600  0.240500  1.0  -0.0432
  C  C587  1  0.533200  0.814000  0.197900  1.0  -0.1041
  C  C588  1  0.498800  0.824400  0.161300  1.0  0.1373
  C  C589  1  0.176500  0.215000  0.651500  1.0  0.6675
  C  C590  1  0.191100  0.256200  0.679500  1.0  -0.1265
  C  C591  1  0.166100  0.269600  0.717800  1.0  -0.0042
  C  C592  1  0.166600  0.089300  0.597200  1.0  0.0132
  C  C593  1  0.214600  0.084900  0.575100  1.0  -0.0243
  C  C594  1  0.218000  0.088900  0.521700  1.0  -0.0208
  C  C595  1  0.218000  0.127000  0.485200  1.0  -0.0471
  C  C596  1  0.056000  0.174500  0.716300  1.0  0.1482
  C  C597  1  0.023600  0.184200  0.753000  1.0  -0.1442
  C  C598  1  0.979500  0.190400  0.740500  1.0  -0.0447
  C  C599  1  0.966800  0.186000  0.697900  1.0  -0.1066
  C  C600  1  0.001200  0.175600  0.661300  1.0  0.138
  C  C601  1  0.215000  0.651500  0.176500  1.0  0.6611
  C  C602  1  0.256200  0.679500  0.191100  1.0  -0.1259
  C  C603  1  0.269600  0.717800  0.166100  1.0  -0.0048
  C  C604  1  0.089300  0.597200  0.166600  1.0  0.0141
  C  C605  1  0.084900  0.575100  0.214600  1.0  -0.0277
  C  C606  1  0.088900  0.521700  0.218000  1.0  -0.0165
  C  C607  1  0.127000  0.485200  0.218000  1.0  -0.0505
  C  C608  1  0.174500  0.716300  0.056000  1.0  0.1488
  C  C609  1  0.184200  0.753000  0.023600  1.0  -0.1429
  C  C610  1  0.190400  0.740500  0.979500  1.0  -0.0417
  C  C611  1  0.186000  0.697900  0.966800  1.0  -0.1029
  C  C612  1  0.175600  0.661300  0.001200  1.0  0.1378
  C  C613  1  0.785000  0.151500  0.323500  1.0  0.6654
  C  C614  1  0.743800  0.179500  0.308900  1.0  -0.1266
  C  C615  1  0.730400  0.217800  0.333900  1.0  -0.0041
  C  C616  1  0.910700  0.097200  0.333400  1.0  0.0117
  C  C617  1  0.915100  0.075100  0.285400  1.0  -0.0291
  C  C618  1  0.911100  0.021700  0.282000  1.0  -0.0188
  C  C619  1  0.873000  0.985200  0.282000  1.0  -0.0496
  C  C620  1  0.825500  0.216300  0.444000  1.0  0.1479
  C  C621  1  0.815800  0.253000  0.476400  1.0  -0.143
  C  C622  1  0.809600  0.240500  0.520500  1.0  -0.0417
  C  C623  1  0.814000  0.197900  0.533200  1.0  -0.1028
  C  C624  1  0.824400  0.161300  0.498800  1.0  0.1385
  C  C625  1  0.285000  0.348500  0.676500  1.0  0.665
  C  C626  1  0.243800  0.320500  0.691100  1.0  -0.1277
  C  C627  1  0.230400  0.282200  0.666100  1.0  -0.0038
  C  C628  1  0.410700  0.402800  0.666667  1.0  0.015
  C  C629  1  0.415100  0.424900  0.714600  1.0  -0.0292
  C  C630  1  0.411100  0.478300  0.718000  1.0  -0.0222
  C  C631  1  0.373000  0.514800  0.718000  1.0  -0.0507
  C  C632  1  0.325500  0.283700  0.556000  1.0  0.149
  C  C633  1  0.315800  0.247000  0.523600  1.0  -0.1468
  C  C634  1  0.309600  0.259500  0.479500  1.0  -0.0427
  C  C635  1  0.314000  0.302100  0.466800  1.0  -0.1021
  C  C636  1  0.324400  0.338700  0.501200  1.0  0.1373
  C  C637  1  0.715000  0.848500  0.823500  1.0  0.6626
  C  C638  1  0.756200  0.820500  0.808900  1.0  -0.1269
  C  C639  1  0.769600  0.782200  0.833900  1.0  -0.0036
  C  C640  1  0.589300  0.902800  0.833400  1.0  0.0145
  C  C641  1  0.584900  0.924900  0.785400  1.0  -0.0318
  C  C642  1  0.588900  0.978300  0.782000  1.0  -0.0231
  C  C643  1  0.627000  0.014800  0.782000  1.0  -0.0499
  C  C644  1  0.674500  0.783700  0.944000  1.0  0.1501
  C  C645  1  0.684200  0.747000  0.976400  1.0  -0.1487
  C  C646  1  0.690400  0.759500  0.020500  1.0  -0.0414
  C  C647  1  0.686000  0.802100  0.033200  1.0  -0.102
  C  C648  1  0.675600  0.838700  0.998800  1.0  0.1375
  C  C649  1  0.151500  0.323500  0.785000  1.0  0.6658
  C  C650  1  0.179500  0.308900  0.743800  1.0  -0.1279
  C  C651  1  0.217800  0.333900  0.730400  1.0  -0.005
  C  C652  1  0.097200  0.333400  0.910700  1.0  0.0172
  C  C653  1  0.075100  0.285400  0.915100  1.0  -0.0266
  C  C654  1  0.021700  0.282000  0.911100  1.0  -0.0179
  C  C655  1  0.985200  0.282000  0.873000  1.0  -0.0525
  C  C656  1  0.216300  0.444000  0.825500  1.0  0.1485
  C  C657  1  0.253000  0.476400  0.815800  1.0  -0.1493
  C  C658  1  0.240500  0.520500  0.809600  1.0  -0.042
  C  C659  1  0.197900  0.533200  0.814000  1.0  -0.1012
  C  C660  1  0.161300  0.498800  0.824400  1.0  0.1342
  C  C661  1  0.651500  0.176500  0.215000  1.0  0.6658
  C  C662  1  0.679500  0.191100  0.256200  1.0  -0.127
  C  C663  1  0.717800  0.166100  0.269600  1.0  -0.0046
  C  C664  1  0.597200  0.166600  0.089300  1.0  0.017
  C  C665  1  0.575100  0.214600  0.084900  1.0  -0.0263
  C  C666  1  0.521700  0.218000  0.088900  1.0  -0.0163
  C  C667  1  0.485200  0.218000  0.127000  1.0  -0.05
  C  C668  1  0.716300  0.056000  0.174500  1.0  0.1459
  C  C669  1  0.753000  0.023600  0.184200  1.0  -0.1463
  C  C670  1  0.740500  0.979500  0.190400  1.0  -0.0422
  C  C671  1  0.697900  0.966800  0.186000  1.0  -0.1015
  C  C672  1  0.661300  0.001200  0.175600  1.0  0.1346
  C  C673  1  0.848500  0.823500  0.715000  1.0  0.6645
  C  C674  1  0.820500  0.808900  0.756200  1.0  -0.1269
  C  C675  1  0.782200  0.833900  0.769600  1.0  -0.0053
  C  C676  1  0.902800  0.833400  0.589300  1.0  0.0142
  C  C677  1  0.924900  0.785400  0.584900  1.0  -0.024
  C  C678  1  0.978300  0.782000  0.588900  1.0  -0.0247
  C  C679  1  0.014800  0.782000  0.627000  1.0  -0.05
  C  C680  1  0.783700  0.944000  0.674500  1.0  0.1475
  C  C681  1  0.747000  0.976400  0.684200  1.0  -0.1486
  C  C682  1  0.759500  0.020500  0.690400  1.0  -0.0435
  C  C683  1  0.802100  0.033200  0.686000  1.0  -0.1006
  C  C684  1  0.838700  0.998800  0.675600  1.0  0.1349
  C  C685  1  0.348500  0.676500  0.285000  1.0  0.6656
  C  C686  1  0.320500  0.691100  0.243800  1.0  -0.1262
  C  C687  1  0.282200  0.666100  0.230400  1.0  -0.0039
  C  C688  1  0.402800  0.666667  0.410700  1.0  0.0147
  C  C689  1  0.424900  0.714600  0.415100  1.0  -0.0233
  C  C690  1  0.478300  0.718000  0.411100  1.0  -0.0213
  C  C691  1  0.514800  0.718000  0.373000  1.0  -0.0519
  C  C692  1  0.283700  0.556000  0.325500  1.0  0.1462
  C  C693  1  0.247000  0.523600  0.315800  1.0  -0.1465
  C  C694  1  0.259500  0.479500  0.309600  1.0  -0.0436
  C  C695  1  0.302100  0.466800  0.314000  1.0  -0.1004
  C  C696  1  0.338700  0.501200  0.324400  1.0  0.1346
  C  C697  1  0.465000  0.073500  0.401500  1.0  0.6637
  C  C698  1  0.506200  0.058900  0.429500  1.0  -0.1266
  C  C699  1  0.519600  0.083900  0.467800  1.0  -0.006
  C  C700  1  0.339300  0.083400  0.347200  1.0  0.0156
  C  C701  1  0.334900  0.035400  0.325100  1.0  -0.0301
  C  C702  1  0.338900  0.032000  0.271700  1.0  -0.0236
  C  C703  1  0.377000  0.032000  0.235200  1.0  -0.0498
  C  C704  1  0.424500  0.194000  0.466300  1.0  0.1495
  C  C705  1  0.434200  0.226400  0.503000  1.0  -0.141
  C  C706  1  0.440400  0.270500  0.490500  1.0  -0.0425
  C  C707  1  0.436000  0.283200  0.447900  1.0  -0.1004
  C  C708  1  0.425600  0.248800  0.411300  1.0  0.139
  C  C709  1  0.035000  0.926500  0.901500  1.0  0.6665
  C  C710  1  0.993800  0.941100  0.929500  1.0  -0.1268
  C  C711  1  0.980400  0.916100  0.967800  1.0  -0.0046
  C  C712  1  0.160700  0.916600  0.847200  1.0  0.0123
  C  C713  1  0.165100  0.964600  0.825100  1.0  -0.0254
  C  C714  1  0.161100  0.968000  0.771700  1.0  -0.0227
  C  C715  1  0.123000  0.968000  0.735200  1.0  -0.0495
  C  C716  1  0.075500  0.806000  0.966300  1.0  0.1475
  C  C717  1  0.065800  0.773600  0.003000  1.0  -0.1396
  C  C718  1  0.059600  0.729500  0.990500  1.0  -0.0444
  C  C719  1  0.064000  0.716800  0.947900  1.0  -0.1005
  C  C720  1  0.074400  0.751200  0.911300  1.0  0.1392
  C  C721  1  0.535000  0.573500  0.098500  1.0  0.6644
  C  C722  1  0.493800  0.558900  0.070500  1.0  -0.1273
  C  C723  1  0.480400  0.583900  0.032200  1.0  -0.006
  C  C724  1  0.660700  0.583400  0.152800  1.0  0.0148
  C  C725  1  0.665100  0.535400  0.174900  1.0  -0.0274
  C  C726  1  0.661100  0.532000  0.228300  1.0  -0.0225
  C  C727  1  0.623000  0.532000  0.264800  1.0  -0.0505
  C  C728  1  0.575500  0.694000  0.033700  1.0  0.1478
  C  C729  1  0.565800  0.726400  0.997000  1.0  -0.1435
  C  C730  1  0.559600  0.770500  0.009500  1.0  -0.0433
  C  C731  1  0.564000  0.783200  0.052100  1.0  -0.0995
  C  C732  1  0.574400  0.748800  0.088700  1.0  0.138
  C  C733  1  0.965000  0.426500  0.598500  1.0  0.6628
  C  C734  1  0.006200  0.441100  0.570500  1.0  -0.1265
  C  C735  1  0.019600  0.416100  0.532200  1.0  -0.0057
  C  C736  1  0.839300  0.416600  0.652800  1.0  0.0137
  C  C737  1  0.834900  0.464600  0.674900  1.0  -0.0296
  C  C738  1  0.838900  0.468000  0.728300  1.0  -0.0223
  C  C739  1  0.877000  0.468000  0.764800  1.0  -0.0487
  C  C740  1  0.924500  0.306000  0.533700  1.0  0.147
  C  C741  1  0.934200  0.273600  0.497000  1.0  -0.1418
  C  C742  1  0.940400  0.229500  0.509500  1.0  -0.0426
  C  C743  1  0.936000  0.216800  0.552100  1.0  -0.1006
  C  C744  1  0.925600  0.251200  0.588700  1.0  0.1382
  C  C745  1  0.401500  0.465000  0.073500  1.0  0.6662
  C  C746  1  0.429500  0.506200  0.058900  1.0  -0.1268
  C  C747  1  0.467800  0.519600  0.083900  1.0  -0.0037
  C  C748  1  0.347200  0.339300  0.083400  1.0  0.016
  C  C749  1  0.325100  0.334900  0.035400  1.0  -0.0272
  C  C750  1  0.271700  0.338900  0.032000  1.0  -0.0241
  C  C751  1  0.235200  0.377000  0.032000  1.0  -0.0479
  C  C752  1  0.466300  0.424500  0.194000  1.0  0.1522
  C  C753  1  0.503000  0.434200  0.226400  1.0  -0.1482
  C  C754  1  0.490500  0.440400  0.270500  1.0  -0.0424
  C  C755  1  0.447900  0.436000  0.283200  1.0  -0.1039
  C  C756  1  0.411300  0.425600  0.248800  1.0  0.1359
  C  C757  1  0.901500  0.035000  0.926500  1.0  0.6653
  C  C758  1  0.929500  0.993800  0.941100  1.0  -0.1259
  C  C759  1  0.967800  0.980400  0.916100  1.0  -0.0038
  C  C760  1  0.847200  0.160700  0.916600  1.0  0.0139
  C  C761  1  0.825100  0.165100  0.964600  1.0  -0.0269
  C  C762  1  0.771700  0.161100  0.968000  1.0  -0.0241
  C  C763  1  0.735200  0.123000  0.968000  1.0  -0.0475
  C  C764  1  0.966300  0.075500  0.806000  1.0  0.1512
  C  C765  1  0.003000  0.065800  0.773600  1.0  -0.1476
  C  C766  1  0.990500  0.059600  0.729500  1.0  -0.0429
  C  C767  1  0.947900  0.064000  0.716800  1.0  -0.1036
  C  C768  1  0.911300  0.074400  0.751200  1.0  0.1356
  C  C769  1  0.098500  0.535000  0.573500  1.0  0.6657
  C  C770  1  0.070500  0.493800  0.558900  1.0  -0.1252
  C  C771  1  0.032200  0.480400  0.583900  1.0  -0.0026
  C  C772  1  0.152800  0.660700  0.583400  1.0  0.0118
  C  C773  1  0.174900  0.665100  0.535400  1.0  -0.0359
  C  C774  1  0.228300  0.661100  0.532000  1.0  -0.0247
  C  C775  1  0.264800  0.623000  0.532000  1.0  -0.0455
  C  C776  1  0.033700  0.575500  0.694000  1.0  0.1519
  C  C777  1  0.997000  0.565800  0.726400  1.0  -0.149
  C  C778  1  0.009500  0.559600  0.770500  1.0  -0.0444
  C  C779  1  0.052100  0.564000  0.783200  1.0  -0.1024
  C  C780  1  0.088700  0.574400  0.748800  1.0  0.1367
  C  C781  1  0.598500  0.965000  0.426500  1.0  0.6648
  C  C782  1  0.570500  0.006200  0.441100  1.0  -0.1255
  C  C783  1  0.532200  0.019600  0.416100  1.0  -0.0034
  C  C784  1  0.652800  0.839300  0.416600  1.0  0.0129
  C  C785  1  0.674900  0.834900  0.464600  1.0  -0.0338
  C  C786  1  0.728300  0.838900  0.468000  1.0  -0.0245
  C  C787  1  0.764800  0.877000  0.468000  1.0  -0.0482
  C  C788  1  0.533700  0.924500  0.306000  1.0  0.1513
  C  C789  1  0.497000  0.934200  0.273600  1.0  -0.1466
  C  C790  1  0.509500  0.940400  0.229500  1.0  -0.044
  C  C791  1  0.552100  0.936000  0.216800  1.0  -0.1022
  C  C792  1  0.588700  0.925600  0.251200  1.0  0.1357
  C  C793  1  0.073500  0.401500  0.465000  1.0  0.6667
  C  C794  1  0.058900  0.429500  0.506200  1.0  -0.1266
  C  C795  1  0.083900  0.467800  0.519600  1.0  -0.0037
  C  C796  1  0.083400  0.347200  0.339300  1.0  0.0145
  C  C797  1  0.035400  0.325100  0.334900  1.0  -0.0257
  C  C798  1  0.032000  0.271700  0.338900  1.0  -0.0229
  C  C799  1  0.032000  0.235200  0.377000  1.0  -0.0487
  C  C800  1  0.194000  0.466300  0.424500  1.0  0.1433
  C  C801  1  0.226400  0.503000  0.434200  1.0  -0.1471
  C  C802  1  0.270500  0.490500  0.440400  1.0  -0.0401
  C  C803  1  0.283200  0.447900  0.436000  1.0  -0.1039
  C  C804  1  0.248800  0.411300  0.425600  1.0  0.1347
  C  C805  1  0.926500  0.901500  0.035000  1.0  0.6653
  C  C806  1  0.941100  0.929500  0.993800  1.0  -0.1279
  C  C807  1  0.916100  0.967800  0.980400  1.0  -0.0049
  C  C808  1  0.916600  0.847200  0.160700  1.0  0.0121
  C  C809  1  0.964600  0.825100  0.165100  1.0  -0.0221
  C  C810  1  0.968000  0.771700  0.161100  1.0  -0.021
  C  C811  1  0.968000  0.735200  0.123000  1.0  -0.051
  C  C812  1  0.806000  0.966300  0.075500  1.0  0.145
  C  C813  1  0.773600  0.003000  0.065800  1.0  -0.1464
  C  C814  1  0.729500  0.990500  0.059600  1.0  -0.0424
  C  C815  1  0.716800  0.947900  0.064000  1.0  -0.1063
  C  C816  1  0.751200  0.911300  0.074400  1.0  0.1358
  C  C817  1  0.573500  0.098500  0.535000  1.0  0.6672
  C  C818  1  0.558900  0.070500  0.493800  1.0  -0.1273
  C  C819  1  0.583900  0.032200  0.480400  1.0  -0.0034
  C  C820  1  0.583400  0.152800  0.660700  1.0  0.0138
  C  C821  1  0.535400  0.174900  0.665100  1.0  -0.0248
  C  C822  1  0.532000  0.228300  0.661100  1.0  -0.0228
  C  C823  1  0.532000  0.264800  0.623000  1.0  -0.0508
  C  C824  1  0.694000  0.033700  0.575500  1.0  0.1433
  C  C825  1  0.726400  0.997000  0.565800  1.0  -0.1509
  C  C826  1  0.770500  0.009500  0.559600  1.0  -0.0408
  C  C827  1  0.783200  0.052100  0.564000  1.0  -0.1033
  C  C828  1  0.748800  0.088700  0.574400  1.0  0.1341
  C  C829  1  0.426500  0.598500  0.965000  1.0  0.6651
  C  C830  1  0.441100  0.570500  0.006200  1.0  -0.1277
  C  C831  1  0.416100  0.532200  0.019600  1.0  -0.005
  C  C832  1  0.416600  0.652800  0.839300  1.0  0.0144
  C  C833  1  0.464600  0.674900  0.834900  1.0  -0.0271
  C  C834  1  0.468000  0.728300  0.838900  1.0  -0.0256
  C  C835  1  0.468000  0.764800  0.877000  1.0  -0.0499
  C  C836  1  0.306000  0.533700  0.924500  1.0  0.1453
  C  C837  1  0.273600  0.497000  0.934200  1.0  -0.1505
  C  C838  1  0.229500  0.509500  0.940400  1.0  -0.0428
  C  C839  1  0.216800  0.552100  0.936000  1.0  -0.1063
  C  C840  1  0.251200  0.588700  0.925600  1.0  0.1353
  C  C841  1  0.323500  0.215000  0.348500  1.0  0.6669
  C  C842  1  0.308900  0.256200  0.320500  1.0  -0.1267
  C  C843  1  0.333900  0.269600  0.282200  1.0  -0.0042
  C  C844  1  0.333400  0.089300  0.402800  1.0  0.016
  C  C845  1  0.285400  0.084900  0.424900  1.0  -0.0266
  C  C846  1  0.282000  0.088900  0.478300  1.0  -0.0191
  C  C847  1  0.282000  0.127000  0.514800  1.0  -0.0475
  C  C848  1  0.444000  0.174500  0.283700  1.0  0.1463
  C  C849  1  0.476400  0.184200  0.247000  1.0  -0.1469
  C  C850  1  0.520500  0.190400  0.259500  1.0  -0.0417
  C  C851  1  0.533200  0.186000  0.302100  1.0  -0.1038
  C  C852  1  0.498800  0.175600  0.338700  1.0  0.1357
  C  C853  1  0.176500  0.785000  0.848500  1.0  0.6655
  C  C854  1  0.191100  0.743800  0.820500  1.0  -0.1268
  C  C855  1  0.166100  0.730400  0.782200  1.0  -0.0053
  C  C856  1  0.166600  0.910700  0.902800  1.0  0.0129
  C  C857  1  0.214600  0.915100  0.924900  1.0  -0.0347
  C  C858  1  0.218000  0.911100  0.978300  1.0  -0.0204
  C  C859  1  0.218000  0.873000  0.014800  1.0  -0.047
  C  C860  1  0.056000  0.825500  0.783700  1.0  0.1484
  C  C861  1  0.023600  0.815800  0.747000  1.0  -0.1459
  C  C862  1  0.979500  0.809600  0.759500  1.0  -0.044
  C  C863  1  0.966800  0.814000  0.802100  1.0  -0.1063
  C  C864  1  0.001200  0.824400  0.838700  1.0  0.1378
  C  C865  1  0.823500  0.285000  0.651500  1.0  0.6677
  C  C866  1  0.808900  0.243800  0.679500  1.0  -0.1253
  C  C867  1  0.833900  0.230400  0.717800  1.0  -0.0031
  C  C868  1  0.833400  0.410700  0.597200  1.0  0.0143
  C  C869  1  0.785400  0.415100  0.575100  1.0  -0.0302
  C  C870  1  0.782000  0.411100  0.521700  1.0  -0.0262
  C  C871  1  0.782000  0.373000  0.485200  1.0  -0.0465
  C  C872  1  0.944000  0.325500  0.716300  1.0  0.1477
  C  C873  1  0.976400  0.315800  0.753000  1.0  -0.1459
  C  C874  1  0.020500  0.309600  0.740500  1.0  -0.0432
  C  C875  1  0.033200  0.314000  0.697900  1.0  -0.1041
  C  C876  1  0.998800  0.324400  0.661300  1.0  0.1373
  C  C877  1  0.676500  0.715000  0.151500  1.0  0.6675
  C  C878  1  0.691100  0.756200  0.179500  1.0  -0.1265
  C  C879  1  0.666100  0.769600  0.217800  1.0  -0.0042
  C  C880  1  0.666667  0.589300  0.097200  1.0  0.0176
  C  C881  1  0.714600  0.584900  0.075100  1.0  -0.0266
  C  C882  1  0.718000  0.588900  0.021700  1.0  -0.0269
  C  C883  1  0.718000  0.627000  0.985200  1.0  -0.0462
  C  C884  1  0.556000  0.674500  0.216300  1.0  0.1482
  C  C885  1  0.523600  0.684200  0.253000  1.0  -0.1442
  C  C886  1  0.479500  0.690400  0.240500  1.0  -0.0447
  C  C887  1  0.466800  0.686000  0.197900  1.0  -0.1066
  C  C888  1  0.501200  0.675600  0.161300  1.0  0.138
  C  C889  1  0.715000  0.151500  0.676500  1.0  0.6611
  C  C890  1  0.756200  0.179500  0.691100  1.0  -0.1259
  C  C891  1  0.769600  0.217800  0.666100  1.0  -0.0048
  C  C892  1  0.589300  0.097200  0.666667  1.0  0.0172
  C  C893  1  0.584900  0.075100  0.714600  1.0  -0.0315
  C  C894  1  0.588900  0.021700  0.718000  1.0  -0.0222
  C  C895  1  0.627000  0.985200  0.718000  1.0  -0.0497
  C  C896  1  0.674500  0.216300  0.556000  1.0  0.1488
  C  C897  1  0.684200  0.253000  0.523600  1.0  -0.1429
  C  C898  1  0.690400  0.240500  0.479500  1.0  -0.0417
  C  C899  1  0.686000  0.197900  0.466800  1.0  -0.1029
  C  C900  1  0.675600  0.161300  0.501200  1.0  0.1378
  C  C901  1  0.285000  0.651500  0.823500  1.0  0.6654
  C  C902  1  0.243800  0.679500  0.808900  1.0  -0.1266
  C  C903  1  0.230400  0.717800  0.833900  1.0  -0.0041
  C  C904  1  0.410700  0.597200  0.833400  1.0  0.0117
  C  C905  1  0.415100  0.575100  0.785400  1.0  -0.0315
  C  C906  1  0.411100  0.521700  0.782000  1.0  -0.0222
  C  C907  1  0.373000  0.485200  0.782000  1.0  -0.049
  C  C908  1  0.325500  0.716300  0.944000  1.0  0.1479
  C  C909  1  0.315800  0.753000  0.976400  1.0  -0.143
  C  C910  1  0.309600  0.740500  0.020500  1.0  -0.0417
  C  C911  1  0.314000  0.697900  0.033200  1.0  -0.1028
  C  C912  1  0.324400  0.661300  0.998800  1.0  0.1385
  C  C913  1  0.785000  0.848500  0.176500  1.0  0.665
  C  C914  1  0.743800  0.820500  0.191100  1.0  -0.1277
  C  C915  1  0.730400  0.782200  0.166100  1.0  -0.0038
  C  C916  1  0.910700  0.902800  0.166600  1.0  0.012
  C  C917  1  0.915100  0.924900  0.214600  1.0  -0.0327
  C  C918  1  0.911100  0.978300  0.218000  1.0  -0.0182
  C  C919  1  0.873000  0.014800  0.218000  1.0  -0.05
  C  C920  1  0.825500  0.783700  0.056000  1.0  0.149
  C  C921  1  0.815800  0.747000  0.023600  1.0  -0.1468
  C  C922  1  0.809600  0.759500  0.979500  1.0  -0.0427
  C  C923  1  0.814000  0.802100  0.966800  1.0  -0.1021
  C  C924  1  0.824400  0.838700  0.001200  1.0  0.1373
  C  C925  1  0.215000  0.348500  0.323500  1.0  0.6626
  C  C926  1  0.256200  0.320500  0.308900  1.0  -0.1269
  C  C927  1  0.269600  0.282200  0.333900  1.0  -0.0036
  C  C928  1  0.089300  0.402800  0.333400  1.0  0.0145
  C  C929  1  0.084900  0.424900  0.285400  1.0  -0.0304
  C  C930  1  0.088900  0.478300  0.282000  1.0  -0.0181
  C  C931  1  0.127000  0.514800  0.282000  1.0  -0.0491
  C  C932  1  0.174500  0.283700  0.444000  1.0  0.1501
  C  C933  1  0.184200  0.247000  0.476400  1.0  -0.1487
  C  C934  1  0.190400  0.259500  0.520500  1.0  -0.0414
  C  C935  1  0.186000  0.302100  0.533200  1.0  -0.102
  C  C936  1  0.175600  0.338700  0.498800  1.0  0.1375
  C  C937  1  0.651500  0.823500  0.285000  1.0  0.6658
  C  C938  1  0.679500  0.808900  0.243800  1.0  -0.1279
  C  C939  1  0.717800  0.833900  0.230400  1.0  -0.005
  C  C940  1  0.597200  0.833400  0.410700  1.0  0.0172
  C  C941  1  0.575100  0.785400  0.415100  1.0  -0.0292
  C  C942  1  0.521700  0.782000  0.411100  1.0  -0.022
  C  C943  1  0.485200  0.782000  0.373000  1.0  -0.0516
  C  C944  1  0.716300  0.944000  0.325500  1.0  0.1485
  C  C945  1  0.753000  0.976400  0.315800  1.0  -0.1493
  C  C946  1  0.740500  0.020500  0.309600  1.0  -0.042
  C  C947  1  0.697900  0.033200  0.314000  1.0  -0.1012
  C  C948  1  0.661300  0.998800  0.324400  1.0  0.1342
  C  C949  1  0.151500  0.676500  0.715000  1.0  0.6658
  C  C950  1  0.179500  0.691100  0.756200  1.0  -0.127
  C  C951  1  0.217800  0.666100  0.769600  1.0  -0.0046
  C  C952  1  0.097200  0.666667  0.589300  1.0  0.0211
  C  C953  1  0.075100  0.714600  0.584900  1.0  -0.0291
  C  C954  1  0.021700  0.718000  0.588900  1.0  -0.0225
  C  C955  1  0.985200  0.718000  0.627000  1.0  -0.0498
  C  C956  1  0.216300  0.556000  0.674500  1.0  0.1459
  C  C957  1  0.253000  0.523600  0.684200  1.0  -0.1463
  C  C958  1  0.240500  0.479500  0.690400  1.0  -0.0422
  C  C959  1  0.197900  0.466800  0.686000  1.0  -0.1015
  C  C960  1  0.161300  0.501200  0.675600  1.0  0.1346
  C  C961  1  0.348500  0.323500  0.215000  1.0  0.6645
  C  C962  1  0.320500  0.308900  0.256200  1.0  -0.1269
  C  C963  1  0.282200  0.333900  0.269600  1.0  -0.0053
  C  C964  1  0.402800  0.333400  0.089300  1.0  0.0142
  C  C965  1  0.424900  0.285400  0.084900  1.0  -0.0214
  C  C966  1  0.478300  0.282000  0.088900  1.0  -0.0182
  C  C967  1  0.514800  0.282000  0.127000  1.0  -0.0495
  C  C968  1  0.283700  0.444000  0.174500  1.0  0.1475
  C  C969  1  0.247000  0.476400  0.184200  1.0  -0.1486
  C  C970  1  0.259500  0.520500  0.190400  1.0  -0.0435
  C  C971  1  0.302100  0.533200  0.186000  1.0  -0.1006
  C  C972  1  0.338700  0.498800  0.175600  1.0  0.1349
  C  C973  1  0.848500  0.176500  0.785000  1.0  0.6656
  C  C974  1  0.820500  0.191100  0.743800  1.0  -0.1262
  C  C975  1  0.782200  0.166100  0.730400  1.0  -0.0039
  C  C976  1  0.902800  0.166600  0.910700  1.0  0.0116
  C  C977  1  0.924900  0.214600  0.915100  1.0  -0.0274
  C  C978  1  0.978300  0.218000  0.911100  1.0  -0.0173
  C  C979  1  0.014800  0.218000  0.873000  1.0  -0.051
  C  C980  1  0.783700  0.056000  0.825500  1.0  0.1462
  C  C981  1  0.747000  0.023600  0.815800  1.0  -0.1465
  C  C982  1  0.759500  0.979500  0.809600  1.0  -0.0436
  C  C983  1  0.802100  0.966800  0.814000  1.0  -0.1004
  C  C984  1  0.838700  0.001200  0.824400  1.0  0.1346
  N  N985  1  0.920100  0.705300  0.921700  1.0  -0.2998
  N  N986  1  0.579900  0.294700  0.421700  1.0  -0.3007
  N  N987  1  0.079900  0.205300  0.578300  1.0  -0.3008
  N  N988  1  0.420100  0.794700  0.078300  1.0  -0.3001
  N  N989  1  0.921700  0.920100  0.705300  1.0  -0.3007
  N  N990  1  0.421700  0.579900  0.294700  1.0  -0.2999
  N  N991  1  0.578300  0.079900  0.205300  1.0  -0.3002
  N  N992  1  0.078300  0.420100  0.794700  1.0  -0.2989
  N  N993  1  0.705300  0.921700  0.920100  1.0  -0.3008
  N  N994  1  0.294700  0.421700  0.579900  1.0  -0.3003
  N  N995  1  0.205300  0.578300  0.079900  1.0  -0.3001
  N  N996  1  0.794700  0.078300  0.420100  1.0  -0.3002
  N  N997  1  0.955300  0.670100  0.828300  1.0  -0.3001
  N  N998  1  0.544700  0.329900  0.328300  1.0  -0.2995
  N  N999  1  0.455300  0.829900  0.171700  1.0  -0.2997
  N  N1000  1  0.044700  0.170100  0.671700  1.0  -0.2999
  N  N1001  1  0.170100  0.671700  0.044700  1.0  -0.2998
  N  N1002  1  0.829900  0.171700  0.455300  1.0  -0.3015
  N  N1003  1  0.329900  0.328300  0.544700  1.0  -0.2996
  N  N1004  1  0.670100  0.828300  0.955300  1.0  -0.3001
  N  N1005  1  0.171700  0.455300  0.829900  1.0  -0.301
  N  N1006  1  0.671700  0.044700  0.170100  1.0  -0.301
  N  N1007  1  0.828300  0.955300  0.670100  1.0  -0.3001
  N  N1008  1  0.328300  0.544700  0.329900  1.0  -0.3
  N  N1009  1  0.420100  0.205300  0.421700  1.0  -0.2998
  N  N1010  1  0.079900  0.794700  0.921700  1.0  -0.3007
  N  N1011  1  0.579900  0.705300  0.078300  1.0  -0.3008
  N  N1012  1  0.920100  0.294700  0.578300  1.0  -0.3001
  N  N1013  1  0.421700  0.420100  0.205300  1.0  -0.3007
  N  N1014  1  0.921700  0.079900  0.794700  1.0  -0.2999
  N  N1015  1  0.078300  0.579900  0.705300  1.0  -0.3002
  N  N1016  1  0.578300  0.920100  0.294700  1.0  -0.2989
  N  N1017  1  0.205300  0.421700  0.420100  1.0  -0.3008
  N  N1018  1  0.794700  0.921700  0.079900  1.0  -0.3003
  N  N1019  1  0.705300  0.078300  0.579900  1.0  -0.3001
  N  N1020  1  0.294700  0.578300  0.920100  1.0  -0.3002
  N  N1021  1  0.455300  0.170100  0.328300  1.0  -0.3001
  N  N1022  1  0.044700  0.829900  0.828300  1.0  -0.2995
  N  N1023  1  0.955300  0.329900  0.671700  1.0  -0.2997
  N  N1024  1  0.544700  0.670100  0.171700  1.0  -0.2999
  N  N1025  1  0.670100  0.171700  0.544700  1.0  -0.2998
  N  N1026  1  0.329900  0.671700  0.955300  1.0  -0.3015
  N  N1027  1  0.829900  0.828300  0.044700  1.0  -0.2996
  N  N1028  1  0.170100  0.328300  0.455300  1.0  -0.3001
  N  N1029  1  0.671700  0.955300  0.329900  1.0  -0.301
  N  N1030  1  0.171700  0.544700  0.670100  1.0  -0.301
  N  N1031  1  0.328300  0.455300  0.170100  1.0  -0.3001
  N  N1032  1  0.828300  0.044700  0.829900  1.0  -0.3
  O  O1033  1  0.948360  0.612400  0.911440  1.0  -0.5722
  O  O1034  1  0.949510  0.547100  0.869900  1.0  -0.6008
  O  O1035  1  0.883500  0.597210  0.834400  1.0  -0.5368
  O  O1036  1  0.551640  0.387600  0.411440  1.0  -0.5727
  O  O1037  1  0.550490  0.452900  0.369900  1.0  -0.601
  O  O1038  1  0.616500  0.402790  0.334400  1.0  -0.5387
  O  O1039  1  0.051640  0.112400  0.588560  1.0  -0.5711
  O  O1040  1  0.050490  0.047100  0.630100  1.0  -0.6009
  O  O1041  1  0.116500  0.097210  0.665600  1.0  -0.5354
  O  O1042  1  0.448360  0.887600  0.088560  1.0  -0.571
  O  O1043  1  0.449510  0.952900  0.130100  1.0  -0.6004
  O  O1044  1  0.383500  0.902790  0.165600  1.0  -0.5376
  O  O1045  1  0.911440  0.948360  0.612400  1.0  -0.5723
  O  O1046  1  0.869900  0.949510  0.547100  1.0  -0.6008
  O  O1047  1  0.834400  0.883500  0.597210  1.0  -0.5409
  O  O1048  1  0.411440  0.551640  0.387600  1.0  -0.5727
  O  O1049  1  0.369900  0.550490  0.452900  1.0  -0.5998
  O  O1050  1  0.334400  0.616500  0.402790  1.0  -0.5423
  O  O1051  1  0.588560  0.051640  0.112400  1.0  -0.5724
  O  O1052  1  0.630100  0.050490  0.047100  1.0  -0.5992
  O  O1053  1  0.665600  0.116500  0.097210  1.0  -0.5399
  O  O1054  1  0.088560  0.448360  0.887600  1.0  -0.5723
  O  O1055  1  0.130100  0.449510  0.952900  1.0  -0.5987
  O  O1056  1  0.165600  0.383500  0.902790  1.0  -0.5397
  O  O1057  1  0.612400  0.911440  0.948360  1.0  -0.5737
  O  O1058  1  0.547100  0.869900  0.949510  1.0  -0.6011
  O  O1059  1  0.597210  0.834400  0.883500  1.0  -0.534
  O  O1060  1  0.387600  0.411440  0.551640  1.0  -0.5727
  O  O1061  1  0.452900  0.369900  0.550490  1.0  -0.6002
  O  O1062  1  0.402790  0.334400  0.616500  1.0  -0.5373
  O  O1063  1  0.112400  0.588560  0.051640  1.0  -0.5738
  O  O1064  1  0.047100  0.630100  0.050490  1.0  -0.6009
  O  O1065  1  0.097210  0.665600  0.116500  1.0  -0.5308
  O  O1066  1  0.887600  0.088560  0.448360  1.0  -0.5728
  O  O1067  1  0.952900  0.130100  0.449510  1.0  -0.6001
  O  O1068  1  0.902790  0.165600  0.383500  1.0  -0.5339
  O  O1069  1  0.862400  0.698360  0.838560  1.0  -0.5718
  O  O1070  1  0.797100  0.699510  0.880100  1.0  -0.6033
  O  O1071  1  0.847210  0.633500  0.915600  1.0  -0.5348
  O  O1072  1  0.637600  0.301640  0.338560  1.0  -0.5714
  O  O1073  1  0.702900  0.300490  0.380100  1.0  -0.6026
  O  O1074  1  0.652790  0.366500  0.415600  1.0  -0.5391
  O  O1075  1  0.362400  0.801640  0.161440  1.0  -0.5734
  O  O1076  1  0.297100  0.800490  0.119900  1.0  -0.6035
  O  O1077  1  0.347210  0.866500  0.084400  1.0  -0.5353
  O  O1078  1  0.137600  0.198360  0.661440  1.0  -0.5725
  O  O1079  1  0.202900  0.199510  0.619900  1.0  -0.6029
  O  O1080  1  0.152790  0.133500  0.584400  1.0  -0.5378
  O  O1081  1  0.198360  0.661440  0.137600  1.0  -0.572
  O  O1082  1  0.199510  0.619900  0.202900  1.0  -0.6008
  O  O1083  1  0.133500  0.584400  0.152790  1.0  -0.5405
  O  O1084  1  0.801640  0.161440  0.362400  1.0  -0.5719
  O  O1085  1  0.800490  0.119900  0.297100  1.0  -0.6013
  O  O1086  1  0.866500  0.084400  0.347210  1.0  -0.5398
  O  O1087  1  0.301640  0.338560  0.637600  1.0  -0.5723
  O  O1088  1  0.300490  0.380100  0.702900  1.0  -0.5996
  O  O1089  1  0.366500  0.415600  0.652790  1.0  -0.5365
  O  O1090  1  0.698360  0.838560  0.862400  1.0  -0.5723
  O  O1091  1  0.699510  0.880100  0.797100  1.0  -0.6003
  O  O1092  1  0.633500  0.915600  0.847210  1.0  -0.5374
  O  O1093  1  0.161440  0.362400  0.801640  1.0  -0.5729
  O  O1094  1  0.119900  0.297100  0.800490  1.0  -0.5988
  O  O1095  1  0.084400  0.347210  0.866500  1.0  -0.5367
  O  O1096  1  0.661440  0.137600  0.198360  1.0  -0.5734
  O  O1097  1  0.619900  0.202900  0.199510  1.0  -0.5987
  O  O1098  1  0.584400  0.152790  0.133500  1.0  -0.5379
  O  O1099  1  0.838560  0.862400  0.698360  1.0  -0.5733
  O  O1100  1  0.880100  0.797100  0.699510  1.0  -0.596
  O  O1101  1  0.915600  0.847210  0.633500  1.0  -0.5365
  O  O1102  1  0.338560  0.637600  0.301640  1.0  -0.5724
  O  O1103  1  0.380100  0.702900  0.300490  1.0  -0.5985
  O  O1104  1  0.415600  0.652790  0.366500  1.0  -0.5356
  O  O1105  1  0.448360  0.112400  0.411440  1.0  -0.5722
  O  O1106  1  0.449510  0.047100  0.369900  1.0  -0.6009
  O  O1107  1  0.383500  0.097210  0.334400  1.0  -0.5368
  O  O1108  1  0.051640  0.887600  0.911440  1.0  -0.5727
  O  O1109  1  0.050490  0.952900  0.869900  1.0  -0.6011
  O  O1110  1  0.116500  0.902790  0.834400  1.0  -0.5381
  O  O1111  1  0.551640  0.612400  0.088560  1.0  -0.5711
  O  O1112  1  0.550490  0.547100  0.130100  1.0  -0.6009
  O  O1113  1  0.616500  0.597210  0.165600  1.0  -0.5359
  O  O1114  1  0.948360  0.387600  0.588560  1.0  -0.571
  O  O1115  1  0.949510  0.452900  0.630100  1.0  -0.6004
  O  O1116  1  0.883500  0.402790  0.665600  1.0  -0.5376
  O  O1117  1  0.411440  0.448360  0.112400  1.0  -0.5723
  O  O1118  1  0.369900  0.449510  0.047100  1.0  -0.6008
  O  O1119  1  0.334400  0.383500  0.097210  1.0  -0.5409
  O  O1120  1  0.911440  0.051640  0.887600  1.0  -0.5727
  O  O1121  1  0.869900  0.050490  0.952900  1.0  -0.5998
  O  O1122  1  0.834400  0.116500  0.902790  1.0  -0.5417
  O  O1123  1  0.088560  0.551640  0.612400  1.0  -0.5724
  O  O1124  1  0.130100  0.550490  0.547100  1.0  -0.5993
  O  O1125  1  0.165600  0.616500  0.597210  1.0  -0.5404
  O  O1126  1  0.588560  0.948360  0.387600  1.0  -0.5723
  O  O1127  1  0.630100  0.949510  0.452900  1.0  -0.5987
  O  O1128  1  0.665600  0.883500  0.402790  1.0  -0.5397
  O  O1129  1  0.112400  0.411440  0.448360  1.0  -0.5737
  O  O1130  1  0.047100  0.369900  0.449510  1.0  -0.6009
  O  O1131  1  0.097210  0.334400  0.383500  1.0  -0.534
  O  O1132  1  0.887600  0.911440  0.051640  1.0  -0.5727
  O  O1133  1  0.952900  0.869900  0.050490  1.0  -0.6
  O  O1134  1  0.902790  0.834400  0.116500  1.0  -0.5368
  O  O1135  1  0.612400  0.088560  0.551640  1.0  -0.5738
  O  O1136  1  0.547100  0.130100  0.550490  1.0  -0.6007
  O  O1137  1  0.597210  0.165600  0.616500  1.0  -0.5313
  O  O1138  1  0.387600  0.588560  0.948360  1.0  -0.5728
  O  O1139  1  0.452900  0.630100  0.949510  1.0  -0.6
  O  O1140  1  0.402790  0.665600  0.883500  1.0  -0.5339
  O  O1141  1  0.362400  0.198360  0.338560  1.0  -0.5718
  O  O1142  1  0.297100  0.199510  0.380100  1.0  -0.6033
  O  O1143  1  0.347210  0.133500  0.415600  1.0  -0.5348
  O  O1144  1  0.137600  0.801640  0.838560  1.0  -0.5714
  O  O1145  1  0.202900  0.800490  0.880100  1.0  -0.6026
  O  O1146  1  0.152790  0.866500  0.915600  1.0  -0.5391
  O  O1147  1  0.862400  0.301640  0.661440  1.0  -0.5734
  O  O1148  1  0.797100  0.300490  0.619900  1.0  -0.6035
  O  O1149  1  0.847210  0.366500  0.584400  1.0  -0.5353
  O  O1150  1  0.637600  0.698360  0.161440  1.0  -0.5725
  O  O1151  1  0.702900  0.699510  0.119900  1.0  -0.603
  O  O1152  1  0.652790  0.633500  0.084400  1.0  -0.5381
  O  O1153  1  0.698360  0.161440  0.637600  1.0  -0.572
  O  O1154  1  0.699510  0.119900  0.702900  1.0  -0.6008
  O  O1155  1  0.633500  0.084400  0.652790  1.0  -0.5406
  O  O1156  1  0.301640  0.661440  0.862400  1.0  -0.5719
  O  O1157  1  0.300490  0.619900  0.797100  1.0  -0.6014
  O  O1158  1  0.366500  0.584400  0.847210  1.0  -0.5398
  O  O1159  1  0.801640  0.838560  0.137600  1.0  -0.5723
  O  O1160  1  0.800490  0.880100  0.202900  1.0  -0.5996
  O  O1161  1  0.866500  0.915600  0.152790  1.0  -0.5368
  O  O1162  1  0.198360  0.338560  0.362400  1.0  -0.5723
  O  O1163  1  0.199510  0.380100  0.297100  1.0  -0.6004
  O  O1164  1  0.133500  0.415600  0.347210  1.0  -0.5374
  O  O1165  1  0.661440  0.862400  0.301640  1.0  -0.5729
  O  O1166  1  0.619900  0.797100  0.300490  1.0  -0.5986
  O  O1167  1  0.584400  0.847210  0.366500  1.0  -0.5367
  O  O1168  1  0.161440  0.637600  0.698360  1.0  -0.5734
  O  O1169  1  0.119900  0.702900  0.699510  1.0  -0.5984
  O  O1170  1  0.084400  0.652790  0.633500  1.0  -0.5379
  O  O1171  1  0.338560  0.362400  0.198360  1.0  -0.5733
  O  O1172  1  0.380100  0.297100  0.199510  1.0  -0.5958
  O  O1173  1  0.415600  0.347210  0.133500  1.0  -0.5365
  O  O1174  1  0.838560  0.137600  0.801640  1.0  -0.5724
  O  O1175  1  0.880100  0.202900  0.800490  1.0  -0.5983
  O  O1176  1  0.915600  0.152790  0.866500  1.0  -0.5359
