# generated using pymatgen
data_Zn2H53C62(NO6)2
_symmetry_space_group_name_H-M   'P 1'
_cell_length_a   39.04900000
_cell_length_b   27.57300000
_cell_length_c   27.21800000
_cell_angle_alpha   90.00000000
_cell_angle_beta   133.88300000
_cell_angle_gamma   90.00000000
_symmetry_Int_Tables_number   1
_chemical_formula_structural   Zn2H53C62(NO6)2
_chemical_formula_sum   'Zn16 H424 C496 N16 O96'
_cell_volume   21122.18808244
_cell_formula_units_Z   8
loop_
 _symmetry_equiv_pos_site_id
 _symmetry_equiv_pos_as_xyz
  1  'x, y, z'
loop_
 _atom_site_type_symbol
 _atom_site_label
 _atom_site_symmetry_multiplicity
 _atom_site_fract_x
 _atom_site_fract_y
 _atom_site_fract_z
 _atom_site_occupancy
 _atom_site_charge
  Zn  Zn1  1  0.152500  0.247170  0.505010  1.0  0.8939
  Zn  Zn2  1  0.048130  0.252650  0.401710  1.0  0.8834
  Zn  Zn3  1  0.652500  0.747170  0.505010  1.0  0.8939
  Zn  Zn4  1  0.548130  0.752650  0.401710  1.0  0.8834
  Zn  Zn5  1  0.152500  0.752830  0.005010  1.0  0.8942
  Zn  Zn6  1  0.048130  0.747350  0.901710  1.0  0.8834
  Zn  Zn7  1  0.652500  0.252830  0.005010  1.0  0.8942
  Zn  Zn8  1  0.548130  0.247350  0.901710  1.0  0.8834
  Zn  Zn9  1  0.847500  0.247170  0.994990  1.0  0.8941
  Zn  Zn10  1  0.951870  0.252650  0.098290  1.0  0.8827
  Zn  Zn11  1  0.347500  0.747170  0.994990  1.0  0.8941
  Zn  Zn12  1  0.451870  0.752650  0.098290  1.0  0.8827
  Zn  Zn13  1  0.847500  0.752830  0.494990  1.0  0.8944
  Zn  Zn14  1  0.951870  0.747350  0.598290  1.0  0.8829
  Zn  Zn15  1  0.347500  0.252830  0.494990  1.0  0.8944
  Zn  Zn16  1  0.451870  0.247350  0.598290  1.0  0.8829
  H  H17  1  0.025800  0.170500  0.244200  1.0  0.0815
  H  H18  1  0.022600  0.120200  0.174400  1.0  0.0976
  H  H19  1  0.163900  0.099600  0.324000  1.0  0.0994
  H  H20  1  0.166600  0.150700  0.393900  1.0  0.0918
  H  H21  1  0.033300  0.030200  0.173600  1.0  0.1154
  H  H22  1  0.118900  0.038200  0.118900  1.0  0.0656
  H  H23  1  0.161300  0.874000  0.112100  1.0  0.0845
  H  H24  1  0.160100  0.936900  0.166900  1.0  0.1062
  H  H25  1  0.020300  0.949600  0.008200  1.0  0.102
  H  H26  1  0.023200  0.884100  0.956700  1.0  0.0801
  H  H27  1  0.207700  0.074300  0.236900  1.0  0.1152
  H  H28  1  0.176200  0.102300  0.166600  1.0  0.0898
  H  H29  1  0.190100  0.168100  0.242900  1.0  0.0589
  H  H30  1  0.236800  0.139300  0.296600  1.0  0.0843
  H  H31  1  0.268200  0.166800  0.273700  1.0  0.0804
  H  H32  1  0.236900  0.208700  0.261300  1.0  0.08
  H  H33  1  0.199000  0.186700  0.139600  1.0  0.0826
  H  H34  1  0.253700  0.181800  0.185600  1.0  0.0793
  H  H35  1  0.229200  0.260500  0.140300  1.0  0.0908
  H  H36  1  0.264200  0.263700  0.219800  1.0  0.0916
  H  H37  1  0.209300  0.268600  0.173600  1.0  0.0971
  H  H38  1  0.959100  0.990200  0.066600  1.0  0.0926
  H  H39  1  0.983400  0.957400  0.131000  1.0  0.095
  H  H40  1  0.912900  0.934800  0.011400  1.0  0.0842
  H  H41  1  0.942900  0.900300  0.072900  1.0  0.0637
  H  H42  1  0.906900  0.879900  0.950500  1.0  0.107
  H  H43  1  0.961400  0.882400  0.994100  1.0  0.1133
  H  H44  1  0.914500  0.809700  0.982400  1.0  0.1337
  H  H45  1  0.947200  0.827800  0.057900  1.0  0.1528
  H  H46  1  0.177400  0.343300  0.656800  1.0  0.0883
  H  H47  1  0.177200  0.393500  0.722600  1.0  0.078
  H  H48  1  0.038500  0.392700  0.589200  1.0  0.1004
  H  H49  1  0.036900  0.337000  0.523200  1.0  0.0839
  H  H50  1  0.149900  0.482400  0.706800  1.0  0.1388
  H  H51  1  0.068400  0.464300  0.769300  1.0  0.0748
  H  H52  1  0.036200  0.611100  0.809000  1.0  0.0913
  H  H53  1  0.038200  0.548300  0.755000  1.0  0.0903
  H  H54  1  0.177200  0.563400  0.879700  1.0  0.0994
  H  H55  1  0.176200  0.625600  0.936100  1.0  0.093
  H  H56  1  0.030200  0.357500  0.743800  1.0  0.1779
  H  H57  1  0.073800  0.392400  0.796800  1.0  0.2041
  H  H58  1  0.177500  0.542900  0.718600  1.0  0.0721
  H  H59  1  0.195000  0.594100  0.753400  1.0  0.1049
  H  H60  1  0.250500  0.536900  0.799700  1.0  0.1134
  H  H61  1  0.228700  0.512600  0.825800  1.0  0.1113
  H  H62  1  0.232400  0.269200  0.645400  1.0  0.1145
  H  H63  1  0.312900  0.265600  0.729600  1.0  0.0822
  H  H64  1  0.314500  0.215800  0.603200  1.0  0.0969
  H  H65  1  0.234500  0.220500  0.524300  1.0  0.0445
  H  H66  1  0.468300  0.202900  0.764400  1.0  0.0606
  H  H67  1  0.387400  0.199100  0.682800  1.0  0.1042
  H  H68  1  0.385600  0.281200  0.801300  1.0  0.1056
  H  H69  1  0.466500  0.281300  0.880900  1.0  0.0682
  H  H70  1  0.525800  0.670500  0.244200  1.0  0.0815
  H  H71  1  0.522600  0.620200  0.174400  1.0  0.0976
  H  H72  1  0.663900  0.599600  0.324000  1.0  0.1011
  H  H73  1  0.666667  0.650700  0.393900  1.0  0.0922
  H  H74  1  0.533300  0.530200  0.173600  1.0  0.1154
  H  H75  1  0.618900  0.538200  0.118900  1.0  0.0656
  H  H76  1  0.661300  0.374000  0.112100  1.0  0.0845
  H  H77  1  0.660100  0.436900  0.166900  1.0  0.1062
  H  H78  1  0.520300  0.449600  0.008200  1.0  0.102
  H  H79  1  0.523200  0.384100  0.956700  1.0  0.0801
  H  H80  1  0.707700  0.574300  0.236900  1.0  0.1152
  H  H81  1  0.676200  0.602300  0.166600  1.0  0.0898
  H  H82  1  0.690100  0.668100  0.242900  1.0  0.0589
  H  H83  1  0.736800  0.639300  0.296600  1.0  0.0843
  H  H84  1  0.768200  0.666800  0.273700  1.0  0.0804
  H  H85  1  0.736900  0.708700  0.261300  1.0  0.08
  H  H86  1  0.699000  0.686700  0.139600  1.0  0.0826
  H  H87  1  0.753700  0.681800  0.185600  1.0  0.0793
  H  H88  1  0.729200  0.760500  0.140300  1.0  0.0908
  H  H89  1  0.764200  0.763700  0.219800  1.0  0.0916
  H  H90  1  0.709300  0.768600  0.173600  1.0  0.0971
  H  H91  1  0.459100  0.490200  0.066600  1.0  0.0926
  H  H92  1  0.483400  0.457400  0.131000  1.0  0.095
  H  H93  1  0.412900  0.434800  0.011400  1.0  0.0842
  H  H94  1  0.442900  0.400300  0.072900  1.0  0.0637
  H  H95  1  0.406900  0.379900  0.950500  1.0  0.107
  H  H96  1  0.461400  0.382400  0.994100  1.0  0.1133
  H  H97  1  0.414500  0.309700  0.982400  1.0  0.1337
  H  H98  1  0.447200  0.327800  0.057900  1.0  0.1528
  H  H99  1  0.677400  0.843300  0.656800  1.0  0.0883
  H  H100  1  0.677200  0.893500  0.722600  1.0  0.078
  H  H101  1  0.538500  0.892700  0.589200  1.0  0.1004
  H  H102  1  0.536900  0.837000  0.523200  1.0  0.0839
  H  H103  1  0.649900  0.982400  0.706800  1.0  0.1388
  H  H104  1  0.568400  0.964300  0.769300  1.0  0.0748
  H  H105  1  0.536200  0.111100  0.809000  1.0  0.0913
  H  H106  1  0.538200  0.048300  0.755000  1.0  0.0903
  H  H107  1  0.677200  0.063400  0.879700  1.0  0.0987
  H  H108  1  0.676200  0.125600  0.936100  1.0  0.093
  H  H109  1  0.530200  0.857500  0.743800  1.0  0.1779
  H  H110  1  0.573800  0.892400  0.796800  1.0  0.2041
  H  H111  1  0.677500  0.042900  0.718600  1.0  0.0721
  H  H112  1  0.695000  0.094100  0.753400  1.0  0.1049
  H  H113  1  0.750500  0.036900  0.799700  1.0  0.1134
  H  H114  1  0.728700  0.012600  0.825800  1.0  0.1092
  H  H115  1  0.732400  0.769200  0.645400  1.0  0.1145
  H  H116  1  0.812900  0.765600  0.729600  1.0  0.0822
  H  H117  1  0.814500  0.715800  0.603200  1.0  0.0969
  H  H118  1  0.734500  0.720500  0.524300  1.0  0.0445
  H  H119  1  0.968300  0.702900  0.764400  1.0  0.0606
  H  H120  1  0.887400  0.699100  0.682800  1.0  0.1042
  H  H121  1  0.885600  0.781200  0.801300  1.0  0.1056
  H  H122  1  0.966500  0.781300  0.880900  1.0  0.0682
  H  H123  1  0.025800  0.829500  0.744200  1.0  0.0814
  H  H124  1  0.022600  0.879800  0.674400  1.0  0.0976
  H  H125  1  0.163900  0.900400  0.824000  1.0  0.0988
  H  H126  1  0.166600  0.849300  0.893900  1.0  0.0926
  H  H127  1  0.033300  0.969800  0.673600  1.0  0.1152
  H  H128  1  0.118900  0.961800  0.618900  1.0  0.0663
  H  H129  1  0.161300  0.126000  0.612100  1.0  0.0846
  H  H130  1  0.160100  0.063100  0.666900  1.0  0.106
  H  H131  1  0.020300  0.050400  0.508200  1.0  0.1023
  H  H132  1  0.023200  0.115900  0.456700  1.0  0.0804
  H  H133  1  0.207700  0.925700  0.736900  1.0  0.1169
  H  H134  1  0.176200  0.897700  0.666667  1.0  0.092
  H  H135  1  0.190100  0.831900  0.742900  1.0  0.0568
  H  H136  1  0.236800  0.860700  0.796600  1.0  0.0849
  H  H137  1  0.268200  0.833200  0.773700  1.0  0.081
  H  H138  1  0.236900  0.791300  0.761300  1.0  0.0795
  H  H139  1  0.199000  0.813300  0.639600  1.0  0.0826
  H  H140  1  0.253700  0.818200  0.685600  1.0  0.0793
  H  H141  1  0.229200  0.739500  0.640300  1.0  0.09
  H  H142  1  0.264200  0.736300  0.719800  1.0  0.0906
  H  H143  1  0.209300  0.731400  0.673600  1.0  0.0984
  H  H144  1  0.959100  0.009800  0.566600  1.0  0.0888
  H  H145  1  0.983400  0.042600  0.631000  1.0  0.0949
  H  H146  1  0.912900  0.065200  0.511400  1.0  0.0846
  H  H147  1  0.942900  0.099700  0.572900  1.0  0.0622
  H  H148  1  0.906900  0.120100  0.450500  1.0  0.1074
  H  H149  1  0.961400  0.117600  0.494100  1.0  0.1124
  H  H150  1  0.914500  0.190300  0.482400  1.0  0.1351
  H  H151  1  0.947200  0.172200  0.557900  1.0  0.152
  H  H152  1  0.177400  0.656700  0.156800  1.0  0.088
  H  H153  1  0.177200  0.606500  0.222600  1.0  0.0781
  H  H154  1  0.038500  0.607300  0.089200  1.0  0.1003
  H  H155  1  0.036900  0.663000  0.023200  1.0  0.0841
  H  H156  1  0.149900  0.517600  0.206800  1.0  0.1391
  H  H157  1  0.068400  0.535700  0.269300  1.0  0.0749
  H  H158  1  0.036200  0.388900  0.309000  1.0  0.0912
  H  H159  1  0.038200  0.451700  0.255000  1.0  0.0903
  H  H160  1  0.177200  0.436600  0.379700  1.0  0.0995
  H  H161  1  0.176200  0.374400  0.436100  1.0  0.0924
  H  H162  1  0.030200  0.642500  0.243800  1.0  0.1761
  H  H163  1  0.073800  0.607600  0.296800  1.0  0.2044
  H  H164  1  0.177500  0.457100  0.218600  1.0  0.072
  H  H165  1  0.195000  0.405900  0.253400  1.0  0.1029
  H  H166  1  0.250500  0.463100  0.299700  1.0  0.1132
  H  H167  1  0.228700  0.487400  0.325800  1.0  0.1109
  H  H168  1  0.232400  0.730800  0.145400  1.0  0.1132
  H  H169  1  0.312900  0.734400  0.229600  1.0  0.0819
  H  H170  1  0.314500  0.784200  0.103200  1.0  0.0975
  H  H171  1  0.234500  0.779500  0.024300  1.0  0.0449
  H  H172  1  0.468300  0.797100  0.264400  1.0  0.0606
  H  H173  1  0.387400  0.800900  0.182800  1.0  0.1042
  H  H174  1  0.385600  0.718800  0.301300  1.0  0.1059
  H  H175  1  0.466500  0.718700  0.380900  1.0  0.0677
  H  H176  1  0.525800  0.329500  0.744200  1.0  0.0814
  H  H177  1  0.522600  0.379800  0.674400  1.0  0.0976
  H  H178  1  0.663900  0.400400  0.824000  1.0  0.1008
  H  H179  1  0.666667  0.349300  0.893900  1.0  0.0929
  H  H180  1  0.533300  0.469800  0.673600  1.0  0.1152
  H  H181  1  0.618900  0.461800  0.618900  1.0  0.0663
  H  H182  1  0.661300  0.626000  0.612100  1.0  0.0846
  H  H183  1  0.660100  0.563100  0.666900  1.0  0.106
  H  H184  1  0.520300  0.550400  0.508200  1.0  0.1023
  H  H185  1  0.523200  0.615900  0.456700  1.0  0.0804
  H  H186  1  0.707700  0.425700  0.736900  1.0  0.1169
  H  H187  1  0.676200  0.397700  0.666667  1.0  0.092
  H  H188  1  0.690100  0.331900  0.742900  1.0  0.0568
  H  H189  1  0.736800  0.360700  0.796600  1.0  0.0849
  H  H190  1  0.768200  0.333200  0.773700  1.0  0.081
  H  H191  1  0.736900  0.291300  0.761300  1.0  0.0795
  H  H192  1  0.699000  0.313300  0.639600  1.0  0.0826
  H  H193  1  0.753700  0.318200  0.685600  1.0  0.0793
  H  H194  1  0.729200  0.239500  0.640300  1.0  0.09
  H  H195  1  0.764200  0.236300  0.719800  1.0  0.0906
  H  H196  1  0.709300  0.231400  0.673600  1.0  0.0984
  H  H197  1  0.459100  0.509800  0.566600  1.0  0.0888
  H  H198  1  0.483400  0.542600  0.631000  1.0  0.0949
  H  H199  1  0.412900  0.565200  0.511400  1.0  0.0846
  H  H200  1  0.442900  0.599700  0.572900  1.0  0.0622
  H  H201  1  0.406900  0.620100  0.450500  1.0  0.1074
  H  H202  1  0.461400  0.617600  0.494100  1.0  0.1124
  H  H203  1  0.414500  0.690300  0.482400  1.0  0.1351
  H  H204  1  0.447200  0.672200  0.557900  1.0  0.152
  H  H205  1  0.677400  0.156700  0.156800  1.0  0.088
  H  H206  1  0.677200  0.106500  0.222600  1.0  0.0781
  H  H207  1  0.538500  0.107300  0.089200  1.0  0.1003
  H  H208  1  0.536900  0.163000  0.023200  1.0  0.0841
  H  H209  1  0.649900  0.017600  0.206800  1.0  0.1391
  H  H210  1  0.568400  0.035700  0.269300  1.0  0.0749
  H  H211  1  0.536200  0.888900  0.309000  1.0  0.0912
  H  H212  1  0.538200  0.951700  0.255000  1.0  0.0903
  H  H213  1  0.677200  0.936600  0.379700  1.0  0.0995
  H  H214  1  0.676200  0.874400  0.436100  1.0  0.0924
  H  H215  1  0.530200  0.142500  0.243800  1.0  0.1761
  H  H216  1  0.573800  0.107600  0.296800  1.0  0.2044
  H  H217  1  0.677500  0.957100  0.218600  1.0  0.072
  H  H218  1  0.695000  0.905900  0.253400  1.0  0.1029
  H  H219  1  0.750500  0.963100  0.299700  1.0  0.1132
  H  H220  1  0.728700  0.987400  0.325800  1.0  0.1109
  H  H221  1  0.732400  0.230800  0.145400  1.0  0.1132
  H  H222  1  0.812900  0.234400  0.229600  1.0  0.0819
  H  H223  1  0.814500  0.284200  0.103200  1.0  0.0975
  H  H224  1  0.734500  0.279500  0.024300  1.0  0.0449
  H  H225  1  0.968300  0.297100  0.264400  1.0  0.0606
  H  H226  1  0.887400  0.300900  0.182800  1.0  0.1042
  H  H227  1  0.885600  0.218800  0.301300  1.0  0.1059
  H  H228  1  0.966500  0.218700  0.380900  1.0  0.0677
  H  H229  1  0.974200  0.170500  0.255800  1.0  0.0815
  H  H230  1  0.977400  0.120200  0.325600  1.0  0.0974
  H  H231  1  0.836100  0.099600  0.176000  1.0  0.0985
  H  H232  1  0.833400  0.150700  0.106100  1.0  0.0923
  H  H233  1  0.966700  0.030200  0.326400  1.0  0.1151
  H  H234  1  0.881100  0.038200  0.381100  1.0  0.064
  H  H235  1  0.838700  0.874000  0.387900  1.0  0.0842
  H  H236  1  0.839900  0.936900  0.333100  1.0  0.1066
  H  H237  1  0.979700  0.949600  0.491800  1.0  0.1023
  H  H238  1  0.976800  0.884100  0.543300  1.0  0.0802
  H  H239  1  0.792300  0.074300  0.263100  1.0  0.1139
  H  H240  1  0.823800  0.102300  0.333400  1.0  0.0892
  H  H241  1  0.809900  0.168100  0.257100  1.0  0.0609
  H  H242  1  0.763200  0.139300  0.203400  1.0  0.0861
  H  H243  1  0.731800  0.166800  0.226300  1.0  0.0781
  H  H244  1  0.763100  0.208700  0.238700  1.0  0.0812
  H  H245  1  0.801000  0.186700  0.360400  1.0  0.0791
  H  H246  1  0.746300  0.181800  0.314400  1.0  0.0794
  H  H247  1  0.770800  0.260500  0.359700  1.0  0.0904
  H  H248  1  0.735800  0.263700  0.280200  1.0  0.0968
  H  H249  1  0.790700  0.268600  0.326400  1.0  0.099
  H  H250  1  0.040900  0.990200  0.433400  1.0  0.0941
  H  H251  1  0.016600  0.957400  0.369000  1.0  0.0945
  H  H252  1  0.087100  0.934800  0.488600  1.0  0.0835
  H  H253  1  0.057100  0.900300  0.427100  1.0  0.0599
  H  H254  1  0.093100  0.879900  0.549500  1.0  0.1087
  H  H255  1  0.038600  0.882400  0.505900  1.0  0.1142
  H  H256  1  0.085500  0.809700  0.517600  1.0  0.1342
  H  H257  1  0.052800  0.827800  0.442100  1.0  0.1515
  H  H258  1  0.822600  0.343300  0.843200  1.0  0.0882
  H  H259  1  0.822800  0.393500  0.777400  1.0  0.0777
  H  H260  1  0.961500  0.392700  0.910800  1.0  0.0994
  H  H261  1  0.963100  0.337000  0.976800  1.0  0.0832
  H  H262  1  0.850100  0.482400  0.793200  1.0  0.1387
  H  H263  1  0.931600  0.464300  0.730700  1.0  0.0743
  H  H264  1  0.963800  0.611100  0.691000  1.0  0.0916
  H  H265  1  0.961800  0.548300  0.745000  1.0  0.0898
  H  H266  1  0.822800  0.563400  0.620300  1.0  0.0989
  H  H267  1  0.823800  0.625600  0.563900  1.0  0.0933
  H  H268  1  0.969800  0.357500  0.756200  1.0  0.1788
  H  H269  1  0.926200  0.392400  0.703200  1.0  0.2047
  H  H270  1  0.822500  0.542900  0.781400  1.0  0.0739
  H  H271  1  0.805000  0.594100  0.746600  1.0  0.1049
  H  H272  1  0.749500  0.536900  0.700300  1.0  0.114
  H  H273  1  0.771300  0.512600  0.674200  1.0  0.1112
  H  H274  1  0.767600  0.269200  0.854600  1.0  0.1153
  H  H275  1  0.687100  0.265600  0.770400  1.0  0.0815
  H  H276  1  0.685500  0.215800  0.896800  1.0  0.0967
  H  H277  1  0.765500  0.220500  0.975700  1.0  0.0442
  H  H278  1  0.531700  0.202900  0.735600  1.0  0.0604
  H  H279  1  0.612600  0.199100  0.817200  1.0  0.1042
  H  H280  1  0.614400  0.281200  0.698700  1.0  0.1065
  H  H281  1  0.533500  0.281300  0.619100  1.0  0.0676
  H  H282  1  0.474200  0.670500  0.255800  1.0  0.0815
  H  H283  1  0.477400  0.620200  0.325600  1.0  0.0974
  H  H284  1  0.336100  0.599600  0.176000  1.0  0.0985
  H  H285  1  0.333400  0.650700  0.106100  1.0  0.0923
  H  H286  1  0.466700  0.530200  0.326400  1.0  0.1151
  H  H287  1  0.381100  0.538200  0.381100  1.0  0.064
  H  H288  1  0.338700  0.374000  0.387900  1.0  0.0842
  H  H289  1  0.339900  0.436900  0.333100  1.0  0.1066
  H  H290  1  0.479700  0.449600  0.491800  1.0  0.1023
  H  H291  1  0.476800  0.384100  0.543300  1.0  0.0802
  H  H292  1  0.292300  0.574300  0.263100  1.0  0.1139
  H  H293  1  0.323800  0.602300  0.333400  1.0  0.0892
  H  H294  1  0.309900  0.668100  0.257100  1.0  0.0609
  H  H295  1  0.263200  0.639300  0.203400  1.0  0.0861
  H  H296  1  0.231800  0.666800  0.226300  1.0  0.0781
  H  H297  1  0.263100  0.708700  0.238700  1.0  0.0812
  H  H298  1  0.301000  0.686700  0.360400  1.0  0.0791
  H  H299  1  0.246300  0.681800  0.314400  1.0  0.0794
  H  H300  1  0.270800  0.760500  0.359700  1.0  0.0904
  H  H301  1  0.235800  0.763700  0.280200  1.0  0.0968
  H  H302  1  0.290700  0.768600  0.326400  1.0  0.099
  H  H303  1  0.540900  0.490200  0.433400  1.0  0.0945
  H  H304  1  0.516600  0.457400  0.369000  1.0  0.0945
  H  H305  1  0.587100  0.434800  0.488600  1.0  0.0835
  H  H306  1  0.557100  0.400300  0.427100  1.0  0.0599
  H  H307  1  0.593100  0.379900  0.549500  1.0  0.1087
  H  H308  1  0.538600  0.382400  0.505900  1.0  0.1142
  H  H309  1  0.585500  0.309700  0.517600  1.0  0.1342
  H  H310  1  0.552800  0.327800  0.442100  1.0  0.1515
  H  H311  1  0.322600  0.843300  0.843200  1.0  0.0882
  H  H312  1  0.322800  0.893500  0.777400  1.0  0.0777
  H  H313  1  0.461500  0.892700  0.910800  1.0  0.0994
  H  H314  1  0.463100  0.837000  0.976800  1.0  0.0832
  H  H315  1  0.350100  0.982400  0.793200  1.0  0.1387
  H  H316  1  0.431600  0.964300  0.730700  1.0  0.0743
  H  H317  1  0.463800  0.111100  0.691000  1.0  0.0916
  H  H318  1  0.461800  0.048300  0.745000  1.0  0.0898
  H  H319  1  0.322800  0.063400  0.620300  1.0  0.0989
  H  H320  1  0.323800  0.125600  0.563900  1.0  0.0933
  H  H321  1  0.469800  0.857500  0.756200  1.0  0.1788
  H  H322  1  0.426200  0.892400  0.703200  1.0  0.2047
  H  H323  1  0.322500  0.042900  0.781400  1.0  0.0739
  H  H324  1  0.305000  0.094100  0.746600  1.0  0.1049
  H  H325  1  0.249500  0.036900  0.700300  1.0  0.114
  H  H326  1  0.271300  0.012600  0.674200  1.0  0.1112
  H  H327  1  0.267600  0.769200  0.854600  1.0  0.1153
  H  H328  1  0.187100  0.765600  0.770400  1.0  0.0815
  H  H329  1  0.185500  0.715800  0.896800  1.0  0.0967
  H  H330  1  0.265500  0.720500  0.975700  1.0  0.0442
  H  H331  1  0.031700  0.702900  0.735600  1.0  0.0604
  H  H332  1  0.112600  0.699100  0.817200  1.0  0.1042
  H  H333  1  0.114400  0.781200  0.698700  1.0  0.1065
  H  H334  1  0.033500  0.781300  0.619100  1.0  0.0676
  H  H335  1  0.974200  0.829500  0.755800  1.0  0.0811
  H  H336  1  0.977400  0.879800  0.825600  1.0  0.0973
  H  H337  1  0.836100  0.900400  0.676000  1.0  0.0982
  H  H338  1  0.833400  0.849300  0.606100  1.0  0.0916
  H  H339  1  0.966700  0.969800  0.826400  1.0  0.1148
  H  H340  1  0.881100  0.961800  0.881100  1.0  0.0636
  H  H341  1  0.838700  0.126000  0.887900  1.0  0.084
  H  H342  1  0.839900  0.063100  0.833100  1.0  0.1064
  H  H343  1  0.979700  0.050400  0.991800  1.0  0.1024
  H  H344  1  0.976800  0.115900  0.043300  1.0  0.0799
  H  H345  1  0.792300  0.925700  0.763100  1.0  0.1173
  H  H346  1  0.823800  0.897700  0.833400  1.0  0.0887
  H  H347  1  0.809900  0.831900  0.757100  1.0  0.0597
  H  H348  1  0.763200  0.860700  0.703400  1.0  0.086
  H  H349  1  0.731800  0.833200  0.726300  1.0  0.0795
  H  H350  1  0.763100  0.791300  0.738700  1.0  0.0819
  H  H351  1  0.801000  0.813300  0.860400  1.0  0.0791
  H  H352  1  0.746300  0.818200  0.814400  1.0  0.0793
  H  H353  1  0.770800  0.739500  0.859700  1.0  0.0906
  H  H354  1  0.735800  0.736300  0.780200  1.0  0.0974
  H  H355  1  0.790700  0.731400  0.826400  1.0  0.0986
  H  H356  1  0.040900  0.009800  0.933400  1.0  0.0905
  H  H357  1  0.016600  0.042600  0.869000  1.0  0.0948
  H  H358  1  0.087100  0.065200  0.988600  1.0  0.0829
  H  H359  1  0.057100  0.099700  0.927100  1.0  0.0598
  H  H360  1  0.093100  0.120100  0.049500  1.0  0.1081
  H  H361  1  0.038600  0.117600  0.005900  1.0  0.1134
  H  H362  1  0.085500  0.190300  0.017600  1.0  0.1357
  H  H363  1  0.052800  0.172200  0.942100  1.0  0.1503
  H  H364  1  0.822600  0.656700  0.343200  1.0  0.0885
  H  H365  1  0.822800  0.606500  0.277400  1.0  0.0774
  H  H366  1  0.961500  0.607300  0.410800  1.0  0.0994
  H  H367  1  0.963100  0.663000  0.476800  1.0  0.0831
  H  H368  1  0.850100  0.517600  0.293200  1.0  0.139
  H  H369  1  0.931600  0.535700  0.230700  1.0  0.0745
  H  H370  1  0.963800  0.388900  0.191000  1.0  0.0913
  H  H371  1  0.961800  0.451700  0.245000  1.0  0.0897
  H  H372  1  0.822800  0.436600  0.120300  1.0  0.0988
  H  H373  1  0.823800  0.374400  0.063900  1.0  0.0925
  H  H374  1  0.969800  0.642500  0.256200  1.0  0.1775
  H  H375  1  0.926200  0.607600  0.203200  1.0  0.2045
  H  H376  1  0.822500  0.457100  0.281400  1.0  0.0741
  H  H377  1  0.805000  0.405900  0.246600  1.0  0.1028
  H  H378  1  0.749500  0.463100  0.200300  1.0  0.1139
  H  H379  1  0.771300  0.487400  0.174200  1.0  0.1112
  H  H380  1  0.767600  0.730800  0.354600  1.0  0.1148
  H  H381  1  0.687100  0.734400  0.270400  1.0  0.0824
  H  H382  1  0.685500  0.784200  0.396800  1.0  0.0972
  H  H383  1  0.765500  0.779500  0.475700  1.0  0.0443
  H  H384  1  0.531700  0.797100  0.235600  1.0  0.0604
  H  H385  1  0.612600  0.800900  0.317200  1.0  0.1041
  H  H386  1  0.614400  0.718800  0.198700  1.0  0.1066
  H  H387  1  0.533500  0.718700  0.119100  1.0  0.0676
  H  H388  1  0.474200  0.329500  0.755800  1.0  0.0811
  H  H389  1  0.477400  0.379800  0.825600  1.0  0.0973
  H  H390  1  0.336100  0.400400  0.676000  1.0  0.0982
  H  H391  1  0.333400  0.349300  0.606100  1.0  0.0916
  H  H392  1  0.466700  0.469800  0.826400  1.0  0.1148
  H  H393  1  0.381100  0.461800  0.881100  1.0  0.0636
  H  H394  1  0.338700  0.626000  0.887900  1.0  0.084
  H  H395  1  0.339900  0.563100  0.833100  1.0  0.1064
  H  H396  1  0.479700  0.550400  0.991800  1.0  0.1024
  H  H397  1  0.476800  0.615900  0.043300  1.0  0.0799
  H  H398  1  0.292300  0.425700  0.763100  1.0  0.1173
  H  H399  1  0.323800  0.397700  0.833400  1.0  0.0887
  H  H400  1  0.309900  0.331900  0.757100  1.0  0.0597
  H  H401  1  0.263200  0.360700  0.703400  1.0  0.086
  H  H402  1  0.231800  0.333200  0.726300  1.0  0.0795
  H  H403  1  0.263100  0.291300  0.738700  1.0  0.0819
  H  H404  1  0.301000  0.313300  0.860400  1.0  0.0791
  H  H405  1  0.246300  0.318200  0.814400  1.0  0.0793
  H  H406  1  0.270800  0.239500  0.859700  1.0  0.0906
  H  H407  1  0.235800  0.236300  0.780200  1.0  0.0974
  H  H408  1  0.290700  0.231400  0.826400  1.0  0.0986
  H  H409  1  0.540900  0.509800  0.933400  1.0  0.0909
  H  H410  1  0.516600  0.542600  0.869000  1.0  0.0948
  H  H411  1  0.587100  0.565200  0.988600  1.0  0.0829
  H  H412  1  0.557100  0.599700  0.927100  1.0  0.0598
  H  H413  1  0.593100  0.620100  0.049500  1.0  0.1081
  H  H414  1  0.538600  0.617600  0.005900  1.0  0.1134
  H  H415  1  0.585500  0.690300  0.017600  1.0  0.1357
  H  H416  1  0.552800  0.672200  0.942100  1.0  0.1503
  H  H417  1  0.322600  0.156700  0.343200  1.0  0.0885
  H  H418  1  0.322800  0.106500  0.277400  1.0  0.0774
  H  H419  1  0.461500  0.107300  0.410800  1.0  0.0994
  H  H420  1  0.463100  0.163000  0.476800  1.0  0.0831
  H  H421  1  0.350100  0.017600  0.293200  1.0  0.139
  H  H422  1  0.431600  0.035700  0.230700  1.0  0.0745
  H  H423  1  0.463800  0.888900  0.191000  1.0  0.0913
  H  H424  1  0.461800  0.951700  0.245000  1.0  0.0897
  H  H425  1  0.322800  0.936600  0.120300  1.0  0.0993
  H  H426  1  0.323800  0.874400  0.063900  1.0  0.0925
  H  H427  1  0.469800  0.142500  0.256200  1.0  0.1775
  H  H428  1  0.426200  0.107600  0.203200  1.0  0.2045
  H  H429  1  0.322500  0.957100  0.281400  1.0  0.0741
  H  H430  1  0.305000  0.905900  0.246600  1.0  0.1028
  H  H431  1  0.249500  0.963100  0.200300  1.0  0.1139
  H  H432  1  0.271300  0.987400  0.174200  1.0  0.1093
  H  H433  1  0.267600  0.230800  0.354600  1.0  0.1148
  H  H434  1  0.187100  0.234400  0.270400  1.0  0.0824
  H  H435  1  0.185500  0.284200  0.396800  1.0  0.0972
  H  H436  1  0.265500  0.279500  0.475700  1.0  0.0443
  H  H437  1  0.031700  0.297100  0.235600  1.0  0.0604
  H  H438  1  0.112600  0.300900  0.317200  1.0  0.1041
  H  H439  1  0.114400  0.218800  0.198700  1.0  0.1066
  H  H440  1  0.033500  0.218700  0.119100  1.0  0.0676
  C  C441  1  0.098700  0.198640  0.372200  1.0  0.6607
  C  C442  1  0.096740  0.166190  0.326300  1.0  -0.1607
  C  C443  1  0.053490  0.156040  0.260200  1.0  -0.0449
  C  C444  1  0.051500  0.125130  0.219000  1.0  -0.1455
  C  C445  1  0.092500  0.100400  0.242900  1.0  0.0328
  C  C446  1  0.135900  0.112800  0.308300  1.0  -0.1049
  C  C447  1  0.137700  0.144300  0.349900  1.0  -0.037
  C  C448  1  0.091000  0.065500  0.199300  1.0  0.2295
  C  C449  1  0.054500  0.029300  0.168400  1.0  -0.1535
  C  C450  1  0.051800  0.992000  0.129600  1.0  0.1621
  C  C451  1  0.090200  0.991200  0.130900  1.0  0.1136
  C  C452  1  0.108000  0.031600  0.139700  1.0  -0.0849
  C  C453  1  0.112300  0.069200  0.182300  1.0  0.2454
  C  C454  1  0.132500  0.888700  0.090900  1.0  -0.0285
  C  C455  1  0.132100  0.927500  0.123500  1.0  -0.1583
  C  C456  1  0.091100  0.951700  0.092100  1.0  0.0042
  C  C457  1  0.049200  0.934800  0.029600  1.0  -0.1623
  C  C458  1  0.051100  0.894900  0.999100  1.0  -0.0301
  C  C459  1  0.092450  0.871620  0.029700  1.0  -0.1444
  C  C460  1  0.093210  0.828420  0.996400  1.0  0.6814
  C  C461  1  0.187800  0.102500  0.211700  1.0  0.0174
  C  C462  1  0.213300  0.148300  0.248800  1.0  -0.147
  C  C463  1  0.235900  0.178900  0.241300  1.0  -0.1541
  C  C464  1  0.229800  0.197200  0.182100  1.0  -0.1251
  C  C465  1  0.233500  0.252800  0.178600  1.0  -0.327
  C  C466  1  0.974900  0.959400  0.088100  1.0  0.0823
  C  C467  1  0.943700  0.919000  0.043500  1.0  -0.1369
  C  C468  1  0.938000  0.876700  0.996400  1.0  -0.2499
  C  C469  1  0.943200  0.827700  0.018500  1.0  -0.1105
  C  C470  1  0.105650  0.300850  0.537500  1.0  0.6924
  C  C471  1  0.105950  0.332990  0.582100  1.0  -0.1186
  C  C472  1  0.148700  0.352000  0.642700  1.0  -0.2397
  C  C473  1  0.148200  0.383200  0.681100  1.0  -0.1637
  C  C474  1  0.108200  0.399900  0.662400  1.0  0.081
  C  C475  1  0.066900  0.382400  0.603700  1.0  -0.1422
  C  C476  1  0.066000  0.348500  0.563400  1.0  -0.0571
  C  C477  1  0.107700  0.437600  0.701100  1.0  -0.0386
  C  C478  1  0.133500  0.478600  0.719900  1.0  -0.2267
  C  C479  1  0.136600  0.515800  0.758400  1.0  0.1735
  C  C480  1  0.111000  0.509200  0.777700  1.0  -0.0065
  C  C481  1  0.085600  0.468200  0.757500  1.0  -0.1443
  C  C482  1  0.083100  0.432600  0.721700  1.0  0.1696
  C  C483  1  0.064960  0.601890  0.823500  1.0  -0.064
  C  C484  1  0.066300  0.563900  0.791500  1.0  -0.1321
  C  C485  1  0.108000  0.549050  0.812600  1.0  0.0096
  C  C486  1  0.148600  0.572600  0.865400  1.0  -0.1376
  C  C487  1  0.147900  0.610730  0.898700  1.0  -0.0551
  C  C488  1  0.105990  0.626000  0.876600  1.0  -0.1016
  C  C489  1  0.104290  0.671240  0.906600  1.0  0.693
  C  C490  1  0.060300  0.368900  0.760800  1.0  -0.0099
  C  C491  1  0.191000  0.560600  0.759500  1.0  -0.0446
  C  C492  1  0.231700  0.542600  0.810400  1.0  -0.0941
  C  C493  1  0.248300  0.256900  0.634000  1.0  0.1236
  C  C494  1  0.298400  0.255500  0.686200  1.0  -0.0966
  C  C495  1  0.323880  0.242070  0.678100  1.0  0.1998
  C  C496  1  0.299100  0.227700  0.615700  1.0  -0.2375
  C  C497  1  0.250300  0.230200  0.568400  1.0  0.137
  C  C498  1  0.451410  0.218700  0.772200  1.0  0.1663
  C  C499  1  0.402870  0.216700  0.722600  1.0  -0.2135
  C  C500  1  0.377110  0.241030  0.732400  1.0  0.0564
  C  C501  1  0.401780  0.264900  0.792600  1.0  -0.2078
  C  C502  1  0.450500  0.264700  0.840200  1.0  0.1766
  C  C503  1  0.598700  0.698640  0.372200  1.0  0.6608
  C  C504  1  0.596740  0.666190  0.326300  1.0  -0.1585
  C  C505  1  0.553490  0.656040  0.260200  1.0  -0.0449
  C  C506  1  0.551500  0.625130  0.219000  1.0  -0.1455
  C  C507  1  0.592500  0.600400  0.242900  1.0  0.0328
  C  C508  1  0.635900  0.612800  0.308300  1.0  -0.1053
  C  C509  1  0.637700  0.644300  0.349900  1.0  -0.0346
  C  C510  1  0.591000  0.565500  0.199300  1.0  0.2295
  C  C511  1  0.554500  0.529300  0.168400  1.0  -0.1535
  C  C512  1  0.551800  0.492000  0.129600  1.0  0.1621
  C  C513  1  0.590200  0.491200  0.130900  1.0  0.1136
  C  C514  1  0.608000  0.531600  0.139700  1.0  -0.0849
  C  C515  1  0.612300  0.569200  0.182300  1.0  0.2454
  C  C516  1  0.632500  0.388700  0.090900  1.0  -0.0285
  C  C517  1  0.632100  0.427500  0.123500  1.0  -0.1583
  C  C518  1  0.591100  0.451700  0.092100  1.0  0.0042
  C  C519  1  0.549200  0.434800  0.029600  1.0  -0.1623
  C  C520  1  0.551100  0.394900  0.999100  1.0  -0.0301
  C  C521  1  0.592450  0.371620  0.029700  1.0  -0.1444
  C  C522  1  0.593210  0.328420  0.996400  1.0  0.6813
  C  C523  1  0.687800  0.602500  0.211700  1.0  0.0174
  C  C524  1  0.713300  0.648300  0.248800  1.0  -0.147
  C  C525  1  0.735900  0.678900  0.241300  1.0  -0.1541
  C  C526  1  0.729800  0.697200  0.182100  1.0  -0.1251
  C  C527  1  0.733500  0.752800  0.178600  1.0  -0.327
  C  C528  1  0.474900  0.459400  0.088100  1.0  0.0823
  C  C529  1  0.443700  0.419000  0.043500  1.0  -0.1369
  C  C530  1  0.438000  0.376700  0.996400  1.0  -0.2499
  C  C531  1  0.443200  0.327700  0.018500  1.0  -0.1105
  C  C532  1  0.605650  0.800850  0.537500  1.0  0.6924
  C  C533  1  0.605950  0.832990  0.582100  1.0  -0.1186
  C  C534  1  0.648700  0.852000  0.642700  1.0  -0.2397
  C  C535  1  0.648200  0.883200  0.681100  1.0  -0.1637
  C  C536  1  0.608200  0.899900  0.662400  1.0  0.081
  C  C537  1  0.566900  0.882400  0.603700  1.0  -0.1422
  C  C538  1  0.566000  0.848500  0.563400  1.0  -0.0571
  C  C539  1  0.607700  0.937600  0.701100  1.0  -0.0386
  C  C540  1  0.633500  0.978600  0.719900  1.0  -0.2267
  C  C541  1  0.636600  0.015800  0.758400  1.0  0.1735
  C  C542  1  0.611000  0.009200  0.777700  1.0  -0.0065
  C  C543  1  0.585600  0.968200  0.757500  1.0  -0.1443
  C  C544  1  0.583100  0.932600  0.721700  1.0  0.1696
  C  C545  1  0.564960  0.101890  0.823500  1.0  -0.064
  C  C546  1  0.566300  0.063900  0.791500  1.0  -0.1321
  C  C547  1  0.608000  0.049050  0.812600  1.0  0.0096
  C  C548  1  0.648600  0.072600  0.865400  1.0  -0.1376
  C  C549  1  0.647900  0.110730  0.898700  1.0  -0.0551
  C  C550  1  0.605990  0.126000  0.876600  1.0  -0.1016
  C  C551  1  0.604290  0.171240  0.906600  1.0  0.693
  C  C552  1  0.560300  0.868900  0.760800  1.0  -0.0099
  C  C553  1  0.691000  0.060600  0.759500  1.0  -0.0446
  C  C554  1  0.731700  0.042600  0.810400  1.0  -0.0941
  C  C555  1  0.748300  0.756900  0.634000  1.0  0.1236
  C  C556  1  0.798400  0.755500  0.686200  1.0  -0.0966
  C  C557  1  0.823880  0.742070  0.678100  1.0  0.1998
  C  C558  1  0.799100  0.727700  0.615700  1.0  -0.2375
  C  C559  1  0.750300  0.730200  0.568400  1.0  0.137
  C  C560  1  0.951410  0.718700  0.772200  1.0  0.1663
  C  C561  1  0.902870  0.716700  0.722600  1.0  -0.2135
  C  C562  1  0.877110  0.741030  0.732400  1.0  0.0564
  C  C563  1  0.901780  0.764900  0.792600  1.0  -0.2078
  C  C564  1  0.950500  0.764700  0.840200  1.0  0.1766
  C  C565  1  0.098700  0.801360  0.872200  1.0  0.6602
  C  C566  1  0.096740  0.833810  0.826300  1.0  -0.1601
  C  C567  1  0.053490  0.843960  0.760200  1.0  -0.0458
  C  C568  1  0.051500  0.874870  0.719000  1.0  -0.1449
  C  C569  1  0.092500  0.899600  0.742900  1.0  0.0336
  C  C570  1  0.135900  0.887200  0.808300  1.0  -0.1058
  C  C571  1  0.137700  0.855700  0.849900  1.0  -0.0366
  C  C572  1  0.091000  0.934500  0.699300  1.0  0.2291
  C  C573  1  0.054500  0.970700  0.668400  1.0  -0.1542
  C  C574  1  0.051800  0.008000  0.629600  1.0  0.1616
  C  C575  1  0.090200  0.008800  0.630900  1.0  0.1119
  C  C576  1  0.108000  0.968400  0.639700  1.0  -0.0848
  C  C577  1  0.112300  0.930800  0.682300  1.0  0.2448
  C  C578  1  0.132500  0.111300  0.590900  1.0  -0.028
  C  C579  1  0.132100  0.072500  0.623500  1.0  -0.1578
  C  C580  1  0.091100  0.048300  0.592100  1.0  0.0048
  C  C581  1  0.049200  0.065200  0.529600  1.0  -0.1616
  C  C582  1  0.051100  0.105100  0.499100  1.0  -0.0302
  C  C583  1  0.092450  0.128380  0.529700  1.0  -0.1453
  C  C584  1  0.093210  0.171580  0.496400  1.0  0.6818
  C  C585  1  0.187800  0.897500  0.711700  1.0  0.0169
  C  C586  1  0.213300  0.851700  0.748800  1.0  -0.1474
  C  C587  1  0.235900  0.821100  0.741300  1.0  -0.1539
  C  C588  1  0.229800  0.802800  0.682100  1.0  -0.1248
  C  C589  1  0.233500  0.747200  0.678600  1.0  -0.3264
  C  C590  1  0.974900  0.040600  0.588100  1.0  0.0802
  C  C591  1  0.943700  0.081000  0.543500  1.0  -0.1388
  C  C592  1  0.938000  0.123300  0.496400  1.0  -0.2506
  C  C593  1  0.943200  0.172300  0.518500  1.0  -0.1111
  C  C594  1  0.105650  0.699150  0.037500  1.0  0.6927
  C  C595  1  0.105950  0.667010  0.082100  1.0  -0.1189
  C  C596  1  0.148700  0.648000  0.142700  1.0  -0.24
  C  C597  1  0.148200  0.616800  0.181100  1.0  -0.1635
  C  C598  1  0.108200  0.600100  0.162400  1.0  0.0804
  C  C599  1  0.066900  0.617600  0.103700  1.0  -0.1417
  C  C600  1  0.066000  0.651500  0.063400  1.0  -0.0573
  C  C601  1  0.107700  0.562400  0.201100  1.0  -0.0382
  C  C602  1  0.133500  0.521400  0.219900  1.0  -0.2264
  C  C603  1  0.136600  0.484200  0.258400  1.0  0.1742
  C  C604  1  0.111000  0.490800  0.277700  1.0  -0.0066
  C  C605  1  0.085600  0.531800  0.257500  1.0  -0.1442
  C  C606  1  0.083100  0.567400  0.221700  1.0  0.1706
  C  C607  1  0.064960  0.398110  0.323500  1.0  -0.0641
  C  C608  1  0.066300  0.436100  0.291500  1.0  -0.1318
  C  C609  1  0.108000  0.450950  0.312600  1.0  0.0101
  C  C610  1  0.148600  0.427400  0.365400  1.0  -0.1366
  C  C611  1  0.147900  0.389270  0.398700  1.0  -0.0563
  C  C612  1  0.105990  0.374000  0.376600  1.0  -0.1004
  C  C613  1  0.104290  0.328760  0.406600  1.0  0.694
  C  C614  1  0.060300  0.631100  0.260800  1.0  -0.0127
  C  C615  1  0.191000  0.439400  0.259500  1.0  -0.046
  C  C616  1  0.231700  0.457400  0.310400  1.0  -0.0924
  C  C617  1  0.248300  0.743100  0.134000  1.0  0.1237
  C  C618  1  0.298400  0.744500  0.186200  1.0  -0.0953
  C  C619  1  0.323880  0.757930  0.178100  1.0  0.1998
  C  C620  1  0.299100  0.772300  0.115700  1.0  -0.2372
  C  C621  1  0.250300  0.769800  0.068400  1.0  0.1372
  C  C622  1  0.451410  0.781300  0.272200  1.0  0.1668
  C  C623  1  0.402870  0.783300  0.222600  1.0  -0.2145
  C  C624  1  0.377110  0.758970  0.232400  1.0  0.0559
  C  C625  1  0.401780  0.735100  0.292600  1.0  -0.2082
  C  C626  1  0.450500  0.735300  0.340200  1.0  0.1762
  C  C627  1  0.598700  0.301360  0.872200  1.0  0.6603
  C  C628  1  0.596740  0.333810  0.826300  1.0  -0.1581
  C  C629  1  0.553490  0.343960  0.760200  1.0  -0.0458
  C  C630  1  0.551500  0.374870  0.719000  1.0  -0.1448
  C  C631  1  0.592500  0.399600  0.742900  1.0  0.0336
  C  C632  1  0.635900  0.387200  0.808300  1.0  -0.1061
  C  C633  1  0.637700  0.355700  0.849900  1.0  -0.0348
  C  C634  1  0.591000  0.434500  0.699300  1.0  0.2291
  C  C635  1  0.554500  0.470700  0.668400  1.0  -0.1542
  C  C636  1  0.551800  0.508000  0.629600  1.0  0.1616
  C  C637  1  0.590200  0.508800  0.630900  1.0  0.1119
  C  C638  1  0.608000  0.468400  0.639700  1.0  -0.0848
  C  C639  1  0.612300  0.430800  0.682300  1.0  0.2448
  C  C640  1  0.632500  0.611300  0.590900  1.0  -0.028
  C  C641  1  0.632100  0.572500  0.623500  1.0  -0.1578
  C  C642  1  0.591100  0.548300  0.592100  1.0  0.0048
  C  C643  1  0.549200  0.565200  0.529600  1.0  -0.1616
  C  C644  1  0.551100  0.605100  0.499100  1.0  -0.0302
  C  C645  1  0.592450  0.628380  0.529700  1.0  -0.1453
  C  C646  1  0.593210  0.671580  0.496400  1.0  0.6817
  C  C647  1  0.687800  0.397500  0.711700  1.0  0.0169
  C  C648  1  0.713300  0.351700  0.748800  1.0  -0.1474
  C  C649  1  0.735900  0.321100  0.741300  1.0  -0.1539
  C  C650  1  0.729800  0.302800  0.682100  1.0  -0.1248
  C  C651  1  0.733500  0.247200  0.678600  1.0  -0.3264
  C  C652  1  0.474900  0.540600  0.588100  1.0  0.0802
  C  C653  1  0.443700  0.581000  0.543500  1.0  -0.1388
  C  C654  1  0.438000  0.623300  0.496400  1.0  -0.2506
  C  C655  1  0.443200  0.672300  0.518500  1.0  -0.1111
  C  C656  1  0.605650  0.199150  0.037500  1.0  0.6927
  C  C657  1  0.605950  0.167010  0.082100  1.0  -0.1189
  C  C658  1  0.648700  0.148000  0.142700  1.0  -0.24
  C  C659  1  0.648200  0.116800  0.181100  1.0  -0.1635
  C  C660  1  0.608200  0.100100  0.162400  1.0  0.0804
  C  C661  1  0.566900  0.117600  0.103700  1.0  -0.1417
  C  C662  1  0.566000  0.151500  0.063400  1.0  -0.0573
  C  C663  1  0.607700  0.062400  0.201100  1.0  -0.0382
  C  C664  1  0.633500  0.021400  0.219900  1.0  -0.2264
  C  C665  1  0.636600  0.984200  0.258400  1.0  0.1742
  C  C666  1  0.611000  0.990800  0.277700  1.0  -0.0066
  C  C667  1  0.585600  0.031800  0.257500  1.0  -0.1442
  C  C668  1  0.583100  0.067400  0.221700  1.0  0.1706
  C  C669  1  0.564960  0.898110  0.323500  1.0  -0.0641
  C  C670  1  0.566300  0.936100  0.291500  1.0  -0.1318
  C  C671  1  0.608000  0.950950  0.312600  1.0  0.0101
  C  C672  1  0.648600  0.927400  0.365400  1.0  -0.1366
  C  C673  1  0.647900  0.889270  0.398700  1.0  -0.0563
  C  C674  1  0.605990  0.874000  0.376600  1.0  -0.1004
  C  C675  1  0.604290  0.828760  0.406600  1.0  0.694
  C  C676  1  0.560300  0.131100  0.260800  1.0  -0.0127
  C  C677  1  0.691000  0.939400  0.259500  1.0  -0.046
  C  C678  1  0.731700  0.957400  0.310400  1.0  -0.0924
  C  C679  1  0.748300  0.243100  0.134000  1.0  0.1237
  C  C680  1  0.798400  0.244500  0.186200  1.0  -0.0953
  C  C681  1  0.823880  0.257930  0.178100  1.0  0.1998
  C  C682  1  0.799100  0.272300  0.115700  1.0  -0.2372
  C  C683  1  0.750300  0.269800  0.068400  1.0  0.1372
  C  C684  1  0.951410  0.281300  0.272200  1.0  0.1668
  C  C685  1  0.902870  0.283300  0.222600  1.0  -0.2145
  C  C686  1  0.877110  0.258970  0.232400  1.0  0.0559
  C  C687  1  0.901780  0.235100  0.292600  1.0  -0.2082
  C  C688  1  0.950500  0.235300  0.340200  1.0  0.1762
  C  C689  1  0.901300  0.198640  0.127800  1.0  0.6602
  C  C690  1  0.903260  0.166190  0.173700  1.0  -0.1568
  C  C691  1  0.946510  0.156040  0.239800  1.0  -0.0473
  C  C692  1  0.948500  0.125130  0.281000  1.0  -0.1444
  C  C693  1  0.907500  0.100400  0.257100  1.0  0.0307
  C  C694  1  0.864100  0.112800  0.191700  1.0  -0.1029
  C  C695  1  0.862300  0.144300  0.150100  1.0  -0.0359
  C  C696  1  0.909000  0.065500  0.300700  1.0  0.2297
  C  C697  1  0.945500  0.029300  0.331600  1.0  -0.1546
  C  C698  1  0.948200  0.992000  0.370400  1.0  0.1591
  C  C699  1  0.909800  0.991200  0.369100  1.0  0.1147
  C  C700  1  0.892000  0.031600  0.360300  1.0  -0.0846
  C  C701  1  0.887700  0.069200  0.317700  1.0  0.2455
  C  C702  1  0.867500  0.888700  0.409100  1.0  -0.0301
  C  C703  1  0.867900  0.927500  0.376500  1.0  -0.1585
  C  C704  1  0.908900  0.951700  0.407900  1.0  0.0045
  C  C705  1  0.950800  0.934800  0.470400  1.0  -0.1648
  C  C706  1  0.948900  0.894900  0.500900  1.0  -0.0309
  C  C707  1  0.907550  0.871620  0.470300  1.0  -0.147
  C  C708  1  0.906790  0.828420  0.503600  1.0  0.681
  C  C709  1  0.812200  0.102500  0.288300  1.0  0.0173
  C  C710  1  0.786700  0.148300  0.251200  1.0  -0.1534
  C  C711  1  0.764100  0.178900  0.258700  1.0  -0.1543
  C  C712  1  0.770200  0.197200  0.317900  1.0  -0.1286
  C  C713  1  0.766500  0.252800  0.321400  1.0  -0.3278
  C  C714  1  0.025100  0.959400  0.411900  1.0  0.0802
  C  C715  1  0.056300  0.919000  0.456500  1.0  -0.1394
  C  C716  1  0.062000  0.876700  0.503600  1.0  -0.2499
  C  C717  1  0.056800  0.827700  0.481500  1.0  -0.1125
  C  C718  1  0.894350  0.300850  0.962500  1.0  0.6924
  C  C719  1  0.894050  0.332990  0.917900  1.0  -0.1193
  C  C720  1  0.851300  0.352000  0.857300  1.0  -0.241
  C  C721  1  0.851800  0.383200  0.818900  1.0  -0.163
  C  C722  1  0.891800  0.399900  0.837600  1.0  0.0824
  C  C723  1  0.933100  0.382400  0.896300  1.0  -0.1403
  C  C724  1  0.934000  0.348500  0.936600  1.0  -0.0569
  C  C725  1  0.892300  0.437600  0.798900  1.0  -0.0383
  C  C726  1  0.866500  0.478600  0.780100  1.0  -0.2259
  C  C727  1  0.863400  0.515800  0.741600  1.0  0.1742
  C  C728  1  0.889000  0.509200  0.722300  1.0  -0.0059
  C  C729  1  0.914400  0.468200  0.742500  1.0  -0.1437
  C  C730  1  0.916900  0.432600  0.778300  1.0  0.1708
  C  C731  1  0.935040  0.601890  0.676500  1.0  -0.0643
  C  C732  1  0.933700  0.563900  0.708500  1.0  -0.133
  C  C733  1  0.892000  0.549050  0.687400  1.0  0.0098
  C  C734  1  0.851400  0.572600  0.634600  1.0  -0.1389
  C  C735  1  0.852100  0.610730  0.601300  1.0  -0.0557
  C  C736  1  0.894010  0.626000  0.623400  1.0  -0.1019
  C  C737  1  0.895710  0.671240  0.593400  1.0  0.6924
  C  C738  1  0.939700  0.368900  0.739200  1.0  -0.0139
  C  C739  1  0.809000  0.560600  0.740500  1.0  -0.0414
  C  C740  1  0.768300  0.542600  0.689600  1.0  -0.0861
  C  C741  1  0.751700  0.256900  0.866000  1.0  0.1227
  C  C742  1  0.701600  0.255500  0.813800  1.0  -0.0983
  C  C743  1  0.676120  0.242070  0.821900  1.0  0.201
  C  C744  1  0.700900  0.227700  0.884300  1.0  -0.2376
  C  C745  1  0.749700  0.230200  0.931600  1.0  0.138
  C  C746  1  0.548590  0.218700  0.727800  1.0  0.1659
  C  C747  1  0.597130  0.216700  0.777400  1.0  -0.2133
  C  C748  1  0.622890  0.241030  0.767600  1.0  0.0553
  C  C749  1  0.598220  0.264900  0.707400  1.0  -0.207
  C  C750  1  0.549500  0.264700  0.659800  1.0  0.1771
  C  C751  1  0.401300  0.698640  0.127800  1.0  0.6602
  C  C752  1  0.403260  0.666190  0.173700  1.0  -0.1568
  C  C753  1  0.446510  0.656040  0.239800  1.0  -0.0473
  C  C754  1  0.448500  0.625130  0.281000  1.0  -0.1444
  C  C755  1  0.407500  0.600400  0.257100  1.0  0.0307
  C  C756  1  0.364100  0.612800  0.191700  1.0  -0.1029
  C  C757  1  0.362300  0.644300  0.150100  1.0  -0.0359
  C  C758  1  0.409000  0.565500  0.300700  1.0  0.2297
  C  C759  1  0.445500  0.529300  0.331600  1.0  -0.1546
  C  C760  1  0.448200  0.492000  0.370400  1.0  0.1591
  C  C761  1  0.409800  0.491200  0.369100  1.0  0.1147
  C  C762  1  0.392000  0.531600  0.360300  1.0  -0.0846
  C  C763  1  0.387700  0.569200  0.317700  1.0  0.2455
  C  C764  1  0.367500  0.388700  0.409100  1.0  -0.0301
  C  C765  1  0.367900  0.427500  0.376500  1.0  -0.1585
  C  C766  1  0.408900  0.451700  0.407900  1.0  0.0045
  C  C767  1  0.450800  0.434800  0.470400  1.0  -0.1648
  C  C768  1  0.448900  0.394900  0.500900  1.0  -0.0309
  C  C769  1  0.407550  0.371620  0.470300  1.0  -0.147
  C  C770  1  0.406790  0.328420  0.503600  1.0  0.681
  C  C771  1  0.312200  0.602500  0.288300  1.0  0.0173
  C  C772  1  0.286700  0.648300  0.251200  1.0  -0.1534
  C  C773  1  0.264100  0.678900  0.258700  1.0  -0.1543
  C  C774  1  0.270200  0.697200  0.317900  1.0  -0.1286
  C  C775  1  0.266500  0.752800  0.321400  1.0  -0.3278
  C  C776  1  0.525100  0.459400  0.411900  1.0  0.0802
  C  C777  1  0.556300  0.419000  0.456500  1.0  -0.1394
  C  C778  1  0.562000  0.376700  0.503600  1.0  -0.2499
  C  C779  1  0.556800  0.327700  0.481500  1.0  -0.1125
  C  C780  1  0.394350  0.800850  0.962500  1.0  0.6924
  C  C781  1  0.394050  0.832990  0.917900  1.0  -0.1193
  C  C782  1  0.351300  0.852000  0.857300  1.0  -0.241
  C  C783  1  0.351800  0.883200  0.818900  1.0  -0.163
  C  C784  1  0.391800  0.899900  0.837600  1.0  0.0824
  C  C785  1  0.433100  0.882400  0.896300  1.0  -0.1403
  C  C786  1  0.434000  0.848500  0.936600  1.0  -0.0569
  C  C787  1  0.392300  0.937600  0.798900  1.0  -0.0383
  C  C788  1  0.366500  0.978600  0.780100  1.0  -0.2259
  C  C789  1  0.363400  0.015800  0.741600  1.0  0.1742
  C  C790  1  0.389000  0.009200  0.722300  1.0  -0.0059
  C  C791  1  0.414400  0.968200  0.742500  1.0  -0.1437
  C  C792  1  0.416900  0.932600  0.778300  1.0  0.1708
  C  C793  1  0.435040  0.101890  0.676500  1.0  -0.0643
  C  C794  1  0.433700  0.063900  0.708500  1.0  -0.133
  C  C795  1  0.392000  0.049050  0.687400  1.0  0.0098
  C  C796  1  0.351400  0.072600  0.634600  1.0  -0.1389
  C  C797  1  0.352100  0.110730  0.601300  1.0  -0.0557
  C  C798  1  0.394010  0.126000  0.623400  1.0  -0.1019
  C  C799  1  0.395710  0.171240  0.593400  1.0  0.6923
  C  C800  1  0.439700  0.868900  0.739200  1.0  -0.0139
  C  C801  1  0.309000  0.060600  0.740500  1.0  -0.0414
  C  C802  1  0.268300  0.042600  0.689600  1.0  -0.0861
  C  C803  1  0.251700  0.756900  0.866000  1.0  0.1223
  C  C804  1  0.201600  0.755500  0.813800  1.0  -0.0982
  C  C805  1  0.176120  0.742070  0.821900  1.0  0.2011
  C  C806  1  0.200900  0.727700  0.884300  1.0  -0.2376
  C  C807  1  0.249700  0.730200  0.931600  1.0  0.1379
  C  C808  1  0.048590  0.718700  0.727800  1.0  0.1659
  C  C809  1  0.097130  0.716700  0.777400  1.0  -0.2133
  C  C810  1  0.122890  0.741030  0.767600  1.0  0.0553
  C  C811  1  0.098220  0.764900  0.707400  1.0  -0.207
  C  C812  1  0.049500  0.764700  0.659800  1.0  0.1771
  C  C813  1  0.901300  0.801360  0.627800  1.0  0.6607
  C  C814  1  0.903260  0.833810  0.673700  1.0  -0.1589
  C  C815  1  0.946510  0.843960  0.739800  1.0  -0.0468
  C  C816  1  0.948500  0.874870  0.781000  1.0  -0.1439
  C  C817  1  0.907500  0.899600  0.757100  1.0  0.0319
  C  C818  1  0.864100  0.887200  0.691700  1.0  -0.1035
  C  C819  1  0.862300  0.855700  0.650100  1.0  -0.0378
  C  C820  1  0.909000  0.934500  0.800700  1.0  0.2297
  C  C821  1  0.945500  0.970700  0.831600  1.0  -0.1544
  C  C822  1  0.948200  0.008000  0.870400  1.0  0.159
  C  C823  1  0.909800  0.008800  0.869100  1.0  0.1134
  C  C824  1  0.892000  0.968400  0.860300  1.0  -0.0844
  C  C825  1  0.887700  0.930800  0.817700  1.0  0.2451
  C  C826  1  0.867500  0.111300  0.909100  1.0  -0.0301
  C  C827  1  0.867900  0.072500  0.876500  1.0  -0.1587
  C  C828  1  0.908900  0.048300  0.907900  1.0  0.0046
  C  C829  1  0.950800  0.065200  0.970400  1.0  -0.164
  C  C830  1  0.948900  0.105100  0.000900  1.0  -0.0305
  C  C831  1  0.907550  0.128380  0.970300  1.0  -0.1482
  C  C832  1  0.906790  0.171580  0.003600  1.0  0.6816
  C  C833  1  0.812200  0.897500  0.788300  1.0  0.0169
  C  C834  1  0.786700  0.851700  0.751200  1.0  -0.1531
  C  C835  1  0.764100  0.821100  0.758700  1.0  -0.1539
  C  C836  1  0.770200  0.802800  0.817900  1.0  -0.1274
  C  C837  1  0.766500  0.747200  0.821400  1.0  -0.3289
  C  C838  1  0.025100  0.040600  0.911900  1.0  0.0801
  C  C839  1  0.056300  0.081000  0.956500  1.0  -0.1388
  C  C840  1  0.062000  0.123300  0.003600  1.0  -0.2512
  C  C841  1  0.056800  0.172300  0.981500  1.0  -0.1141
  C  C842  1  0.894350  0.699150  0.462500  1.0  0.6927
  C  C843  1  0.894050  0.667010  0.417900  1.0  -0.1201
  C  C844  1  0.851300  0.648000  0.357300  1.0  -0.2412
  C  C845  1  0.851800  0.616800  0.318900  1.0  -0.1631
  C  C846  1  0.891800  0.600100  0.337600  1.0  0.0816
  C  C847  1  0.933100  0.617600  0.396300  1.0  -0.1406
  C  C848  1  0.934000  0.651500  0.436600  1.0  -0.0559
  C  C849  1  0.892300  0.562400  0.298900  1.0  -0.0382
  C  C850  1  0.866500  0.521400  0.280100  1.0  -0.2258
  C  C851  1  0.863400  0.484200  0.241600  1.0  0.175
  C  C852  1  0.889000  0.490800  0.222300  1.0  -0.006
  C  C853  1  0.914400  0.531800  0.242500  1.0  -0.1434
  C  C854  1  0.916900  0.567400  0.278300  1.0  0.1709
  C  C855  1  0.935040  0.398110  0.176500  1.0  -0.0636
  C  C856  1  0.933700  0.436100  0.208500  1.0  -0.1322
  C  C857  1  0.892000  0.450950  0.187400  1.0  0.0104
  C  C858  1  0.851400  0.427400  0.134600  1.0  -0.1398
  C  C859  1  0.852100  0.389270  0.101300  1.0  -0.0571
  C  C860  1  0.894010  0.374000  0.123400  1.0  -0.1035
  C  C861  1  0.895710  0.328760  0.093400  1.0  0.6941
  C  C862  1  0.939700  0.631100  0.239200  1.0  -0.0158
  C  C863  1  0.809000  0.439400  0.240500  1.0  -0.0407
  C  C864  1  0.768300  0.457400  0.189600  1.0  -0.0851
  C  C865  1  0.751700  0.743100  0.366000  1.0  0.1225
  C  C866  1  0.701600  0.744500  0.313800  1.0  -0.097
  C  C867  1  0.676120  0.757930  0.321900  1.0  0.2013
  C  C868  1  0.700900  0.772300  0.384300  1.0  -0.2378
  C  C869  1  0.749700  0.769800  0.431600  1.0  0.1374
  C  C870  1  0.548590  0.781300  0.227800  1.0  0.1654
  C  C871  1  0.597130  0.783300  0.277400  1.0  -0.2141
  C  C872  1  0.622890  0.758970  0.267600  1.0  0.0551
  C  C873  1  0.598220  0.735100  0.207400  1.0  -0.2066
  C  C874  1  0.549500  0.735300  0.159800  1.0  0.1777
  C  C875  1  0.401300  0.301360  0.627800  1.0  0.6607
  C  C876  1  0.403260  0.333810  0.673700  1.0  -0.1589
  C  C877  1  0.446510  0.343960  0.739800  1.0  -0.0468
  C  C878  1  0.448500  0.374870  0.781000  1.0  -0.1439
  C  C879  1  0.407500  0.399600  0.757100  1.0  0.0319
  C  C880  1  0.364100  0.387200  0.691700  1.0  -0.1035
  C  C881  1  0.362300  0.355700  0.650100  1.0  -0.0378
  C  C882  1  0.409000  0.434500  0.800700  1.0  0.2297
  C  C883  1  0.445500  0.470700  0.831600  1.0  -0.1544
  C  C884  1  0.448200  0.508000  0.870400  1.0  0.159
  C  C885  1  0.409800  0.508800  0.869100  1.0  0.1134
  C  C886  1  0.392000  0.468400  0.860300  1.0  -0.0844
  C  C887  1  0.387700  0.430800  0.817700  1.0  0.2451
  C  C888  1  0.367500  0.611300  0.909100  1.0  -0.0301
  C  C889  1  0.367900  0.572500  0.876500  1.0  -0.1587
  C  C890  1  0.408900  0.548300  0.907900  1.0  0.0046
  C  C891  1  0.450800  0.565200  0.970400  1.0  -0.164
  C  C892  1  0.448900  0.605100  0.000900  1.0  -0.0305
  C  C893  1  0.407550  0.628380  0.970300  1.0  -0.1482
  C  C894  1  0.406790  0.671580  0.003600  1.0  0.6816
  C  C895  1  0.312200  0.397500  0.788300  1.0  0.0169
  C  C896  1  0.286700  0.351700  0.751200  1.0  -0.1531
  C  C897  1  0.264100  0.321100  0.758700  1.0  -0.1539
  C  C898  1  0.270200  0.302800  0.817900  1.0  -0.1274
  C  C899  1  0.266500  0.247200  0.821400  1.0  -0.3289
  C  C900  1  0.525100  0.540600  0.911900  1.0  0.0801
  C  C901  1  0.556300  0.581000  0.956500  1.0  -0.1388
  C  C902  1  0.562000  0.623300  0.003600  1.0  -0.2512
  C  C903  1  0.556800  0.672300  0.981500  1.0  -0.1141
  C  C904  1  0.394350  0.199150  0.462500  1.0  0.6927
  C  C905  1  0.394050  0.167010  0.417900  1.0  -0.1201
  C  C906  1  0.351300  0.148000  0.357300  1.0  -0.2412
  C  C907  1  0.351800  0.116800  0.318900  1.0  -0.1631
  C  C908  1  0.391800  0.100100  0.337600  1.0  0.0816
  C  C909  1  0.433100  0.117600  0.396300  1.0  -0.1406
  C  C910  1  0.434000  0.151500  0.436600  1.0  -0.0559
  C  C911  1  0.392300  0.062400  0.298900  1.0  -0.0382
  C  C912  1  0.366500  0.021400  0.280100  1.0  -0.2258
  C  C913  1  0.363400  0.984200  0.241600  1.0  0.175
  C  C914  1  0.389000  0.990800  0.222300  1.0  -0.006
  C  C915  1  0.414400  0.031800  0.242500  1.0  -0.1434
  C  C916  1  0.416900  0.067400  0.278300  1.0  0.1709
  C  C917  1  0.435040  0.898110  0.176500  1.0  -0.0636
  C  C918  1  0.433700  0.936100  0.208500  1.0  -0.1322
  C  C919  1  0.392000  0.950950  0.187400  1.0  0.0104
  C  C920  1  0.351400  0.927400  0.134600  1.0  -0.1398
  C  C921  1  0.352100  0.889270  0.101300  1.0  -0.0571
  C  C922  1  0.394010  0.874000  0.123400  1.0  -0.1035
  C  C923  1  0.395710  0.828760  0.093400  1.0  0.6941
  C  C924  1  0.439700  0.131100  0.239200  1.0  -0.0158
  C  C925  1  0.309000  0.939400  0.240500  1.0  -0.0407
  C  C926  1  0.268300  0.957400  0.189600  1.0  -0.0851
  C  C927  1  0.251700  0.243100  0.366000  1.0  0.1222
  C  C928  1  0.201600  0.244500  0.313800  1.0  -0.0969
  C  C929  1  0.176120  0.257930  0.321900  1.0  0.2013
  C  C930  1  0.200900  0.272300  0.384300  1.0  -0.2378
  C  C931  1  0.249700  0.269800  0.431600  1.0  0.1374
  C  C932  1  0.048590  0.281300  0.227800  1.0  0.1654
  C  C933  1  0.097130  0.283300  0.277400  1.0  -0.2141
  C  C934  1  0.122890  0.258970  0.267600  1.0  0.0551
  C  C935  1  0.098220  0.235100  0.207400  1.0  -0.2066
  C  C936  1  0.049500  0.235300  0.159800  1.0  0.1777
  N  N937  1  0.224940  0.243940  0.577800  1.0  -0.1822
  N  N938  1  0.475980  0.242390  0.831600  1.0  -0.3304
  N  N939  1  0.724940  0.743940  0.577800  1.0  -0.1822
  N  N940  1  0.975980  0.742390  0.831600  1.0  -0.3304
  N  N941  1  0.224940  0.756060  0.077800  1.0  -0.1813
  N  N942  1  0.475980  0.757610  0.331600  1.0  -0.3311
  N  N943  1  0.724940  0.256060  0.077800  1.0  -0.1813
  N  N944  1  0.975980  0.257610  0.331600  1.0  -0.3311
  N  N945  1  0.775060  0.243940  0.922200  1.0  -0.1837
  N  N946  1  0.524020  0.242390  0.668400  1.0  -0.3329
  N  N947  1  0.275060  0.743940  0.922200  1.0  -0.1837
  N  N948  1  0.024020  0.742390  0.668400  1.0  -0.3329
  N  N949  1  0.775060  0.756060  0.422200  1.0  -0.1846
  N  N950  1  0.524020  0.757610  0.168400  1.0  -0.3319
  N  N951  1  0.275060  0.256060  0.422200  1.0  -0.1846
  N  N952  1  0.024020  0.257610  0.168400  1.0  -0.3319
  O  O953  1  0.138740  0.207960  0.429670  1.0  -0.6061
  O  O954  1  0.060520  0.215770  0.350160  1.0  -0.5909
  O  O955  1  0.133560  0.810800  0.027180  1.0  -0.6191
  O  O956  1  0.055610  0.811850  0.945920  1.0  -0.5745
  O  O957  1  0.146700  0.105400  0.208400  1.0  -0.3761
  O  O958  1  0.017000  0.955100  0.099300  1.0  -0.3378
  O  O959  1  0.144440  0.289080  0.557690  1.0  -0.597
  O  O960  1  0.065750  0.287420  0.483100  1.0  -0.6152
  O  O961  1  0.142680  0.691900  0.953280  1.0  -0.5971
  O  O962  1  0.064030  0.684730  0.880810  1.0  -0.5998
  O  O963  1  0.054100  0.391100  0.702400  1.0  -0.3538
  O  O964  1  0.157100  0.558500  0.768700  1.0  -0.3657
  O  O965  1  0.638740  0.707960  0.429670  1.0  -0.6062
  O  O966  1  0.560520  0.715770  0.350160  1.0  -0.5909
  O  O967  1  0.633560  0.310800  0.027180  1.0  -0.6191
  O  O968  1  0.555610  0.311850  0.945920  1.0  -0.5745
  O  O969  1  0.646700  0.605400  0.208400  1.0  -0.3761
  O  O970  1  0.517000  0.455100  0.099300  1.0  -0.3378
  O  O971  1  0.644440  0.789080  0.557690  1.0  -0.597
  O  O972  1  0.565750  0.787420  0.483100  1.0  -0.6152
  O  O973  1  0.642680  0.191900  0.953280  1.0  -0.5971
  O  O974  1  0.564030  0.184730  0.880810  1.0  -0.5998
  O  O975  1  0.554100  0.891100  0.702400  1.0  -0.3538
  O  O976  1  0.657100  0.058500  0.768700  1.0  -0.3657
  O  O977  1  0.138740  0.792040  0.929670  1.0  -0.6061
  O  O978  1  0.060520  0.784230  0.850160  1.0  -0.5915
  O  O979  1  0.133560  0.189200  0.527180  1.0  -0.6189
  O  O980  1  0.055610  0.188150  0.445920  1.0  -0.5742
  O  O981  1  0.146700  0.894600  0.708400  1.0  -0.3747
  O  O982  1  0.017000  0.044900  0.599300  1.0  -0.3367
  O  O983  1  0.144440  0.710920  0.057690  1.0  -0.5971
  O  O984  1  0.065750  0.712580  0.983100  1.0  -0.6155
  O  O985  1  0.142680  0.308100  0.453280  1.0  -0.5974
  O  O986  1  0.064030  0.315270  0.380810  1.0  -0.6003
  O  O987  1  0.054100  0.608900  0.202400  1.0  -0.3558
  O  O988  1  0.157100  0.441500  0.268700  1.0  -0.3662
  O  O989  1  0.638740  0.292040  0.929670  1.0  -0.6061
  O  O990  1  0.560520  0.284230  0.850160  1.0  -0.5915
  O  O991  1  0.633560  0.689200  0.527180  1.0  -0.6189
  O  O992  1  0.555610  0.688150  0.445920  1.0  -0.5742
  O  O993  1  0.646700  0.394600  0.708400  1.0  -0.3747
  O  O994  1  0.517000  0.544900  0.599300  1.0  -0.3367
  O  O995  1  0.644440  0.210920  0.057690  1.0  -0.5971
  O  O996  1  0.565750  0.212580  0.983100  1.0  -0.6155
  O  O997  1  0.642680  0.808100  0.453280  1.0  -0.5974
  O  O998  1  0.564030  0.815270  0.380810  1.0  -0.6003
  O  O999  1  0.554100  0.108900  0.202400  1.0  -0.3558
  O  O1000  1  0.657100  0.941500  0.268700  1.0  -0.3662
  O  O1001  1  0.861260  0.207960  0.070330  1.0  -0.6064
  O  O1002  1  0.939480  0.215770  0.149840  1.0  -0.5924
  O  O1003  1  0.866440  0.810800  0.472820  1.0  -0.6184
  O  O1004  1  0.944390  0.811850  0.554080  1.0  -0.5755
  O  O1005  1  0.853300  0.105400  0.291600  1.0  -0.3749
  O  O1006  1  0.983000  0.955100  0.400700  1.0  -0.3391
  O  O1007  1  0.855560  0.289080  0.942310  1.0  -0.5965
  O  O1008  1  0.934250  0.287420  0.016900  1.0  -0.6161
  O  O1009  1  0.857320  0.691900  0.546720  1.0  -0.5965
  O  O1010  1  0.935970  0.684730  0.619190  1.0  -0.6
  O  O1011  1  0.945900  0.391100  0.797600  1.0  -0.3575
  O  O1012  1  0.842900  0.558500  0.731300  1.0  -0.3663
  O  O1013  1  0.361260  0.707960  0.070330  1.0  -0.6064
  O  O1014  1  0.439480  0.715770  0.149840  1.0  -0.5924
  O  O1015  1  0.366440  0.310800  0.472820  1.0  -0.6184
  O  O1016  1  0.444390  0.311850  0.554080  1.0  -0.5754
  O  O1017  1  0.353300  0.605400  0.291600  1.0  -0.3749
  O  O1018  1  0.483000  0.455100  0.400700  1.0  -0.3391
  O  O1019  1  0.355560  0.789080  0.942310  1.0  -0.5965
  O  O1020  1  0.434250  0.787420  0.016900  1.0  -0.6161
  O  O1021  1  0.357320  0.191900  0.546720  1.0  -0.5965
  O  O1022  1  0.435970  0.184730  0.619190  1.0  -0.6
  O  O1023  1  0.445900  0.891100  0.797600  1.0  -0.3575
  O  O1024  1  0.342900  0.058500  0.731300  1.0  -0.3663
  O  O1025  1  0.861260  0.792040  0.570330  1.0  -0.6057
  O  O1026  1  0.939480  0.784230  0.649840  1.0  -0.5925
  O  O1027  1  0.866440  0.189200  0.972820  1.0  -0.6187
  O  O1028  1  0.944390  0.188150  0.054080  1.0  -0.5753
  O  O1029  1  0.853300  0.894600  0.791600  1.0  -0.3749
  O  O1030  1  0.983000  0.044900  0.900700  1.0  -0.3368
  O  O1031  1  0.855560  0.710920  0.442310  1.0  -0.5965
  O  O1032  1  0.934250  0.712580  0.516900  1.0  -0.6163
  O  O1033  1  0.857320  0.308100  0.046720  1.0  -0.5967
  O  O1034  1  0.935970  0.315270  0.119190  1.0  -0.5998
  O  O1035  1  0.945900  0.608900  0.297600  1.0  -0.3588
  O  O1036  1  0.842900  0.441500  0.231300  1.0  -0.3664
  O  O1037  1  0.361260  0.292040  0.570330  1.0  -0.6057
  O  O1038  1  0.439480  0.284230  0.649840  1.0  -0.5925
  O  O1039  1  0.366440  0.689200  0.972820  1.0  -0.6187
  O  O1040  1  0.444390  0.688150  0.054080  1.0  -0.5753
  O  O1041  1  0.353300  0.394600  0.791600  1.0  -0.3749
  O  O1042  1  0.483000  0.544900  0.900700  1.0  -0.3368
  O  O1043  1  0.355560  0.210920  0.442310  1.0  -0.5965
  O  O1044  1  0.434250  0.212580  0.516900  1.0  -0.6163
  O  O1045  1  0.357320  0.808100  0.046720  1.0  -0.5967
  O  O1046  1  0.435970  0.815270  0.119190  1.0  -0.5998
  O  O1047  1  0.445900  0.108900  0.297600  1.0  -0.3588
  O  O1048  1  0.342900  0.941500  0.231300  1.0  -0.3664
