# generated using pymatgen
data_ZnH19C27NO6
_symmetry_space_group_name_H-M   'P 1'
_cell_length_a   39.00500000
_cell_length_b   27.43100000
_cell_length_c   27.36200000
_cell_angle_alpha   90.00000000
_cell_angle_beta   133.84000000
_cell_angle_gamma   90.00000000
_symmetry_Int_Tables_number   1
_chemical_formula_structural   ZnH19C27NO6
_chemical_formula_sum   'Zn16 H304 C432 N16 O96'
_cell_volume   21116.00476767
_cell_formula_units_Z   16
loop_
 _symmetry_equiv_pos_site_id
 _symmetry_equiv_pos_as_xyz
  1  'x, y, z'
loop_
 _atom_site_type_symbol
 _atom_site_label
 _atom_site_symmetry_multiplicity
 _atom_site_fract_x
 _atom_site_fract_y
 _atom_site_fract_z
 _atom_site_occupancy
 _atom_site_charge
  Zn  Zn1  1  0.548560  0.246940  0.695370  1.0  0.9063
  Zn  Zn2  1  0.652870  0.253160  0.799210  1.0  0.9097
  Zn  Zn3  1  0.048560  0.746940  0.695370  1.0  0.9063
  Zn  Zn4  1  0.152870  0.753160  0.799210  1.0  0.9097
  Zn  Zn5  1  0.548560  0.753060  0.195370  1.0  0.9063
  Zn  Zn6  1  0.652870  0.746840  0.299210  1.0  0.9097
  Zn  Zn7  1  0.048560  0.253060  0.195370  1.0  0.9063
  Zn  Zn8  1  0.152870  0.246840  0.299210  1.0  0.9097
  Zn  Zn9  1  0.451440  0.246940  0.804630  1.0  0.9068
  Zn  Zn10  1  0.347130  0.253160  0.700790  1.0  0.9093
  Zn  Zn11  1  0.951440  0.746940  0.804630  1.0  0.9068
  Zn  Zn12  1  0.847130  0.753160  0.700790  1.0  0.9093
  Zn  Zn13  1  0.451440  0.753060  0.304630  1.0  0.9067
  Zn  Zn14  1  0.347130  0.746840  0.200790  1.0  0.9092
  Zn  Zn15  1  0.951440  0.253060  0.304630  1.0  0.9067
  Zn  Zn16  1  0.847130  0.246840  0.200790  1.0  0.9092
  H  H17  1  0.666300  0.350700  0.937300  1.0  0.1198
  H  H18  1  0.661900  0.402300  0.998900  1.0  0.1195
  H  H19  1  0.521500  0.382700  0.867900  1.0  0.1086
  H  H20  1  0.525300  0.328500  0.808900  1.0  0.1138
  H  H21  1  0.630400  0.462700  0.127300  1.0  0.1301
  H  H22  1  0.529000  0.476000  0.891400  1.0  0.1208
  H  H23  1  0.661900  0.623400  0.210800  1.0  0.1116
  H  H24  1  0.658700  0.559700  0.152900  1.0  0.1204
  H  H25  1  0.519200  0.553600  0.030600  1.0  0.0979
  H  H26  1  0.521600  0.614600  0.090100  1.0  0.1119
  H  H27  1  0.483400  0.541700  0.833100  1.0  0.0895
  H  H28  1  0.456300  0.509500  0.845400  1.0  0.1224
  H  H29  1  0.417200  0.586700  0.799300  1.0  0.1303
  H  H30  1  0.464700  0.613100  0.860400  1.0  0.1274
  H  H31  1  0.437800  0.581200  0.872600  1.0  0.1271
  H  H32  1  0.537500  0.163500  0.551200  1.0  0.1302
  H  H33  1  0.540200  0.109400  0.490800  1.0  0.1107
  H  H34  1  0.681500  0.107000  0.635400  1.0  0.1207
  H  H35  1  0.679300  0.160400  0.697300  1.0  0.1131
  H  H36  1  0.567400  0.038300  0.369300  1.0  0.0731
  H  H37  1  0.653800  0.018300  0.596900  1.0  0.1231
  H  H38  1  0.536600  0.890100  0.263600  1.0  0.1053
  H  H39  1  0.537500  0.952000  0.321900  1.0  0.1228
  H  H40  1  0.678400  0.937800  0.471800  1.0  0.1099
  H  H41  1  0.676700  0.875700  0.413400  1.0  0.1098
  H  H42  1  0.568900  0.134300  0.355300  1.0  0.0914
  H  H43  1  0.516500  0.114400  0.309500  1.0  0.0876
  H  H44  1  0.519600  0.188800  0.311000  1.0  0.0829
  H  H45  1  0.554600  0.187900  0.390100  1.0  0.1004
  H  H46  1  0.502600  0.168200  0.344700  1.0  0.1023
  H  H47  1  0.468400  0.278600  0.554500  1.0  0.0842
  H  H48  1  0.387100  0.277500  0.470900  1.0  0.1267
  H  H49  1  0.386900  0.199500  0.591800  1.0  0.109
  H  H50  1  0.467400  0.201300  0.671100  1.0  0.0847
  H  H51  1  0.235300  0.254800  0.313300  1.0  0.0887
  H  H52  1  0.314900  0.250100  0.391800  1.0  0.1061
  H  H53  1  0.312500  0.221100  0.523300  1.0  0.1073
  H  H54  1  0.233100  0.222200  0.440800  1.0  0.0642
  H  H55  1  0.166300  0.850700  0.937300  1.0  0.1198
  H  H56  1  0.161900  0.902300  0.998900  1.0  0.1195
  H  H57  1  0.021500  0.882700  0.867900  1.0  0.1086
  H  H58  1  0.025300  0.828500  0.808900  1.0  0.1138
  H  H59  1  0.130400  0.962700  0.127300  1.0  0.1301
  H  H60  1  0.029000  0.976000  0.891400  1.0  0.1208
  H  H61  1  0.161900  0.123400  0.210800  1.0  0.1116
  H  H62  1  0.158700  0.059700  0.152900  1.0  0.1204
  H  H63  1  0.019200  0.053600  0.030600  1.0  0.0979
  H  H64  1  0.021600  0.114600  0.090100  1.0  0.1119
  H  H65  1  0.983400  0.041700  0.833100  1.0  0.0895
  H  H66  1  0.956300  0.009500  0.845400  1.0  0.1224
  H  H67  1  0.917200  0.086700  0.799300  1.0  0.1303
  H  H68  1  0.964700  0.113100  0.860400  1.0  0.1274
  H  H69  1  0.937800  0.081200  0.872600  1.0  0.1271
  H  H70  1  0.037500  0.663500  0.551200  1.0  0.1302
  H  H71  1  0.040200  0.609400  0.490800  1.0  0.1107
  H  H72  1  0.181500  0.607000  0.635400  1.0  0.1207
  H  H73  1  0.179300  0.660400  0.697300  1.0  0.1131
  H  H74  1  0.067400  0.538300  0.369300  1.0  0.0731
  H  H75  1  0.153800  0.518300  0.596900  1.0  0.1231
  H  H76  1  0.036600  0.390100  0.263600  1.0  0.1053
  H  H77  1  0.037500  0.452000  0.321900  1.0  0.1228
  H  H78  1  0.178400  0.437800  0.471800  1.0  0.1099
  H  H79  1  0.176700  0.375700  0.413400  1.0  0.1098
  H  H80  1  0.068900  0.634300  0.355300  1.0  0.0914
  H  H81  1  0.016500  0.614400  0.309500  1.0  0.0876
  H  H82  1  0.019600  0.688800  0.311000  1.0  0.0829
  H  H83  1  0.054600  0.687900  0.390100  1.0  0.1004
  H  H84  1  0.002600  0.668200  0.344700  1.0  0.1014
  H  H85  1  0.968400  0.778600  0.554500  1.0  0.0842
  H  H86  1  0.887100  0.777500  0.470900  1.0  0.1267
  H  H87  1  0.886900  0.699500  0.591800  1.0  0.109
  H  H88  1  0.967400  0.701300  0.671100  1.0  0.0847
  H  H89  1  0.735300  0.754800  0.313300  1.0  0.0887
  H  H90  1  0.814900  0.750100  0.391800  1.0  0.1061
  H  H91  1  0.812500  0.721100  0.523300  1.0  0.1073
  H  H92  1  0.733100  0.722200  0.440800  1.0  0.0642
  H  H93  1  0.666300  0.649300  0.437300  1.0  0.1186
  H  H94  1  0.661900  0.597700  0.498900  1.0  0.1192
  H  H95  1  0.521500  0.617300  0.367900  1.0  0.1087
  H  H96  1  0.525300  0.671500  0.308900  1.0  0.1132
  H  H97  1  0.630400  0.537300  0.627300  1.0  0.1298
  H  H98  1  0.529000  0.524000  0.391400  1.0  0.1204
  H  H99  1  0.661900  0.376600  0.710800  1.0  0.1117
  H  H100  1  0.658700  0.440300  0.652900  1.0  0.1208
  H  H101  1  0.519200  0.446400  0.530600  1.0  0.098
  H  H102  1  0.521600  0.385400  0.590100  1.0  0.1119
  H  H103  1  0.483400  0.458300  0.333100  1.0  0.0889
  H  H104  1  0.456300  0.490500  0.345400  1.0  0.1218
  H  H105  1  0.417200  0.413300  0.299300  1.0  0.1306
  H  H106  1  0.464700  0.386900  0.360400  1.0  0.124
  H  H107  1  0.437800  0.418800  0.372600  1.0  0.1277
  H  H108  1  0.537500  0.836500  0.051200  1.0  0.1307
  H  H109  1  0.540200  0.890600  0.990800  1.0  0.1104
  H  H110  1  0.681500  0.893000  0.135400  1.0  0.1209
  H  H111  1  0.679300  0.839600  0.197300  1.0  0.113
  H  H112  1  0.567400  0.961700  0.869300  1.0  0.0733
  H  H113  1  0.653800  0.981700  0.096900  1.0  0.1227
  H  H114  1  0.536600  0.109900  0.763600  1.0  0.1053
  H  H115  1  0.537500  0.048000  0.821900  1.0  0.1234
  H  H116  1  0.678400  0.062200  0.971800  1.0  0.1095
  H  H117  1  0.676700  0.124300  0.913400  1.0  0.1113
  H  H118  1  0.568900  0.865700  0.855300  1.0  0.0909
  H  H119  1  0.516500  0.885600  0.809500  1.0  0.0891
  H  H120  1  0.519600  0.811200  0.811000  1.0  0.082
  H  H121  1  0.554600  0.812100  0.890100  1.0  0.0999
  H  H122  1  0.502600  0.831800  0.844700  1.0  0.102
  H  H123  1  0.468400  0.721400  0.054500  1.0  0.0845
  H  H124  1  0.387100  0.722500  0.970900  1.0  0.1269
  H  H125  1  0.386900  0.800500  0.091800  1.0  0.109
  H  H126  1  0.467400  0.798700  0.171100  1.0  0.0845
  H  H127  1  0.235300  0.745200  0.813300  1.0  0.0886
  H  H128  1  0.314900  0.749900  0.891800  1.0  0.1061
  H  H129  1  0.312500  0.778900  0.023300  1.0  0.1074
  H  H130  1  0.233100  0.777800  0.940800  1.0  0.0641
  H  H131  1  0.166300  0.149300  0.437300  1.0  0.1186
  H  H132  1  0.161900  0.097700  0.498900  1.0  0.1192
  H  H133  1  0.021500  0.117300  0.367900  1.0  0.1087
  H  H134  1  0.025300  0.171500  0.308900  1.0  0.1132
  H  H135  1  0.130400  0.037300  0.627300  1.0  0.1298
  H  H136  1  0.029000  0.024000  0.391400  1.0  0.1204
  H  H137  1  0.161900  0.876600  0.710800  1.0  0.1117
  H  H138  1  0.158700  0.940300  0.652900  1.0  0.1208
  H  H139  1  0.019200  0.946400  0.530600  1.0  0.098
  H  H140  1  0.021600  0.885400  0.590100  1.0  0.1119
  H  H141  1  0.983400  0.958300  0.333100  1.0  0.0889
  H  H142  1  0.956300  0.990500  0.345400  1.0  0.1218
  H  H143  1  0.917200  0.913300  0.299300  1.0  0.1306
  H  H144  1  0.964700  0.886900  0.360400  1.0  0.124
  H  H145  1  0.937800  0.918800  0.372600  1.0  0.1277
  H  H146  1  0.037500  0.336500  0.051200  1.0  0.1307
  H  H147  1  0.040200  0.390600  0.990800  1.0  0.1104
  H  H148  1  0.181500  0.393000  0.135400  1.0  0.1209
  H  H149  1  0.179300  0.339600  0.197300  1.0  0.113
  H  H150  1  0.067400  0.461700  0.869300  1.0  0.0733
  H  H151  1  0.153800  0.481700  0.096900  1.0  0.1227
  H  H152  1  0.036600  0.609900  0.763600  1.0  0.1053
  H  H153  1  0.037500  0.548000  0.821900  1.0  0.1234
  H  H154  1  0.178400  0.562200  0.971800  1.0  0.1095
  H  H155  1  0.176700  0.624300  0.913400  1.0  0.1113
  H  H156  1  0.068900  0.365700  0.855300  1.0  0.0909
  H  H157  1  0.016500  0.385600  0.809500  1.0  0.0891
  H  H158  1  0.019600  0.311200  0.811000  1.0  0.082
  H  H159  1  0.054600  0.312100  0.890100  1.0  0.0999
  H  H160  1  0.002600  0.331800  0.844700  1.0  0.1013
  H  H161  1  0.968400  0.221400  0.054500  1.0  0.0845
  H  H162  1  0.887100  0.222500  0.970900  1.0  0.1269
  H  H163  1  0.886900  0.300500  0.091800  1.0  0.109
  H  H164  1  0.967400  0.298700  0.171100  1.0  0.0845
  H  H165  1  0.735300  0.245200  0.813300  1.0  0.0886
  H  H166  1  0.814900  0.249900  0.891800  1.0  0.1061
  H  H167  1  0.812500  0.278900  0.023300  1.0  0.1074
  H  H168  1  0.733100  0.277800  0.940800  1.0  0.0641
  H  H169  1  0.333700  0.350700  0.562700  1.0  0.1202
  H  H170  1  0.338100  0.402300  0.501100  1.0  0.1191
  H  H171  1  0.478500  0.382700  0.632100  1.0  0.1093
  H  H172  1  0.474700  0.328500  0.691100  1.0  0.1137
  H  H173  1  0.369600  0.462700  0.372700  1.0  0.1293
  H  H174  1  0.471000  0.476000  0.608600  1.0  0.1208
  H  H175  1  0.338100  0.623400  0.289200  1.0  0.1124
  H  H176  1  0.341300  0.559700  0.347100  1.0  0.1219
  H  H177  1  0.480800  0.553600  0.469400  1.0  0.0978
  H  H178  1  0.478400  0.614600  0.409900  1.0  0.1117
  H  H179  1  0.516600  0.541700  0.666900  1.0  0.0897
  H  H180  1  0.543700  0.509500  0.654600  1.0  0.1218
  H  H181  1  0.582800  0.586700  0.700700  1.0  0.1336
  H  H182  1  0.535300  0.613100  0.639600  1.0  0.1272
  H  H183  1  0.562200  0.581200  0.627400  1.0  0.1283
  H  H184  1  0.462500  0.163500  0.948800  1.0  0.1304
  H  H185  1  0.459800  0.109400  0.009200  1.0  0.1107
  H  H186  1  0.318500  0.107000  0.864600  1.0  0.1209
  H  H187  1  0.320700  0.160400  0.802700  1.0  0.1137
  H  H188  1  0.432600  0.038300  0.130700  1.0  0.0737
  H  H189  1  0.346200  0.018300  0.903100  1.0  0.1221
  H  H190  1  0.463400  0.890100  0.236400  1.0  0.1058
  H  H191  1  0.462500  0.952000  0.178100  1.0  0.1247
  H  H192  1  0.321600  0.937800  0.028200  1.0  0.1098
  H  H193  1  0.323300  0.875700  0.086600  1.0  0.1102
  H  H194  1  0.431100  0.134300  0.144700  1.0  0.0908
  H  H195  1  0.483500  0.114400  0.190500  1.0  0.086
  H  H196  1  0.480400  0.188800  0.189000  1.0  0.0836
  H  H197  1  0.445400  0.187900  0.109900  1.0  0.1031
  H  H198  1  0.497400  0.168200  0.155300  1.0  0.101
  H  H199  1  0.531600  0.278600  0.945500  1.0  0.0835
  H  H200  1  0.612900  0.277500  0.029100  1.0  0.126
  H  H201  1  0.613100  0.199500  0.908200  1.0  0.1087
  H  H202  1  0.532600  0.201300  0.828900  1.0  0.0843
  H  H203  1  0.764700  0.254800  0.186700  1.0  0.0881
  H  H204  1  0.685100  0.250100  0.108200  1.0  0.1069
  H  H205  1  0.687500  0.221100  0.976700  1.0  0.1077
  H  H206  1  0.766900  0.222200  0.059200  1.0  0.0649
  H  H207  1  0.833700  0.850700  0.562700  1.0  0.1202
  H  H208  1  0.838100  0.902300  0.501100  1.0  0.1191
  H  H209  1  0.978500  0.882700  0.632100  1.0  0.1093
  H  H210  1  0.974700  0.828500  0.691100  1.0  0.1137
  H  H211  1  0.869600  0.962700  0.372700  1.0  0.1293
  H  H212  1  0.971000  0.976000  0.608600  1.0  0.1208
  H  H213  1  0.838100  0.123400  0.289200  1.0  0.1124
  H  H214  1  0.841300  0.059700  0.347100  1.0  0.1219
  H  H215  1  0.980800  0.053600  0.469400  1.0  0.0978
  H  H216  1  0.978400  0.114600  0.409900  1.0  0.1117
  H  H217  1  0.016600  0.041700  0.666900  1.0  0.0897
  H  H218  1  0.043700  0.009500  0.654600  1.0  0.1218
  H  H219  1  0.082800  0.086700  0.700700  1.0  0.1336
  H  H220  1  0.035300  0.113100  0.639600  1.0  0.1272
  H  H221  1  0.062200  0.081200  0.627400  1.0  0.1283
  H  H222  1  0.962500  0.663500  0.948800  1.0  0.1304
  H  H223  1  0.959800  0.609400  0.009200  1.0  0.1107
  H  H224  1  0.818500  0.607000  0.864600  1.0  0.1209
  H  H225  1  0.820700  0.660400  0.802700  1.0  0.1137
  H  H226  1  0.932600  0.538300  0.130700  1.0  0.0737
  H  H227  1  0.846200  0.518300  0.903100  1.0  0.1221
  H  H228  1  0.963400  0.390100  0.236400  1.0  0.1058
  H  H229  1  0.962500  0.452000  0.178100  1.0  0.1247
  H  H230  1  0.821600  0.437800  0.028200  1.0  0.1098
  H  H231  1  0.823300  0.375700  0.086600  1.0  0.1102
  H  H232  1  0.931100  0.634300  0.144700  1.0  0.0908
  H  H233  1  0.983500  0.614400  0.190500  1.0  0.086
  H  H234  1  0.980400  0.688800  0.189000  1.0  0.0836
  H  H235  1  0.945400  0.687900  0.109900  1.0  0.1031
  H  H236  1  0.997400  0.668200  0.155300  1.0  0.1006
  H  H237  1  0.031600  0.778600  0.945500  1.0  0.0835
  H  H238  1  0.112900  0.777500  0.029100  1.0  0.126
  H  H239  1  0.113100  0.699500  0.908200  1.0  0.1087
  H  H240  1  0.032600  0.701300  0.828900  1.0  0.0843
  H  H241  1  0.264700  0.754800  0.186700  1.0  0.0881
  H  H242  1  0.185100  0.750100  0.108200  1.0  0.1069
  H  H243  1  0.187500  0.721100  0.976700  1.0  0.1077
  H  H244  1  0.266900  0.722200  0.059200  1.0  0.0649
  H  H245  1  0.333700  0.649300  0.062700  1.0  0.1197
  H  H246  1  0.338100  0.597700  0.001100  1.0  0.1187
  H  H247  1  0.478500  0.617300  0.132100  1.0  0.1092
  H  H248  1  0.474700  0.671500  0.191100  1.0  0.1135
  H  H249  1  0.369600  0.537300  0.872700  1.0  0.1288
  H  H250  1  0.471000  0.524000  0.108600  1.0  0.1208
  H  H251  1  0.338100  0.376600  0.789200  1.0  0.1122
  H  H252  1  0.341300  0.440300  0.847100  1.0  0.1219
  H  H253  1  0.480800  0.446400  0.969400  1.0  0.098
  H  H254  1  0.478400  0.385400  0.909900  1.0  0.1114
  H  H255  1  0.516600  0.458300  0.166900  1.0  0.0896
  H  H256  1  0.543700  0.490500  0.154600  1.0  0.1197
  H  H257  1  0.582800  0.413300  0.200700  1.0  0.132
  H  H258  1  0.535300  0.386900  0.139600  1.0  0.1247
  H  H259  1  0.562200  0.418800  0.127400  1.0  0.1284
  H  H260  1  0.462500  0.836500  0.448800  1.0  0.1305
  H  H261  1  0.459800  0.890600  0.509200  1.0  0.1108
  H  H262  1  0.318500  0.893000  0.364600  1.0  0.1209
  H  H263  1  0.320700  0.839600  0.302700  1.0  0.1136
  H  H264  1  0.432600  0.961700  0.630700  1.0  0.0736
  H  H265  1  0.346200  0.981700  0.403100  1.0  0.1218
  H  H266  1  0.463400  0.109900  0.736400  1.0  0.1059
  H  H267  1  0.462500  0.048000  0.678100  1.0  0.1243
  H  H268  1  0.321600  0.062200  0.528200  1.0  0.1095
  H  H269  1  0.323300  0.124300  0.586600  1.0  0.1115
  H  H270  1  0.431100  0.865700  0.644700  1.0  0.09
  H  H271  1  0.483500  0.885600  0.690500  1.0  0.0874
  H  H272  1  0.480400  0.811200  0.689000  1.0  0.0837
  H  H273  1  0.445400  0.812100  0.609900  1.0  0.1022
  H  H274  1  0.497400  0.831800  0.655300  1.0  0.0989
  H  H275  1  0.531600  0.721400  0.445500  1.0  0.0839
  H  H276  1  0.612900  0.722500  0.529100  1.0  0.1262
  H  H277  1  0.613100  0.800500  0.408200  1.0  0.109
  H  H278  1  0.532600  0.798700  0.328900  1.0  0.0846
  H  H279  1  0.764700  0.745200  0.686700  1.0  0.0882
  H  H280  1  0.685100  0.749900  0.608200  1.0  0.1065
  H  H281  1  0.687500  0.778900  0.476700  1.0  0.1083
  H  H282  1  0.766900  0.777800  0.559200  1.0  0.0655
  H  H283  1  0.833700  0.149300  0.062700  1.0  0.1197
  H  H284  1  0.838100  0.097700  0.001100  1.0  0.1187
  H  H285  1  0.978500  0.117300  0.132100  1.0  0.1092
  H  H286  1  0.974700  0.171500  0.191100  1.0  0.1135
  H  H287  1  0.869600  0.037300  0.872700  1.0  0.1288
  H  H288  1  0.971000  0.024000  0.108600  1.0  0.1208
  H  H289  1  0.838100  0.876600  0.789200  1.0  0.1122
  H  H290  1  0.841300  0.940300  0.847100  1.0  0.1219
  H  H291  1  0.980800  0.946400  0.969400  1.0  0.098
  H  H292  1  0.978400  0.885400  0.909900  1.0  0.1114
  H  H293  1  0.016600  0.958300  0.166900  1.0  0.0896
  H  H294  1  0.043700  0.990500  0.154600  1.0  0.1197
  H  H295  1  0.082800  0.913300  0.200700  1.0  0.132
  H  H296  1  0.035300  0.886900  0.139600  1.0  0.1247
  H  H297  1  0.062200  0.918800  0.127400  1.0  0.1284
  H  H298  1  0.962500  0.336500  0.448800  1.0  0.1305
  H  H299  1  0.959800  0.390600  0.509200  1.0  0.1108
  H  H300  1  0.818500  0.393000  0.364600  1.0  0.1209
  H  H301  1  0.820700  0.339600  0.302700  1.0  0.1136
  H  H302  1  0.932600  0.461700  0.630700  1.0  0.0736
  H  H303  1  0.846200  0.481700  0.403100  1.0  0.1218
  H  H304  1  0.963400  0.609900  0.736400  1.0  0.1059
  H  H305  1  0.962500  0.548000  0.678100  1.0  0.1243
  H  H306  1  0.821600  0.562200  0.528200  1.0  0.1095
  H  H307  1  0.823300  0.624300  0.586600  1.0  0.1115
  H  H308  1  0.931100  0.365700  0.644700  1.0  0.09
  H  H309  1  0.983500  0.385600  0.690500  1.0  0.0874
  H  H310  1  0.980400  0.311200  0.689000  1.0  0.0837
  H  H311  1  0.945400  0.312100  0.609900  1.0  0.1022
  H  H312  1  0.997400  0.331800  0.655300  1.0  0.0987
  H  H313  1  0.031600  0.221400  0.445500  1.0  0.0839
  H  H314  1  0.112900  0.222500  0.529100  1.0  0.1262
  H  H315  1  0.113100  0.300500  0.408200  1.0  0.109
  H  H316  1  0.032600  0.298700  0.328900  1.0  0.0846
  H  H317  1  0.264700  0.245200  0.686700  1.0  0.0882
  H  H318  1  0.185100  0.249900  0.608200  1.0  0.1065
  H  H319  1  0.187500  0.278900  0.476700  1.0  0.1083
  H  H320  1  0.266900  0.277800  0.559200  1.0  0.0655
  C  C321  1  0.597400  0.300700  0.822800  1.0  0.6598
  C  C322  1  0.596800  0.334400  0.866700  1.0  -0.1274
  C  C323  1  0.637200  0.356700  0.923500  1.0  -0.0535
  C  C324  1  0.634300  0.387900  0.959800  1.0  -0.1063
  C  C325  1  0.591300  0.398500  0.939400  1.0  0.0132
  C  C326  1  0.550700  0.375900  0.882100  1.0  -0.0933
  C  C327  1  0.552800  0.344100  0.846600  1.0  -0.0501
  C  C328  1  0.588700  0.434600  0.977600  1.0  0.0966
  C  C329  1  0.610800  0.430500  0.038300  1.0  0.1927
  C  C330  1  0.613100  0.467900  0.081800  1.0  -0.0895
  C  C331  1  0.588200  0.509100  0.049300  1.0  0.0371
  C  C332  1  0.552400  0.506700  0.978200  1.0  0.1978
  C  C333  1  0.551100  0.473900  0.938400  1.0  -0.097
  C  C334  1  0.632600  0.609700  0.174000  1.0  -0.0344
  C  C335  1  0.630700  0.571000  0.139400  1.0  -0.1302
  C  C336  1  0.588700  0.549000  0.086200  1.0  0.0477
  C  C337  1  0.548300  0.567200  0.067700  1.0  -0.1346
  C  C338  1  0.549400  0.604800  0.102000  1.0  -0.0605
  C  C339  1  0.592300  0.628100  0.154800  1.0  -0.0933
  C  C340  1  0.593400  0.671600  0.189200  1.0  0.7233
  C  C341  1  0.474200  0.539300  0.858100  1.0  0.0111
  C  C342  1  0.445800  0.584300  0.846500  1.0  -0.3582
  C  C343  1  0.606300  0.199300  0.673700  1.0  0.7215
  C  C344  1  0.607600  0.165600  0.631400  1.0  -0.1276
  C  C345  1  0.566500  0.151400  0.569100  1.0  -0.092
  C  C346  1  0.568600  0.119400  0.533100  1.0  -0.1346
  C  C347  1  0.610900  0.100700  0.556400  1.0  0.0862
  C  C348  1  0.652300  0.117500  0.618500  1.0  -0.1291
  C  C349  1  0.651000  0.149400  0.655600  1.0  -0.0507
  C  C350  1  0.609700  0.062800  0.517500  1.0  -0.0077
  C  C351  1  0.584800  0.068600  0.449000  1.0  0.1539
  C  C352  1  0.585600  0.032900  0.415100  1.0  -0.1065
  C  C353  1  0.609700  0.991000  0.440800  1.0  0.0171
  C  C354  1  0.634300  0.981200  0.510200  1.0  0.1094
  C  C355  1  0.635600  0.021900  0.550800  1.0  -0.0022
  C  C356  1  0.565200  0.898900  0.306400  1.0  -0.0522
  C  C357  1  0.565700  0.936600  0.340800  1.0  -0.1456
  C  C358  1  0.609100  0.951000  0.404600  1.0  0.0416
  C  C359  1  0.649400  0.928100  0.430100  1.0  -0.1102
  C  C360  1  0.648400  0.890200  0.395200  1.0  -0.016
  C  C361  1  0.606700  0.874300  0.335100  1.0  -0.0676
  C  C362  1  0.604600  0.829900  0.301800  1.0  0.7069
  C  C363  1  0.541700  0.132700  0.350100  1.0  0.0204
  C  C364  1  0.529100  0.171000  0.348900  1.0  -0.3666
  C  C365  1  0.451900  0.262600  0.562800  1.0  0.1929
  C  C366  1  0.402700  0.262600  0.512300  1.0  -0.1838
  C  C367  1  0.377700  0.240900  0.523200  1.0  0.0584
  C  C368  1  0.402900  0.216700  0.583400  1.0  -0.1872
  C  C369  1  0.450900  0.217800  0.630400  1.0  0.1808
  C  C370  1  0.250700  0.248900  0.358000  1.0  0.1578
  C  C371  1  0.298900  0.247100  0.405700  1.0  -0.1622
  C  C372  1  0.323900  0.241500  0.469900  1.0  0.2597
  C  C373  1  0.298200  0.230400  0.480000  1.0  -0.2175
  C  C374  1  0.249400  0.231500  0.428800  1.0  0.0752
  C  C375  1  0.097400  0.800700  0.822800  1.0  0.6598
  C  C376  1  0.096800  0.834400  0.866700  1.0  -0.1274
  C  C377  1  0.137200  0.856700  0.923500  1.0  -0.0535
  C  C378  1  0.134300  0.887900  0.959800  1.0  -0.1063
  C  C379  1  0.091300  0.898500  0.939400  1.0  0.0132
  C  C380  1  0.050700  0.875900  0.882100  1.0  -0.0933
  C  C381  1  0.052800  0.844100  0.846600  1.0  -0.0501
  C  C382  1  0.088700  0.934600  0.977600  1.0  0.0966
  C  C383  1  0.110800  0.930500  0.038300  1.0  0.1927
  C  C384  1  0.113100  0.967900  0.081800  1.0  -0.0895
  C  C385  1  0.088200  0.009100  0.049300  1.0  0.0371
  C  C386  1  0.052400  0.006700  0.978200  1.0  0.1978
  C  C387  1  0.051100  0.973900  0.938400  1.0  -0.097
  C  C388  1  0.132600  0.109700  0.174000  1.0  -0.0344
  C  C389  1  0.130700  0.071000  0.139400  1.0  -0.1302
  C  C390  1  0.088700  0.049000  0.086200  1.0  0.0477
  C  C391  1  0.048300  0.067200  0.067700  1.0  -0.1346
  C  C392  1  0.049400  0.104800  0.102000  1.0  -0.0605
  C  C393  1  0.092300  0.128100  0.154800  1.0  -0.0933
  C  C394  1  0.093400  0.171600  0.189200  1.0  0.7233
  C  C395  1  0.974200  0.039300  0.858100  1.0  0.0111
  C  C396  1  0.945800  0.084300  0.846500  1.0  -0.3582
  C  C397  1  0.106300  0.699300  0.673700  1.0  0.7215
  C  C398  1  0.107600  0.665600  0.631400  1.0  -0.1276
  C  C399  1  0.066500  0.651400  0.569100  1.0  -0.092
  C  C400  1  0.068600  0.619400  0.533100  1.0  -0.1346
  C  C401  1  0.110900  0.600700  0.556400  1.0  0.0862
  C  C402  1  0.152300  0.617500  0.618500  1.0  -0.1291
  C  C403  1  0.151000  0.649400  0.655600  1.0  -0.0507
  C  C404  1  0.109700  0.562800  0.517500  1.0  -0.0077
  C  C405  1  0.084800  0.568600  0.449000  1.0  0.1539
  C  C406  1  0.085600  0.532900  0.415100  1.0  -0.1065
  C  C407  1  0.109700  0.491000  0.440800  1.0  0.0171
  C  C408  1  0.134300  0.481200  0.510200  1.0  0.1094
  C  C409  1  0.135600  0.521900  0.550800  1.0  -0.0022
  C  C410  1  0.065200  0.398900  0.306400  1.0  -0.0522
  C  C411  1  0.065700  0.436600  0.340800  1.0  -0.1456
  C  C412  1  0.109100  0.451000  0.404600  1.0  0.0416
  C  C413  1  0.149400  0.428100  0.430100  1.0  -0.1102
  C  C414  1  0.148400  0.390200  0.395200  1.0  -0.016
  C  C415  1  0.106700  0.374300  0.335100  1.0  -0.0676
  C  C416  1  0.104600  0.329900  0.301800  1.0  0.7069
  C  C417  1  0.041700  0.632700  0.350100  1.0  0.0204
  C  C418  1  0.029100  0.671000  0.348900  1.0  -0.3666
  C  C419  1  0.951900  0.762600  0.562800  1.0  0.1929
  C  C420  1  0.902700  0.762600  0.512300  1.0  -0.1838
  C  C421  1  0.877700  0.740900  0.523200  1.0  0.0584
  C  C422  1  0.902900  0.716700  0.583400  1.0  -0.1872
  C  C423  1  0.950900  0.717800  0.630400  1.0  0.1808
  C  C424  1  0.750700  0.748900  0.358000  1.0  0.1578
  C  C425  1  0.798900  0.747100  0.405700  1.0  -0.1622
  C  C426  1  0.823900  0.741500  0.469900  1.0  0.2597
  C  C427  1  0.798200  0.730400  0.480000  1.0  -0.2175
  C  C428  1  0.749400  0.731500  0.428800  1.0  0.0752
  C  C429  1  0.597400  0.699300  0.322800  1.0  0.659
  C  C430  1  0.596800  0.665600  0.366700  1.0  -0.1261
  C  C431  1  0.637200  0.643300  0.423500  1.0  -0.0517
  C  C432  1  0.634300  0.612100  0.459800  1.0  -0.1057
  C  C433  1  0.591300  0.601500  0.439400  1.0  0.0137
  C  C434  1  0.550700  0.624100  0.382100  1.0  -0.0927
  C  C435  1  0.552800  0.655900  0.346600  1.0  -0.0503
  C  C436  1  0.588700  0.565400  0.477600  1.0  0.0967
  C  C437  1  0.610800  0.569500  0.538300  1.0  0.1893
  C  C438  1  0.613100  0.532100  0.581800  1.0  -0.0897
  C  C439  1  0.588200  0.490900  0.549300  1.0  0.0363
  C  C440  1  0.552400  0.493300  0.478200  1.0  0.198
  C  C441  1  0.551100  0.526100  0.438400  1.0  -0.0957
  C  C442  1  0.632600  0.390300  0.674000  1.0  -0.0356
  C  C443  1  0.630700  0.429000  0.639400  1.0  -0.1303
  C  C444  1  0.588700  0.451000  0.586200  1.0  0.048
  C  C445  1  0.548300  0.432800  0.567700  1.0  -0.1345
  C  C446  1  0.549400  0.395200  0.602000  1.0  -0.0606
  C  C447  1  0.592300  0.371900  0.654800  1.0  -0.0928
  C  C448  1  0.593400  0.328400  0.689200  1.0  0.7224
  C  C449  1  0.474200  0.460700  0.358100  1.0  0.0096
  C  C450  1  0.445800  0.415700  0.346500  1.0  -0.357
  C  C451  1  0.606300  0.800700  0.173700  1.0  0.7213
  C  C452  1  0.607600  0.834400  0.131400  1.0  -0.1269
  C  C453  1  0.566500  0.848600  0.069100  1.0  -0.0908
  C  C454  1  0.568600  0.880600  0.033100  1.0  -0.135
  C  C455  1  0.610900  0.899300  0.056400  1.0  0.0861
  C  C456  1  0.652300  0.882500  0.118500  1.0  -0.129
  C  C457  1  0.651000  0.850600  0.155600  1.0  -0.0512
  C  C458  1  0.609700  0.937200  0.017500  1.0  -0.0073
  C  C459  1  0.584800  0.931400  0.949000  1.0  0.1533
  C  C460  1  0.585600  0.967100  0.915100  1.0  -0.1066
  C  C461  1  0.609700  0.009000  0.940800  1.0  0.0172
  C  C462  1  0.634300  0.018800  0.010200  1.0  0.1093
  C  C463  1  0.635600  0.978100  0.050800  1.0  -0.0026
  C  C464  1  0.565200  0.101100  0.806400  1.0  -0.0525
  C  C465  1  0.565700  0.063400  0.840800  1.0  -0.1454
  C  C466  1  0.609100  0.049000  0.904600  1.0  0.0411
  C  C467  1  0.649400  0.071900  0.930100  1.0  -0.1108
  C  C468  1  0.648400  0.109800  0.895200  1.0  -0.0168
  C  C469  1  0.606700  0.125700  0.835100  1.0  -0.0666
  C  C470  1  0.604600  0.170100  0.801800  1.0  0.7053
  C  C471  1  0.541700  0.867300  0.850100  1.0  0.0185
  C  C472  1  0.529100  0.829000  0.848900  1.0  -0.365
  C  C473  1  0.451900  0.737400  0.062800  1.0  0.1937
  C  C474  1  0.402700  0.737400  0.012300  1.0  -0.1839
  C  C475  1  0.377700  0.759100  0.023200  1.0  0.0587
  C  C476  1  0.402900  0.783300  0.083400  1.0  -0.1885
  C  C477  1  0.450900  0.782200  0.130400  1.0  0.1818
  C  C478  1  0.250700  0.751100  0.858000  1.0  0.1578
  C  C479  1  0.298900  0.752900  0.905700  1.0  -0.1622
  C  C480  1  0.323900  0.758500  0.969900  1.0  0.2591
  C  C481  1  0.298200  0.769600  0.980000  1.0  -0.2171
  C  C482  1  0.249400  0.768500  0.928800  1.0  0.0746
  C  C483  1  0.097400  0.199300  0.322800  1.0  0.659
  C  C484  1  0.096800  0.165600  0.366700  1.0  -0.1261
  C  C485  1  0.137200  0.143300  0.423500  1.0  -0.0517
  C  C486  1  0.134300  0.112100  0.459800  1.0  -0.1057
  C  C487  1  0.091300  0.101500  0.439400  1.0  0.0137
  C  C488  1  0.050700  0.124100  0.382100  1.0  -0.0927
  C  C489  1  0.052800  0.155900  0.346600  1.0  -0.0503
  C  C490  1  0.088700  0.065400  0.477600  1.0  0.0967
  C  C491  1  0.110800  0.069500  0.538300  1.0  0.1893
  C  C492  1  0.113100  0.032100  0.581800  1.0  -0.0897
  C  C493  1  0.088200  0.990900  0.549300  1.0  0.0363
  C  C494  1  0.052400  0.993300  0.478200  1.0  0.198
  C  C495  1  0.051100  0.026100  0.438400  1.0  -0.0957
  C  C496  1  0.132600  0.890300  0.674000  1.0  -0.0356
  C  C497  1  0.130700  0.929000  0.639400  1.0  -0.1303
  C  C498  1  0.088700  0.951000  0.586200  1.0  0.048
  C  C499  1  0.048300  0.932800  0.567700  1.0  -0.1345
  C  C500  1  0.049400  0.895200  0.602000  1.0  -0.0606
  C  C501  1  0.092300  0.871900  0.654800  1.0  -0.0928
  C  C502  1  0.093400  0.828400  0.689200  1.0  0.7224
  C  C503  1  0.974200  0.960700  0.358100  1.0  0.0096
  C  C504  1  0.945800  0.915700  0.346500  1.0  -0.357
  C  C505  1  0.106300  0.300700  0.173700  1.0  0.7213
  C  C506  1  0.107600  0.334400  0.131400  1.0  -0.1269
  C  C507  1  0.066500  0.348600  0.069100  1.0  -0.0908
  C  C508  1  0.068600  0.380600  0.033100  1.0  -0.135
  C  C509  1  0.110900  0.399300  0.056400  1.0  0.0861
  C  C510  1  0.152300  0.382500  0.118500  1.0  -0.129
  C  C511  1  0.151000  0.350600  0.155600  1.0  -0.0512
  C  C512  1  0.109700  0.437200  0.017500  1.0  -0.0073
  C  C513  1  0.084800  0.431400  0.949000  1.0  0.1533
  C  C514  1  0.085600  0.467100  0.915100  1.0  -0.1066
  C  C515  1  0.109700  0.509000  0.940800  1.0  0.0172
  C  C516  1  0.134300  0.518800  0.010200  1.0  0.1093
  C  C517  1  0.135600  0.478100  0.050800  1.0  -0.0026
  C  C518  1  0.065200  0.601100  0.806400  1.0  -0.0525
  C  C519  1  0.065700  0.563400  0.840800  1.0  -0.1454
  C  C520  1  0.109100  0.549000  0.904600  1.0  0.0411
  C  C521  1  0.149400  0.571900  0.930100  1.0  -0.1108
  C  C522  1  0.148400  0.609800  0.895200  1.0  -0.0168
  C  C523  1  0.106700  0.625700  0.835100  1.0  -0.0666
  C  C524  1  0.104600  0.670100  0.801800  1.0  0.7053
  C  C525  1  0.041700  0.367300  0.850100  1.0  0.0185
  C  C526  1  0.029100  0.329000  0.848900  1.0  -0.365
  C  C527  1  0.951900  0.237400  0.062800  1.0  0.1937
  C  C528  1  0.902700  0.237400  0.012300  1.0  -0.1839
  C  C529  1  0.877700  0.259100  0.023200  1.0  0.0587
  C  C530  1  0.902900  0.283300  0.083400  1.0  -0.1885
  C  C531  1  0.950900  0.282200  0.130400  1.0  0.1818
  C  C532  1  0.750700  0.251100  0.858000  1.0  0.1578
  C  C533  1  0.798900  0.252900  0.905700  1.0  -0.1622
  C  C534  1  0.823900  0.258500  0.969900  1.0  0.2591
  C  C535  1  0.798200  0.269600  0.980000  1.0  -0.2171
  C  C536  1  0.749400  0.268500  0.928800  1.0  0.0746
  C  C537  1  0.402600  0.300700  0.677200  1.0  0.6584
  C  C538  1  0.403200  0.334400  0.633300  1.0  -0.1276
  C  C539  1  0.362800  0.356700  0.576500  1.0  -0.056
  C  C540  1  0.365700  0.387900  0.540200  1.0  -0.1068
  C  C541  1  0.408700  0.398500  0.560600  1.0  0.0131
  C  C542  1  0.449300  0.375900  0.617900  1.0  -0.092
  C  C543  1  0.447200  0.344100  0.653400  1.0  -0.0511
  C  C544  1  0.411300  0.434600  0.522400  1.0  0.0948
  C  C545  1  0.389200  0.430500  0.461700  1.0  0.1922
  C  C546  1  0.386900  0.467900  0.418200  1.0  -0.0906
  C  C547  1  0.411800  0.509100  0.450700  1.0  0.0366
  C  C548  1  0.447600  0.506700  0.521800  1.0  0.1977
  C  C549  1  0.448900  0.473900  0.561600  1.0  -0.0952
  C  C550  1  0.367400  0.609700  0.326000  1.0  -0.0353
  C  C551  1  0.369300  0.571000  0.360600  1.0  -0.1318
  C  C552  1  0.411300  0.549000  0.413800  1.0  0.0473
  C  C553  1  0.451700  0.567200  0.432300  1.0  -0.1372
  C  C554  1  0.450600  0.604800  0.398000  1.0  -0.0621
  C  C555  1  0.407700  0.628100  0.345200  1.0  -0.0938
  C  C556  1  0.406600  0.671600  0.310800  1.0  0.7216
  C  C557  1  0.525800  0.539300  0.641900  1.0  0.0063
  C  C558  1  0.554200  0.584300  0.653500  1.0  -0.3598
  C  C559  1  0.393700  0.199300  0.826300  1.0  0.7212
  C  C560  1  0.392400  0.165600  0.868600  1.0  -0.1263
  C  C561  1  0.433500  0.151400  0.930900  1.0  -0.0916
  C  C562  1  0.431400  0.119400  0.966900  1.0  -0.1319
  C  C563  1  0.389100  0.100700  0.943600  1.0  0.0845
  C  C564  1  0.347700  0.117500  0.881500  1.0  -0.1308
  C  C565  1  0.349000  0.149400  0.844400  1.0  -0.0514
  C  C566  1  0.390300  0.062800  0.982500  1.0  -0.0085
  C  C567  1  0.415200  0.068600  0.051000  1.0  0.1538
  C  C568  1  0.414400  0.032900  0.084900  1.0  -0.107
  C  C569  1  0.390300  0.991000  0.059200  1.0  0.0164
  C  C570  1  0.365700  0.981200  0.989800  1.0  0.107
  C  C571  1  0.364400  0.021900  0.949200  1.0  -0.0022
  C  C572  1  0.434800  0.898900  0.193600  1.0  -0.0526
  C  C573  1  0.434300  0.936600  0.159200  1.0  -0.1452
  C  C574  1  0.390900  0.951000  0.095400  1.0  0.0413
  C  C575  1  0.350600  0.928100  0.069900  1.0  -0.1106
  C  C576  1  0.351600  0.890200  0.104800  1.0  -0.017
  C  C577  1  0.393300  0.874300  0.164900  1.0  -0.0646
  C  C578  1  0.395400  0.829900  0.198200  1.0  0.7058
  C  C579  1  0.458300  0.132700  0.149900  1.0  0.019
  C  C580  1  0.470900  0.171000  0.151100  1.0  -0.3661
  C  C581  1  0.548100  0.262600  0.937200  1.0  0.1929
  C  C582  1  0.597300  0.262600  0.987700  1.0  -0.1862
  C  C583  1  0.622300  0.240900  0.976800  1.0  0.0641
  C  C584  1  0.597100  0.216700  0.916600  1.0  -0.1866
  C  C585  1  0.549100  0.217800  0.869600  1.0  0.1812
  C  C586  1  0.749300  0.248900  0.142000  1.0  0.1578
  C  C587  1  0.701100  0.247100  0.094300  1.0  -0.1619
  C  C588  1  0.676100  0.241500  0.030100  1.0  0.2569
  C  C589  1  0.701800  0.230400  0.020000  1.0  -0.2195
  C  C590  1  0.750600  0.231500  0.071200  1.0  0.0738
  C  C591  1  0.902600  0.800700  0.677200  1.0  0.6584
  C  C592  1  0.903200  0.834400  0.633300  1.0  -0.1276
  C  C593  1  0.862800  0.856700  0.576500  1.0  -0.056
  C  C594  1  0.865700  0.887900  0.540200  1.0  -0.1068
  C  C595  1  0.908700  0.898500  0.560600  1.0  0.0131
  C  C596  1  0.949300  0.875900  0.617900  1.0  -0.092
  C  C597  1  0.947200  0.844100  0.653400  1.0  -0.0511
  C  C598  1  0.911300  0.934600  0.522400  1.0  0.0948
  C  C599  1  0.889200  0.930500  0.461700  1.0  0.1922
  C  C600  1  0.886900  0.967900  0.418200  1.0  -0.0906
  C  C601  1  0.911800  0.009100  0.450700  1.0  0.0366
  C  C602  1  0.947600  0.006700  0.521800  1.0  0.1977
  C  C603  1  0.948900  0.973900  0.561600  1.0  -0.0952
  C  C604  1  0.867400  0.109700  0.326000  1.0  -0.0353
  C  C605  1  0.869300  0.071000  0.360600  1.0  -0.1318
  C  C606  1  0.911300  0.049000  0.413800  1.0  0.0473
  C  C607  1  0.951700  0.067200  0.432300  1.0  -0.1372
  C  C608  1  0.950600  0.104800  0.398000  1.0  -0.0621
  C  C609  1  0.907700  0.128100  0.345200  1.0  -0.0938
  C  C610  1  0.906600  0.171600  0.310800  1.0  0.7216
  C  C611  1  0.025800  0.039300  0.641900  1.0  0.0063
  C  C612  1  0.054200  0.084300  0.653500  1.0  -0.3598
  C  C613  1  0.893700  0.699300  0.826300  1.0  0.7212
  C  C614  1  0.892400  0.665600  0.868600  1.0  -0.1263
  C  C615  1  0.933500  0.651400  0.930900  1.0  -0.0916
  C  C616  1  0.931400  0.619400  0.966900  1.0  -0.1319
  C  C617  1  0.889100  0.600700  0.943600  1.0  0.0845
  C  C618  1  0.847700  0.617500  0.881500  1.0  -0.1308
  C  C619  1  0.849000  0.649400  0.844400  1.0  -0.0514
  C  C620  1  0.890300  0.562800  0.982500  1.0  -0.0085
  C  C621  1  0.915200  0.568600  0.051000  1.0  0.1538
  C  C622  1  0.914400  0.532900  0.084900  1.0  -0.107
  C  C623  1  0.890300  0.491000  0.059200  1.0  0.0164
  C  C624  1  0.865700  0.481200  0.989800  1.0  0.107
  C  C625  1  0.864400  0.521900  0.949200  1.0  -0.0022
  C  C626  1  0.934800  0.398900  0.193600  1.0  -0.0526
  C  C627  1  0.934300  0.436600  0.159200  1.0  -0.1452
  C  C628  1  0.890900  0.451000  0.095400  1.0  0.0413
  C  C629  1  0.850600  0.428100  0.069900  1.0  -0.1106
  C  C630  1  0.851600  0.390200  0.104800  1.0  -0.017
  C  C631  1  0.893300  0.374300  0.164900  1.0  -0.0646
  C  C632  1  0.895400  0.329900  0.198200  1.0  0.7058
  C  C633  1  0.958300  0.632700  0.149900  1.0  0.019
  C  C634  1  0.970900  0.671000  0.151100  1.0  -0.3661
  C  C635  1  0.048100  0.762600  0.937200  1.0  0.1929
  C  C636  1  0.097300  0.762600  0.987700  1.0  -0.1862
  C  C637  1  0.122300  0.740900  0.976800  1.0  0.0641
  C  C638  1  0.097100  0.716700  0.916600  1.0  -0.1866
  C  C639  1  0.049100  0.717800  0.869600  1.0  0.1812
  C  C640  1  0.249300  0.748900  0.142000  1.0  0.1578
  C  C641  1  0.201100  0.747100  0.094300  1.0  -0.1619
  C  C642  1  0.176100  0.741500  0.030100  1.0  0.2569
  C  C643  1  0.201800  0.730400  0.020000  1.0  -0.2195
  C  C644  1  0.250600  0.731500  0.071200  1.0  0.0738
  C  C645  1  0.402600  0.699300  0.177200  1.0  0.6578
  C  C646  1  0.403200  0.665600  0.133300  1.0  -0.1275
  C  C647  1  0.362800  0.643300  0.076500  1.0  -0.055
  C  C648  1  0.365700  0.612100  0.040200  1.0  -0.1051
  C  C649  1  0.408700  0.601500  0.060600  1.0  0.0136
  C  C650  1  0.449300  0.624100  0.117900  1.0  -0.0914
  C  C651  1  0.447200  0.655900  0.153400  1.0  -0.0514
  C  C652  1  0.411300  0.565400  0.022400  1.0  0.0944
  C  C653  1  0.389200  0.569500  0.961700  1.0  0.1914
  C  C654  1  0.386900  0.532100  0.918200  1.0  -0.0903
  C  C655  1  0.411800  0.490900  0.950700  1.0  0.0363
  C  C656  1  0.447600  0.493300  0.021800  1.0  0.1962
  C  C657  1  0.448900  0.526100  0.061600  1.0  -0.0948
  C  C658  1  0.367400  0.390300  0.826000  1.0  -0.0342
  C  C659  1  0.369300  0.429000  0.860600  1.0  -0.1321
  C  C660  1  0.411300  0.451000  0.913800  1.0  0.0475
  C  C661  1  0.451700  0.432800  0.932300  1.0  -0.1369
  C  C662  1  0.450600  0.395200  0.898000  1.0  -0.0628
  C  C663  1  0.407700  0.371900  0.845200  1.0  -0.094
  C  C664  1  0.406600  0.328400  0.810800  1.0  0.7208
  C  C665  1  0.525800  0.460700  0.141900  1.0  0.0057
  C  C666  1  0.554200  0.415700  0.153500  1.0  -0.3577
  C  C667  1  0.393700  0.800700  0.326300  1.0  0.7209
  C  C668  1  0.392400  0.834400  0.368600  1.0  -0.1265
  C  C669  1  0.433500  0.848600  0.430900  1.0  -0.0916
  C  C670  1  0.431400  0.880600  0.466900  1.0  -0.1324
  C  C671  1  0.389100  0.899300  0.443600  1.0  0.0847
  C  C672  1  0.347700  0.882500  0.381500  1.0  -0.1309
  C  C673  1  0.349000  0.850600  0.344400  1.0  -0.0514
  C  C674  1  0.390300  0.937200  0.482500  1.0  -0.008
  C  C675  1  0.415200  0.931400  0.551000  1.0  0.1533
  C  C676  1  0.414400  0.967100  0.584900  1.0  -0.1071
  C  C677  1  0.390300  0.009000  0.559200  1.0  0.0166
  C  C678  1  0.365700  0.018800  0.489800  1.0  0.1076
  C  C679  1  0.364400  0.978100  0.449200  1.0  -0.0023
  C  C680  1  0.434800  0.101100  0.693600  1.0  -0.0526
  C  C681  1  0.434300  0.063400  0.659200  1.0  -0.1448
  C  C682  1  0.390900  0.049000  0.595400  1.0  0.0405
  C  C683  1  0.350600  0.071900  0.569900  1.0  -0.1093
  C  C684  1  0.351600  0.109800  0.604800  1.0  -0.0155
  C  C685  1  0.393300  0.125700  0.664900  1.0  -0.0663
  C  C686  1  0.395400  0.170100  0.698200  1.0  0.7051
  C  C687  1  0.458300  0.867300  0.649900  1.0  0.0169
  C  C688  1  0.470900  0.829000  0.651100  1.0  -0.3645
  C  C689  1  0.548100  0.737400  0.437200  1.0  0.1923
  C  C690  1  0.597300  0.737400  0.487700  1.0  -0.1859
  C  C691  1  0.622300  0.759100  0.476800  1.0  0.0633
  C  C692  1  0.597100  0.783300  0.416600  1.0  -0.1875
  C  C693  1  0.549100  0.782200  0.369600  1.0  0.1812
  C  C694  1  0.749300  0.751100  0.642000  1.0  0.1578
  C  C695  1  0.701100  0.752900  0.594300  1.0  -0.1621
  C  C696  1  0.676100  0.758500  0.530100  1.0  0.2572
  C  C697  1  0.701800  0.769600  0.520000  1.0  -0.219
  C  C698  1  0.750600  0.768500  0.571200  1.0  0.0739
  C  C699  1  0.902600  0.199300  0.177200  1.0  0.6578
  C  C700  1  0.903200  0.165600  0.133300  1.0  -0.1275
  C  C701  1  0.862800  0.143300  0.076500  1.0  -0.055
  C  C702  1  0.865700  0.112100  0.040200  1.0  -0.1051
  C  C703  1  0.908700  0.101500  0.060600  1.0  0.0136
  C  C704  1  0.949300  0.124100  0.117900  1.0  -0.0914
  C  C705  1  0.947200  0.155900  0.153400  1.0  -0.0514
  C  C706  1  0.911300  0.065400  0.022400  1.0  0.0944
  C  C707  1  0.889200  0.069500  0.961700  1.0  0.1914
  C  C708  1  0.886900  0.032100  0.918200  1.0  -0.0903
  C  C709  1  0.911800  0.990900  0.950700  1.0  0.0363
  C  C710  1  0.947600  0.993300  0.021800  1.0  0.1962
  C  C711  1  0.948900  0.026100  0.061600  1.0  -0.0948
  C  C712  1  0.867400  0.890300  0.826000  1.0  -0.0342
  C  C713  1  0.869300  0.929000  0.860600  1.0  -0.1321
  C  C714  1  0.911300  0.951000  0.913800  1.0  0.0475
  C  C715  1  0.951700  0.932800  0.932300  1.0  -0.1369
  C  C716  1  0.950600  0.895200  0.898000  1.0  -0.0628
  C  C717  1  0.907700  0.871900  0.845200  1.0  -0.094
  C  C718  1  0.906600  0.828400  0.810800  1.0  0.7208
  C  C719  1  0.025800  0.960700  0.141900  1.0  0.0057
  C  C720  1  0.054200  0.915700  0.153500  1.0  -0.3577
  C  C721  1  0.893700  0.300700  0.326300  1.0  0.7209
  C  C722  1  0.892400  0.334400  0.368600  1.0  -0.1265
  C  C723  1  0.933500  0.348600  0.430900  1.0  -0.0916
  C  C724  1  0.931400  0.380600  0.466900  1.0  -0.1324
  C  C725  1  0.889100  0.399300  0.443600  1.0  0.0847
  C  C726  1  0.847700  0.382500  0.381500  1.0  -0.1309
  C  C727  1  0.849000  0.350600  0.344400  1.0  -0.0514
  C  C728  1  0.890300  0.437200  0.482500  1.0  -0.008
  C  C729  1  0.915200  0.431400  0.551000  1.0  0.1533
  C  C730  1  0.914400  0.467100  0.584900  1.0  -0.1071
  C  C731  1  0.890300  0.509000  0.559200  1.0  0.0166
  C  C732  1  0.865700  0.518800  0.489800  1.0  0.1076
  C  C733  1  0.864400  0.478100  0.449200  1.0  -0.0023
  C  C734  1  0.934800  0.601100  0.693600  1.0  -0.0526
  C  C735  1  0.934300  0.563400  0.659200  1.0  -0.1448
  C  C736  1  0.890900  0.549000  0.595400  1.0  0.0405
  C  C737  1  0.850600  0.571900  0.569900  1.0  -0.1093
  C  C738  1  0.851600  0.609800  0.604800  1.0  -0.0155
  C  C739  1  0.893300  0.625700  0.664900  1.0  -0.0663
  C  C740  1  0.895400  0.670100  0.698200  1.0  0.7051
  C  C741  1  0.958300  0.367300  0.649900  1.0  0.0169
  C  C742  1  0.970900  0.329000  0.651100  1.0  -0.3645
  C  C743  1  0.048100  0.237400  0.437200  1.0  0.1923
  C  C744  1  0.097300  0.237400  0.487700  1.0  -0.1859
  C  C745  1  0.122300  0.259100  0.476800  1.0  0.0633
  C  C746  1  0.097100  0.283300  0.416600  1.0  -0.1875
  C  C747  1  0.049100  0.282200  0.369600  1.0  0.1812
  C  C748  1  0.249300  0.251100  0.642000  1.0  0.1578
  C  C749  1  0.201100  0.252900  0.594300  1.0  -0.1621
  C  C750  1  0.176100  0.258500  0.530100  1.0  0.2572
  C  C751  1  0.201800  0.269600  0.520000  1.0  -0.219
  C  C752  1  0.250600  0.268500  0.571200  1.0  0.0739
  N  N753  1  0.475900  0.241900  0.620500  1.0  -0.3219
  N  N754  1  0.225400  0.242800  0.371400  1.0  -0.1713
  N  N755  1  0.975900  0.741900  0.620500  1.0  -0.3219
  N  N756  1  0.725400  0.742800  0.371400  1.0  -0.1713
  N  N757  1  0.475900  0.758100  0.120500  1.0  -0.3223
  N  N758  1  0.225400  0.757200  0.871400  1.0  -0.1718
  N  N759  1  0.975900  0.258100  0.120500  1.0  -0.3223
  N  N760  1  0.725400  0.257200  0.871400  1.0  -0.1718
  N  N761  1  0.524100  0.241900  0.879500  1.0  -0.322
  N  N762  1  0.774600  0.242800  0.128600  1.0  -0.1759
  N  N763  1  0.024100  0.741900  0.879500  1.0  -0.322
  N  N764  1  0.274600  0.742800  0.128600  1.0  -0.1759
  N  N765  1  0.524100  0.758100  0.379500  1.0  -0.3225
  N  N766  1  0.774600  0.757200  0.628600  1.0  -0.1757
  N  N767  1  0.024100  0.258100  0.379500  1.0  -0.3225
  N  N768  1  0.274600  0.257200  0.628600  1.0  -0.1757
  O  O769  1  0.560000  0.284000  0.769900  1.0  -0.5709
  O  O770  1  0.638800  0.293100  0.846700  1.0  -0.5943
  O  O771  1  0.555600  0.688800  0.165200  1.0  -0.5779
  O  O772  1  0.633900  0.688200  0.239100  1.0  -0.6053
  O  O773  1  0.520000  0.541900  0.939100  1.0  -0.5139
  O  O774  1  0.650800  0.398600  0.079100  1.0  -0.5412
  O  O775  1  0.567100  0.212300  0.650300  1.0  -0.5833
  O  O776  1  0.645400  0.210900  0.731600  1.0  -0.5899
  O  O777  1  0.564000  0.816200  0.247200  1.0  -0.5898
  O  O778  1  0.642900  0.808700  0.330800  1.0  -0.5964
  O  O779  1  0.554700  0.111000  0.411200  1.0  -0.3579
  O  O780  1  0.662800  0.940600  0.548300  1.0  -0.4673
  O  O781  1  0.060000  0.784000  0.769900  1.0  -0.5709
  O  O782  1  0.138800  0.793100  0.846700  1.0  -0.5943
  O  O783  1  0.055600  0.188800  0.165200  1.0  -0.5779
  O  O784  1  0.133900  0.188200  0.239100  1.0  -0.6053
  O  O785  1  0.020000  0.041900  0.939100  1.0  -0.5139
  O  O786  1  0.150800  0.898600  0.079100  1.0  -0.5412
  O  O787  1  0.067100  0.712300  0.650300  1.0  -0.5833
  O  O788  1  0.145400  0.710900  0.731600  1.0  -0.5899
  O  O789  1  0.064000  0.316200  0.247200  1.0  -0.5898
  O  O790  1  0.142900  0.308700  0.330800  1.0  -0.5964
  O  O791  1  0.054700  0.611000  0.411200  1.0  -0.3579
  O  O792  1  0.162800  0.440600  0.548300  1.0  -0.4673
  O  O793  1  0.560000  0.716000  0.269900  1.0  -0.5709
  O  O794  1  0.638800  0.706900  0.346700  1.0  -0.5946
  O  O795  1  0.555600  0.311200  0.665200  1.0  -0.5777
  O  O796  1  0.633900  0.311800  0.739100  1.0  -0.6046
  O  O797  1  0.520000  0.458100  0.439100  1.0  -0.5136
  O  O798  1  0.650800  0.601400  0.579100  1.0  -0.5413
  O  O799  1  0.567100  0.787700  0.150300  1.0  -0.5827
  O  O800  1  0.645400  0.789100  0.231600  1.0  -0.5903
  O  O801  1  0.564000  0.183800  0.747200  1.0  -0.5893
  O  O802  1  0.642900  0.191300  0.830800  1.0  -0.5962
  O  O803  1  0.554700  0.889000  0.911200  1.0  -0.3573
  O  O804  1  0.662800  0.059400  0.048300  1.0  -0.4658
  O  O805  1  0.060000  0.216000  0.269900  1.0  -0.5709
  O  O806  1  0.138800  0.206900  0.346700  1.0  -0.5946
  O  O807  1  0.055600  0.811200  0.665200  1.0  -0.5777
  O  O808  1  0.133900  0.811800  0.739100  1.0  -0.6046
  O  O809  1  0.020000  0.958100  0.439100  1.0  -0.5136
  O  O810  1  0.150800  0.101400  0.579100  1.0  -0.5413
  O  O811  1  0.067100  0.287700  0.150300  1.0  -0.5827
  O  O812  1  0.145400  0.289100  0.231600  1.0  -0.5903
  O  O813  1  0.064000  0.683800  0.747200  1.0  -0.5893
  O  O814  1  0.142900  0.691300  0.830800  1.0  -0.5962
  O  O815  1  0.054700  0.389000  0.911200  1.0  -0.3573
  O  O816  1  0.162800  0.559400  0.048300  1.0  -0.4658
  O  O817  1  0.440000  0.284000  0.730100  1.0  -0.572
  O  O818  1  0.361200  0.293100  0.653300  1.0  -0.5948
  O  O819  1  0.444400  0.688800  0.334800  1.0  -0.5785
  O  O820  1  0.366100  0.688200  0.260900  1.0  -0.6041
  O  O821  1  0.480000  0.541900  0.560900  1.0  -0.5129
  O  O822  1  0.349200  0.398600  0.420900  1.0  -0.5407
  O  O823  1  0.432900  0.212300  0.849700  1.0  -0.5832
  O  O824  1  0.354600  0.210900  0.768400  1.0  -0.5899
  O  O825  1  0.436000  0.816200  0.252800  1.0  -0.5893
  O  O826  1  0.357100  0.808700  0.169200  1.0  -0.5963
  O  O827  1  0.445300  0.111000  0.088800  1.0  -0.3574
  O  O828  1  0.337200  0.940600  0.951700  1.0  -0.4644
  O  O829  1  0.940000  0.784000  0.730100  1.0  -0.572
  O  O830  1  0.861200  0.793100  0.653300  1.0  -0.5948
  O  O831  1  0.944400  0.188800  0.334800  1.0  -0.5785
  O  O832  1  0.866100  0.188200  0.260900  1.0  -0.6041
  O  O833  1  0.980000  0.041900  0.560900  1.0  -0.5129
  O  O834  1  0.849200  0.898600  0.420900  1.0  -0.5407
  O  O835  1  0.932900  0.712300  0.849700  1.0  -0.5832
  O  O836  1  0.854600  0.710900  0.768400  1.0  -0.5899
  O  O837  1  0.936000  0.316200  0.252800  1.0  -0.5893
  O  O838  1  0.857100  0.308700  0.169200  1.0  -0.5963
  O  O839  1  0.945300  0.611000  0.088800  1.0  -0.3574
  O  O840  1  0.837200  0.440600  0.951700  1.0  -0.4644
  O  O841  1  0.440000  0.716000  0.230100  1.0  -0.5716
  O  O842  1  0.361200  0.706900  0.153300  1.0  -0.595
  O  O843  1  0.444400  0.311200  0.834800  1.0  -0.5785
  O  O844  1  0.366100  0.311800  0.760900  1.0  -0.6037
  O  O845  1  0.480000  0.458100  0.060900  1.0  -0.5119
  O  O846  1  0.349200  0.601400  0.920900  1.0  -0.5401
  O  O847  1  0.432900  0.787700  0.349700  1.0  -0.583
  O  O848  1  0.354600  0.789100  0.268400  1.0  -0.5898
  O  O849  1  0.436000  0.183800  0.752800  1.0  -0.5891
  O  O850  1  0.357100  0.191300  0.669200  1.0  -0.5957
  O  O851  1  0.445300  0.889000  0.588800  1.0  -0.3574
  O  O852  1  0.337200  0.059400  0.451700  1.0  -0.4649
  O  O853  1  0.940000  0.216000  0.230100  1.0  -0.5716
  O  O854  1  0.861200  0.206900  0.153300  1.0  -0.595
  O  O855  1  0.944400  0.811200  0.834800  1.0  -0.5785
  O  O856  1  0.866100  0.811800  0.760900  1.0  -0.6037
  O  O857  1  0.980000  0.958100  0.060900  1.0  -0.5119
  O  O858  1  0.849200  0.101400  0.920900  1.0  -0.5401
  O  O859  1  0.932900  0.287700  0.349700  1.0  -0.583
  O  O860  1  0.854600  0.289100  0.268400  1.0  -0.5898
  O  O861  1  0.936000  0.683800  0.752800  1.0  -0.5891
  O  O862  1  0.857100  0.691300  0.669200  1.0  -0.5957
  O  O863  1  0.945300  0.389000  0.588800  1.0  -0.3574
  O  O864  1  0.837200  0.559400  0.451700  1.0  -0.4649
