# generated using pymatgen
data_Zn2H37C53(NO6)2
_symmetry_space_group_name_H-M   'P 1'
_cell_length_a   28.06820000
_cell_length_b   27.11470000
_cell_length_c   28.06030000
_cell_angle_alpha   90.00000000
_cell_angle_beta   98.55800000
_cell_angle_gamma   90.00000000
_symmetry_Int_Tables_number   1
_chemical_formula_structural   Zn2H37C53(NO6)2
_chemical_formula_sum   'Zn16 H296 C424 N16 O96'
_cell_volume   21117.81604904
_cell_formula_units_Z   8
loop_
 _symmetry_equiv_pos_site_id
 _symmetry_equiv_pos_as_xyz
  1  'x, y, z'
loop_
 _atom_site_type_symbol
 _atom_site_label
 _atom_site_symmetry_multiplicity
 _atom_site_fract_x
 _atom_site_fract_y
 _atom_site_fract_z
 _atom_site_occupancy
 _atom_site_charge
  Zn  Zn1  1  0.102060  0.489910  0.088170  1.0  0.9169
  Zn  Zn2  1  0.117330  0.489790  0.194450  1.0  0.9195
  Zn  Zn3  1  0.602060  0.989910  0.088170  1.0  0.9169
  Zn  Zn4  1  0.617330  0.989790  0.194450  1.0  0.9195
  Zn  Zn5  1  0.102060  0.510090  0.588170  1.0  0.9169
  Zn  Zn6  1  0.117330  0.510210  0.694450  1.0  0.9196
  Zn  Zn7  1  0.602060  0.010090  0.588170  1.0  0.9169
  Zn  Zn8  1  0.617330  0.010210  0.694450  1.0  0.9196
  Zn  Zn9  1  0.897940  0.489910  0.411830  1.0  0.9168
  Zn  Zn10  1  0.882670  0.489790  0.305550  1.0  0.9194
  Zn  Zn11  1  0.397940  0.989910  0.411830  1.0  0.9168
  Zn  Zn12  1  0.382670  0.989790  0.305550  1.0  0.9194
  Zn  Zn13  1  0.897940  0.510090  0.911830  1.0  0.9169
  Zn  Zn14  1  0.882670  0.510210  0.805540  1.0  0.9196
  Zn  Zn15  1  0.397940  0.010090  0.911830  1.0  0.9169
  Zn  Zn16  1  0.382670  0.010210  0.805540  1.0  0.9196
  H  H17  1  0.991200  0.371800  0.067300  1.0  0.1124
  H  H18  1  0.929200  0.317200  0.070400  1.0  0.1063
  H  H19  1  0.954600  0.318200  0.214500  1.0  0.1014
  H  H20  1  0.016200  0.373900  0.212300  1.0  0.1154
  H  H21  1  0.914600  0.232200  0.091200  1.0  0.086
  H  H22  1  0.804200  0.247300  0.193600  1.0  0.0981
  H  H23  1  0.702300  0.104700  0.073800  1.0  0.1127
  H  H24  1  0.763900  0.159800  0.072300  1.0  0.1044
  H  H25  1  0.793900  0.153800  0.214800  1.0  0.1054
  H  H26  1  0.736600  0.097300  0.216900  1.0  0.1092
  H  H27  1  0.884300  0.127700  0.024200  1.0  0.1473
  H  H28  1  0.922900  0.159500  0.056700  1.0  0.114
  H  H29  1  0.882400  0.185400  0.020900  1.0  0.1303
  H  H30  1  0.836200  0.349800  0.256600  1.0  0.1148
  H  H31  1  0.835000  0.292000  0.256900  1.0  0.1009
  H  H32  1  0.800100  0.321400  0.218200  1.0  0.0779
  H  H33  1  0.015400  0.602300  0.207300  1.0  0.0842
  H  H34  1  0.953700  0.658100  0.211800  1.0  0.1128
  H  H35  1  0.925100  0.656200  0.066600  1.0  0.1101
  H  H36  1  0.985400  0.600400  0.064500  1.0  0.0923
  H  H37  1  0.913300  0.743700  0.090000  1.0  0.0703
  H  H38  1  0.810700  0.746500  0.195200  1.0  0.0767
  H  H39  1  0.738000  0.884800  0.215000  1.0  0.1151
  H  H40  1  0.798400  0.829300  0.213700  1.0  0.1006
  H  H41  1  0.774000  0.825200  0.071800  1.0  0.1038
  H  H42  1  0.711300  0.878900  0.072300  1.0  0.0995
  H  H43  1  0.833000  0.639500  0.263000  1.0  0.0998
  H  H44  1  0.798400  0.670500  0.225400  1.0  0.0828
  H  H45  1  0.838200  0.697000  0.261500  1.0  0.0945
  H  H46  1  0.155800  0.550000  0.514900  1.0  0.0812
  H  H47  1  0.160900  0.546000  0.436300  1.0  0.098
  H  H48  1  0.047200  0.464200  0.418000  1.0  0.0674
  H  H49  1  0.043000  0.471600  0.499100  1.0  0.0925
  H  H50  1  0.092700  0.426100  0.275200  1.0  0.0771
  H  H51  1  0.089200  0.431500  0.356200  1.0  0.0792
  H  H52  1  0.133000  0.565900  0.353900  1.0  0.1161
  H  H53  1  0.125500  0.557300  0.274600  1.0  0.056
  H  H54  1  0.491200  0.871800  0.067300  1.0  0.1124
  H  H55  1  0.429200  0.817200  0.070400  1.0  0.1063
  H  H56  1  0.454600  0.818200  0.214500  1.0  0.1014
  H  H57  1  0.516200  0.873900  0.212300  1.0  0.1154
  H  H58  1  0.414600  0.732200  0.091200  1.0  0.086
  H  H59  1  0.304200  0.747300  0.193600  1.0  0.0981
  H  H60  1  0.202300  0.604700  0.073800  1.0  0.1127
  H  H61  1  0.263900  0.659800  0.072300  1.0  0.1044
  H  H62  1  0.293900  0.653800  0.214800  1.0  0.1054
  H  H63  1  0.236600  0.597300  0.216900  1.0  0.1092
  H  H64  1  0.384300  0.627700  0.024200  1.0  0.1485
  H  H65  1  0.422900  0.659500  0.056700  1.0  0.1148
  H  H66  1  0.382400  0.685400  0.020900  1.0  0.1303
  H  H67  1  0.336200  0.849800  0.256600  1.0  0.1151
  H  H68  1  0.335000  0.792000  0.256900  1.0  0.1009
  H  H69  1  0.300100  0.821400  0.218200  1.0  0.0779
  H  H70  1  0.515400  0.102300  0.207300  1.0  0.0842
  H  H71  1  0.453700  0.158100  0.211800  1.0  0.1128
  H  H72  1  0.425100  0.156200  0.066600  1.0  0.1101
  H  H73  1  0.485400  0.100400  0.064500  1.0  0.0923
  H  H74  1  0.413300  0.243700  0.090000  1.0  0.0703
  H  H75  1  0.310700  0.246500  0.195200  1.0  0.0767
  H  H76  1  0.238000  0.384800  0.215000  1.0  0.1151
  H  H77  1  0.298400  0.329300  0.213700  1.0  0.1006
  H  H78  1  0.274000  0.325200  0.071800  1.0  0.1038
  H  H79  1  0.211300  0.378900  0.072300  1.0  0.0995
  H  H80  1  0.333000  0.139500  0.263000  1.0  0.0998
  H  H81  1  0.298400  0.170500  0.225400  1.0  0.0828
  H  H82  1  0.338200  0.197000  0.261500  1.0  0.0945
  H  H83  1  0.655800  0.050000  0.514900  1.0  0.0812
  H  H84  1  0.660900  0.046000  0.436300  1.0  0.098
  H  H85  1  0.547200  0.964200  0.418000  1.0  0.0674
  H  H86  1  0.543000  0.971600  0.499100  1.0  0.0925
  H  H87  1  0.592700  0.926100  0.275200  1.0  0.0771
  H  H88  1  0.589200  0.931500  0.356200  1.0  0.0792
  H  H89  1  0.633000  0.065900  0.353900  1.0  0.1161
  H  H90  1  0.625500  0.057300  0.274600  1.0  0.056
  H  H91  1  0.991200  0.628200  0.567300  1.0  0.1116
  H  H92  1  0.929200  0.682800  0.570400  1.0  0.1067
  H  H93  1  0.954600  0.681800  0.714500  1.0  0.1019
  H  H94  1  0.016200  0.626100  0.712300  1.0  0.1154
  H  H95  1  0.914600  0.767800  0.591200  1.0  0.086
  H  H96  1  0.804200  0.752700  0.693600  1.0  0.0982
  H  H97  1  0.702300  0.895300  0.573800  1.0  0.1129
  H  H98  1  0.763900  0.840200  0.572300  1.0  0.104
  H  H99  1  0.793900  0.846200  0.714800  1.0  0.105
  H  H100  1  0.736600  0.902700  0.716900  1.0  0.1092
  H  H101  1  0.884300  0.872300  0.524200  1.0  0.147
  H  H102  1  0.922900  0.840500  0.556700  1.0  0.1157
  H  H103  1  0.882400  0.814600  0.520900  1.0  0.1291
  H  H104  1  0.836200  0.650200  0.756600  1.0  0.1141
  H  H105  1  0.835000  0.708000  0.756900  1.0  0.1013
  H  H106  1  0.800100  0.678600  0.718200  1.0  0.078
  H  H107  1  0.015400  0.397700  0.707300  1.0  0.0842
  H  H108  1  0.953700  0.341900  0.711800  1.0  0.1126
  H  H109  1  0.925100  0.343800  0.566600  1.0  0.1097
  H  H110  1  0.985400  0.399600  0.564500  1.0  0.0937
  H  H111  1  0.913300  0.256300  0.590000  1.0  0.0704
  H  H112  1  0.810700  0.253500  0.695200  1.0  0.0766
  H  H113  1  0.738000  0.115200  0.715000  1.0  0.1151
  H  H114  1  0.798400  0.170700  0.713700  1.0  0.1008
  H  H115  1  0.774000  0.174800  0.571800  1.0  0.1038
  H  H116  1  0.711300  0.121100  0.572300  1.0  0.0993
  H  H117  1  0.833000  0.360500  0.763000  1.0  0.1001
  H  H118  1  0.798400  0.329500  0.725400  1.0  0.0829
  H  H119  1  0.838200  0.303000  0.761500  1.0  0.0941
  H  H120  1  0.155800  0.450000  0.014900  1.0  0.0804
  H  H121  1  0.160900  0.454000  0.936300  1.0  0.0974
  H  H122  1  0.047200  0.535800  0.918000  1.0  0.0675
  H  H123  1  0.043000  0.528400  0.999100  1.0  0.0925
  H  H124  1  0.092700  0.573900  0.775200  1.0  0.0774
  H  H125  1  0.089200  0.568500  0.856200  1.0  0.0792
  H  H126  1  0.133000  0.434100  0.853900  1.0  0.1166
  H  H127  1  0.125500  0.442700  0.774600  1.0  0.0561
  H  H128  1  0.491200  0.128200  0.567300  1.0  0.1116
  H  H129  1  0.429200  0.182800  0.570400  1.0  0.1067
  H  H130  1  0.454600  0.181800  0.714500  1.0  0.1019
  H  H131  1  0.516200  0.126100  0.712300  1.0  0.1154
  H  H132  1  0.414600  0.267800  0.591200  1.0  0.086
  H  H133  1  0.304200  0.252700  0.693600  1.0  0.0982
  H  H134  1  0.202300  0.395300  0.573800  1.0  0.1129
  H  H135  1  0.263900  0.340200  0.572300  1.0  0.104
  H  H136  1  0.293900  0.346200  0.714800  1.0  0.105
  H  H137  1  0.236600  0.402700  0.716900  1.0  0.1092
  H  H138  1  0.384300  0.372300  0.524200  1.0  0.147
  H  H139  1  0.422900  0.340500  0.556700  1.0  0.1165
  H  H140  1  0.382400  0.314600  0.520900  1.0  0.1291
  H  H141  1  0.336200  0.150200  0.756600  1.0  0.1143
  H  H142  1  0.335000  0.208000  0.756900  1.0  0.1013
  H  H143  1  0.300100  0.178600  0.718200  1.0  0.078
  H  H144  1  0.515400  0.897700  0.707300  1.0  0.0842
  H  H145  1  0.453700  0.841900  0.711800  1.0  0.1126
  H  H146  1  0.425100  0.843800  0.566600  1.0  0.1097
  H  H147  1  0.485400  0.899600  0.564500  1.0  0.0937
  H  H148  1  0.413300  0.756300  0.590000  1.0  0.0704
  H  H149  1  0.310700  0.753500  0.695200  1.0  0.0766
  H  H150  1  0.238000  0.615200  0.715000  1.0  0.1151
  H  H151  1  0.298400  0.670700  0.713700  1.0  0.101
  H  H152  1  0.274000  0.674800  0.571800  1.0  0.1038
  H  H153  1  0.211300  0.621100  0.572300  1.0  0.0993
  H  H154  1  0.333000  0.860500  0.763000  1.0  0.1
  H  H155  1  0.298400  0.829500  0.725400  1.0  0.0829
  H  H156  1  0.338200  0.803000  0.761500  1.0  0.0941
  H  H157  1  0.655800  0.950000  0.014900  1.0  0.0804
  H  H158  1  0.660900  0.954000  0.936300  1.0  0.0974
  H  H159  1  0.547200  0.035800  0.918000  1.0  0.0675
  H  H160  1  0.543000  0.028400  0.999100  1.0  0.0925
  H  H161  1  0.592700  0.073900  0.775200  1.0  0.0774
  H  H162  1  0.589200  0.068500  0.856200  1.0  0.0792
  H  H163  1  0.633000  0.934100  0.853900  1.0  0.1166
  H  H164  1  0.625500  0.942700  0.774600  1.0  0.0561
  H  H165  1  0.008800  0.371800  0.432700  1.0  0.1127
  H  H166  1  0.070800  0.317200  0.429600  1.0  0.1072
  H  H167  1  0.045400  0.318200  0.285500  1.0  0.1023
  H  H168  1  0.983800  0.373900  0.287700  1.0  0.1153
  H  H169  1  0.085400  0.232200  0.408800  1.0  0.0873
  H  H170  1  0.195800  0.247300  0.306400  1.0  0.0979
  H  H171  1  0.297700  0.104700  0.426200  1.0  0.1129
  H  H172  1  0.236100  0.159800  0.427700  1.0  0.1042
  H  H173  1  0.206100  0.153800  0.285200  1.0  0.1049
  H  H174  1  0.263400  0.097300  0.283100  1.0  0.1095
  H  H175  1  0.115700  0.127700  0.475800  1.0  0.1468
  H  H176  1  0.077100  0.159500  0.443300  1.0  0.1165
  H  H177  1  0.117600  0.185400  0.479100  1.0  0.1319
  H  H178  1  0.163800  0.349800  0.243400  1.0  0.1156
  H  H179  1  0.165000  0.292000  0.243100  1.0  0.0991
  H  H180  1  0.199900  0.321400  0.281800  1.0  0.0778
  H  H181  1  0.984600  0.602300  0.292700  1.0  0.0843
  H  H182  1  0.046300  0.658100  0.288200  1.0  0.1134
  H  H183  1  0.074900  0.656200  0.433400  1.0  0.1095
  H  H184  1  0.014600  0.600400  0.435500  1.0  0.0927
  H  H185  1  0.086700  0.743700  0.410000  1.0  0.0691
  H  H186  1  0.189300  0.746500  0.304800  1.0  0.076
  H  H187  1  0.262000  0.884800  0.285000  1.0  0.1152
  H  H188  1  0.201600  0.829300  0.286300  1.0  0.1
  H  H189  1  0.226000  0.825200  0.428200  1.0  0.1035
  H  H190  1  0.288700  0.878900  0.427700  1.0  0.0995
  H  H191  1  0.167000  0.639500  0.237000  1.0  0.1015
  H  H192  1  0.201600  0.670500  0.274600  1.0  0.0806
  H  H193  1  0.161800  0.697000  0.238500  1.0  0.094
  H  H194  1  0.844200  0.550000  0.985100  1.0  0.0809
  H  H195  1  0.839100  0.546000  0.063700  1.0  0.0982
  H  H196  1  0.952800  0.464200  0.082000  1.0  0.0679
  H  H197  1  0.957000  0.471600  0.000900  1.0  0.0925
  H  H198  1  0.907300  0.426100  0.224800  1.0  0.0769
  H  H199  1  0.910800  0.431500  0.143800  1.0  0.0787
  H  H200  1  0.867000  0.565900  0.146100  1.0  0.1165
  H  H201  1  0.874500  0.557300  0.225400  1.0  0.0542
  H  H202  1  0.508800  0.871800  0.432700  1.0  0.1127
  H  H203  1  0.570800  0.817200  0.429600  1.0  0.1072
  H  H204  1  0.545400  0.818200  0.285500  1.0  0.1023
  H  H205  1  0.483800  0.873900  0.287700  1.0  0.1153
  H  H206  1  0.585400  0.732200  0.408800  1.0  0.0873
  H  H207  1  0.695800  0.747300  0.306400  1.0  0.0979
  H  H208  1  0.797700  0.604700  0.426200  1.0  0.1129
  H  H209  1  0.736100  0.659800  0.427700  1.0  0.1042
  H  H210  1  0.706100  0.653800  0.285200  1.0  0.1049
  H  H211  1  0.763400  0.597300  0.283100  1.0  0.1095
  H  H212  1  0.615700  0.627700  0.475800  1.0  0.1468
  H  H213  1  0.577100  0.659500  0.443300  1.0  0.1172
  H  H214  1  0.617600  0.685400  0.479100  1.0  0.1319
  H  H215  1  0.663800  0.849800  0.243400  1.0  0.1158
  H  H216  1  0.665000  0.792000  0.243100  1.0  0.0991
  H  H217  1  0.699900  0.821400  0.281800  1.0  0.0778
  H  H218  1  0.484600  0.102300  0.292700  1.0  0.0843
  H  H219  1  0.546300  0.158100  0.288200  1.0  0.1134
  H  H220  1  0.574900  0.156200  0.433400  1.0  0.1095
  H  H221  1  0.514600  0.100400  0.435500  1.0  0.0927
  H  H222  1  0.586700  0.243700  0.410000  1.0  0.0691
  H  H223  1  0.689300  0.246500  0.304800  1.0  0.076
  H  H224  1  0.762000  0.384800  0.285000  1.0  0.1152
  H  H225  1  0.701600  0.329300  0.286300  1.0  0.1001
  H  H226  1  0.726000  0.325200  0.428200  1.0  0.1035
  H  H227  1  0.788700  0.378900  0.427700  1.0  0.0995
  H  H228  1  0.667000  0.139500  0.237000  1.0  0.1019
  H  H229  1  0.701600  0.170500  0.274600  1.0  0.0806
  H  H230  1  0.661800  0.197000  0.238500  1.0  0.094
  H  H231  1  0.344200  0.050000  0.985100  1.0  0.0809
  H  H232  1  0.339100  0.046000  0.063700  1.0  0.0982
  H  H233  1  0.452800  0.964200  0.082000  1.0  0.0679
  H  H234  1  0.457000  0.971600  0.000900  1.0  0.0925
  H  H235  1  0.407300  0.926100  0.224800  1.0  0.0769
  H  H236  1  0.410800  0.931500  0.143800  1.0  0.0787
  H  H237  1  0.367000  0.065900  0.146100  1.0  0.1165
  H  H238  1  0.374500  0.057300  0.225400  1.0  0.0542
  H  H239  1  0.008800  0.628200  0.932700  1.0  0.1121
  H  H240  1  0.070800  0.682800  0.929600  1.0  0.1071
  H  H241  1  0.045400  0.681800  0.785500  1.0  0.1027
  H  H242  1  0.983800  0.626100  0.787700  1.0  0.1156
  H  H243  1  0.085400  0.767800  0.908800  1.0  0.0871
  H  H244  1  0.195800  0.752700  0.806400  1.0  0.0978
  H  H245  1  0.297700  0.895300  0.926200  1.0  0.1132
  H  H246  1  0.236100  0.840200  0.927700  1.0  0.1039
  H  H247  1  0.206100  0.846200  0.785200  1.0  0.1049
  H  H248  1  0.263400  0.902700  0.783100  1.0  0.1089
  H  H249  1  0.115700  0.872300  0.975800  1.0  0.147
  H  H250  1  0.077100  0.840500  0.943300  1.0  0.1162
  H  H251  1  0.117600  0.814600  0.979100  1.0  0.1312
  H  H252  1  0.163800  0.650200  0.743400  1.0  0.1151
  H  H253  1  0.165000  0.708000  0.743100  1.0  0.1003
  H  H254  1  0.199900  0.678600  0.781800  1.0  0.0776
  H  H255  1  0.984600  0.397700  0.792700  1.0  0.0841
  H  H256  1  0.046300  0.341900  0.788200  1.0  0.1132
  H  H257  1  0.074900  0.343800  0.933400  1.0  0.1097
  H  H258  1  0.014600  0.399600  0.935500  1.0  0.0935
  H  H259  1  0.086700  0.256300  0.910000  1.0  0.0691
  H  H260  1  0.189300  0.253500  0.804800  1.0  0.0758
  H  H261  1  0.262000  0.115200  0.785000  1.0  0.1158
  H  H262  1  0.201600  0.170700  0.786300  1.0  0.1006
  H  H263  1  0.226000  0.174800  0.928200  1.0  0.1034
  H  H264  1  0.288700  0.121100  0.927700  1.0  0.0992
  H  H265  1  0.167000  0.360500  0.737000  1.0  0.102
  H  H266  1  0.201600  0.329500  0.774600  1.0  0.0803
  H  H267  1  0.161800  0.303000  0.738500  1.0  0.0927
  H  H268  1  0.844200  0.450000  0.485100  1.0  0.0803
  H  H269  1  0.839100  0.454000  0.563700  1.0  0.0983
  H  H270  1  0.952800  0.535800  0.582000  1.0  0.0675
  H  H271  1  0.957000  0.528400  0.500900  1.0  0.0928
  H  H272  1  0.907300  0.573900  0.724800  1.0  0.077
  H  H273  1  0.910800  0.568500  0.643800  1.0  0.0789
  H  H274  1  0.867000  0.434100  0.646100  1.0  0.1163
  H  H275  1  0.874500  0.442700  0.725400  1.0  0.0553
  H  H276  1  0.508800  0.128200  0.932700  1.0  0.1121
  H  H277  1  0.570800  0.182800  0.929600  1.0  0.1071
  H  H278  1  0.545400  0.181800  0.785500  1.0  0.1027
  H  H279  1  0.483800  0.126100  0.787700  1.0  0.1156
  H  H280  1  0.585400  0.267800  0.908800  1.0  0.0871
  H  H281  1  0.695800  0.252700  0.806400  1.0  0.0978
  H  H282  1  0.797700  0.395300  0.926200  1.0  0.1132
  H  H283  1  0.736100  0.340200  0.927700  1.0  0.1039
  H  H284  1  0.706100  0.346200  0.785200  1.0  0.1049
  H  H285  1  0.763400  0.402700  0.783100  1.0  0.1089
  H  H286  1  0.615700  0.372300  0.975800  1.0  0.1484
  H  H287  1  0.577100  0.340500  0.943300  1.0  0.117
  H  H288  1  0.617600  0.314600  0.979100  1.0  0.1312
  H  H289  1  0.663800  0.150200  0.743400  1.0  0.1151
  H  H290  1  0.665000  0.208000  0.743100  1.0  0.1003
  H  H291  1  0.699900  0.178600  0.781800  1.0  0.0776
  H  H292  1  0.484600  0.897700  0.792700  1.0  0.0841
  H  H293  1  0.546300  0.841900  0.788200  1.0  0.1132
  H  H294  1  0.574900  0.843800  0.933400  1.0  0.1097
  H  H295  1  0.514600  0.899600  0.935500  1.0  0.0935
  H  H296  1  0.586700  0.756300  0.910000  1.0  0.0691
  H  H297  1  0.689300  0.753500  0.804800  1.0  0.0758
  H  H298  1  0.762000  0.615200  0.785000  1.0  0.1158
  H  H299  1  0.701600  0.670700  0.786300  1.0  0.1006
  H  H300  1  0.726000  0.674800  0.928200  1.0  0.1034
  H  H301  1  0.788700  0.621100  0.927700  1.0  0.0992
  H  H302  1  0.667000  0.860500  0.737000  1.0  0.1022
  H  H303  1  0.701600  0.829500  0.774600  1.0  0.0803
  H  H304  1  0.661800  0.803000  0.738500  1.0  0.0927
  H  H305  1  0.344200  0.950000  0.485100  1.0  0.0803
  H  H306  1  0.339100  0.954000  0.563700  1.0  0.0983
  H  H307  1  0.452800  0.035800  0.582000  1.0  0.0675
  H  H308  1  0.457000  0.028400  0.500900  1.0  0.0928
  H  H309  1  0.407300  0.073900  0.724800  1.0  0.077
  H  H310  1  0.410800  0.068500  0.643800  1.0  0.0789
  H  H311  1  0.367000  0.934100  0.646100  1.0  0.1163
  H  H312  1  0.374500  0.942700  0.725400  1.0  0.0553
  C  C313  1  0.046500  0.420390  0.136400  1.0  0.6631
  C  C314  1  0.007900  0.380630  0.138730  1.0  -0.1382
  C  C315  1  0.983300  0.361800  0.096860  1.0  -0.0347
  C  C316  1  0.947200  0.328300  0.098900  1.0  -0.1075
  C  C317  1  0.936900  0.310500  0.143100  1.0  0.0318
  C  C318  1  0.962100  0.328900  0.185000  1.0  -0.2298
  C  C319  1  0.998300  0.362800  0.183850  1.0  -0.0895
  C  C320  1  0.898500  0.274400  0.144100  1.0  0.0341
  C  C321  1  0.893400  0.235200  0.113500  1.0  -0.2072
  C  C322  1  0.858800  0.200500  0.113800  1.0  0.2471
  C  C323  1  0.824200  0.202400  0.142900  1.0  0.0014
  C  C324  1  0.827500  0.243200  0.173500  1.0  -0.2077
  C  C325  1  0.863600  0.277600  0.175400  1.0  0.1972
  C  C326  1  0.721100  0.114400  0.102400  1.0  -0.0616
  C  C327  1  0.757500  0.147900  0.101700  1.0  -0.1426
  C  C328  1  0.784900  0.164300  0.143300  1.0  0.0736
  C  C329  1  0.775600  0.143800  0.186100  1.0  -0.1503
  C  C330  1  0.741500  0.110700  0.187400  1.0  -0.1129
  C  C331  1  0.712700  0.095400  0.145300  1.0  -0.1408
  C  C332  1  0.673800  0.057940  0.147750  1.0  0.7042
  C  C333  1  0.889800  0.157900  0.042200  1.0  -0.1303
  C  C334  1  0.831700  0.320900  0.236800  1.0  -0.0263
  C  C335  1  0.042500  0.555330  0.134800  1.0  0.6994
  C  C336  1  0.004700  0.592100  0.135700  1.0  -0.1243
  C  C337  1  0.996300  0.612300  0.178990  1.0  -0.0519
  C  C338  1  0.960000  0.647300  0.182000  1.0  -0.1824
  C  C339  1  0.933300  0.666100  0.139300  1.0  0.039
  C  C340  1  0.943100  0.645800  0.095400  1.0  -0.1254
  C  C341  1  0.978600  0.611300  0.094200  1.0  -0.0376
  C  C342  1  0.897900  0.706200  0.140700  1.0  0.2529
  C  C343  1  0.892100  0.741000  0.112400  1.0  -0.095
  C  C344  1  0.856300  0.776700  0.111400  1.0  0.1586
  C  C345  1  0.827800  0.782200  0.141900  1.0  0.1813
  C  C346  1  0.831400  0.746000  0.172200  1.0  -0.0932
  C  C347  1  0.864200  0.704900  0.174100  1.0  0.0649
  C  C348  1  0.744400  0.872500  0.185700  1.0  -0.0939
  C  C349  1  0.780200  0.838800  0.184700  1.0  -0.1296
  C  C350  1  0.790500  0.817900  0.142400  1.0  0.1079
  C  C351  1  0.765900  0.835700  0.101200  1.0  -0.1096
  C  C352  1  0.729100  0.869100  0.101400  1.0  -0.0726
  C  C353  1  0.718000  0.888200  0.143600  1.0  -0.1398
  C  C354  1  0.677400  0.924700  0.143700  1.0  0.7004
  C  C355  1  0.830600  0.667900  0.242400  1.0  -0.0396
  C  C356  1  0.133400  0.530900  0.495320  1.0  0.1742
  C  C357  1  0.136400  0.528600  0.447800  1.0  -0.2237
  C  C358  1  0.105700  0.502290  0.416300  1.0  0.1272
  C  C359  1  0.071200  0.481900  0.437200  1.0  -0.1862
  C  C360  1  0.068800  0.485700  0.486810  1.0  0.1393
  C  C361  1  0.100700  0.455800  0.291000  1.0  0.0794
  C  C362  1  0.098000  0.459300  0.340120  1.0  -0.1414
  C  C363  1  0.107150  0.498530  0.363410  1.0  0.2719
  C  C364  1  0.122200  0.536400  0.339050  1.0  -0.214
  C  C365  1  0.120500  0.528800  0.291500  1.0  0.0069
  C  C366  1  0.546500  0.920390  0.136400  1.0  0.6631
  C  C367  1  0.507900  0.880630  0.138730  1.0  -0.1382
  C  C368  1  0.483300  0.861800  0.096860  1.0  -0.0347
  C  C369  1  0.447200  0.828300  0.098900  1.0  -0.1075
  C  C370  1  0.436900  0.810500  0.143100  1.0  0.0318
  C  C371  1  0.462100  0.828900  0.185000  1.0  -0.2298
  C  C372  1  0.498300  0.862800  0.183850  1.0  -0.0895
  C  C373  1  0.398500  0.774400  0.144100  1.0  0.0341
  C  C374  1  0.393400  0.735200  0.113500  1.0  -0.2072
  C  C375  1  0.358800  0.700500  0.113800  1.0  0.2471
  C  C376  1  0.324200  0.702400  0.142900  1.0  0.0014
  C  C377  1  0.327500  0.743200  0.173500  1.0  -0.2077
  C  C378  1  0.363600  0.777600  0.175400  1.0  0.1972
  C  C379  1  0.221100  0.614400  0.102400  1.0  -0.0616
  C  C380  1  0.257500  0.647900  0.101700  1.0  -0.1426
  C  C381  1  0.284900  0.664300  0.143300  1.0  0.0736
  C  C382  1  0.275600  0.643800  0.186100  1.0  -0.1503
  C  C383  1  0.241500  0.610700  0.187400  1.0  -0.1129
  C  C384  1  0.212700  0.595400  0.145300  1.0  -0.1408
  C  C385  1  0.173800  0.557940  0.147750  1.0  0.7042
  C  C386  1  0.389800  0.657900  0.042200  1.0  -0.1303
  C  C387  1  0.331700  0.820900  0.236800  1.0  -0.0263
  C  C388  1  0.542500  0.055330  0.134800  1.0  0.6994
  C  C389  1  0.504700  0.092100  0.135700  1.0  -0.1243
  C  C390  1  0.496300  0.112300  0.178990  1.0  -0.0519
  C  C391  1  0.460000  0.147300  0.182000  1.0  -0.1824
  C  C392  1  0.433300  0.166100  0.139300  1.0  0.039
  C  C393  1  0.443100  0.145800  0.095400  1.0  -0.1254
  C  C394  1  0.478600  0.111300  0.094200  1.0  -0.0376
  C  C395  1  0.397900  0.206200  0.140700  1.0  0.2529
  C  C396  1  0.392100  0.241000  0.112400  1.0  -0.095
  C  C397  1  0.356300  0.276700  0.111400  1.0  0.1586
  C  C398  1  0.327800  0.282200  0.141900  1.0  0.1813
  C  C399  1  0.331400  0.246000  0.172200  1.0  -0.0932
  C  C400  1  0.364200  0.204900  0.174100  1.0  0.0649
  C  C401  1  0.244400  0.372500  0.185700  1.0  -0.0939
  C  C402  1  0.280200  0.338800  0.184700  1.0  -0.1296
  C  C403  1  0.290500  0.317900  0.142400  1.0  0.1079
  C  C404  1  0.265900  0.335700  0.101200  1.0  -0.1096
  C  C405  1  0.229100  0.369100  0.101400  1.0  -0.0726
  C  C406  1  0.218000  0.388200  0.143600  1.0  -0.1398
  C  C407  1  0.177400  0.424700  0.143700  1.0  0.7004
  C  C408  1  0.330600  0.167900  0.242400  1.0  -0.0396
  C  C409  1  0.633400  0.030900  0.495320  1.0  0.1742
  C  C410  1  0.636400  0.028600  0.447800  1.0  -0.2237
  C  C411  1  0.605700  0.002290  0.416300  1.0  0.1272
  C  C412  1  0.571200  0.981900  0.437200  1.0  -0.1862
  C  C413  1  0.568800  0.985700  0.486810  1.0  0.1393
  C  C414  1  0.600700  0.955800  0.291000  1.0  0.0794
  C  C415  1  0.598000  0.959300  0.340120  1.0  -0.1414
  C  C416  1  0.607150  0.998530  0.363410  1.0  0.2719
  C  C417  1  0.622200  0.036400  0.339050  1.0  -0.214
  C  C418  1  0.620500  0.028800  0.291500  1.0  0.0069
  C  C419  1  0.046500  0.579610  0.636400  1.0  0.6627
  C  C420  1  0.007900  0.619370  0.638730  1.0  -0.1382
  C  C421  1  0.983300  0.638200  0.596860  1.0  -0.0356
  C  C422  1  0.947200  0.671700  0.598900  1.0  -0.1075
  C  C423  1  0.936900  0.689500  0.643100  1.0  0.0323
  C  C424  1  0.962100  0.671100  0.685000  1.0  -0.2306
  C  C425  1  0.998300  0.637200  0.683850  1.0  -0.0897
  C  C426  1  0.898500  0.725600  0.644100  1.0  0.0345
  C  C427  1  0.893400  0.764800  0.613500  1.0  -0.2076
  C  C428  1  0.858800  0.799500  0.613800  1.0  0.2487
  C  C429  1  0.824200  0.797600  0.642900  1.0  0.0015
  C  C430  1  0.827500  0.756800  0.673500  1.0  -0.2084
  C  C431  1  0.863600  0.722400  0.675400  1.0  0.1973
  C  C432  1  0.721100  0.885600  0.602400  1.0  -0.0619
  C  C433  1  0.757500  0.852100  0.601700  1.0  -0.1425
  C  C434  1  0.784900  0.835700  0.643300  1.0  0.0733
  C  C435  1  0.775600  0.856200  0.686100  1.0  -0.1498
  C  C436  1  0.741500  0.889300  0.687400  1.0  -0.1151
  C  C437  1  0.712700  0.904600  0.645300  1.0  -0.1404
  C  C438  1  0.673800  0.942060  0.647750  1.0  0.7044
  C  C439  1  0.889800  0.842100  0.542200  1.0  -0.1274
  C  C440  1  0.831700  0.679100  0.736800  1.0  -0.0254
  C  C441  1  0.042500  0.444670  0.634800  1.0  0.6993
  C  C442  1  0.004700  0.407900  0.635700  1.0  -0.1245
  C  C443  1  0.996300  0.387700  0.678990  1.0  -0.0518
  C  C444  1  0.960000  0.352700  0.682000  1.0  -0.1812
  C  C445  1  0.933300  0.333900  0.639300  1.0  0.0396
  C  C446  1  0.943100  0.354200  0.595400  1.0  -0.1235
  C  C447  1  0.978600  0.388700  0.594200  1.0  -0.037
  C  C448  1  0.897900  0.293800  0.640700  1.0  0.2525
  C  C449  1  0.892100  0.259000  0.612400  1.0  -0.095
  C  C450  1  0.856300  0.223300  0.611400  1.0  0.158
  C  C451  1  0.827800  0.217800  0.641900  1.0  0.1818
  C  C452  1  0.831400  0.254000  0.672200  1.0  -0.0934
  C  C453  1  0.864200  0.295100  0.674100  1.0  0.0649
  C  C454  1  0.744400  0.127500  0.685700  1.0  -0.0933
  C  C455  1  0.780200  0.161200  0.684700  1.0  -0.1297
  C  C456  1  0.790500  0.182100  0.642400  1.0  0.1074
  C  C457  1  0.765900  0.164300  0.601200  1.0  -0.1089
  C  C458  1  0.729100  0.130900  0.601400  1.0  -0.0723
  C  C459  1  0.718000  0.111800  0.643600  1.0  -0.141
  C  C460  1  0.677400  0.075300  0.643700  1.0  0.7
  C  C461  1  0.830600  0.332100  0.742400  1.0  -0.039
  C  C462  1  0.133400  0.469100  0.995320  1.0  0.1739
  C  C463  1  0.136400  0.471400  0.947800  1.0  -0.225
  C  C464  1  0.105700  0.497710  0.916300  1.0  0.1277
  C  C465  1  0.071200  0.518100  0.937200  1.0  -0.1865
  C  C466  1  0.068800  0.514300  0.986810  1.0  0.139
  C  C467  1  0.100700  0.544200  0.791000  1.0  0.0781
  C  C468  1  0.098000  0.540700  0.840120  1.0  -0.1417
  C  C469  1  0.107150  0.501470  0.863410  1.0  0.2718
  C  C470  1  0.122200  0.463600  0.839050  1.0  -0.2126
  C  C471  1  0.120500  0.471200  0.791500  1.0  0.0072
  C  C472  1  0.546500  0.079610  0.636400  1.0  0.6627
  C  C473  1  0.507900  0.119370  0.638730  1.0  -0.1382
  C  C474  1  0.483300  0.138200  0.596860  1.0  -0.0356
  C  C475  1  0.447200  0.171700  0.598900  1.0  -0.1075
  C  C476  1  0.436900  0.189500  0.643100  1.0  0.0323
  C  C477  1  0.462100  0.171100  0.685000  1.0  -0.2306
  C  C478  1  0.498300  0.137200  0.683850  1.0  -0.0897
  C  C479  1  0.398500  0.225600  0.644100  1.0  0.0345
  C  C480  1  0.393400  0.264800  0.613500  1.0  -0.2076
  C  C481  1  0.358800  0.299500  0.613800  1.0  0.2487
  C  C482  1  0.324200  0.297600  0.642900  1.0  0.0015
  C  C483  1  0.327500  0.256800  0.673500  1.0  -0.2084
  C  C484  1  0.363600  0.222400  0.675400  1.0  0.1973
  C  C485  1  0.221100  0.385600  0.602400  1.0  -0.0619
  C  C486  1  0.257500  0.352100  0.601700  1.0  -0.1425
  C  C487  1  0.284900  0.335700  0.643300  1.0  0.0733
  C  C488  1  0.275600  0.356200  0.686100  1.0  -0.1498
  C  C489  1  0.241500  0.389300  0.687400  1.0  -0.1151
  C  C490  1  0.212700  0.404600  0.645300  1.0  -0.1404
  C  C491  1  0.173800  0.442060  0.647750  1.0  0.7044
  C  C492  1  0.389800  0.342100  0.542200  1.0  -0.1274
  C  C493  1  0.331700  0.179100  0.736800  1.0  -0.0254
  C  C494  1  0.542500  0.944670  0.634800  1.0  0.6993
  C  C495  1  0.504700  0.907900  0.635700  1.0  -0.1245
  C  C496  1  0.496300  0.887700  0.678990  1.0  -0.0518
  C  C497  1  0.460000  0.852700  0.682000  1.0  -0.1812
  C  C498  1  0.433300  0.833900  0.639300  1.0  0.0396
  C  C499  1  0.443100  0.854200  0.595400  1.0  -0.1235
  C  C500  1  0.478600  0.888700  0.594200  1.0  -0.037
  C  C501  1  0.397900  0.793800  0.640700  1.0  0.2525
  C  C502  1  0.392100  0.759000  0.612400  1.0  -0.095
  C  C503  1  0.356300  0.723300  0.611400  1.0  0.158
  C  C504  1  0.327800  0.717800  0.641900  1.0  0.1818
  C  C505  1  0.331400  0.754000  0.672200  1.0  -0.0934
  C  C506  1  0.364200  0.795100  0.674100  1.0  0.0649
  C  C507  1  0.244400  0.627500  0.685700  1.0  -0.0933
  C  C508  1  0.280200  0.661200  0.684700  1.0  -0.1297
  C  C509  1  0.290500  0.682100  0.642400  1.0  0.1074
  C  C510  1  0.265900  0.664300  0.601200  1.0  -0.1089
  C  C511  1  0.229100  0.630900  0.601400  1.0  -0.0723
  C  C512  1  0.218000  0.611800  0.643600  1.0  -0.141
  C  C513  1  0.177400  0.575300  0.643700  1.0  0.7
  C  C514  1  0.330600  0.832100  0.742400  1.0  -0.039
  C  C515  1  0.633400  0.969100  0.995320  1.0  0.1739
  C  C516  1  0.636400  0.971400  0.947800  1.0  -0.225
  C  C517  1  0.605700  0.997710  0.916300  1.0  0.1277
  C  C518  1  0.571200  0.018100  0.937200  1.0  -0.1865
  C  C519  1  0.568800  0.014300  0.986810  1.0  0.139
  C  C520  1  0.600700  0.044200  0.791000  1.0  0.0781
  C  C521  1  0.598000  0.040700  0.840120  1.0  -0.1417
  C  C522  1  0.607150  0.001470  0.863410  1.0  0.2718
  C  C523  1  0.622200  0.963600  0.839050  1.0  -0.2126
  C  C524  1  0.620500  0.971200  0.791500  1.0  0.0072
  C  C525  1  0.953500  0.420390  0.363600  1.0  0.6648
  C  C526  1  0.992100  0.380630  0.361270  1.0  -0.1397
  C  C527  1  0.016700  0.361800  0.403140  1.0  -0.0344
  C  C528  1  0.052800  0.328300  0.401100  1.0  -0.106
  C  C529  1  0.063100  0.310500  0.356900  1.0  0.0328
  C  C530  1  0.037900  0.328900  0.315000  1.0  -0.2288
  C  C531  1  0.001700  0.362800  0.316150  1.0  -0.0902
  C  C532  1  0.101500  0.274400  0.355900  1.0  0.0347
  C  C533  1  0.106600  0.235200  0.386500  1.0  -0.2083
  C  C534  1  0.141200  0.200500  0.386200  1.0  0.2473
  C  C535  1  0.175800  0.202400  0.357100  1.0  0.0016
  C  C536  1  0.172500  0.243200  0.326500  1.0  -0.2088
  C  C537  1  0.136400  0.277600  0.324600  1.0  0.1974
  C  C538  1  0.278900  0.114400  0.397600  1.0  -0.0608
  C  C539  1  0.242500  0.147900  0.398300  1.0  -0.1416
  C  C540  1  0.215100  0.164300  0.356700  1.0  0.0732
  C  C541  1  0.224400  0.143800  0.313900  1.0  -0.1512
  C  C542  1  0.258500  0.110700  0.312600  1.0  -0.1128
  C  C543  1  0.287300  0.095400  0.354700  1.0  -0.1402
  C  C544  1  0.326200  0.057940  0.352250  1.0  0.7033
  C  C545  1  0.110200  0.157900  0.457800  1.0  -0.1283
  C  C546  1  0.168300  0.320900  0.263200  1.0  -0.0266
  C  C547  1  0.957500  0.555330  0.365200  1.0  0.6995
  C  C548  1  0.995300  0.592100  0.364300  1.0  -0.1255
  C  C549  1  0.003700  0.612300  0.321010  1.0  -0.0509
  C  C550  1  0.040000  0.647300  0.318000  1.0  -0.1832
  C  C551  1  0.066700  0.666100  0.360700  1.0  0.0382
  C  C552  1  0.056900  0.645800  0.404600  1.0  -0.1246
  C  C553  1  0.021400  0.611300  0.405800  1.0  -0.0362
  C  C554  1  0.102100  0.706200  0.359300  1.0  0.2536
  C  C555  1  0.107900  0.741000  0.387600  1.0  -0.0963
  C  C556  1  0.143700  0.776700  0.388600  1.0  0.1604
  C  C557  1  0.172200  0.782200  0.358100  1.0  0.1826
  C  C558  1  0.168600  0.746000  0.327800  1.0  -0.0932
  C  C559  1  0.135800  0.704900  0.325900  1.0  0.0643
  C  C560  1  0.255600  0.872500  0.314300  1.0  -0.0949
  C  C561  1  0.219800  0.838800  0.315300  1.0  -0.1291
  C  C562  1  0.209500  0.817900  0.357600  1.0  0.1079
  C  C563  1  0.234100  0.835700  0.398800  1.0  -0.1091
  C  C564  1  0.270900  0.869100  0.398600  1.0  -0.0739
  C  C565  1  0.282000  0.888200  0.356400  1.0  -0.1405
  C  C566  1  0.322600  0.924700  0.356300  1.0  0.7001
  C  C567  1  0.169400  0.667900  0.257600  1.0  -0.0404
  C  C568  1  0.866600  0.530900  0.004680  1.0  0.1747
  C  C569  1  0.863600  0.528600  0.052200  1.0  -0.2257
  C  C570  1  0.894300  0.502290  0.083700  1.0  0.1303
  C  C571  1  0.928800  0.481900  0.062800  1.0  -0.1861
  C  C572  1  0.931200  0.485700  0.013190  1.0  0.1388
  C  C573  1  0.899300  0.455800  0.209000  1.0  0.0786
  C  C574  1  0.902000  0.459300  0.159880  1.0  -0.1433
  C  C575  1  0.892850  0.498530  0.136590  1.0  0.2744
  C  C576  1  0.877800  0.536400  0.160950  1.0  -0.213
  C  C577  1  0.879500  0.528800  0.208500  1.0  0.0055
  C  C578  1  0.453500  0.920390  0.363600  1.0  0.6648
  C  C579  1  0.492100  0.880630  0.361270  1.0  -0.1397
  C  C580  1  0.516700  0.861800  0.403140  1.0  -0.0344
  C  C581  1  0.552800  0.828300  0.401100  1.0  -0.106
  C  C582  1  0.563100  0.810500  0.356900  1.0  0.0328
  C  C583  1  0.537900  0.828900  0.315000  1.0  -0.2288
  C  C584  1  0.501700  0.862800  0.316150  1.0  -0.0902
  C  C585  1  0.601500  0.774400  0.355900  1.0  0.0347
  C  C586  1  0.606600  0.735200  0.386500  1.0  -0.2083
  C  C587  1  0.641200  0.700500  0.386200  1.0  0.2473
  C  C588  1  0.675800  0.702400  0.357100  1.0  0.0016
  C  C589  1  0.672500  0.743200  0.326500  1.0  -0.2088
  C  C590  1  0.636400  0.777600  0.324600  1.0  0.1974
  C  C591  1  0.778900  0.614400  0.397600  1.0  -0.0608
  C  C592  1  0.742500  0.647900  0.398300  1.0  -0.1416
  C  C593  1  0.715100  0.664300  0.356700  1.0  0.0732
  C  C594  1  0.724400  0.643800  0.313900  1.0  -0.1512
  C  C595  1  0.758500  0.610700  0.312600  1.0  -0.1128
  C  C596  1  0.787300  0.595400  0.354700  1.0  -0.1402
  C  C597  1  0.826200  0.557940  0.352250  1.0  0.7033
  C  C598  1  0.610200  0.657900  0.457800  1.0  -0.1283
  C  C599  1  0.668300  0.820900  0.263200  1.0  -0.0266
  C  C600  1  0.457500  0.055330  0.365200  1.0  0.6995
  C  C601  1  0.495300  0.092100  0.364300  1.0  -0.1255
  C  C602  1  0.503700  0.112300  0.321010  1.0  -0.0509
  C  C603  1  0.540000  0.147300  0.318000  1.0  -0.1832
  C  C604  1  0.566700  0.166100  0.360700  1.0  0.0382
  C  C605  1  0.556900  0.145800  0.404600  1.0  -0.1246
  C  C606  1  0.521400  0.111300  0.405800  1.0  -0.0362
  C  C607  1  0.602100  0.206200  0.359300  1.0  0.2536
  C  C608  1  0.607900  0.241000  0.387600  1.0  -0.0963
  C  C609  1  0.643700  0.276700  0.388600  1.0  0.1604
  C  C610  1  0.672200  0.282200  0.358100  1.0  0.1826
  C  C611  1  0.668600  0.246000  0.327800  1.0  -0.0932
  C  C612  1  0.635800  0.204900  0.325900  1.0  0.0643
  C  C613  1  0.755600  0.372500  0.314300  1.0  -0.0949
  C  C614  1  0.719800  0.338800  0.315300  1.0  -0.1291
  C  C615  1  0.709500  0.317900  0.357600  1.0  0.1079
  C  C616  1  0.734100  0.335700  0.398800  1.0  -0.1091
  C  C617  1  0.770900  0.369100  0.398600  1.0  -0.0739
  C  C618  1  0.782000  0.388200  0.356400  1.0  -0.1405
  C  C619  1  0.822600  0.424700  0.356300  1.0  0.7001
  C  C620  1  0.669400  0.167900  0.257600  1.0  -0.0404
  C  C621  1  0.366600  0.030900  0.004680  1.0  0.1747
  C  C622  1  0.363600  0.028600  0.052200  1.0  -0.2257
  C  C623  1  0.394300  0.002290  0.083700  1.0  0.1303
  C  C624  1  0.428800  0.981900  0.062800  1.0  -0.1861
  C  C625  1  0.431200  0.985700  0.013190  1.0  0.1388
  C  C626  1  0.399300  0.955800  0.209000  1.0  0.0786
  C  C627  1  0.402000  0.959300  0.159880  1.0  -0.1433
  C  C628  1  0.392850  0.998530  0.136590  1.0  0.2744
  C  C629  1  0.377800  0.036400  0.160950  1.0  -0.213
  C  C630  1  0.379500  0.028800  0.208500  1.0  0.0055
  C  C631  1  0.953500  0.579610  0.863600  1.0  0.6639
  C  C632  1  0.992100  0.619370  0.861270  1.0  -0.1388
  C  C633  1  0.016700  0.638200  0.903140  1.0  -0.0361
  C  C634  1  0.052800  0.671700  0.901100  1.0  -0.1057
  C  C635  1  0.063100  0.689500  0.856900  1.0  0.0333
  C  C636  1  0.037900  0.671100  0.815000  1.0  -0.2298
  C  C637  1  0.001700  0.637200  0.816150  1.0  -0.0904
  C  C638  1  0.101500  0.725600  0.855900  1.0  0.035
  C  C639  1  0.106600  0.764800  0.886500  1.0  -0.2087
  C  C640  1  0.141200  0.799500  0.886200  1.0  0.2484
  C  C641  1  0.175800  0.797600  0.857100  1.0  0.0016
  C  C642  1  0.172500  0.756800  0.826500  1.0  -0.2093
  C  C643  1  0.136400  0.722400  0.824600  1.0  0.1974
  C  C644  1  0.278900  0.885600  0.897600  1.0  -0.0615
  C  C645  1  0.242500  0.852100  0.898300  1.0  -0.1415
  C  C646  1  0.215100  0.835700  0.856700  1.0  0.0732
  C  C647  1  0.224400  0.856200  0.813900  1.0  -0.1507
  C  C648  1  0.258500  0.889300  0.812600  1.0  -0.1128
  C  C649  1  0.287300  0.904600  0.854700  1.0  -0.14
  C  C650  1  0.326200  0.942060  0.852250  1.0  0.7038
  C  C651  1  0.110200  0.842100  0.957800  1.0  -0.129
  C  C652  1  0.168300  0.679100  0.763200  1.0  -0.0263
  C  C653  1  0.957500  0.444670  0.865200  1.0  0.6997
  C  C654  1  0.995300  0.407900  0.864300  1.0  -0.1257
  C  C655  1  0.003700  0.387700  0.821010  1.0  -0.0506
  C  C656  1  0.040000  0.352700  0.818000  1.0  -0.1809
  C  C657  1  0.066700  0.333900  0.860700  1.0  0.0387
  C  C658  1  0.056900  0.354200  0.904600  1.0  -0.1247
  C  C659  1  0.021400  0.388700  0.905800  1.0  -0.0357
  C  C660  1  0.102100  0.293800  0.859300  1.0  0.2529
  C  C661  1  0.107900  0.259000  0.887600  1.0  -0.0963
  C  C662  1  0.143700  0.223300  0.888600  1.0  0.16
  C  C663  1  0.172200  0.217800  0.858100  1.0  0.1829
  C  C664  1  0.168600  0.254000  0.827800  1.0  -0.0933
  C  C665  1  0.135800  0.295100  0.825900  1.0  0.0647
  C  C666  1  0.255600  0.127500  0.814300  1.0  -0.0947
  C  C667  1  0.219800  0.161200  0.815300  1.0  -0.1295
  C  C668  1  0.209500  0.182100  0.857600  1.0  0.1077
  C  C669  1  0.234100  0.164300  0.898800  1.0  -0.1091
  C  C670  1  0.270900  0.130900  0.898600  1.0  -0.0734
  C  C671  1  0.282000  0.111800  0.856400  1.0  -0.1405
  C  C672  1  0.322600  0.075300  0.856300  1.0  0.6997
  C  C673  1  0.169400  0.332100  0.757600  1.0  -0.0405
  C  C674  1  0.866600  0.469100  0.504680  1.0  0.1745
  C  C675  1  0.863600  0.471400  0.552200  1.0  -0.2267
  C  C676  1  0.894300  0.497710  0.583700  1.0  0.1304
  C  C677  1  0.928800  0.518100  0.562800  1.0  -0.1856
  C  C678  1  0.931200  0.514300  0.513190  1.0  0.1395
  C  C679  1  0.899300  0.544200  0.709000  1.0  0.078
  C  C680  1  0.902000  0.540700  0.659880  1.0  -0.1433
  C  C681  1  0.892850  0.501470  0.636590  1.0  0.2745
  C  C682  1  0.877800  0.463600  0.660950  1.0  -0.2121
  C  C683  1  0.879500  0.471200  0.708500  1.0  0.0062
  C  C684  1  0.453500  0.079610  0.863600  1.0  0.6639
  C  C685  1  0.492100  0.119370  0.861270  1.0  -0.1388
  C  C686  1  0.516700  0.138200  0.903140  1.0  -0.0361
  C  C687  1  0.552800  0.171700  0.901100  1.0  -0.1057
  C  C688  1  0.563100  0.189500  0.856900  1.0  0.0333
  C  C689  1  0.537900  0.171100  0.815000  1.0  -0.2298
  C  C690  1  0.501700  0.137200  0.816150  1.0  -0.0904
  C  C691  1  0.601500  0.225600  0.855900  1.0  0.035
  C  C692  1  0.606600  0.264800  0.886500  1.0  -0.2087
  C  C693  1  0.641200  0.299500  0.886200  1.0  0.2484
  C  C694  1  0.675800  0.297600  0.857100  1.0  0.0016
  C  C695  1  0.672500  0.256800  0.826500  1.0  -0.2093
  C  C696  1  0.636400  0.222400  0.824600  1.0  0.1974
  C  C697  1  0.778900  0.385600  0.897600  1.0  -0.0615
  C  C698  1  0.742500  0.352100  0.898300  1.0  -0.1415
  C  C699  1  0.715100  0.335700  0.856700  1.0  0.0732
  C  C700  1  0.724400  0.356200  0.813900  1.0  -0.1507
  C  C701  1  0.758500  0.389300  0.812600  1.0  -0.1128
  C  C702  1  0.787300  0.404600  0.854700  1.0  -0.14
  C  C703  1  0.826200  0.442060  0.852250  1.0  0.7038
  C  C704  1  0.610200  0.342100  0.957800  1.0  -0.129
  C  C705  1  0.668300  0.179100  0.763200  1.0  -0.0263
  C  C706  1  0.457500  0.944670  0.865200  1.0  0.6997
  C  C707  1  0.495300  0.907900  0.864300  1.0  -0.1257
  C  C708  1  0.503700  0.887700  0.821010  1.0  -0.0506
  C  C709  1  0.540000  0.852700  0.818000  1.0  -0.1809
  C  C710  1  0.566700  0.833900  0.860700  1.0  0.0387
  C  C711  1  0.556900  0.854200  0.904600  1.0  -0.1247
  C  C712  1  0.521400  0.888700  0.905800  1.0  -0.0357
  C  C713  1  0.602100  0.793800  0.859300  1.0  0.2529
  C  C714  1  0.607900  0.759000  0.887600  1.0  -0.0963
  C  C715  1  0.643700  0.723300  0.888600  1.0  0.16
  C  C716  1  0.672200  0.717800  0.858100  1.0  0.1829
  C  C717  1  0.668600  0.754000  0.827800  1.0  -0.0933
  C  C718  1  0.635800  0.795100  0.825900  1.0  0.0647
  C  C719  1  0.755600  0.627500  0.814300  1.0  -0.0947
  C  C720  1  0.719800  0.661200  0.815300  1.0  -0.1295
  C  C721  1  0.709500  0.682100  0.857600  1.0  0.1077
  C  C722  1  0.734100  0.664300  0.898800  1.0  -0.1091
  C  C723  1  0.770900  0.630900  0.898600  1.0  -0.0734
  C  C724  1  0.782000  0.611800  0.856400  1.0  -0.1405
  C  C725  1  0.822600  0.575300  0.856300  1.0  0.6997
  C  C726  1  0.669400  0.832100  0.757600  1.0  -0.0405
  C  C727  1  0.366600  0.969100  0.504680  1.0  0.1745
  C  C728  1  0.363600  0.971400  0.552200  1.0  -0.2267
  C  C729  1  0.394300  0.997710  0.583700  1.0  0.1304
  C  C730  1  0.428800  0.018100  0.562800  1.0  -0.1856
  C  C731  1  0.431200  0.014300  0.513190  1.0  0.1395
  C  C732  1  0.399300  0.044200  0.709000  1.0  0.078
  C  C733  1  0.402000  0.040700  0.659880  1.0  -0.1433
  C  C734  1  0.392850  0.001470  0.636590  1.0  0.2745
  C  C735  1  0.377800  0.963600  0.660950  1.0  -0.2121
  C  C736  1  0.379500  0.971200  0.708500  1.0  0.0062
  N  N737  1  0.101100  0.507980  0.514910  1.0  -0.274
  N  N738  1  0.114000  0.493060  0.266390  1.0  -0.1864
  N  N739  1  0.601100  0.007980  0.514910  1.0  -0.274
  N  N740  1  0.614000  0.993060  0.266390  1.0  -0.1864
  N  N741  1  0.101100  0.492020  0.014910  1.0  -0.2736
  N  N742  1  0.114000  0.506940  0.766390  1.0  -0.186
  N  N743  1  0.601100  0.992020  0.014910  1.0  -0.2736
  N  N744  1  0.614000  0.006940  0.766390  1.0  -0.186
  N  N745  1  0.898900  0.507980  0.985090  1.0  -0.2768
  N  N746  1  0.886000  0.493060  0.233610  1.0  -0.1817
  N  N747  1  0.398900  0.007980  0.985090  1.0  -0.2768
  N  N748  1  0.386000  0.993060  0.233610  1.0  -0.1817
  N  N749  1  0.898900  0.492020  0.485090  1.0  -0.2768
  N  N750  1  0.886000  0.506940  0.733610  1.0  -0.1823
  N  N751  1  0.398900  0.992020  0.485090  1.0  -0.2768
  N  N752  1  0.386000  0.006940  0.733610  1.0  -0.1823
  O  O753  1  0.053050  0.436410  0.097460  1.0  -0.55
  O  O754  1  0.067920  0.434810  0.177800  1.0  -0.607
  O  O755  1  0.653080  0.043150  0.107850  1.0  -0.6082
  O  O756  1  0.666340  0.044690  0.188070  1.0  -0.5922
  O  O757  1  0.856700  0.159300  0.082500  1.0  -0.3397
  O  O758  1  0.867000  0.319800  0.205300  1.0  -0.2795
  O  O759  1  0.063860  0.539730  0.174110  1.0  -0.6157
  O  O760  1  0.050550  0.540850  0.093940  1.0  -0.5796
  O  O761  1  0.669950  0.940100  0.185020  1.0  -0.5881
  O  O762  1  0.655930  0.939120  0.104510  1.0  -0.599
  O  O763  1  0.868400  0.824900  0.079900  1.0  -0.4922
  O  O764  1  0.863200  0.663200  0.209100  1.0  -0.2945
  O  O765  1  0.553050  0.936410  0.097460  1.0  -0.55
  O  O766  1  0.567920  0.934810  0.177800  1.0  -0.607
  O  O767  1  0.153080  0.543150  0.107850  1.0  -0.6086
  O  O768  1  0.166340  0.544690  0.188070  1.0  -0.5922
  O  O769  1  0.356700  0.659300  0.082500  1.0  -0.3397
  O  O770  1  0.367000  0.819800  0.205300  1.0  -0.2795
  O  O771  1  0.563860  0.039730  0.174110  1.0  -0.6157
  O  O772  1  0.550550  0.040850  0.093940  1.0  -0.5796
  O  O773  1  0.169950  0.440100  0.185020  1.0  -0.5881
  O  O774  1  0.155930  0.439120  0.104510  1.0  -0.599
  O  O775  1  0.368400  0.324900  0.079900  1.0  -0.4922
  O  O776  1  0.363200  0.163200  0.209100  1.0  -0.2945
  O  O777  1  0.053050  0.563590  0.597460  1.0  -0.5505
  O  O778  1  0.067920  0.565190  0.677800  1.0  -0.6073
  O  O779  1  0.653080  0.956850  0.607850  1.0  -0.6088
  O  O780  1  0.666340  0.955310  0.688070  1.0  -0.5919
  O  O781  1  0.856700  0.840700  0.582500  1.0  -0.3412
  O  O782  1  0.867000  0.680200  0.705300  1.0  -0.2801
  O  O783  1  0.063860  0.460270  0.674110  1.0  -0.6161
  O  O784  1  0.050550  0.459150  0.593940  1.0  -0.5792
  O  O785  1  0.669950  0.059900  0.685020  1.0  -0.5882
  O  O786  1  0.655930  0.060880  0.604510  1.0  -0.5984
  O  O787  1  0.868400  0.175100  0.579900  1.0  -0.4839
  O  O788  1  0.863200  0.336800  0.709100  1.0  -0.2942
  O  O789  1  0.553050  0.063590  0.597460  1.0  -0.5505
  O  O790  1  0.567920  0.065190  0.677800  1.0  -0.6073
  O  O791  1  0.153080  0.456850  0.607850  1.0  -0.6092
  O  O792  1  0.166340  0.455310  0.688070  1.0  -0.5919
  O  O793  1  0.356700  0.340700  0.582500  1.0  -0.3412
  O  O794  1  0.367000  0.180200  0.705300  1.0  -0.2801
  O  O795  1  0.563860  0.960270  0.674110  1.0  -0.616
  O  O796  1  0.550550  0.959150  0.593940  1.0  -0.5792
  O  O797  1  0.169950  0.559900  0.685020  1.0  -0.5882
  O  O798  1  0.155930  0.560880  0.604510  1.0  -0.5984
  O  O799  1  0.368400  0.675100  0.579900  1.0  -0.4839
  O  O800  1  0.363200  0.836800  0.709100  1.0  -0.2942
  O  O801  1  0.946950  0.436410  0.402540  1.0  -0.5495
  O  O802  1  0.932080  0.434810  0.322200  1.0  -0.6086
  O  O803  1  0.346920  0.043150  0.392150  1.0  -0.6082
  O  O804  1  0.333660  0.044690  0.311930  1.0  -0.5927
  O  O805  1  0.143300  0.159300  0.417500  1.0  -0.3378
  O  O806  1  0.133000  0.319800  0.294700  1.0  -0.2809
  O  O807  1  0.936140  0.539730  0.325890  1.0  -0.6153
  O  O808  1  0.949450  0.540850  0.406060  1.0  -0.5803
  O  O809  1  0.330050  0.940100  0.314980  1.0  -0.5882
  O  O810  1  0.344070  0.939120  0.395490  1.0  -0.5995
  O  O811  1  0.131600  0.824900  0.420100  1.0  -0.4843
  O  O812  1  0.136800  0.663200  0.290900  1.0  -0.2963
  O  O813  1  0.446950  0.936410  0.402540  1.0  -0.5495
  O  O814  1  0.432080  0.934810  0.322200  1.0  -0.6086
  O  O815  1  0.846920  0.543150  0.392150  1.0  -0.6086
  O  O816  1  0.833660  0.544690  0.311930  1.0  -0.5927
  O  O817  1  0.643300  0.659300  0.417500  1.0  -0.3378
  O  O818  1  0.633000  0.819800  0.294700  1.0  -0.2809
  O  O819  1  0.436140  0.039730  0.325890  1.0  -0.6152
  O  O820  1  0.449450  0.040850  0.406060  1.0  -0.5803
  O  O821  1  0.830050  0.440100  0.314980  1.0  -0.5882
  O  O822  1  0.844070  0.439120  0.395490  1.0  -0.5995
  O  O823  1  0.631600  0.324900  0.420100  1.0  -0.4843
  O  O824  1  0.636800  0.163200  0.290900  1.0  -0.2963
  O  O825  1  0.946950  0.563590  0.902540  1.0  -0.5498
  O  O826  1  0.932080  0.565190  0.822200  1.0  -0.6083
  O  O827  1  0.346920  0.956850  0.892150  1.0  -0.6084
  O  O828  1  0.333660  0.955310  0.811930  1.0  -0.5926
  O  O829  1  0.143300  0.840700  0.917500  1.0  -0.3392
  O  O830  1  0.133000  0.680200  0.794700  1.0  -0.2813
  O  O831  1  0.936140  0.460270  0.825890  1.0  -0.6159
  O  O832  1  0.949450  0.459150  0.906060  1.0  -0.5802
  O  O833  1  0.330050  0.059900  0.814980  1.0  -0.5883
  O  O834  1  0.344070  0.060880  0.895490  1.0  -0.5991
  O  O835  1  0.131600  0.175100  0.920100  1.0  -0.4899
  O  O836  1  0.136800  0.336800  0.790900  1.0  -0.2963
  O  O837  1  0.446950  0.063590  0.902540  1.0  -0.5498
  O  O838  1  0.432080  0.065190  0.822200  1.0  -0.6083
  O  O839  1  0.846920  0.456850  0.892150  1.0  -0.6088
  O  O840  1  0.833660  0.455310  0.811930  1.0  -0.5926
  O  O841  1  0.643300  0.340700  0.917500  1.0  -0.3392
  O  O842  1  0.633000  0.180200  0.794700  1.0  -0.2813
  O  O843  1  0.436140  0.960270  0.825890  1.0  -0.6157
  O  O844  1  0.449450  0.959150  0.906060  1.0  -0.5802
  O  O845  1  0.830050  0.559900  0.814980  1.0  -0.5883
  O  O846  1  0.844070  0.560880  0.895490  1.0  -0.5991
  O  O847  1  0.631600  0.675100  0.920100  1.0  -0.4899
  O  O848  1  0.636800  0.836800  0.790900  1.0  -0.2963
