# generated using pymatgen
data_Zn2H41C56(NO6)2
_symmetry_space_group_name_H-M   'P 1'
_cell_length_a   38.97800000
_cell_length_b   27.43300000
_cell_length_c   27.37700000
_cell_angle_alpha   90.00000000
_cell_angle_beta   133.80600000
_cell_angle_gamma   90.00000000
_symmetry_Int_Tables_number   1
_chemical_formula_structural   Zn2H41C56(NO6)2
_chemical_formula_sum   'Zn16 H328 C448 N16 O96'
_cell_volume   21126.52364960
_cell_formula_units_Z   8
loop_
 _symmetry_equiv_pos_site_id
 _symmetry_equiv_pos_as_xyz
  1  'x, y, z'
loop_
 _atom_site_type_symbol
 _atom_site_label
 _atom_site_symmetry_multiplicity
 _atom_site_fract_x
 _atom_site_fract_y
 _atom_site_fract_z
 _atom_site_occupancy
 _atom_site_charge
  Zn  Zn1  1  0.048560  0.253130  0.695400  1.0  0.9029
  Zn  Zn2  1  0.152910  0.246800  0.799230  1.0  0.9135
  Zn  Zn3  1  0.548560  0.753130  0.695400  1.0  0.9029
  Zn  Zn4  1  0.652910  0.746800  0.799230  1.0  0.9135
  Zn  Zn5  1  0.048560  0.746870  0.195400  1.0  0.9028
  Zn  Zn6  1  0.152910  0.753200  0.299230  1.0  0.9135
  Zn  Zn7  1  0.548560  0.246870  0.195400  1.0  0.9028
  Zn  Zn8  1  0.652910  0.253200  0.299230  1.0  0.9135
  Zn  Zn9  1  0.951440  0.253130  0.804600  1.0  0.9038
  Zn  Zn10  1  0.847090  0.246800  0.700770  1.0  0.9132
  Zn  Zn11  1  0.451440  0.753130  0.804600  1.0  0.9038
  Zn  Zn12  1  0.347090  0.746800  0.700770  1.0  0.9132
  Zn  Zn13  1  0.951440  0.746870  0.304600  1.0  0.9037
  Zn  Zn14  1  0.847090  0.753200  0.200770  1.0  0.9132
  Zn  Zn15  1  0.451440  0.246870  0.304600  1.0  0.9037
  Zn  Zn16  1  0.347090  0.253200  0.200770  1.0  0.9132
  H  H17  1  0.967600  0.297700  0.672500  1.0  0.0798
  H  H18  1  0.967600  0.220900  0.553000  1.0  0.0854
  H  H19  1  0.886500  0.300900  0.591900  1.0  0.1135
  H  H20  1  0.886900  0.222500  0.470700  1.0  0.1247
  H  H21  1  0.036700  0.389900  0.764600  1.0  0.1047
  H  H22  1  0.176700  0.375700  0.914100  1.0  0.1007
  H  H23  1  0.021000  0.114700  0.589900  1.0  0.1109
  H  H24  1  0.162400  0.124500  0.711000  1.0  0.108
  H  H25  1  0.038700  0.453000  0.822300  1.0  0.114
  H  H26  1  0.178900  0.437200  0.974100  1.0  0.1049
  H  H27  1  0.018200  0.053300  0.530700  1.0  0.0933
  H  H28  1  0.159100  0.058800  0.653200  1.0  0.1069
  H  H29  1  0.814100  0.278700  0.526400  1.0  0.0966
  H  H30  1  0.814600  0.243000  0.391700  1.0  0.1107
  H  H31  1  0.733100  0.277400  0.443600  1.0  0.0666
  H  H32  1  0.733800  0.247700  0.311700  1.0  0.0898
  H  H33  1  0.057800  0.531700  0.857600  1.0  0.1374
  H  H34  1  0.136800  0.968200  0.628800  1.0  0.122
  H  H35  1  0.166200  0.518200  0.091900  1.0  0.1289
  H  H36  1  0.031400  0.976300  0.395700  1.0  0.1149
  H  H37  1  0.200000  0.469400  0.139400  1.0  0.0717
  H  H38  1  0.214700  0.416100  0.137400  1.0  0.12
  H  H39  1  0.272300  0.476700  0.179100  1.0  0.0958
  H  H40  1  0.236700  0.501800  0.109700  1.0  0.0898
  H  H41  1  0.024900  0.599600  0.810600  1.0  0.1056
  H  H42  1  0.983500  0.596100  0.809500  1.0  0.1109
  H  H43  1  0.039900  0.610100  0.988000  1.0  0.1003
  H  H44  1  0.180700  0.609100  0.131800  1.0  0.1145
  H  H45  1  0.274900  0.482800  0.087200  1.0  0.0487
  H  H46  1  0.314300  0.464500  0.161500  1.0  0.0555
  H  H47  1  0.984900  0.677100  0.783900  1.0  0.1281
  H  H48  1  0.999000  0.674700  0.851900  1.0  0.1589
  H  H49  1  0.021700  0.882900  0.367300  1.0  0.0945
  H  H50  1  0.162600  0.900600  0.500500  1.0  0.12
  H  H51  1  0.036900  0.660400  0.053600  1.0  0.1117
  H  H52  1  0.178900  0.660400  0.197700  1.0  0.1077
  H  H53  1  0.304400  0.420700  0.095100  1.0  0.0725
  H  H54  1  0.250600  0.413900  0.055800  1.0  0.0805
  H  H55  1  0.290300  0.395500  0.130600  1.0  0.1
  H  H56  1  0.024400  0.828000  0.306600  1.0  0.1234
  H  H57  1  0.165100  0.849400  0.436300  1.0  0.098
  H  H58  1  0.467600  0.797700  0.672500  1.0  0.0798
  H  H59  1  0.467600  0.720900  0.553000  1.0  0.0854
  H  H60  1  0.386500  0.800900  0.591900  1.0  0.1135
  H  H61  1  0.386900  0.722500  0.470700  1.0  0.1247
  H  H62  1  0.536700  0.889900  0.764600  1.0  0.1047
  H  H63  1  0.676700  0.875700  0.914100  1.0  0.1007
  H  H64  1  0.521000  0.614700  0.589900  1.0  0.1109
  H  H65  1  0.662400  0.624500  0.711000  1.0  0.108
  H  H66  1  0.538700  0.953000  0.822300  1.0  0.114
  H  H67  1  0.678900  0.937200  0.974100  1.0  0.1049
  H  H68  1  0.518200  0.553300  0.530700  1.0  0.0933
  H  H69  1  0.659100  0.558800  0.653200  1.0  0.1069
  H  H70  1  0.314100  0.778700  0.526400  1.0  0.0966
  H  H71  1  0.314600  0.743000  0.391700  1.0  0.1107
  H  H72  1  0.233100  0.777400  0.443600  1.0  0.0666
  H  H73  1  0.233800  0.747700  0.311700  1.0  0.0898
  H  H74  1  0.557800  0.031700  0.857600  1.0  0.1374
  H  H75  1  0.636800  0.468200  0.628800  1.0  0.122
  H  H76  1  0.666200  0.018200  0.091900  1.0  0.1289
  H  H77  1  0.531400  0.476300  0.395700  1.0  0.1151
  H  H78  1  0.700000  0.969400  0.139400  1.0  0.0717
  H  H79  1  0.714700  0.916100  0.137400  1.0  0.12
  H  H80  1  0.772300  0.976700  0.179100  1.0  0.0958
  H  H81  1  0.736700  0.001800  0.109700  1.0  0.0898
  H  H82  1  0.524900  0.099600  0.810600  1.0  0.1056
  H  H83  1  0.483500  0.096100  0.809500  1.0  0.1109
  H  H84  1  0.539900  0.110100  0.988000  1.0  0.1003
  H  H85  1  0.680700  0.109100  0.131800  1.0  0.1145
  H  H86  1  0.774900  0.982800  0.087200  1.0  0.0487
  H  H87  1  0.814300  0.964500  0.161500  1.0  0.052
  H  H88  1  0.484900  0.177100  0.783900  1.0  0.1281
  H  H89  1  0.499000  0.174700  0.851900  1.0  0.1589
  H  H90  1  0.521700  0.382900  0.367300  1.0  0.0945
  H  H91  1  0.662600  0.400600  0.500500  1.0  0.12
  H  H92  1  0.536900  0.160400  0.053600  1.0  0.1117
  H  H93  1  0.678900  0.160400  0.197700  1.0  0.1077
  H  H94  1  0.804400  0.920700  0.095100  1.0  0.0725
  H  H95  1  0.750600  0.913900  0.055800  1.0  0.0805
  H  H96  1  0.790300  0.895500  0.130600  1.0  0.1
  H  H97  1  0.524400  0.328000  0.306600  1.0  0.1234
  H  H98  1  0.665100  0.349400  0.436300  1.0  0.098
  H  H99  1  0.967600  0.702300  0.172500  1.0  0.0801
  H  H100  1  0.967600  0.779100  0.053000  1.0  0.0853
  H  H101  1  0.886500  0.699100  0.091900  1.0  0.1134
  H  H102  1  0.886900  0.777500  0.970700  1.0  0.125
  H  H103  1  0.036700  0.610100  0.264600  1.0  0.1046
  H  H104  1  0.176700  0.624300  0.414100  1.0  0.1009
  H  H105  1  0.021000  0.885300  0.089900  1.0  0.1108
  H  H106  1  0.162400  0.875500  0.211000  1.0  0.1079
  H  H107  1  0.038700  0.547000  0.322300  1.0  0.1143
  H  H108  1  0.178900  0.562800  0.474100  1.0  0.1048
  H  H109  1  0.018200  0.946700  0.030700  1.0  0.093
  H  H110  1  0.159100  0.941200  0.153200  1.0  0.1071
  H  H111  1  0.814100  0.721300  0.026400  1.0  0.0966
  H  H112  1  0.814600  0.757000  0.891700  1.0  0.1107
  H  H113  1  0.733100  0.722600  0.943600  1.0  0.0663
  H  H114  1  0.733800  0.752300  0.811700  1.0  0.0902
  H  H115  1  0.057800  0.468300  0.357600  1.0  0.1372
  H  H116  1  0.136800  0.031800  0.128800  1.0  0.1217
  H  H117  1  0.166200  0.481800  0.591900  1.0  0.1292
  H  H118  1  0.031400  0.023700  0.895700  1.0  0.1152
  H  H119  1  0.200000  0.530600  0.639400  1.0  0.072
  H  H120  1  0.214700  0.583900  0.637400  1.0  0.1209
  H  H121  1  0.272300  0.523300  0.679100  1.0  0.0964
  H  H122  1  0.236700  0.498200  0.609700  1.0  0.0895
  H  H123  1  0.024900  0.400400  0.310600  1.0  0.1055
  H  H124  1  0.983500  0.403900  0.309500  1.0  0.1107
  H  H125  1  0.039900  0.389900  0.488000  1.0  0.1001
  H  H126  1  0.180700  0.390900  0.631800  1.0  0.1145
  H  H127  1  0.274900  0.517200  0.587200  1.0  0.0443
  H  H128  1  0.314300  0.535500  0.661500  1.0  0.0552
  H  H129  1  0.984900  0.322900  0.283900  1.0  0.1269
  H  H130  1  0.999000  0.325300  0.351900  1.0  0.1593
  H  H131  1  0.021700  0.117100  0.867300  1.0  0.0947
  H  H132  1  0.162600  0.099400  0.000500  1.0  0.1198
  H  H133  1  0.036900  0.339600  0.553600  1.0  0.1117
  H  H134  1  0.178900  0.339600  0.697700  1.0  0.1075
  H  H135  1  0.304400  0.579300  0.595100  1.0  0.0727
  H  H136  1  0.250600  0.586100  0.555800  1.0  0.0811
  H  H137  1  0.290300  0.604500  0.630600  1.0  0.1018
  H  H138  1  0.024400  0.172000  0.806600  1.0  0.1233
  H  H139  1  0.165100  0.150600  0.936300  1.0  0.0987
  H  H140  1  0.467600  0.202300  0.172500  1.0  0.0801
  H  H141  1  0.467600  0.279100  0.053000  1.0  0.0853
  H  H142  1  0.386500  0.199100  0.091900  1.0  0.1134
  H  H143  1  0.386900  0.277500  0.970700  1.0  0.125
  H  H144  1  0.536700  0.110100  0.264600  1.0  0.1046
  H  H145  1  0.676700  0.124300  0.414100  1.0  0.1009
  H  H146  1  0.521000  0.385300  0.089900  1.0  0.1108
  H  H147  1  0.662400  0.375500  0.211000  1.0  0.1079
  H  H148  1  0.538700  0.047000  0.322300  1.0  0.1143
  H  H149  1  0.678900  0.062800  0.474100  1.0  0.1048
  H  H150  1  0.518200  0.446700  0.030700  1.0  0.093
  H  H151  1  0.659100  0.441200  0.153200  1.0  0.1071
  H  H152  1  0.314100  0.221300  0.026400  1.0  0.0966
  H  H153  1  0.314600  0.257000  0.891700  1.0  0.1107
  H  H154  1  0.233100  0.222600  0.943600  1.0  0.0663
  H  H155  1  0.233800  0.252300  0.811700  1.0  0.0902
  H  H156  1  0.557800  0.968300  0.357600  1.0  0.1372
  H  H157  1  0.636800  0.531800  0.128800  1.0  0.1217
  H  H158  1  0.666200  0.981800  0.591900  1.0  0.1292
  H  H159  1  0.531400  0.523700  0.895700  1.0  0.1152
  H  H160  1  0.700000  0.030600  0.639400  1.0  0.072
  H  H161  1  0.714700  0.083900  0.637400  1.0  0.1209
  H  H162  1  0.772300  0.023300  0.679100  1.0  0.0964
  H  H163  1  0.736700  0.998200  0.609700  1.0  0.0895
  H  H164  1  0.524900  0.900400  0.310600  1.0  0.1055
  H  H165  1  0.483500  0.903900  0.309500  1.0  0.1107
  H  H166  1  0.539900  0.889900  0.488000  1.0  0.1001
  H  H167  1  0.680700  0.890900  0.631800  1.0  0.1145
  H  H168  1  0.774900  0.017200  0.587200  1.0  0.0449
  H  H169  1  0.814300  0.035500  0.661500  1.0  0.0516
  H  H170  1  0.484900  0.822900  0.283900  1.0  0.1269
  H  H171  1  0.499000  0.825300  0.351900  1.0  0.1593
  H  H172  1  0.521700  0.617100  0.867300  1.0  0.0947
  H  H173  1  0.662600  0.599400  0.000500  1.0  0.1198
  H  H174  1  0.536900  0.839600  0.553600  1.0  0.1117
  H  H175  1  0.678900  0.839600  0.697700  1.0  0.1075
  H  H176  1  0.804400  0.079300  0.595100  1.0  0.0727
  H  H177  1  0.750600  0.086100  0.555800  1.0  0.0811
  H  H178  1  0.790300  0.104500  0.630600  1.0  0.1018
  H  H179  1  0.524400  0.672000  0.806600  1.0  0.1233
  H  H180  1  0.665100  0.650600  0.936300  1.0  0.0987
  H  H181  1  0.032400  0.297700  0.827500  1.0  0.08
  H  H182  1  0.032400  0.220900  0.947000  1.0  0.0856
  H  H183  1  0.113500  0.300900  0.908100  1.0  0.1137
  H  H184  1  0.113100  0.222500  0.029300  1.0  0.1241
  H  H185  1  0.963300  0.389900  0.735400  1.0  0.1046
  H  H186  1  0.823300  0.375700  0.585900  1.0  0.1011
  H  H187  1  0.979000  0.114700  0.910100  1.0  0.1109
  H  H188  1  0.837600  0.124500  0.789000  1.0  0.1083
  H  H189  1  0.961300  0.453000  0.677700  1.0  0.1151
  H  H190  1  0.821100  0.437200  0.525900  1.0  0.1052
  H  H191  1  0.981800  0.053300  0.969300  1.0  0.093
  H  H192  1  0.840900  0.058800  0.846800  1.0  0.1083
  H  H193  1  0.185900  0.278700  0.973600  1.0  0.097
  H  H194  1  0.185400  0.243000  0.108300  1.0  0.1083
  H  H195  1  0.266900  0.277400  0.056400  1.0  0.0665
  H  H196  1  0.266200  0.247700  0.188300  1.0  0.09
  H  H197  1  0.942200  0.531700  0.642400  1.0  0.1372
  H  H198  1  0.863200  0.968200  0.871200  1.0  0.1218
  H  H199  1  0.833800  0.518200  0.408100  1.0  0.1288
  H  H200  1  0.968600  0.976300  0.104300  1.0  0.1149
  H  H201  1  0.800000  0.469400  0.360600  1.0  0.0714
  H  H202  1  0.785300  0.416100  0.362600  1.0  0.1181
  H  H203  1  0.727700  0.476700  0.320900  1.0  0.0937
  H  H204  1  0.763300  0.501800  0.390300  1.0  0.0899
  H  H205  1  0.975100  0.599600  0.689400  1.0  0.1058
  H  H206  1  0.016500  0.596100  0.690500  1.0  0.1136
  H  H207  1  0.960100  0.610100  0.512000  1.0  0.0995
  H  H208  1  0.819300  0.609100  0.368200  1.0  0.1144
  H  H209  1  0.725100  0.482800  0.412800  1.0  0.0468
  H  H210  1  0.685700  0.464500  0.338500  1.0  0.0528
  H  H211  1  0.015100  0.677100  0.716100  1.0  0.1291
  H  H212  1  0.001000  0.674700  0.648100  1.0  0.1573
  H  H213  1  0.978300  0.882900  0.132700  1.0  0.0949
  H  H214  1  0.837400  0.900600  0.999500  1.0  0.1196
  H  H215  1  0.963100  0.660400  0.446400  1.0  0.112
  H  H216  1  0.821100  0.660400  0.302300  1.0  0.1082
  H  H217  1  0.695600  0.420700  0.404900  1.0  0.0764
  H  H218  1  0.749400  0.413900  0.444200  1.0  0.0784
  H  H219  1  0.709700  0.395500  0.369400  1.0  0.0977
  H  H220  1  0.975600  0.828000  0.193400  1.0  0.1233
  H  H221  1  0.834900  0.849400  0.063700  1.0  0.0976
  H  H222  1  0.532400  0.797700  0.827500  1.0  0.08
  H  H223  1  0.532400  0.720900  0.947000  1.0  0.0856
  H  H224  1  0.613500  0.800900  0.908100  1.0  0.1137
  H  H225  1  0.613100  0.722500  0.029300  1.0  0.1241
  H  H226  1  0.463300  0.889900  0.735400  1.0  0.1046
  H  H227  1  0.323300  0.875700  0.585900  1.0  0.1011
  H  H228  1  0.479000  0.614700  0.910100  1.0  0.1109
  H  H229  1  0.337600  0.624500  0.789000  1.0  0.1083
  H  H230  1  0.461300  0.953000  0.677700  1.0  0.1151
  H  H231  1  0.321100  0.937200  0.525900  1.0  0.1052
  H  H232  1  0.481800  0.553300  0.969300  1.0  0.093
  H  H233  1  0.340900  0.558800  0.846800  1.0  0.1083
  H  H234  1  0.685900  0.778700  0.973600  1.0  0.097
  H  H235  1  0.685400  0.743000  0.108300  1.0  0.1083
  H  H236  1  0.766900  0.777400  0.056400  1.0  0.0665
  H  H237  1  0.766200  0.747700  0.188300  1.0  0.09
  H  H238  1  0.442200  0.031700  0.642400  1.0  0.1372
  H  H239  1  0.363200  0.468200  0.871200  1.0  0.1218
  H  H240  1  0.333800  0.018200  0.408100  1.0  0.1288
  H  H241  1  0.468600  0.476300  0.104300  1.0  0.115
  H  H242  1  0.300000  0.969400  0.360600  1.0  0.0714
  H  H243  1  0.285300  0.916100  0.362600  1.0  0.1181
  H  H244  1  0.227700  0.976700  0.320900  1.0  0.0937
  H  H245  1  0.263300  0.001800  0.390300  1.0  0.0899
  H  H246  1  0.475100  0.099600  0.689400  1.0  0.1058
  H  H247  1  0.516500  0.096100  0.690500  1.0  0.1136
  H  H248  1  0.460100  0.110100  0.512000  1.0  0.0995
  H  H249  1  0.319300  0.109100  0.368200  1.0  0.1144
  H  H250  1  0.225100  0.982800  0.412800  1.0  0.0475
  H  H251  1  0.185700  0.964500  0.338500  1.0  0.0493
  H  H252  1  0.515100  0.177100  0.716100  1.0  0.1291
  H  H253  1  0.501000  0.174700  0.648100  1.0  0.1573
  H  H254  1  0.478300  0.382900  0.132700  1.0  0.0949
  H  H255  1  0.337400  0.400600  0.999500  1.0  0.1196
  H  H256  1  0.463100  0.160400  0.446400  1.0  0.112
  H  H257  1  0.321100  0.160400  0.302300  1.0  0.1082
  H  H258  1  0.195600  0.920700  0.404900  1.0  0.0764
  H  H259  1  0.249400  0.913900  0.444200  1.0  0.0784
  H  H260  1  0.209700  0.895500  0.369400  1.0  0.0977
  H  H261  1  0.475600  0.328000  0.193400  1.0  0.1233
  H  H262  1  0.334900  0.349400  0.063700  1.0  0.0976
  H  H263  1  0.032400  0.702300  0.327500  1.0  0.0797
  H  H264  1  0.032400  0.779100  0.447000  1.0  0.0854
  H  H265  1  0.113500  0.699100  0.408100  1.0  0.1134
  H  H266  1  0.113100  0.777500  0.529300  1.0  0.124
  H  H267  1  0.963300  0.610100  0.235400  1.0  0.105
  H  H268  1  0.823300  0.624300  0.085900  1.0  0.1008
  H  H269  1  0.979000  0.885300  0.410100  1.0  0.1107
  H  H270  1  0.837600  0.875500  0.289000  1.0  0.1084
  H  H271  1  0.961300  0.547000  0.177700  1.0  0.1148
  H  H272  1  0.821100  0.562800  0.025900  1.0  0.1053
  H  H273  1  0.981800  0.946700  0.469300  1.0  0.0932
  H  H274  1  0.840900  0.941200  0.346800  1.0  0.1082
  H  H275  1  0.185900  0.721300  0.473600  1.0  0.0967
  H  H276  1  0.185400  0.757000  0.608300  1.0  0.1084
  H  H277  1  0.266900  0.722600  0.556400  1.0  0.0663
  H  H278  1  0.266200  0.752300  0.688300  1.0  0.0899
  H  H279  1  0.942200  0.468300  0.142400  1.0  0.1372
  H  H280  1  0.863200  0.031800  0.371200  1.0  0.1216
  H  H281  1  0.833800  0.481800  0.908100  1.0  0.1286
  H  H282  1  0.968600  0.023700  0.604300  1.0  0.1148
  H  H283  1  0.800000  0.530600  0.860600  1.0  0.0716
  H  H284  1  0.785300  0.583900  0.862600  1.0  0.1202
  H  H285  1  0.727700  0.523300  0.820900  1.0  0.0926
  H  H286  1  0.763300  0.498200  0.890300  1.0  0.0896
  H  H287  1  0.975100  0.400400  0.189400  1.0  0.1062
  H  H288  1  0.016500  0.403900  0.190500  1.0  0.1136
  H  H289  1  0.960100  0.389900  0.012000  1.0  0.0995
  H  H290  1  0.819300  0.390900  0.868200  1.0  0.1146
  H  H291  1  0.725100  0.517200  0.912800  1.0  0.0436
  H  H292  1  0.685700  0.535500  0.838500  1.0  0.0526
  H  H293  1  0.015100  0.322900  0.216100  1.0  0.1278
  H  H294  1  0.001000  0.325300  0.148100  1.0  0.1573
  H  H295  1  0.978300  0.117100  0.632700  1.0  0.095
  H  H296  1  0.837400  0.099400  0.499500  1.0  0.1194
  H  H297  1  0.963100  0.339600  0.946400  1.0  0.1117
  H  H298  1  0.821100  0.339600  0.802300  1.0  0.108
  H  H299  1  0.695600  0.579300  0.904900  1.0  0.0769
  H  H300  1  0.749400  0.586100  0.944200  1.0  0.0787
  H  H301  1  0.709700  0.604500  0.869400  1.0  0.1025
  H  H302  1  0.975600  0.172000  0.693400  1.0  0.1236
  H  H303  1  0.834900  0.150600  0.563700  1.0  0.0981
  H  H304  1  0.532400  0.202300  0.327500  1.0  0.0797
  H  H305  1  0.532400  0.279100  0.447000  1.0  0.0854
  H  H306  1  0.613500  0.199100  0.408100  1.0  0.1134
  H  H307  1  0.613100  0.277500  0.529300  1.0  0.124
  H  H308  1  0.463300  0.110100  0.235400  1.0  0.105
  H  H309  1  0.323300  0.124300  0.085900  1.0  0.1008
  H  H310  1  0.479000  0.385300  0.410100  1.0  0.1107
  H  H311  1  0.337600  0.375500  0.289000  1.0  0.1084
  H  H312  1  0.461300  0.047000  0.177700  1.0  0.1148
  H  H313  1  0.321100  0.062800  0.025900  1.0  0.1053
  H  H314  1  0.481800  0.446700  0.469300  1.0  0.0932
  H  H315  1  0.340900  0.441200  0.346800  1.0  0.1082
  H  H316  1  0.685900  0.221300  0.473600  1.0  0.0967
  H  H317  1  0.685400  0.257000  0.608300  1.0  0.1084
  H  H318  1  0.766900  0.222600  0.556400  1.0  0.0663
  H  H319  1  0.766200  0.252300  0.688300  1.0  0.0899
  H  H320  1  0.442200  0.968300  0.142400  1.0  0.1372
  H  H321  1  0.363200  0.531800  0.371200  1.0  0.1216
  H  H322  1  0.333800  0.981800  0.908100  1.0  0.1286
  H  H323  1  0.468600  0.523700  0.604300  1.0  0.1148
  H  H324  1  0.300000  0.030600  0.860600  1.0  0.0716
  H  H325  1  0.285300  0.083900  0.862600  1.0  0.1202
  H  H326  1  0.227700  0.023300  0.820900  1.0  0.0926
  H  H327  1  0.263300  0.998200  0.890300  1.0  0.0896
  H  H328  1  0.475100  0.900400  0.189400  1.0  0.1062
  H  H329  1  0.516500  0.903900  0.190500  1.0  0.1136
  H  H330  1  0.460100  0.889900  0.012000  1.0  0.0995
  H  H331  1  0.319300  0.890900  0.868200  1.0  0.1146
  H  H332  1  0.225100  0.017200  0.912800  1.0  0.0451
  H  H333  1  0.185700  0.035500  0.838500  1.0  0.0489
  H  H334  1  0.515100  0.822900  0.216100  1.0  0.1278
  H  H335  1  0.501000  0.825300  0.148100  1.0  0.1573
  H  H336  1  0.478300  0.617100  0.632700  1.0  0.095
  H  H337  1  0.337400  0.599400  0.499500  1.0  0.1194
  H  H338  1  0.463100  0.839600  0.946400  1.0  0.1117
  H  H339  1  0.321100  0.839600  0.802300  1.0  0.108
  H  H340  1  0.195600  0.079300  0.904900  1.0  0.0769
  H  H341  1  0.249400  0.086100  0.944200  1.0  0.0787
  H  H342  1  0.209700  0.104500  0.869400  1.0  0.1025
  H  H343  1  0.475600  0.672000  0.693400  1.0  0.1236
  H  H344  1  0.334900  0.650600  0.563700  1.0  0.0981
  C  C345  1  0.951210  0.282100  0.631300  1.0  0.1813
  C  C346  1  0.951300  0.237200  0.561700  1.0  0.1742
  C  C347  1  0.104000  0.329470  0.800600  1.0  0.7008
  C  C348  1  0.093500  0.171460  0.688400  1.0  0.7015
  C  C349  1  0.902590  0.283800  0.583500  1.0  -0.1724
  C  C350  1  0.902600  0.237600  0.511900  1.0  -0.1998
  C  C351  1  0.105900  0.374400  0.834200  1.0  -0.0815
  C  C352  1  0.092100  0.128100  0.654600  1.0  -0.1045
  C  C353  1  0.877640  0.260000  0.522600  1.0  0.0513
  C  C354  1  0.065500  0.398800  0.807000  1.0  -0.0451
  C  C355  1  0.148500  0.390400  0.896100  1.0  -0.0397
  C  C356  1  0.048700  0.104700  0.601700  1.0  -0.0707
  C  C357  1  0.133200  0.110300  0.674700  1.0  -0.0308
  C  C358  1  0.824600  0.259000  0.470800  1.0  0.2593
  C  C359  1  0.066700  0.437000  0.841800  1.0  -0.1546
  C  C360  1  0.150100  0.428000  0.932000  1.0  -0.1536
  C  C361  1  0.047400  0.067100  0.567500  1.0  -0.1501
  C  C362  1  0.131100  0.070300  0.639700  1.0  -0.1385
  C  C363  1  0.799300  0.269900  0.482800  1.0  -0.191
  C  C364  1  0.798900  0.250200  0.405200  1.0  -0.1794
  C  C365  1  0.109000  0.451300  0.904900  1.0  0.0571
  C  C366  1  0.089400  0.048600  0.587000  1.0  0.0778
  C  C367  1  0.749500  0.268800  0.431500  1.0  0.1859
  C  C368  1  0.749800  0.251500  0.357000  1.0  0.1639
  C  C369  1  0.111000  0.492200  0.942400  1.0  -0.0571
  C  C370  1  0.086000  0.009200  0.548400  1.0  0.0854
  C  C371  1  0.131200  0.481400  0.007700  1.0  0.1802
  C  C372  1  0.079200  0.528900  0.904500  1.0  -0.0924
  C  C373  1  0.114100  0.970800  0.581800  1.0  -0.137
  C  C374  1  0.049600  0.004900  0.477500  1.0  0.2102
  C  C375  1  0.140000  0.520000  0.045500  1.0  -0.1596
  C  C376  1  0.085100  0.565900  0.954000  1.0  0.0528
  C  C377  1  0.104600  0.928700  0.531500  1.0  0.2397
  C  C378  1  0.052900  0.973500  0.442500  1.0  -0.1323
  C  C379  1  0.111600  0.563600  0.019200  1.0  0.0638
  C  C380  1  0.208300  0.449000  0.120000  1.0  -0.0564
  C  C381  1  0.089100  0.935600  0.476500  1.0  0.3019
  C  C382  1  0.109800  0.601100  0.055300  1.0  0.0105
  C  C383  1  0.249200  0.470000  0.130900  1.0  -0.0931
  C  C384  1  0.013300  0.611600  0.830300  1.0  0.0041
  C  C385  1  0.092000  0.898600  0.441200  1.0  0.0875
  C  C386  1  0.068000  0.618900  0.031300  1.0  -0.1106
  C  C387  1  0.151700  0.618400  0.116500  1.0  -0.1501
  C  C388  1  0.281900  0.458600  0.118900  1.0  -0.0437
  C  C389  1  0.011400  0.669800  0.831500  1.0  -0.188
  C  C390  1  0.050900  0.875700  0.381800  1.0  -0.1509
  C  C391  1  0.134500  0.887200  0.461000  1.0  -0.1107
  C  C392  1  0.066100  0.650300  0.070000  1.0  -0.0433
  C  C393  1  0.150600  0.650100  0.155700  1.0  -0.0453
  C  C394  1  0.281800  0.420400  0.099200  1.0  -0.357
  C  C395  1  0.051900  0.843300  0.344600  1.0  -0.1282
  C  C396  1  0.136100  0.855700  0.422700  1.0  0.0076
  C  C397  1  0.107900  0.666100  0.132600  1.0  -0.1388
  C  C398  1  0.096490  0.834240  0.366400  1.0  -0.1227
  C  C399  1  0.106900  0.698700  0.174600  1.0  0.7175
  C  C400  1  0.098640  0.801020  0.324200  1.0  0.6752
  C  C401  1  0.451210  0.782100  0.631300  1.0  0.1813
  C  C402  1  0.451300  0.737200  0.561700  1.0  0.1742
  C  C403  1  0.604000  0.829470  0.800600  1.0  0.7008
  C  C404  1  0.593500  0.671460  0.688400  1.0  0.7015
  C  C405  1  0.402590  0.783800  0.583500  1.0  -0.1724
  C  C406  1  0.402600  0.737600  0.511900  1.0  -0.1998
  C  C407  1  0.605900  0.874400  0.834200  1.0  -0.0815
  C  C408  1  0.592100  0.628100  0.654600  1.0  -0.1045
  C  C409  1  0.377640  0.760000  0.522600  1.0  0.0513
  C  C410  1  0.565500  0.898800  0.807000  1.0  -0.0451
  C  C411  1  0.648500  0.890400  0.896100  1.0  -0.0397
  C  C412  1  0.548700  0.604700  0.601700  1.0  -0.0707
  C  C413  1  0.633200  0.610300  0.674700  1.0  -0.0308
  C  C414  1  0.324600  0.759000  0.470800  1.0  0.2593
  C  C415  1  0.566700  0.937000  0.841800  1.0  -0.1546
  C  C416  1  0.650100  0.928000  0.932000  1.0  -0.1536
  C  C417  1  0.547400  0.567100  0.567500  1.0  -0.1501
  C  C418  1  0.631100  0.570300  0.639700  1.0  -0.1385
  C  C419  1  0.299300  0.769900  0.482800  1.0  -0.191
  C  C420  1  0.298900  0.750200  0.405200  1.0  -0.1794
  C  C421  1  0.609000  0.951300  0.904900  1.0  0.0571
  C  C422  1  0.589400  0.548600  0.587000  1.0  0.0778
  C  C423  1  0.249500  0.768800  0.431500  1.0  0.1859
  C  C424  1  0.249800  0.751500  0.357000  1.0  0.1639
  C  C425  1  0.611000  0.992200  0.942400  1.0  -0.0571
  C  C426  1  0.586000  0.509200  0.548400  1.0  0.0854
  C  C427  1  0.631200  0.981400  0.007700  1.0  0.1802
  C  C428  1  0.579200  0.028900  0.904500  1.0  -0.0924
  C  C429  1  0.614100  0.470800  0.581800  1.0  -0.137
  C  C430  1  0.549600  0.504900  0.477500  1.0  0.2102
  C  C431  1  0.640000  0.020000  0.045500  1.0  -0.1596
  C  C432  1  0.585100  0.065900  0.954000  1.0  0.0528
  C  C433  1  0.604600  0.428700  0.531500  1.0  0.2397
  C  C434  1  0.552900  0.473500  0.442500  1.0  -0.1323
  C  C435  1  0.611600  0.063600  0.019200  1.0  0.0638
  C  C436  1  0.708300  0.949000  0.120000  1.0  -0.0564
  C  C437  1  0.589100  0.435600  0.476500  1.0  0.3019
  C  C438  1  0.609800  0.101100  0.055300  1.0  0.0105
  C  C439  1  0.749200  0.970000  0.130900  1.0  -0.0931
  C  C440  1  0.513300  0.111600  0.830300  1.0  0.0041
  C  C441  1  0.592000  0.398600  0.441200  1.0  0.0875
  C  C442  1  0.568000  0.118900  0.031300  1.0  -0.1106
  C  C443  1  0.651700  0.118400  0.116500  1.0  -0.1501
  C  C444  1  0.781900  0.958600  0.118900  1.0  -0.0437
  C  C445  1  0.511400  0.169800  0.831500  1.0  -0.188
  C  C446  1  0.550900  0.375700  0.381800  1.0  -0.1509
  C  C447  1  0.634500  0.387200  0.461000  1.0  -0.1107
  C  C448  1  0.566100  0.150300  0.070000  1.0  -0.0433
  C  C449  1  0.650600  0.150100  0.155700  1.0  -0.0453
  C  C450  1  0.781800  0.920400  0.099200  1.0  -0.357
  C  C451  1  0.551900  0.343300  0.344600  1.0  -0.1282
  C  C452  1  0.636100  0.355700  0.422700  1.0  0.0076
  C  C453  1  0.607900  0.166100  0.132600  1.0  -0.1388
  C  C454  1  0.596490  0.334240  0.366400  1.0  -0.1227
  C  C455  1  0.606900  0.198700  0.174600  1.0  0.7175
  C  C456  1  0.598640  0.301020  0.324200  1.0  0.6752
  C  C457  1  0.951210  0.717900  0.131300  1.0  0.1803
  C  C458  1  0.951300  0.762800  0.061700  1.0  0.1737
  C  C459  1  0.104000  0.670530  0.300600  1.0  0.6991
  C  C460  1  0.093500  0.828540  0.188400  1.0  0.7016
  C  C461  1  0.902590  0.716200  0.083500  1.0  -0.172
  C  C462  1  0.902600  0.762400  0.011900  1.0  -0.1997
  C  C463  1  0.105900  0.625600  0.334200  1.0  -0.0811
  C  C464  1  0.092100  0.871900  0.154600  1.0  -0.1057
  C  C465  1  0.877640  0.740000  0.022600  1.0  0.0495
  C  C466  1  0.065500  0.601200  0.307000  1.0  -0.045
  C  C467  1  0.148500  0.609600  0.396100  1.0  -0.0399
  C  C468  1  0.048700  0.895300  0.101700  1.0  -0.0698
  C  C469  1  0.133200  0.889700  0.174700  1.0  -0.0307
  C  C470  1  0.824600  0.741000  0.970800  1.0  0.2589
  C  C471  1  0.066700  0.563000  0.341800  1.0  -0.1549
  C  C472  1  0.150100  0.572000  0.432000  1.0  -0.1535
  C  C473  1  0.047400  0.932900  0.067500  1.0  -0.1505
  C  C474  1  0.131100  0.929700  0.139700  1.0  -0.1383
  C  C475  1  0.799300  0.730100  0.982800  1.0  -0.1914
  C  C476  1  0.798900  0.749800  0.905200  1.0  -0.1796
  C  C477  1  0.109000  0.548700  0.404900  1.0  0.0565
  C  C478  1  0.089400  0.951400  0.087000  1.0  0.0783
  C  C479  1  0.749500  0.731200  0.931500  1.0  0.186
  C  C480  1  0.749800  0.748500  0.857000  1.0  0.1643
  C  C481  1  0.111000  0.507800  0.442400  1.0  -0.0567
  C  C482  1  0.086000  0.990800  0.048400  1.0  0.0847
  C  C483  1  0.131200  0.518600  0.507700  1.0  0.1779
  C  C484  1  0.079200  0.471100  0.404500  1.0  -0.0927
  C  C485  1  0.114100  0.029200  0.081800  1.0  -0.1378
  C  C486  1  0.049600  0.995100  0.977500  1.0  0.2099
  C  C487  1  0.140000  0.480000  0.545500  1.0  -0.16
  C  C488  1  0.085100  0.434100  0.454000  1.0  0.0533
  C  C489  1  0.104600  0.071300  0.031500  1.0  0.2377
  C  C490  1  0.052900  0.026500  0.942500  1.0  -0.1307
  C  C491  1  0.111600  0.436400  0.519200  1.0  0.0637
  C  C492  1  0.208300  0.551000  0.620000  1.0  -0.0557
  C  C493  1  0.089100  0.064400  0.976500  1.0  0.3015
  C  C494  1  0.109800  0.398900  0.555300  1.0  0.01
  C  C495  1  0.249200  0.530000  0.630900  1.0  -0.0924
  C  C496  1  0.013300  0.388400  0.330300  1.0  0.0047
  C  C497  1  0.092000  0.101400  0.941200  1.0  0.0865
  C  C498  1  0.068000  0.381100  0.531300  1.0  -0.1108
  C  C499  1  0.151700  0.381600  0.616500  1.0  -0.1496
  C  C500  1  0.281900  0.541400  0.618900  1.0  -0.0425
  C  C501  1  0.011400  0.330200  0.331500  1.0  -0.1871
  C  C502  1  0.050900  0.124300  0.881800  1.0  -0.1514
  C  C503  1  0.134500  0.112800  0.961000  1.0  -0.1105
  C  C504  1  0.066100  0.349700  0.570000  1.0  -0.0432
  C  C505  1  0.150600  0.349900  0.655700  1.0  -0.045
  C  C506  1  0.281800  0.579600  0.599200  1.0  -0.3565
  C  C507  1  0.051900  0.156700  0.844600  1.0  -0.1278
  C  C508  1  0.136100  0.144300  0.922700  1.0  0.0081
  C  C509  1  0.107900  0.333900  0.632600  1.0  -0.1391
  C  C510  1  0.096490  0.165760  0.866400  1.0  -0.1229
  C  C511  1  0.106900  0.301300  0.674600  1.0  0.7175
  C  C512  1  0.098640  0.198980  0.824200  1.0  0.6749
  C  C513  1  0.451210  0.217900  0.131300  1.0  0.1803
  C  C514  1  0.451300  0.262800  0.061700  1.0  0.1737
  C  C515  1  0.604000  0.170530  0.300600  1.0  0.6991
  C  C516  1  0.593500  0.328540  0.188400  1.0  0.7016
  C  C517  1  0.402590  0.216200  0.083500  1.0  -0.172
  C  C518  1  0.402600  0.262400  0.011900  1.0  -0.1997
  C  C519  1  0.605900  0.125600  0.334200  1.0  -0.0811
  C  C520  1  0.592100  0.371900  0.154600  1.0  -0.1057
  C  C521  1  0.377640  0.240000  0.022600  1.0  0.0495
  C  C522  1  0.565500  0.101200  0.307000  1.0  -0.045
  C  C523  1  0.648500  0.109600  0.396100  1.0  -0.0399
  C  C524  1  0.548700  0.395300  0.101700  1.0  -0.0698
  C  C525  1  0.633200  0.389700  0.174700  1.0  -0.0307
  C  C526  1  0.324600  0.241000  0.970800  1.0  0.2589
  C  C527  1  0.566700  0.063000  0.341800  1.0  -0.1549
  C  C528  1  0.650100  0.072000  0.432000  1.0  -0.1535
  C  C529  1  0.547400  0.432900  0.067500  1.0  -0.1505
  C  C530  1  0.631100  0.429700  0.139700  1.0  -0.1383
  C  C531  1  0.299300  0.230100  0.982800  1.0  -0.1914
  C  C532  1  0.298900  0.249800  0.905200  1.0  -0.1796
  C  C533  1  0.609000  0.048700  0.404900  1.0  0.0565
  C  C534  1  0.589400  0.451400  0.087000  1.0  0.0783
  C  C535  1  0.249500  0.231200  0.931500  1.0  0.186
  C  C536  1  0.249800  0.248500  0.857000  1.0  0.1643
  C  C537  1  0.611000  0.007800  0.442400  1.0  -0.0567
  C  C538  1  0.586000  0.490800  0.048400  1.0  0.0847
  C  C539  1  0.631200  0.018600  0.507700  1.0  0.1779
  C  C540  1  0.579200  0.971100  0.404500  1.0  -0.0927
  C  C541  1  0.614100  0.529200  0.081800  1.0  -0.1378
  C  C542  1  0.549600  0.495100  0.977500  1.0  0.2099
  C  C543  1  0.640000  0.980000  0.545500  1.0  -0.16
  C  C544  1  0.585100  0.934100  0.454000  1.0  0.0533
  C  C545  1  0.604600  0.571300  0.031500  1.0  0.2377
  C  C546  1  0.552900  0.526500  0.942500  1.0  -0.1307
  C  C547  1  0.611600  0.936400  0.519200  1.0  0.0637
  C  C548  1  0.708300  0.051000  0.620000  1.0  -0.0557
  C  C549  1  0.589100  0.564400  0.976500  1.0  0.3015
  C  C550  1  0.609800  0.898900  0.555300  1.0  0.01
  C  C551  1  0.749200  0.030000  0.630900  1.0  -0.0924
  C  C552  1  0.513300  0.888400  0.330300  1.0  0.0047
  C  C553  1  0.592000  0.601400  0.941200  1.0  0.0865
  C  C554  1  0.568000  0.881100  0.531300  1.0  -0.1108
  C  C555  1  0.651700  0.881600  0.616500  1.0  -0.1496
  C  C556  1  0.781900  0.041400  0.618900  1.0  -0.0425
  C  C557  1  0.511400  0.830200  0.331500  1.0  -0.1871
  C  C558  1  0.550900  0.624300  0.881800  1.0  -0.1514
  C  C559  1  0.634500  0.612800  0.961000  1.0  -0.1105
  C  C560  1  0.566100  0.849700  0.570000  1.0  -0.0432
  C  C561  1  0.650600  0.849900  0.655700  1.0  -0.045
  C  C562  1  0.781800  0.079600  0.599200  1.0  -0.3565
  C  C563  1  0.551900  0.656700  0.844600  1.0  -0.1278
  C  C564  1  0.636100  0.644300  0.922700  1.0  0.0081
  C  C565  1  0.607900  0.833900  0.632600  1.0  -0.1391
  C  C566  1  0.596490  0.665760  0.866400  1.0  -0.1229
  C  C567  1  0.606900  0.801300  0.674600  1.0  0.7175
  C  C568  1  0.598640  0.698980  0.824200  1.0  0.6749
  C  C569  1  0.048790  0.282100  0.868700  1.0  0.1806
  C  C570  1  0.048700  0.237200  0.938300  1.0  0.1731
  C  C571  1  0.896000  0.329470  0.699400  1.0  0.699
  C  C572  1  0.906500  0.171460  0.811600  1.0  0.7005
  C  C573  1  0.097410  0.283800  0.916500  1.0  -0.1738
  C  C574  1  0.097400  0.237600  0.988100  1.0  -0.1998
  C  C575  1  0.894100  0.374400  0.665800  1.0  -0.0784
  C  C576  1  0.907900  0.128100  0.845400  1.0  -0.1049
  C  C577  1  0.122360  0.260000  0.977400  1.0  0.0531
  C  C578  1  0.934500  0.398800  0.693000  1.0  -0.0448
  C  C579  1  0.851500  0.390400  0.603900  1.0  -0.0413
  C  C580  1  0.951300  0.104700  0.898300  1.0  -0.0712
  C  C581  1  0.866800  0.110300  0.825300  1.0  -0.0315
  C  C582  1  0.175400  0.259000  0.029200  1.0  0.2653
  C  C583  1  0.933300  0.437000  0.658200  1.0  -0.154
  C  C584  1  0.849900  0.428000  0.568000  1.0  -0.1547
  C  C585  1  0.952600  0.067100  0.932500  1.0  -0.1496
  C  C586  1  0.868900  0.070300  0.860300  1.0  -0.1405
  C  C587  1  0.200700  0.269900  0.017200  1.0  -0.1921
  C  C588  1  0.201100  0.250200  0.094800  1.0  -0.1783
  C  C589  1  0.891000  0.451300  0.595100  1.0  0.0576
  C  C590  1  0.910600  0.048600  0.913000  1.0  0.0787
  C  C591  1  0.250500  0.268800  0.068500  1.0  0.1854
  C  C592  1  0.250200  0.251500  0.143000  1.0  0.1617
  C  C593  1  0.889000  0.492200  0.557600  1.0  -0.0556
  C  C594  1  0.914000  0.009200  0.951600  1.0  0.0849
  C  C595  1  0.868800  0.481400  0.492300  1.0  0.1795
  C  C596  1  0.920800  0.528900  0.595500  1.0  -0.0926
  C  C597  1  0.885900  0.970800  0.918200  1.0  -0.1378
  C  C598  1  0.950400  0.004900  0.022500  1.0  0.212
  C  C599  1  0.860000  0.520000  0.454500  1.0  -0.1585
  C  C600  1  0.914900  0.565900  0.546000  1.0  0.0504
  C  C601  1  0.895400  0.928700  0.968500  1.0  0.2391
  C  C602  1  0.947100  0.973500  0.057500  1.0  -0.1304
  C  C603  1  0.888400  0.563600  0.480800  1.0  0.0632
  C  C604  1  0.791700  0.449000  0.380000  1.0  -0.0537
  C  C605  1  0.910900  0.935600  0.023500  1.0  0.3019
  C  C606  1  0.890200  0.601100  0.444700  1.0  0.0103
  C  C607  1  0.750800  0.470000  0.369100  1.0  -0.0924
  C  C608  1  0.986700  0.611600  0.669700  1.0  0.004
  C  C609  1  0.908000  0.898600  0.058800  1.0  0.0875
  C  C610  1  0.932000  0.618900  0.468700  1.0  -0.1097
  C  C611  1  0.848300  0.618400  0.383500  1.0  -0.1508
  C  C612  1  0.718100  0.458600  0.381100  1.0  -0.041
  C  C613  1  0.988600  0.669800  0.668500  1.0  -0.1882
  C  C614  1  0.949100  0.875700  0.118200  1.0  -0.1508
  C  C615  1  0.865500  0.887200  0.039000  1.0  -0.11
  C  C616  1  0.933900  0.650300  0.430000  1.0  -0.0431
  C  C617  1  0.849400  0.650100  0.344300  1.0  -0.047
  C  C618  1  0.718200  0.420400  0.400800  1.0  -0.3558
  C  C619  1  0.948100  0.843300  0.155400  1.0  -0.1273
  C  C620  1  0.863900  0.855700  0.077300  1.0  0.0082
  C  C621  1  0.892100  0.666100  0.367400  1.0  -0.1387
  C  C622  1  0.903510  0.834240  0.133600  1.0  -0.1235
  C  C623  1  0.893100  0.698700  0.325400  1.0  0.7171
  C  C624  1  0.901360  0.801020  0.175800  1.0  0.6748
  C  C625  1  0.548790  0.782100  0.868700  1.0  0.1806
  C  C626  1  0.548700  0.737200  0.938300  1.0  0.1731
  C  C627  1  0.396000  0.829470  0.699400  1.0  0.699
  C  C628  1  0.406500  0.671460  0.811600  1.0  0.7005
  C  C629  1  0.597410  0.783800  0.916500  1.0  -0.1738
  C  C630  1  0.597400  0.737600  0.988100  1.0  -0.1998
  C  C631  1  0.394100  0.874400  0.665800  1.0  -0.0784
  C  C632  1  0.407900  0.628100  0.845400  1.0  -0.1049
  C  C633  1  0.622360  0.760000  0.977400  1.0  0.0531
  C  C634  1  0.434500  0.898800  0.693000  1.0  -0.0448
  C  C635  1  0.351500  0.890400  0.603900  1.0  -0.0413
  C  C636  1  0.451300  0.604700  0.898300  1.0  -0.0712
  C  C637  1  0.366800  0.610300  0.825300  1.0  -0.0315
  C  C638  1  0.675400  0.759000  0.029200  1.0  0.2653
  C  C639  1  0.433300  0.937000  0.658200  1.0  -0.154
  C  C640  1  0.349900  0.928000  0.568000  1.0  -0.1547
  C  C641  1  0.452600  0.567100  0.932500  1.0  -0.1496
  C  C642  1  0.368900  0.570300  0.860300  1.0  -0.1405
  C  C643  1  0.700700  0.769900  0.017200  1.0  -0.1921
  C  C644  1  0.701100  0.750200  0.094800  1.0  -0.1783
  C  C645  1  0.391000  0.951300  0.595100  1.0  0.0576
  C  C646  1  0.410600  0.548600  0.913000  1.0  0.0787
  C  C647  1  0.750500  0.768800  0.068500  1.0  0.1854
  C  C648  1  0.750200  0.751500  0.143000  1.0  0.1617
  C  C649  1  0.389000  0.992200  0.557600  1.0  -0.0556
  C  C650  1  0.414000  0.509200  0.951600  1.0  0.0849
  C  C651  1  0.368800  0.981400  0.492300  1.0  0.1795
  C  C652  1  0.420800  0.028900  0.595500  1.0  -0.0926
  C  C653  1  0.385900  0.470800  0.918200  1.0  -0.1378
  C  C654  1  0.450400  0.504900  0.022500  1.0  0.212
  C  C655  1  0.360000  0.020000  0.454500  1.0  -0.1585
  C  C656  1  0.414900  0.065900  0.546000  1.0  0.0504
  C  C657  1  0.395400  0.428700  0.968500  1.0  0.2391
  C  C658  1  0.447100  0.473500  0.057500  1.0  -0.1304
  C  C659  1  0.388400  0.063600  0.480800  1.0  0.0632
  C  C660  1  0.291700  0.949000  0.380000  1.0  -0.0537
  C  C661  1  0.410900  0.435600  0.023500  1.0  0.3019
  C  C662  1  0.390200  0.101100  0.444700  1.0  0.0103
  C  C663  1  0.250800  0.970000  0.369100  1.0  -0.0924
  C  C664  1  0.486700  0.111600  0.669700  1.0  0.004
  C  C665  1  0.408000  0.398600  0.058800  1.0  0.0875
  C  C666  1  0.432000  0.118900  0.468700  1.0  -0.1097
  C  C667  1  0.348300  0.118400  0.383500  1.0  -0.1508
  C  C668  1  0.218100  0.958600  0.381100  1.0  -0.041
  C  C669  1  0.488600  0.169800  0.668500  1.0  -0.1882
  C  C670  1  0.449100  0.375700  0.118200  1.0  -0.1508
  C  C671  1  0.365500  0.387200  0.039000  1.0  -0.11
  C  C672  1  0.433900  0.150300  0.430000  1.0  -0.0431
  C  C673  1  0.349400  0.150100  0.344300  1.0  -0.047
  C  C674  1  0.218200  0.920400  0.400800  1.0  -0.3558
  C  C675  1  0.448100  0.343300  0.155400  1.0  -0.1273
  C  C676  1  0.363900  0.355700  0.077300  1.0  0.0082
  C  C677  1  0.392100  0.166100  0.367400  1.0  -0.1387
  C  C678  1  0.403510  0.334240  0.133600  1.0  -0.1235
  C  C679  1  0.393100  0.198700  0.325400  1.0  0.7171
  C  C680  1  0.401360  0.301020  0.175800  1.0  0.6748
  C  C681  1  0.048790  0.717900  0.368700  1.0  0.1805
  C  C682  1  0.048700  0.762800  0.438300  1.0  0.1734
  C  C683  1  0.896000  0.670530  0.199400  1.0  0.699
  C  C684  1  0.906500  0.828540  0.311600  1.0  0.7005
  C  C685  1  0.097410  0.716200  0.416500  1.0  -0.1731
  C  C686  1  0.097400  0.762400  0.488100  1.0  -0.199
  C  C687  1  0.894100  0.625600  0.165800  1.0  -0.081
  C  C688  1  0.907900  0.871900  0.345400  1.0  -0.1059
  C  C689  1  0.122360  0.740000  0.477400  1.0  0.0532
  C  C690  1  0.934500  0.601200  0.193000  1.0  -0.0447
  C  C691  1  0.851500  0.609600  0.103900  1.0  -0.0401
  C  C692  1  0.951300  0.895300  0.398300  1.0  -0.0708
  C  C693  1  0.866800  0.889700  0.325300  1.0  -0.0315
  C  C694  1  0.175400  0.741000  0.529200  1.0  0.2649
  C  C695  1  0.933300  0.563000  0.158200  1.0  -0.1541
  C  C696  1  0.849900  0.572000  0.068000  1.0  -0.1546
  C  C697  1  0.952600  0.932900  0.432500  1.0  -0.1498
  C  C698  1  0.868900  0.929700  0.360300  1.0  -0.1403
  C  C699  1  0.200700  0.730100  0.517200  1.0  -0.193
  C  C700  1  0.201100  0.749800  0.594800  1.0  -0.1784
  C  C701  1  0.891000  0.548700  0.095100  1.0  0.0568
  C  C702  1  0.910600  0.951400  0.413000  1.0  0.0791
  C  C703  1  0.250500  0.731200  0.568500  1.0  0.1852
  C  C704  1  0.250200  0.748500  0.643000  1.0  0.1615
  C  C705  1  0.889000  0.507800  0.057600  1.0  -0.0555
  C  C706  1  0.914000  0.990800  0.451600  1.0  0.0841
  C  C707  1  0.868800  0.518600  0.992300  1.0  0.1779
  C  C708  1  0.920800  0.471100  0.095500  1.0  -0.0923
  C  C709  1  0.885900  0.029200  0.418200  1.0  -0.1381
  C  C710  1  0.950400  0.995100  0.522500  1.0  0.2139
  C  C711  1  0.860000  0.480000  0.954500  1.0  -0.1592
  C  C712  1  0.914900  0.434100  0.046000  1.0  0.0512
  C  C713  1  0.895400  0.071300  0.468500  1.0  0.2375
  C  C714  1  0.947100  0.026500  0.557500  1.0  -0.1295
  C  C715  1  0.888400  0.436400  0.980800  1.0  0.0631
  C  C716  1  0.791700  0.551000  0.880000  1.0  -0.0543
  C  C717  1  0.910900  0.064400  0.523500  1.0  0.3017
  C  C718  1  0.890200  0.398900  0.944700  1.0  0.0102
  C  C719  1  0.750800  0.530000  0.869100  1.0  -0.0933
  C  C720  1  0.986700  0.388400  0.169700  1.0  0.0047
  C  C721  1  0.908000  0.101400  0.558800  1.0  0.0874
  C  C722  1  0.932000  0.381100  0.968700  1.0  -0.1093
  C  C723  1  0.848300  0.381600  0.883500  1.0  -0.1511
  C  C724  1  0.718100  0.541400  0.881100  1.0  -0.0387
  C  C725  1  0.988600  0.330200  0.168500  1.0  -0.1875
  C  C726  1  0.949100  0.124300  0.618200  1.0  -0.1511
  C  C727  1  0.865500  0.112800  0.539000  1.0  -0.1095
  C  C728  1  0.933900  0.349700  0.930000  1.0  -0.0431
  C  C729  1  0.849400  0.349900  0.844300  1.0  -0.0466
  C  C730  1  0.718200  0.579600  0.900800  1.0  -0.3544
  C  C731  1  0.948100  0.156700  0.655400  1.0  -0.1276
  C  C732  1  0.863900  0.144300  0.577300  1.0  0.0087
  C  C733  1  0.892100  0.333900  0.867400  1.0  -0.1393
  C  C734  1  0.903510  0.165760  0.633600  1.0  -0.1244
  C  C735  1  0.893100  0.301300  0.825400  1.0  0.717
  C  C736  1  0.901360  0.198980  0.675800  1.0  0.6753
  C  C737  1  0.548790  0.217900  0.368700  1.0  0.1805
  C  C738  1  0.548700  0.262800  0.438300  1.0  0.1734
  C  C739  1  0.396000  0.170530  0.199400  1.0  0.699
  C  C740  1  0.406500  0.328540  0.311600  1.0  0.7005
  C  C741  1  0.597410  0.216200  0.416500  1.0  -0.1731
  C  C742  1  0.597400  0.262400  0.488100  1.0  -0.199
  C  C743  1  0.394100  0.125600  0.165800  1.0  -0.081
  C  C744  1  0.407900  0.371900  0.345400  1.0  -0.1059
  C  C745  1  0.622360  0.240000  0.477400  1.0  0.0532
  C  C746  1  0.434500  0.101200  0.193000  1.0  -0.0447
  C  C747  1  0.351500  0.109600  0.103900  1.0  -0.0401
  C  C748  1  0.451300  0.395300  0.398300  1.0  -0.0708
  C  C749  1  0.366800  0.389700  0.325300  1.0  -0.0315
  C  C750  1  0.675400  0.241000  0.529200  1.0  0.2649
  C  C751  1  0.433300  0.063000  0.158200  1.0  -0.1541
  C  C752  1  0.349900  0.072000  0.068000  1.0  -0.1546
  C  C753  1  0.452600  0.432900  0.432500  1.0  -0.1498
  C  C754  1  0.368900  0.429700  0.360300  1.0  -0.1403
  C  C755  1  0.700700  0.230100  0.517200  1.0  -0.193
  C  C756  1  0.701100  0.249800  0.594800  1.0  -0.1784
  C  C757  1  0.391000  0.048700  0.095100  1.0  0.0568
  C  C758  1  0.410600  0.451400  0.413000  1.0  0.0791
  C  C759  1  0.750500  0.231200  0.568500  1.0  0.1852
  C  C760  1  0.750200  0.248500  0.643000  1.0  0.1615
  C  C761  1  0.389000  0.007800  0.057600  1.0  -0.0555
  C  C762  1  0.414000  0.490800  0.451600  1.0  0.0841
  C  C763  1  0.368800  0.018600  0.992300  1.0  0.1779
  C  C764  1  0.420800  0.971100  0.095500  1.0  -0.0923
  C  C765  1  0.385900  0.529200  0.418200  1.0  -0.1381
  C  C766  1  0.450400  0.495100  0.522500  1.0  0.2139
  C  C767  1  0.360000  0.980000  0.954500  1.0  -0.1592
  C  C768  1  0.414900  0.934100  0.046000  1.0  0.0512
  C  C769  1  0.395400  0.571300  0.468500  1.0  0.2375
  C  C770  1  0.447100  0.526500  0.557500  1.0  -0.1295
  C  C771  1  0.388400  0.936400  0.980800  1.0  0.0631
  C  C772  1  0.291700  0.051000  0.880000  1.0  -0.0543
  C  C773  1  0.410900  0.564400  0.523500  1.0  0.3017
  C  C774  1  0.390200  0.898900  0.944700  1.0  0.0102
  C  C775  1  0.250800  0.030000  0.869100  1.0  -0.0933
  C  C776  1  0.486700  0.888400  0.169700  1.0  0.0047
  C  C777  1  0.408000  0.601400  0.558800  1.0  0.0874
  C  C778  1  0.432000  0.881100  0.968700  1.0  -0.1093
  C  C779  1  0.348300  0.881600  0.883500  1.0  -0.1511
  C  C780  1  0.218100  0.041400  0.881100  1.0  -0.0387
  C  C781  1  0.488600  0.830200  0.168500  1.0  -0.1875
  C  C782  1  0.449100  0.624300  0.618200  1.0  -0.1511
  C  C783  1  0.365500  0.612800  0.539000  1.0  -0.1095
  C  C784  1  0.433900  0.849700  0.930000  1.0  -0.0431
  C  C785  1  0.349400  0.849900  0.844300  1.0  -0.0466
  C  C786  1  0.218200  0.079600  0.900800  1.0  -0.3544
  C  C787  1  0.448100  0.656700  0.655400  1.0  -0.1276
  C  C788  1  0.363900  0.644300  0.577300  1.0  0.0087
  C  C789  1  0.392100  0.833900  0.867400  1.0  -0.1393
  C  C790  1  0.403510  0.665760  0.633600  1.0  -0.1244
  C  C791  1  0.393100  0.801300  0.825400  1.0  0.717
  C  C792  1  0.401360  0.698980  0.675800  1.0  0.6753
  N  N793  1  0.976710  0.258640  0.621400  1.0  -0.3196
  N  N794  1  0.225470  0.242420  0.871800  1.0  -0.2116
  N  N795  1  0.476710  0.758640  0.621400  1.0  -0.3196
  N  N796  1  0.725470  0.742420  0.871800  1.0  -0.2116
  N  N797  1  0.976710  0.741360  0.121400  1.0  -0.3198
  N  N798  1  0.225470  0.757580  0.371800  1.0  -0.2123
  N  N799  1  0.476710  0.241360  0.121400  1.0  -0.3198
  N  N800  1  0.725470  0.257580  0.371800  1.0  -0.2123
  N  N801  1  0.023290  0.258640  0.878600  1.0  -0.3211
  N  N802  1  0.774530  0.242420  0.628200  1.0  -0.2089
  N  N803  1  0.523290  0.758640  0.878600  1.0  -0.3211
  N  N804  1  0.274530  0.742420  0.628200  1.0  -0.2089
  N  N805  1  0.023290  0.741360  0.378600  1.0  -0.3212
  N  N806  1  0.774530  0.757580  0.128200  1.0  -0.2084
  N  N807  1  0.523290  0.241360  0.378600  1.0  -0.3212
  N  N808  1  0.274530  0.257580  0.128200  1.0  -0.2084
  O  O809  1  0.064150  0.316130  0.747640  1.0  -0.5828
  O  O810  1  0.055170  0.188720  0.665200  1.0  -0.5855
  O  O811  1  0.067450  0.287750  0.650980  1.0  -0.5925
  O  O812  1  0.060050  0.215990  0.770100  1.0  -0.5928
  O  O813  1  0.142890  0.308460  0.830300  1.0  -0.5883
  O  O814  1  0.134480  0.188470  0.739200  1.0  -0.6202
  O  O815  1  0.145660  0.289010  0.731500  1.0  -0.595
  O  O816  1  0.138980  0.207340  0.847340  1.0  -0.5591
  O  O817  1  0.169900  0.450400  0.041300  1.0  -0.4166
  O  O818  1  0.015200  0.038500  0.438200  1.0  -0.4697
  O  O819  1  0.048200  0.609500  0.903000  1.0  -0.5874
  O  O820  1  0.137400  0.908000  0.573100  1.0  -0.4705
  O  O821  1  0.564150  0.816130  0.747640  1.0  -0.5828
  O  O822  1  0.555170  0.688720  0.665200  1.0  -0.5855
  O  O823  1  0.567450  0.787750  0.650980  1.0  -0.5925
  O  O824  1  0.560050  0.715990  0.770100  1.0  -0.5928
  O  O825  1  0.642890  0.808460  0.830300  1.0  -0.5883
  O  O826  1  0.634480  0.688470  0.739200  1.0  -0.6202
  O  O827  1  0.645660  0.789010  0.731500  1.0  -0.595
  O  O828  1  0.638980  0.707340  0.847340  1.0  -0.5591
  O  O829  1  0.669900  0.950400  0.041300  1.0  -0.4166
  O  O830  1  0.515200  0.538500  0.438200  1.0  -0.4697
  O  O831  1  0.548200  0.109500  0.903000  1.0  -0.5874
  O  O832  1  0.637400  0.408000  0.573100  1.0  -0.4705
  O  O833  1  0.064150  0.683870  0.247640  1.0  -0.5828
  O  O834  1  0.055170  0.811280  0.165200  1.0  -0.5852
  O  O835  1  0.067450  0.712250  0.150980  1.0  -0.5928
  O  O836  1  0.060050  0.784010  0.270100  1.0  -0.593
  O  O837  1  0.142890  0.691540  0.330300  1.0  -0.5886
  O  O838  1  0.134480  0.811530  0.239200  1.0  -0.6199
  O  O839  1  0.145660  0.710990  0.231500  1.0  -0.5949
  O  O840  1  0.138980  0.792660  0.347340  1.0  -0.559
  O  O841  1  0.169900  0.549600  0.541300  1.0  -0.4157
  O  O842  1  0.015200  0.961500  0.938200  1.0  -0.4677
  O  O843  1  0.048200  0.390500  0.403000  1.0  -0.5876
  O  O844  1  0.137400  0.092000  0.073100  1.0  -0.4706
  O  O845  1  0.564150  0.183870  0.247640  1.0  -0.5828
  O  O846  1  0.555170  0.311280  0.165200  1.0  -0.5852
  O  O847  1  0.567450  0.212250  0.150980  1.0  -0.5928
  O  O848  1  0.560050  0.284010  0.270100  1.0  -0.593
  O  O849  1  0.642890  0.191540  0.330300  1.0  -0.5886
  O  O850  1  0.634480  0.311530  0.239200  1.0  -0.6199
  O  O851  1  0.645660  0.210990  0.231500  1.0  -0.5949
  O  O852  1  0.638980  0.292660  0.347340  1.0  -0.559
  O  O853  1  0.669900  0.049600  0.541300  1.0  -0.4157
  O  O854  1  0.515200  0.461500  0.938200  1.0  -0.4677
  O  O855  1  0.548200  0.890500  0.403000  1.0  -0.5876
  O  O856  1  0.637400  0.592000  0.073100  1.0  -0.4706
  O  O857  1  0.935850  0.316130  0.752360  1.0  -0.5843
  O  O858  1  0.944830  0.188720  0.834800  1.0  -0.5853
  O  O859  1  0.932550  0.287750  0.849020  1.0  -0.5942
  O  O860  1  0.939950  0.215990  0.729900  1.0  -0.5929
  O  O861  1  0.857110  0.308460  0.669700  1.0  -0.5893
  O  O862  1  0.865520  0.188470  0.760800  1.0  -0.6205
  O  O863  1  0.854340  0.289010  0.768500  1.0  -0.5952
  O  O864  1  0.861020  0.207340  0.652660  1.0  -0.5593
  O  O865  1  0.830100  0.450400  0.458700  1.0  -0.4165
  O  O866  1  0.984800  0.038500  0.061800  1.0  -0.4695
  O  O867  1  0.951800  0.609500  0.597000  1.0  -0.5899
  O  O868  1  0.862600  0.908000  0.926900  1.0  -0.472
  O  O869  1  0.435850  0.816130  0.752360  1.0  -0.5843
  O  O870  1  0.444830  0.688720  0.834800  1.0  -0.5853
  O  O871  1  0.432550  0.787750  0.849020  1.0  -0.5942
  O  O872  1  0.439950  0.715990  0.729900  1.0  -0.5929
  O  O873  1  0.357110  0.808460  0.669700  1.0  -0.5893
  O  O874  1  0.365520  0.688470  0.760800  1.0  -0.6205
  O  O875  1  0.354340  0.789010  0.768500  1.0  -0.5952
  O  O876  1  0.361020  0.707340  0.652660  1.0  -0.5593
  O  O877  1  0.330100  0.950400  0.458700  1.0  -0.4165
  O  O878  1  0.484800  0.538500  0.061800  1.0  -0.4695
  O  O879  1  0.451800  0.109500  0.597000  1.0  -0.5899
  O  O880  1  0.362600  0.408000  0.926900  1.0  -0.472
  O  O881  1  0.935850  0.683870  0.252360  1.0  -0.5841
  O  O882  1  0.944830  0.811280  0.334800  1.0  -0.5851
  O  O883  1  0.932550  0.712250  0.349020  1.0  -0.5941
  O  O884  1  0.939950  0.784010  0.229900  1.0  -0.5935
  O  O885  1  0.857110  0.691540  0.169700  1.0  -0.5892
  O  O886  1  0.865520  0.811530  0.260800  1.0  -0.6202
  O  O887  1  0.854340  0.710990  0.268500  1.0  -0.5952
  O  O888  1  0.861020  0.792660  0.152660  1.0  -0.5592
  O  O889  1  0.830100  0.549600  0.958700  1.0  -0.4163
  O  O890  1  0.984800  0.961500  0.561800  1.0  -0.4713
  O  O891  1  0.951800  0.390500  0.097000  1.0  -0.5911
  O  O892  1  0.862600  0.092000  0.426900  1.0  -0.4717
  O  O893  1  0.435850  0.183870  0.252360  1.0  -0.5841
  O  O894  1  0.444830  0.311280  0.334800  1.0  -0.5851
  O  O895  1  0.432550  0.212250  0.349020  1.0  -0.5941
  O  O896  1  0.439950  0.284010  0.229900  1.0  -0.5935
  O  O897  1  0.357110  0.191540  0.169700  1.0  -0.5892
  O  O898  1  0.365520  0.311530  0.260800  1.0  -0.6202
  O  O899  1  0.354340  0.210990  0.268500  1.0  -0.5952
  O  O900  1  0.361020  0.292660  0.152660  1.0  -0.5592
  O  O901  1  0.330100  0.049600  0.958700  1.0  -0.4163
  O  O902  1  0.484800  0.461500  0.561800  1.0  -0.4713
  O  O903  1  0.451800  0.890500  0.097000  1.0  -0.5911
  O  O904  1  0.362600  0.592000  0.426900  1.0  -0.4717
