# generated using pymatgen
data_ZnH20C28NO6
_symmetry_space_group_name_H-M   'P 1'
_cell_length_a   38.82980000
_cell_length_b   27.73390000
_cell_length_c   27.04550000
_cell_angle_alpha   90.00000000
_cell_angle_beta   133.54500000
_cell_angle_gamma   90.00000000
_symmetry_Int_Tables_number   1
_chemical_formula_structural   ZnH20C28NO6
_chemical_formula_sum   'Zn16 H320 C448 N16 O96'
_cell_volume   21111.02790571
_cell_formula_units_Z   16
loop_
 _symmetry_equiv_pos_site_id
 _symmetry_equiv_pos_as_xyz
  1  'x, y, z'
loop_
 _atom_site_type_symbol
 _atom_site_label
 _atom_site_symmetry_multiplicity
 _atom_site_fract_x
 _atom_site_fract_y
 _atom_site_fract_z
 _atom_site_occupancy
 _atom_site_charge
  Zn  Zn1  1  0.152340  0.253260  0.297360  1.0  0.9323
  Zn  Zn2  1  0.048000  0.246700  0.193420  1.0  0.9208
  Zn  Zn3  1  0.652340  0.753260  0.297360  1.0  0.9323
  Zn  Zn4  1  0.548000  0.746700  0.193420  1.0  0.9208
  Zn  Zn5  1  0.152340  0.746740  0.797360  1.0  0.9324
  Zn  Zn6  1  0.048000  0.753300  0.693420  1.0  0.9209
  Zn  Zn7  1  0.652340  0.246740  0.797360  1.0  0.9324
  Zn  Zn8  1  0.548000  0.253300  0.693420  1.0  0.9209
  Zn  Zn9  1  0.847660  0.253260  0.202640  1.0  0.9328
  Zn  Zn10  1  0.952000  0.246700  0.306580  1.0  0.9204
  Zn  Zn11  1  0.347660  0.753260  0.202640  1.0  0.9328
  Zn  Zn12  1  0.452000  0.746700  0.306580  1.0  0.9204
  Zn  Zn13  1  0.847660  0.746740  0.702640  1.0  0.9326
  Zn  Zn14  1  0.952000  0.753300  0.806580  1.0  0.9203
  Zn  Zn15  1  0.347660  0.246740  0.702640  1.0  0.9326
  Zn  Zn16  1  0.452000  0.253300  0.806580  1.0  0.9203
  H  H17  1  0.036300  0.889000  0.762800  1.0  0.1256
  H  H18  1  0.039400  0.952900  0.820700  1.0  0.1057
  H  H19  1  0.178600  0.935100  0.973400  1.0  0.1196
  H  H20  1  0.176700  0.873700  0.915200  1.0  0.1066
  H  H21  1  0.066000  0.033100  0.863700  1.0  0.0879
  H  H22  1  0.157300  0.015200  0.097400  1.0  0.1249
  H  H23  1  0.038200  0.164900  0.048400  1.0  0.1063
  H  H24  1  0.039800  0.114100  0.983100  1.0  0.1135
  H  H25  1  0.180700  0.107000  0.133800  1.0  0.1341
  H  H26  1  0.176100  0.157300  0.194700  1.0  0.074
  H  H27  1  0.009400  0.088600  0.801000  1.0  0.1317
  H  H28  1  0.049800  0.124900  0.823100  1.0  0.1136
  H  H29  1  0.004200  0.163000  0.862300  1.0  0.195
  H  H30  1  0.965300  0.154800  0.783200  1.0  0.1758
  H  H31  1  0.019400  0.617400  0.585100  1.0  0.1021
  H  H32  1  0.016200  0.556300  0.524200  1.0  0.0912
  H  H33  1  0.157600  0.559400  0.651600  1.0  0.1185
  H  H34  1  0.160400  0.626400  0.704800  1.0  0.113
  H  H35  1  0.031400  0.470700  0.391500  1.0  0.1148
  H  H36  1  0.138600  0.469000  0.630200  1.0  0.1186
  H  H37  1  0.165100  0.351600  0.434300  1.0  0.1158
  H  H38  1  0.160300  0.404700  0.496500  1.0  0.1168
  H  H39  1  0.020900  0.381100  0.368000  1.0  0.1052
  H  H40  1  0.954500  0.500500  0.348500  1.0  0.1719
  H  H41  1  0.979700  0.531500  0.331000  1.0  0.172
  H  H42  1  0.198700  0.416400  0.689600  1.0  0.1162
  H  H43  1  0.150400  0.394400  0.660500  1.0  0.1027
  H  H44  1  0.179700  0.316400  0.651000  1.0  0.0895
  H  H45  1  0.229800  0.340600  0.700800  1.0  0.0981
  H  H46  1  0.222100  0.290800  0.753800  1.0  0.1004
  H  H47  1  0.177900  0.319300  0.729600  1.0  0.1157
  H  H48  1  0.228200  0.343500  0.779600  1.0  0.1092
  H  H49  1  0.235600  0.255700  0.450900  1.0  0.0741
  H  H50  1  0.310300  0.264800  0.527200  1.0  0.0914
  H  H51  1  0.314700  0.251100  0.385500  1.0  0.1236
  H  H52  1  0.232000  0.254300  0.306000  1.0  0.0805
  H  H53  1  0.467000  0.298000  0.670500  1.0  0.0772
  H  H54  1  0.386100  0.297800  0.592100  1.0  0.1074
  H  H55  1  0.387500  0.222200  0.469000  1.0  0.1191
  H  H56  1  0.467300  0.221400  0.551300  1.0  0.0868
  H  H57  1  0.536300  0.389000  0.762800  1.0  0.1256
  H  H58  1  0.539400  0.452900  0.820700  1.0  0.1057
  H  H59  1  0.678600  0.435100  0.973400  1.0  0.1196
  H  H60  1  0.676700  0.373700  0.915200  1.0  0.1066
  H  H61  1  0.566000  0.533100  0.863700  1.0  0.0879
  H  H62  1  0.657300  0.515200  0.097400  1.0  0.1249
  H  H63  1  0.538200  0.664900  0.048400  1.0  0.1063
  H  H64  1  0.539800  0.614100  0.983100  1.0  0.1135
  H  H65  1  0.680700  0.607000  0.133800  1.0  0.1341
  H  H66  1  0.676100  0.657300  0.194700  1.0  0.074
  H  H67  1  0.509400  0.588600  0.801000  1.0  0.1317
  H  H68  1  0.549800  0.624900  0.823100  1.0  0.1136
  H  H69  1  0.504200  0.663000  0.862300  1.0  0.195
  H  H70  1  0.465300  0.654800  0.783200  1.0  0.1758
  H  H71  1  0.519400  0.117400  0.585100  1.0  0.1021
  H  H72  1  0.516200  0.056300  0.524200  1.0  0.0912
  H  H73  1  0.657600  0.059400  0.651600  1.0  0.1185
  H  H74  1  0.660400  0.126400  0.704800  1.0  0.113
  H  H75  1  0.531400  0.970700  0.391500  1.0  0.1148
  H  H76  1  0.638600  0.969000  0.630200  1.0  0.1186
  H  H77  1  0.665100  0.851600  0.434300  1.0  0.1158
  H  H78  1  0.660300  0.904700  0.496500  1.0  0.1168
  H  H79  1  0.520900  0.881100  0.368000  1.0  0.1052
  H  H80  1  0.454500  0.000500  0.348500  1.0  0.1719
  H  H81  1  0.479700  0.031500  0.331000  1.0  0.172
  H  H82  1  0.698700  0.916400  0.689600  1.0  0.1162
  H  H83  1  0.650400  0.894400  0.660500  1.0  0.1027
  H  H84  1  0.679700  0.816400  0.651000  1.0  0.0895
  H  H85  1  0.729800  0.840600  0.700800  1.0  0.0981
  H  H86  1  0.722100  0.790800  0.753800  1.0  0.1004
  H  H87  1  0.677900  0.819300  0.729600  1.0  0.1157
  H  H88  1  0.728200  0.843500  0.779600  1.0  0.1092
  H  H89  1  0.735600  0.755700  0.450900  1.0  0.0741
  H  H90  1  0.810300  0.764800  0.527200  1.0  0.0914
  H  H91  1  0.814700  0.751100  0.385500  1.0  0.1236
  H  H92  1  0.732000  0.754300  0.306000  1.0  0.0805
  H  H93  1  0.967000  0.798000  0.670500  1.0  0.0772
  H  H94  1  0.886100  0.797800  0.592100  1.0  0.1074
  H  H95  1  0.887500  0.722200  0.469000  1.0  0.1191
  H  H96  1  0.967300  0.721400  0.551300  1.0  0.0868
  H  H97  1  0.036300  0.111000  0.262800  1.0  0.1258
  H  H98  1  0.039400  0.047100  0.320700  1.0  0.1059
  H  H99  1  0.178600  0.064900  0.473400  1.0  0.1195
  H  H100  1  0.176700  0.126300  0.415200  1.0  0.1078
  H  H101  1  0.066000  0.966900  0.363700  1.0  0.088
  H  H102  1  0.157300  0.984800  0.597400  1.0  0.1246
  H  H103  1  0.038200  0.835100  0.548400  1.0  0.1065
  H  H104  1  0.039800  0.885900  0.483100  1.0  0.1136
  H  H105  1  0.180700  0.893000  0.633800  1.0  0.1342
  H  H106  1  0.176100  0.842700  0.694700  1.0  0.0738
  H  H107  1  0.009400  0.911400  0.301000  1.0  0.1315
  H  H108  1  0.049800  0.875100  0.323100  1.0  0.1135
  H  H109  1  0.004200  0.837000  0.362300  1.0  0.1959
  H  H110  1  0.965300  0.845200  0.283200  1.0  0.1761
  H  H111  1  0.019400  0.382600  0.085100  1.0  0.1022
  H  H112  1  0.016200  0.443700  0.024200  1.0  0.0913
  H  H113  1  0.157600  0.440600  0.151600  1.0  0.1185
  H  H114  1  0.160400  0.373600  0.204800  1.0  0.1128
  H  H115  1  0.031400  0.529300  0.891500  1.0  0.1145
  H  H116  1  0.138600  0.531000  0.130200  1.0  0.119
  H  H117  1  0.165100  0.648400  0.934300  1.0  0.1154
  H  H118  1  0.160300  0.595300  0.996500  1.0  0.1168
  H  H119  1  0.020900  0.618900  0.868000  1.0  0.1051
  H  H120  1  0.954500  0.499500  0.848500  1.0  0.1714
  H  H121  1  0.979700  0.468500  0.831000  1.0  0.173
  H  H122  1  0.198700  0.583600  0.189600  1.0  0.1166
  H  H123  1  0.150400  0.605600  0.160500  1.0  0.1028
  H  H124  1  0.179700  0.683600  0.151000  1.0  0.0899
  H  H125  1  0.229800  0.659400  0.200800  1.0  0.0981
  H  H126  1  0.222100  0.709200  0.253800  1.0  0.1007
  H  H127  1  0.177900  0.680700  0.229600  1.0  0.1154
  H  H128  1  0.228200  0.656500  0.279600  1.0  0.108
  H  H129  1  0.235600  0.744300  0.950900  1.0  0.0742
  H  H130  1  0.310300  0.735200  0.027200  1.0  0.0917
  H  H131  1  0.314700  0.748900  0.885500  1.0  0.1243
  H  H132  1  0.232000  0.745700  0.806000  1.0  0.0805
  H  H133  1  0.467000  0.702000  0.170500  1.0  0.0774
  H  H134  1  0.386100  0.702200  0.092100  1.0  0.1072
  H  H135  1  0.387500  0.777800  0.969000  1.0  0.119
  H  H136  1  0.467300  0.778600  0.051300  1.0  0.0865
  H  H137  1  0.536300  0.611000  0.262800  1.0  0.1258
  H  H138  1  0.539400  0.547100  0.320700  1.0  0.1059
  H  H139  1  0.678600  0.564900  0.473400  1.0  0.1195
  H  H140  1  0.676700  0.626300  0.415200  1.0  0.1078
  H  H141  1  0.566000  0.466900  0.363700  1.0  0.088
  H  H142  1  0.657300  0.484800  0.597400  1.0  0.1246
  H  H143  1  0.538200  0.335100  0.548400  1.0  0.1065
  H  H144  1  0.539800  0.385900  0.483100  1.0  0.1136
  H  H145  1  0.680700  0.393000  0.633800  1.0  0.1342
  H  H146  1  0.676100  0.342700  0.694700  1.0  0.0738
  H  H147  1  0.509400  0.411400  0.301000  1.0  0.1315
  H  H148  1  0.549800  0.375100  0.323100  1.0  0.1135
  H  H149  1  0.504200  0.337000  0.362300  1.0  0.1959
  H  H150  1  0.465300  0.345200  0.283200  1.0  0.1761
  H  H151  1  0.519400  0.882600  0.085100  1.0  0.1022
  H  H152  1  0.516200  0.943700  0.024200  1.0  0.0913
  H  H153  1  0.657600  0.940600  0.151600  1.0  0.1185
  H  H154  1  0.660400  0.873600  0.204800  1.0  0.1128
  H  H155  1  0.531400  0.029300  0.891500  1.0  0.1145
  H  H156  1  0.638600  0.031000  0.130200  1.0  0.119
  H  H157  1  0.665100  0.148400  0.934300  1.0  0.1154
  H  H158  1  0.660300  0.095300  0.996500  1.0  0.1168
  H  H159  1  0.520900  0.118900  0.868000  1.0  0.1051
  H  H160  1  0.454500  0.999500  0.848500  1.0  0.1714
  H  H161  1  0.479700  0.968500  0.831000  1.0  0.173
  H  H162  1  0.698700  0.083600  0.189600  1.0  0.1166
  H  H163  1  0.650400  0.105600  0.160500  1.0  0.1028
  H  H164  1  0.679700  0.183600  0.151000  1.0  0.0899
  H  H165  1  0.729800  0.159400  0.200800  1.0  0.0981
  H  H166  1  0.722100  0.209200  0.253800  1.0  0.1007
  H  H167  1  0.677900  0.180700  0.229600  1.0  0.1154
  H  H168  1  0.728200  0.156500  0.279600  1.0  0.108
  H  H169  1  0.735600  0.244300  0.950900  1.0  0.0742
  H  H170  1  0.810300  0.235200  0.027200  1.0  0.0917
  H  H171  1  0.814700  0.248900  0.885500  1.0  0.1243
  H  H172  1  0.732000  0.245700  0.806000  1.0  0.0805
  H  H173  1  0.967000  0.202000  0.170500  1.0  0.0774
  H  H174  1  0.886100  0.202200  0.092100  1.0  0.1072
  H  H175  1  0.887500  0.277800  0.969000  1.0  0.119
  H  H176  1  0.967300  0.278600  0.051300  1.0  0.0865
  H  H177  1  0.963700  0.889000  0.737200  1.0  0.1261
  H  H178  1  0.960600  0.952900  0.679300  1.0  0.1063
  H  H179  1  0.821400  0.935100  0.526600  1.0  0.1202
  H  H180  1  0.823300  0.873700  0.584800  1.0  0.1067
  H  H181  1  0.934000  0.033100  0.636300  1.0  0.0869
  H  H182  1  0.842700  0.015200  0.402600  1.0  0.1249
  H  H183  1  0.961800  0.164900  0.451600  1.0  0.1067
  H  H184  1  0.960200  0.114100  0.516900  1.0  0.113
  H  H185  1  0.819300  0.107000  0.366200  1.0  0.1359
  H  H186  1  0.823900  0.157300  0.305300  1.0  0.075
  H  H187  1  0.990600  0.088600  0.699000  1.0  0.1329
  H  H188  1  0.950200  0.124900  0.676900  1.0  0.1147
  H  H189  1  0.995800  0.163000  0.637700  1.0  0.1946
  H  H190  1  0.034700  0.154800  0.716800  1.0  0.1746
  H  H191  1  0.980600  0.617400  0.914900  1.0  0.1033
  H  H192  1  0.983800  0.556300  0.975800  1.0  0.092
  H  H193  1  0.842400  0.559400  0.848400  1.0  0.1191
  H  H194  1  0.839600  0.626400  0.795200  1.0  0.1127
  H  H195  1  0.968600  0.470700  0.108500  1.0  0.1145
  H  H196  1  0.861400  0.469000  0.869800  1.0  0.1194
  H  H197  1  0.834900  0.351600  0.065700  1.0  0.1167
  H  H198  1  0.839700  0.404700  0.003500  1.0  0.1162
  H  H199  1  0.979100  0.381100  0.132000  1.0  0.1052
  H  H200  1  0.045500  0.500500  0.151500  1.0  0.1718
  H  H201  1  0.020300  0.531500  0.169000  1.0  0.1759
  H  H202  1  0.801300  0.416400  0.810400  1.0  0.1172
  H  H203  1  0.849600  0.394400  0.839500  1.0  0.1019
  H  H204  1  0.820300  0.316400  0.849000  1.0  0.0892
  H  H205  1  0.770200  0.340600  0.799200  1.0  0.0951
  H  H206  1  0.777900  0.290800  0.746200  1.0  0.0985
  H  H207  1  0.822100  0.319300  0.770400  1.0  0.1046
  H  H208  1  0.771800  0.343500  0.720400  1.0  0.1093
  H  H209  1  0.764400  0.255700  0.049100  1.0  0.0757
  H  H210  1  0.689700  0.264800  0.972800  1.0  0.0913
  H  H211  1  0.685300  0.251100  0.114500  1.0  0.1238
  H  H212  1  0.768000  0.254300  0.194000  1.0  0.0801
  H  H213  1  0.533000  0.298000  0.829500  1.0  0.0772
  H  H214  1  0.613900  0.297800  0.907900  1.0  0.1076
  H  H215  1  0.612500  0.222200  0.031000  1.0  0.1206
  H  H216  1  0.532700  0.221400  0.948700  1.0  0.0882
  H  H217  1  0.463700  0.389000  0.737200  1.0  0.1261
  H  H218  1  0.460600  0.452900  0.679300  1.0  0.1063
  H  H219  1  0.321400  0.435100  0.526600  1.0  0.1202
  H  H220  1  0.323300  0.373700  0.584800  1.0  0.1067
  H  H221  1  0.434000  0.533100  0.636300  1.0  0.0869
  H  H222  1  0.342700  0.515200  0.402600  1.0  0.1249
  H  H223  1  0.461800  0.664900  0.451600  1.0  0.1067
  H  H224  1  0.460200  0.614100  0.516900  1.0  0.113
  H  H225  1  0.319300  0.607000  0.366200  1.0  0.1359
  H  H226  1  0.323900  0.657300  0.305300  1.0  0.075
  H  H227  1  0.490600  0.588600  0.699000  1.0  0.1329
  H  H228  1  0.450200  0.624900  0.676900  1.0  0.1147
  H  H229  1  0.495800  0.663000  0.637700  1.0  0.1946
  H  H230  1  0.534700  0.654800  0.716800  1.0  0.1746
  H  H231  1  0.480600  0.117400  0.914900  1.0  0.1033
  H  H232  1  0.483800  0.056300  0.975800  1.0  0.092
  H  H233  1  0.342400  0.059400  0.848400  1.0  0.1191
  H  H234  1  0.339600  0.126400  0.795200  1.0  0.1127
  H  H235  1  0.468600  0.970700  0.108500  1.0  0.1145
  H  H236  1  0.361400  0.969000  0.869800  1.0  0.1194
  H  H237  1  0.334900  0.851600  0.065700  1.0  0.1167
  H  H238  1  0.339700  0.904700  0.003500  1.0  0.1162
  H  H239  1  0.479100  0.881100  0.132000  1.0  0.1052
  H  H240  1  0.545500  0.000500  0.151500  1.0  0.1718
  H  H241  1  0.520300  0.031500  0.169000  1.0  0.1759
  H  H242  1  0.301300  0.916400  0.810400  1.0  0.1172
  H  H243  1  0.349600  0.894400  0.839500  1.0  0.1019
  H  H244  1  0.320300  0.816400  0.849000  1.0  0.0892
  H  H245  1  0.270200  0.840600  0.799200  1.0  0.0951
  H  H246  1  0.277900  0.790800  0.746200  1.0  0.0985
  H  H247  1  0.322100  0.819300  0.770400  1.0  0.1046
  H  H248  1  0.271800  0.843500  0.720400  1.0  0.1093
  H  H249  1  0.264400  0.755700  0.049100  1.0  0.0757
  H  H250  1  0.189700  0.764800  0.972800  1.0  0.0913
  H  H251  1  0.185300  0.751100  0.114500  1.0  0.1238
  H  H252  1  0.268000  0.754300  0.194000  1.0  0.0801
  H  H253  1  0.033000  0.798000  0.829500  1.0  0.0772
  H  H254  1  0.113900  0.797800  0.907900  1.0  0.1076
  H  H255  1  0.112500  0.722200  0.031000  1.0  0.1206
  H  H256  1  0.032700  0.721400  0.948700  1.0  0.0882
  H  H257  1  0.963700  0.111000  0.237200  1.0  0.1264
  H  H258  1  0.960600  0.047100  0.179300  1.0  0.1061
  H  H259  1  0.821400  0.064900  0.026600  1.0  0.12
  H  H260  1  0.823300  0.126300  0.084800  1.0  0.1078
  H  H261  1  0.934000  0.966900  0.136300  1.0  0.0868
  H  H262  1  0.842700  0.984800  0.902600  1.0  0.1249
  H  H263  1  0.961800  0.835100  0.951600  1.0  0.1067
  H  H264  1  0.960200  0.885900  0.016900  1.0  0.113
  H  H265  1  0.819300  0.893000  0.866200  1.0  0.1358
  H  H266  1  0.823900  0.842700  0.805300  1.0  0.0749
  H  H267  1  0.990600  0.911400  0.199000  1.0  0.132
  H  H268  1  0.950200  0.875100  0.176900  1.0  0.1149
  H  H269  1  0.995800  0.837000  0.137700  1.0  0.1954
  H  H270  1  0.034700  0.845200  0.216800  1.0  0.1747
  H  H271  1  0.980600  0.382600  0.414900  1.0  0.1033
  H  H272  1  0.983800  0.443700  0.475800  1.0  0.0924
  H  H273  1  0.842400  0.440600  0.348400  1.0  0.1192
  H  H274  1  0.839600  0.373600  0.295200  1.0  0.1128
  H  H275  1  0.968600  0.529300  0.608500  1.0  0.1149
  H  H276  1  0.861400  0.531000  0.369800  1.0  0.1197
  H  H277  1  0.834900  0.648400  0.565700  1.0  0.1168
  H  H278  1  0.839700  0.595300  0.503500  1.0  0.116
  H  H279  1  0.979100  0.618900  0.632000  1.0  0.1052
  H  H280  1  0.045500  0.499500  0.651500  1.0  0.1711
  H  H281  1  0.020300  0.468500  0.669000  1.0  0.176
  H  H282  1  0.801300  0.583600  0.310400  1.0  0.1159
  H  H283  1  0.849600  0.605600  0.339500  1.0  0.1022
  H  H284  1  0.820300  0.683600  0.349000  1.0  0.0889
  H  H285  1  0.770200  0.659400  0.299200  1.0  0.0955
  H  H286  1  0.777900  0.709200  0.246200  1.0  0.0997
  H  H287  1  0.822100  0.680700  0.270400  1.0  0.1051
  H  H288  1  0.771800  0.656500  0.220400  1.0  0.1074
  H  H289  1  0.764400  0.744300  0.549100  1.0  0.0755
  H  H290  1  0.689700  0.735200  0.472800  1.0  0.091
  H  H291  1  0.685300  0.748900  0.614500  1.0  0.1246
  H  H292  1  0.768000  0.745700  0.694000  1.0  0.0803
  H  H293  1  0.533000  0.702000  0.329500  1.0  0.0769
  H  H294  1  0.613900  0.702200  0.407900  1.0  0.1073
  H  H295  1  0.612500  0.777800  0.531000  1.0  0.1209
  H  H296  1  0.532700  0.778600  0.448700  1.0  0.088
  H  H297  1  0.463700  0.611000  0.237200  1.0  0.1264
  H  H298  1  0.460600  0.547100  0.179300  1.0  0.1061
  H  H299  1  0.321400  0.564900  0.026600  1.0  0.12
  H  H300  1  0.323300  0.626300  0.084800  1.0  0.1078
  H  H301  1  0.434000  0.466900  0.136300  1.0  0.0868
  H  H302  1  0.342700  0.484800  0.902600  1.0  0.1249
  H  H303  1  0.461800  0.335100  0.951600  1.0  0.1067
  H  H304  1  0.460200  0.385900  0.016900  1.0  0.113
  H  H305  1  0.319300  0.393000  0.866200  1.0  0.1358
  H  H306  1  0.323900  0.342700  0.805300  1.0  0.0749
  H  H307  1  0.490600  0.411400  0.199000  1.0  0.132
  H  H308  1  0.450200  0.375100  0.176900  1.0  0.1149
  H  H309  1  0.495800  0.337000  0.137700  1.0  0.1954
  H  H310  1  0.534700  0.345200  0.216800  1.0  0.1747
  H  H311  1  0.480600  0.882600  0.414900  1.0  0.1033
  H  H312  1  0.483800  0.943700  0.475800  1.0  0.0924
  H  H313  1  0.342400  0.940600  0.348400  1.0  0.1192
  H  H314  1  0.339600  0.873600  0.295200  1.0  0.1128
  H  H315  1  0.468600  0.029300  0.608500  1.0  0.1149
  H  H316  1  0.361400  0.031000  0.369800  1.0  0.1197
  H  H317  1  0.334900  0.148400  0.565700  1.0  0.1168
  H  H318  1  0.339700  0.095300  0.503500  1.0  0.116
  H  H319  1  0.479100  0.118900  0.632000  1.0  0.1052
  H  H320  1  0.545500  0.999500  0.651500  1.0  0.1711
  H  H321  1  0.520300  0.968500  0.669000  1.0  0.176
  H  H322  1  0.301300  0.083600  0.310400  1.0  0.1159
  H  H323  1  0.349600  0.105600  0.339500  1.0  0.1022
  H  H324  1  0.320300  0.183600  0.349000  1.0  0.0889
  H  H325  1  0.270200  0.159400  0.299200  1.0  0.0955
  H  H326  1  0.277900  0.209200  0.246200  1.0  0.0997
  H  H327  1  0.322100  0.180700  0.270400  1.0  0.1051
  H  H328  1  0.271800  0.156500  0.220400  1.0  0.1074
  H  H329  1  0.264400  0.244300  0.549100  1.0  0.0755
  H  H330  1  0.189700  0.235200  0.472800  1.0  0.091
  H  H331  1  0.185300  0.248900  0.614500  1.0  0.1246
  H  H332  1  0.268000  0.245700  0.694000  1.0  0.0803
  H  H333  1  0.033000  0.202000  0.329500  1.0  0.0769
  H  H334  1  0.113900  0.202200  0.407900  1.0  0.1073
  H  H335  1  0.112500  0.277800  0.531000  1.0  0.1209
  H  H336  1  0.032700  0.278600  0.448700  1.0  0.088
  C  C337  1  0.104430  0.828480  0.800100  1.0  0.7102
  C  C338  1  0.106440  0.872950  0.835200  1.0  -0.0784
  C  C339  1  0.065020  0.897850  0.805500  1.0  -0.0499
  C  C340  1  0.067100  0.936170  0.840500  1.0  -0.0886
  C  C341  1  0.108800  0.949940  0.903300  1.0  0.0384
  C  C342  1  0.149800  0.925900  0.930900  1.0  -0.1367
  C  C343  1  0.148530  0.888630  0.896600  1.0  -0.0317
  C  C344  1  0.081500  0.067900  0.943400  1.0  0.2649
  C  C345  1  0.083100  0.030000  0.909900  1.0  -0.1131
  C  C346  1  0.107700  0.991100  0.941800  1.0  -0.027
  C  C347  1  0.133300  0.983500  0.011700  1.0  0.2447
  C  C348  1  0.137800  0.019600  0.050700  1.0  -0.0408
  C  C349  1  0.111900  0.065000  0.018700  1.0  -0.1415
  C  C350  1  0.067000  0.152600  0.066000  1.0  -0.0239
  C  C351  1  0.067800  0.121500  0.027400  1.0  -0.1886
  C  C352  1  0.109900  0.101200  0.053900  1.0  0.0866
  C  C353  1  0.151300  0.117100  0.116300  1.0  -0.2544
  C  C354  1  0.148000  0.147800  0.151600  1.0  -0.0393
  C  C355  1  0.107190  0.165510  0.128700  1.0  -0.1651
  C  C356  1  0.106550  0.199760  0.171800  1.0  0.7036
  C  C357  1  0.029200  0.115800  0.829900  1.0  -0.1546
  C  C358  1  0.998900  0.160700  0.821700  1.0  -0.2181
  C  C359  1  0.093250  0.672730  0.686700  1.0  0.706
  C  C360  1  0.090520  0.629390  0.650500  1.0  -0.1362
  C  C361  1  0.047140  0.607000  0.597000  1.0  -0.0596
  C  C362  1  0.045600  0.569120  0.561900  1.0  -0.1686
  C  C363  1  0.085400  0.550230  0.580800  1.0  0.0909
  C  C364  1  0.129600  0.572000  0.636800  1.0  -0.1798
  C  C365  1  0.131360  0.611600  0.669600  1.0  -0.0347
  C  C366  1  0.085700  0.510900  0.547300  1.0  0.0298
  C  C367  1  0.051900  0.507800  0.475600  1.0  0.1184
  C  C368  1  0.119100  0.435500  0.545600  1.0  0.18
  C  C369  1  0.087210  0.434110  0.476200  1.0  0.0417
  C  C370  1  0.053000  0.470400  0.438800  1.0  -0.0992
  C  C371  1  0.118200  0.471500  0.583100  1.0  -0.1507
  C  C372  1  0.136070  0.357080  0.421200  1.0  -0.0368
  C  C373  1  0.132900  0.389430  0.458300  1.0  -0.1166
  C  C374  1  0.090300  0.398860  0.439100  1.0  0.0319
  C  C375  1  0.049990  0.375120  0.381600  1.0  0.0085
  C  C376  1  0.051590  0.342930  0.343900  1.0  0.0406
  C  C377  1  0.095790  0.333750  0.365400  1.0  -0.0801
  C  C378  1  0.097940  0.300810  0.322900  1.0  0.6973
  C  C379  1  0.971600  0.529900  0.357800  1.0  0.2363
  C  C380  1  0.175100  0.391600  0.660000  1.0  -0.1099
  C  C381  1  0.199600  0.339300  0.688200  1.0  -0.0768
  C  C382  1  0.207500  0.322000  0.741600  1.0  -0.3464
  C  C383  1  0.251600  0.257400  0.436700  1.0  0.1174
  C  C384  1  0.296000  0.259800  0.482500  1.0  -0.2132
  C  C385  1  0.324600  0.255400  0.470100  1.0  0.0401
  C  C386  1  0.298900  0.253400  0.400000  1.0  -0.2434
  C  C387  1  0.248800  0.254900  0.352200  1.0  0.1658
  C  C388  1  0.450640  0.281500  0.629700  1.0  0.1863
  C  C389  1  0.402070  0.281840  0.582600  1.0  -0.1993
  C  C390  1  0.377050  0.258810  0.521700  1.0  0.1114
  C  C391  1  0.402990  0.237100  0.510600  1.0  -0.2147
  C  C392  1  0.450700  0.237200  0.559800  1.0  0.1952
  C  C393  1  0.604430  0.328480  0.800100  1.0  0.7102
  C  C394  1  0.606440  0.372950  0.835200  1.0  -0.0784
  C  C395  1  0.565020  0.397850  0.805500  1.0  -0.0499
  C  C396  1  0.567100  0.436170  0.840500  1.0  -0.0886
  C  C397  1  0.608800  0.449940  0.903300  1.0  0.0384
  C  C398  1  0.649800  0.425900  0.930900  1.0  -0.1367
  C  C399  1  0.648530  0.388630  0.896600  1.0  -0.0317
  C  C400  1  0.581500  0.567900  0.943400  1.0  0.2649
  C  C401  1  0.583100  0.530000  0.909900  1.0  -0.1131
  C  C402  1  0.607700  0.491100  0.941800  1.0  -0.027
  C  C403  1  0.633300  0.483500  0.011700  1.0  0.2447
  C  C404  1  0.637800  0.519600  0.050700  1.0  -0.0408
  C  C405  1  0.611900  0.565000  0.018700  1.0  -0.1415
  C  C406  1  0.567000  0.652600  0.066000  1.0  -0.0239
  C  C407  1  0.567800  0.621500  0.027400  1.0  -0.1886
  C  C408  1  0.609900  0.601200  0.053900  1.0  0.0866
  C  C409  1  0.651300  0.617100  0.116300  1.0  -0.2544
  C  C410  1  0.648000  0.647800  0.151600  1.0  -0.0393
  C  C411  1  0.607190  0.665510  0.128700  1.0  -0.1651
  C  C412  1  0.606550  0.699760  0.171800  1.0  0.7036
  C  C413  1  0.529200  0.615800  0.829900  1.0  -0.1546
  C  C414  1  0.498900  0.660700  0.821700  1.0  -0.2181
  C  C415  1  0.593250  0.172730  0.686700  1.0  0.706
  C  C416  1  0.590520  0.129390  0.650500  1.0  -0.1362
  C  C417  1  0.547140  0.107000  0.597000  1.0  -0.0596
  C  C418  1  0.545600  0.069120  0.561900  1.0  -0.1686
  C  C419  1  0.585400  0.050230  0.580800  1.0  0.0909
  C  C420  1  0.629600  0.072000  0.636800  1.0  -0.1798
  C  C421  1  0.631360  0.111600  0.669600  1.0  -0.0347
  C  C422  1  0.585700  0.010900  0.547300  1.0  0.0298
  C  C423  1  0.551900  0.007800  0.475600  1.0  0.1184
  C  C424  1  0.619100  0.935500  0.545600  1.0  0.18
  C  C425  1  0.587210  0.934110  0.476200  1.0  0.0417
  C  C426  1  0.553000  0.970400  0.438800  1.0  -0.0992
  C  C427  1  0.618200  0.971500  0.583100  1.0  -0.1507
  C  C428  1  0.636070  0.857080  0.421200  1.0  -0.0368
  C  C429  1  0.632900  0.889430  0.458300  1.0  -0.1166
  C  C430  1  0.590300  0.898860  0.439100  1.0  0.0319
  C  C431  1  0.549990  0.875120  0.381600  1.0  0.0085
  C  C432  1  0.551590  0.842930  0.343900  1.0  0.0406
  C  C433  1  0.595790  0.833750  0.365400  1.0  -0.0801
  C  C434  1  0.597940  0.800810  0.322900  1.0  0.6973
  C  C435  1  0.471600  0.029900  0.357800  1.0  0.2363
  C  C436  1  0.675100  0.891600  0.660000  1.0  -0.1099
  C  C437  1  0.699600  0.839300  0.688200  1.0  -0.0768
  C  C438  1  0.707500  0.822000  0.741600  1.0  -0.3464
  C  C439  1  0.751600  0.757400  0.436700  1.0  0.1174
  C  C440  1  0.796000  0.759800  0.482500  1.0  -0.2132
  C  C441  1  0.824600  0.755400  0.470100  1.0  0.0401
  C  C442  1  0.798900  0.753400  0.400000  1.0  -0.2434
  C  C443  1  0.748800  0.754900  0.352200  1.0  0.1658
  C  C444  1  0.950640  0.781500  0.629700  1.0  0.1863
  C  C445  1  0.902070  0.781840  0.582600  1.0  -0.1993
  C  C446  1  0.877050  0.758810  0.521700  1.0  0.1114
  C  C447  1  0.902990  0.737100  0.510600  1.0  -0.2147
  C  C448  1  0.950700  0.737200  0.559800  1.0  0.1952
  C  C449  1  0.104430  0.171520  0.300100  1.0  0.7078
  C  C450  1  0.106440  0.127050  0.335200  1.0  -0.077
  C  C451  1  0.065020  0.102150  0.305500  1.0  -0.0505
  C  C452  1  0.067100  0.063830  0.340500  1.0  -0.0888
  C  C453  1  0.108800  0.050060  0.403300  1.0  0.038
  C  C454  1  0.149800  0.074100  0.430900  1.0  -0.1375
  C  C455  1  0.148530  0.111370  0.396600  1.0  -0.0319
  C  C456  1  0.081500  0.932100  0.443400  1.0  0.2646
  C  C457  1  0.083100  0.970000  0.409900  1.0  -0.1132
  C  C458  1  0.107700  0.008900  0.441800  1.0  -0.028
  C  C459  1  0.133300  0.016500  0.511700  1.0  0.2432
  C  C460  1  0.137800  0.980400  0.550700  1.0  -0.0412
  C  C461  1  0.111900  0.935000  0.518700  1.0  -0.1419
  C  C462  1  0.067000  0.847400  0.566000  1.0  -0.0235
  C  C463  1  0.067800  0.878500  0.527400  1.0  -0.189
  C  C464  1  0.109900  0.898800  0.553900  1.0  0.0869
  C  C465  1  0.151300  0.882900  0.616300  1.0  -0.254
  C  C466  1  0.148000  0.852200  0.651600  1.0  -0.0393
  C  C467  1  0.107190  0.834490  0.628700  1.0  -0.1646
  C  C468  1  0.106550  0.800240  0.671800  1.0  0.7041
  C  C469  1  0.029200  0.884200  0.329900  1.0  -0.1542
  C  C470  1  0.998900  0.839300  0.321700  1.0  -0.2197
  C  C471  1  0.093250  0.327270  0.186700  1.0  0.7056
  C  C472  1  0.090520  0.370610  0.150500  1.0  -0.1366
  C  C473  1  0.047140  0.393000  0.097000  1.0  -0.059
  C  C474  1  0.045600  0.430880  0.061900  1.0  -0.1687
  C  C475  1  0.085400  0.449770  0.080800  1.0  0.0912
  C  C476  1  0.129600  0.428000  0.136800  1.0  -0.1801
  C  C477  1  0.131360  0.388400  0.169600  1.0  -0.0353
  C  C478  1  0.085700  0.489100  0.047300  1.0  0.0295
  C  C479  1  0.051900  0.492200  0.975600  1.0  0.1183
  C  C480  1  0.119100  0.564500  0.045600  1.0  0.1804
  C  C481  1  0.087210  0.565890  0.976200  1.0  0.0422
  C  C482  1  0.053000  0.529600  0.938800  1.0  -0.0992
  C  C483  1  0.118200  0.528500  0.083100  1.0  -0.1514
  C  C484  1  0.136070  0.642920  0.921200  1.0  -0.0366
  C  C485  1  0.132900  0.610570  0.958300  1.0  -0.1173
  C  C486  1  0.090300  0.601140  0.939100  1.0  0.0317
  C  C487  1  0.049990  0.624880  0.881600  1.0  0.0087
  C  C488  1  0.051590  0.657070  0.843900  1.0  0.0407
  C  C489  1  0.095790  0.666250  0.865400  1.0  -0.0789
  C  C490  1  0.097940  0.699190  0.822900  1.0  0.6965
  C  C491  1  0.971600  0.470100  0.857800  1.0  0.2404
  C  C492  1  0.175100  0.608400  0.160000  1.0  -0.1108
  C  C493  1  0.199600  0.660700  0.188200  1.0  -0.0763
  C  C494  1  0.207500  0.678000  0.241600  1.0  -0.3476
  C  C495  1  0.251600  0.742600  0.936700  1.0  0.1173
  C  C496  1  0.296000  0.740200  0.982500  1.0  -0.2135
  C  C497  1  0.324600  0.744600  0.970100  1.0  0.0403
  C  C498  1  0.298900  0.746600  0.900000  1.0  -0.242
  C  C499  1  0.248800  0.745100  0.852200  1.0  0.1659
  C  C500  1  0.450640  0.718500  0.129700  1.0  0.1857
  C  C501  1  0.402070  0.718160  0.082600  1.0  -0.1992
  C  C502  1  0.377050  0.741190  0.021700  1.0  0.1107
  C  C503  1  0.402990  0.762900  0.010600  1.0  -0.2141
  C  C504  1  0.450700  0.762800  0.059800  1.0  0.1952
  C  C505  1  0.604430  0.671520  0.300100  1.0  0.7078
  C  C506  1  0.606440  0.627050  0.335200  1.0  -0.077
  C  C507  1  0.565020  0.602150  0.305500  1.0  -0.0505
  C  C508  1  0.567100  0.563830  0.340500  1.0  -0.0888
  C  C509  1  0.608800  0.550060  0.403300  1.0  0.038
  C  C510  1  0.649800  0.574100  0.430900  1.0  -0.1375
  C  C511  1  0.648530  0.611370  0.396600  1.0  -0.0319
  C  C512  1  0.581500  0.432100  0.443400  1.0  0.2646
  C  C513  1  0.583100  0.470000  0.409900  1.0  -0.1132
  C  C514  1  0.607700  0.508900  0.441800  1.0  -0.028
  C  C515  1  0.633300  0.516500  0.511700  1.0  0.2432
  C  C516  1  0.637800  0.480400  0.550700  1.0  -0.0412
  C  C517  1  0.611900  0.435000  0.518700  1.0  -0.1419
  C  C518  1  0.567000  0.347400  0.566000  1.0  -0.0235
  C  C519  1  0.567800  0.378500  0.527400  1.0  -0.189
  C  C520  1  0.609900  0.398800  0.553900  1.0  0.0869
  C  C521  1  0.651300  0.382900  0.616300  1.0  -0.254
  C  C522  1  0.648000  0.352200  0.651600  1.0  -0.0393
  C  C523  1  0.607190  0.334490  0.628700  1.0  -0.1646
  C  C524  1  0.606550  0.300240  0.671800  1.0  0.7041
  C  C525  1  0.529200  0.384200  0.329900  1.0  -0.1542
  C  C526  1  0.498900  0.339300  0.321700  1.0  -0.2197
  C  C527  1  0.593250  0.827270  0.186700  1.0  0.7056
  C  C528  1  0.590520  0.870610  0.150500  1.0  -0.1366
  C  C529  1  0.547140  0.893000  0.097000  1.0  -0.059
  C  C530  1  0.545600  0.930880  0.061900  1.0  -0.1687
  C  C531  1  0.585400  0.949770  0.080800  1.0  0.0912
  C  C532  1  0.629600  0.928000  0.136800  1.0  -0.1801
  C  C533  1  0.631360  0.888400  0.169600  1.0  -0.0353
  C  C534  1  0.585700  0.989100  0.047300  1.0  0.0295
  C  C535  1  0.551900  0.992200  0.975600  1.0  0.1183
  C  C536  1  0.619100  0.064500  0.045600  1.0  0.1804
  C  C537  1  0.587210  0.065890  0.976200  1.0  0.0422
  C  C538  1  0.553000  0.029600  0.938800  1.0  -0.0992
  C  C539  1  0.618200  0.028500  0.083100  1.0  -0.1514
  C  C540  1  0.636070  0.142920  0.921200  1.0  -0.0366
  C  C541  1  0.632900  0.110570  0.958300  1.0  -0.1173
  C  C542  1  0.590300  0.101140  0.939100  1.0  0.0317
  C  C543  1  0.549990  0.124880  0.881600  1.0  0.0087
  C  C544  1  0.551590  0.157070  0.843900  1.0  0.0407
  C  C545  1  0.595790  0.166250  0.865400  1.0  -0.0789
  C  C546  1  0.597940  0.199190  0.822900  1.0  0.6965
  C  C547  1  0.471600  0.970100  0.857800  1.0  0.2404
  C  C548  1  0.675100  0.108400  0.160000  1.0  -0.1108
  C  C549  1  0.699600  0.160700  0.188200  1.0  -0.0763
  C  C550  1  0.707500  0.178000  0.241600  1.0  -0.3476
  C  C551  1  0.751600  0.242600  0.936700  1.0  0.1173
  C  C552  1  0.796000  0.240200  0.982500  1.0  -0.2135
  C  C553  1  0.824600  0.244600  0.970100  1.0  0.0403
  C  C554  1  0.798900  0.246600  0.900000  1.0  -0.242
  C  C555  1  0.748800  0.245100  0.852200  1.0  0.1659
  C  C556  1  0.950640  0.218500  0.129700  1.0  0.1857
  C  C557  1  0.902070  0.218160  0.082600  1.0  -0.1992
  C  C558  1  0.877050  0.241190  0.021700  1.0  0.1107
  C  C559  1  0.902990  0.262900  0.010600  1.0  -0.2141
  C  C560  1  0.950700  0.262800  0.059800  1.0  0.1952
  C  C561  1  0.895570  0.828480  0.699900  1.0  0.7081
  C  C562  1  0.893560  0.872950  0.664800  1.0  -0.0778
  C  C563  1  0.934980  0.897850  0.694500  1.0  -0.0502
  C  C564  1  0.932900  0.936170  0.659500  1.0  -0.0884
  C  C565  1  0.891200  0.949940  0.596700  1.0  0.038
  C  C566  1  0.850200  0.925900  0.569100  1.0  -0.1366
  C  C567  1  0.851470  0.888630  0.603400  1.0  -0.0315
  C  C568  1  0.918500  0.067900  0.556600  1.0  0.2649
  C  C569  1  0.916900  0.030000  0.590100  1.0  -0.1135
  C  C570  1  0.892300  0.991100  0.558200  1.0  -0.027
  C  C571  1  0.866700  0.983500  0.488300  1.0  0.2438
  C  C572  1  0.862200  0.019600  0.449300  1.0  -0.0414
  C  C573  1  0.888100  0.065000  0.481300  1.0  -0.141
  C  C574  1  0.933000  0.152600  0.434000  1.0  -0.023
  C  C575  1  0.932200  0.121500  0.472600  1.0  -0.1873
  C  C576  1  0.890100  0.101200  0.446100  1.0  0.0864
  C  C577  1  0.848700  0.117100  0.383700  1.0  -0.2538
  C  C578  1  0.852000  0.147800  0.348400  1.0  -0.0394
  C  C579  1  0.892810  0.165510  0.371300  1.0  -0.1633
  C  C580  1  0.893450  0.199760  0.328200  1.0  0.7041
  C  C581  1  0.970800  0.115800  0.670100  1.0  -0.155
  C  C582  1  0.001100  0.160700  0.678300  1.0  -0.2185
  C  C583  1  0.906750  0.672730  0.813300  1.0  0.7044
  C  C584  1  0.909480  0.629390  0.849500  1.0  -0.1363
  C  C585  1  0.952860  0.607000  0.903000  1.0  -0.0588
  C  C586  1  0.954400  0.569120  0.938100  1.0  -0.1693
  C  C587  1  0.914600  0.550230  0.919200  1.0  0.0904
  C  C588  1  0.870400  0.572000  0.863200  1.0  -0.1818
  C  C589  1  0.868640  0.611600  0.830400  1.0  -0.0346
  C  C590  1  0.914300  0.510900  0.952700  1.0  0.0301
  C  C591  1  0.948100  0.507800  0.024400  1.0  0.1182
  C  C592  1  0.880900  0.435500  0.954400  1.0  0.1802
  C  C593  1  0.912790  0.434110  0.023800  1.0  0.0418
  C  C594  1  0.947000  0.470400  0.061200  1.0  -0.0992
  C  C595  1  0.881800  0.471500  0.916900  1.0  -0.1512
  C  C596  1  0.863930  0.357080  0.078800  1.0  -0.038
  C  C597  1  0.867100  0.389430  0.041700  1.0  -0.1184
  C  C598  1  0.909700  0.398860  0.060900  1.0  0.0311
  C  C599  1  0.950010  0.375120  0.118400  1.0  0.0074
  C  C600  1  0.948410  0.342930  0.156100  1.0  0.0387
  C  C601  1  0.904210  0.333750  0.134600  1.0  -0.0808
  C  C602  1  0.902060  0.300810  0.177100  1.0  0.6956
  C  C603  1  0.028400  0.529900  0.142200  1.0  0.2377
  C  C604  1  0.824900  0.391600  0.840000  1.0  -0.1089
  C  C605  1  0.800400  0.339300  0.811800  1.0  -0.0804
  C  C606  1  0.792500  0.322000  0.758400  1.0  -0.3464
  C  C607  1  0.748400  0.257400  0.063300  1.0  0.1188
  C  C608  1  0.704000  0.259800  0.017500  1.0  -0.2155
  C  C609  1  0.675400  0.255400  0.029900  1.0  0.0416
  C  C610  1  0.701100  0.253400  0.100000  1.0  -0.2425
  C  C611  1  0.751200  0.254900  0.147800  1.0  0.1665
  C  C612  1  0.549360  0.281500  0.870300  1.0  0.1848
  C  C613  1  0.597930  0.281840  0.917400  1.0  -0.1981
  C  C614  1  0.622950  0.258810  0.978300  1.0  0.1106
  C  C615  1  0.597010  0.237100  0.989400  1.0  -0.2153
  C  C616  1  0.549300  0.237200  0.940200  1.0  0.1929
  C  C617  1  0.395570  0.328480  0.699900  1.0  0.7081
  C  C618  1  0.393560  0.372950  0.664800  1.0  -0.0778
  C  C619  1  0.434980  0.397850  0.694500  1.0  -0.0502
  C  C620  1  0.432900  0.436170  0.659500  1.0  -0.0884
  C  C621  1  0.391200  0.449940  0.596700  1.0  0.038
  C  C622  1  0.350200  0.425900  0.569100  1.0  -0.1366
  C  C623  1  0.351470  0.388630  0.603400  1.0  -0.0315
  C  C624  1  0.418500  0.567900  0.556600  1.0  0.2649
  C  C625  1  0.416900  0.530000  0.590100  1.0  -0.1135
  C  C626  1  0.392300  0.491100  0.558200  1.0  -0.027
  C  C627  1  0.366700  0.483500  0.488300  1.0  0.2438
  C  C628  1  0.362200  0.519600  0.449300  1.0  -0.0414
  C  C629  1  0.388100  0.565000  0.481300  1.0  -0.141
  C  C630  1  0.433000  0.652600  0.434000  1.0  -0.023
  C  C631  1  0.432200  0.621500  0.472600  1.0  -0.1873
  C  C632  1  0.390100  0.601200  0.446100  1.0  0.0864
  C  C633  1  0.348700  0.617100  0.383700  1.0  -0.2538
  C  C634  1  0.352000  0.647800  0.348400  1.0  -0.0394
  C  C635  1  0.392810  0.665510  0.371300  1.0  -0.1633
  C  C636  1  0.393450  0.699760  0.328200  1.0  0.7041
  C  C637  1  0.470800  0.615800  0.670100  1.0  -0.155
  C  C638  1  0.501100  0.660700  0.678300  1.0  -0.2185
  C  C639  1  0.406750  0.172730  0.813300  1.0  0.7044
  C  C640  1  0.409480  0.129390  0.849500  1.0  -0.1363
  C  C641  1  0.452860  0.107000  0.903000  1.0  -0.0588
  C  C642  1  0.454400  0.069120  0.938100  1.0  -0.1693
  C  C643  1  0.414600  0.050230  0.919200  1.0  0.0904
  C  C644  1  0.370400  0.072000  0.863200  1.0  -0.1818
  C  C645  1  0.368640  0.111600  0.830400  1.0  -0.0346
  C  C646  1  0.414300  0.010900  0.952700  1.0  0.0301
  C  C647  1  0.448100  0.007800  0.024400  1.0  0.1182
  C  C648  1  0.380900  0.935500  0.954400  1.0  0.1802
  C  C649  1  0.412790  0.934110  0.023800  1.0  0.0418
  C  C650  1  0.447000  0.970400  0.061200  1.0  -0.0992
  C  C651  1  0.381800  0.971500  0.916900  1.0  -0.1512
  C  C652  1  0.363930  0.857080  0.078800  1.0  -0.038
  C  C653  1  0.367100  0.889430  0.041700  1.0  -0.1184
  C  C654  1  0.409700  0.898860  0.060900  1.0  0.0311
  C  C655  1  0.450010  0.875120  0.118400  1.0  0.0074
  C  C656  1  0.448410  0.842930  0.156100  1.0  0.0387
  C  C657  1  0.404210  0.833750  0.134600  1.0  -0.0808
  C  C658  1  0.402060  0.800810  0.177100  1.0  0.6956
  C  C659  1  0.528400  0.029900  0.142200  1.0  0.2377
  C  C660  1  0.324900  0.891600  0.840000  1.0  -0.1089
  C  C661  1  0.300400  0.839300  0.811800  1.0  -0.0804
  C  C662  1  0.292500  0.822000  0.758400  1.0  -0.3464
  C  C663  1  0.248400  0.757400  0.063300  1.0  0.1188
  C  C664  1  0.204000  0.759800  0.017500  1.0  -0.2155
  C  C665  1  0.175400  0.755400  0.029900  1.0  0.0416
  C  C666  1  0.201100  0.753400  0.100000  1.0  -0.2425
  C  C667  1  0.251200  0.754900  0.147800  1.0  0.1665
  C  C668  1  0.049360  0.781500  0.870300  1.0  0.1848
  C  C669  1  0.097930  0.781840  0.917400  1.0  -0.1981
  C  C670  1  0.122950  0.758810  0.978300  1.0  0.1106
  C  C671  1  0.097010  0.737100  0.989400  1.0  -0.2153
  C  C672  1  0.049300  0.737200  0.940200  1.0  0.1929
  C  C673  1  0.895570  0.171520  0.199900  1.0  0.7072
  C  C674  1  0.893560  0.127050  0.164800  1.0  -0.0793
  C  C675  1  0.934980  0.102150  0.194500  1.0  -0.0497
  C  C676  1  0.932900  0.063830  0.159500  1.0  -0.0886
  C  C677  1  0.891200  0.050060  0.096700  1.0  0.0369
  C  C678  1  0.850200  0.074100  0.069100  1.0  -0.1358
  C  C679  1  0.851470  0.111370  0.103400  1.0  -0.0303
  C  C680  1  0.918500  0.932100  0.056600  1.0  0.2647
  C  C681  1  0.916900  0.970000  0.090100  1.0  -0.1136
  C  C682  1  0.892300  0.008900  0.058200  1.0  -0.0272
  C  C683  1  0.866700  0.016500  0.988300  1.0  0.2446
  C  C684  1  0.862200  0.980400  0.949300  1.0  -0.0421
  C  C685  1  0.888100  0.935000  0.981300  1.0  -0.1414
  C  C686  1  0.933000  0.847400  0.934000  1.0  -0.023
  C  C687  1  0.932200  0.878500  0.972600  1.0  -0.1873
  C  C688  1  0.890100  0.898800  0.946100  1.0  0.0865
  C  C689  1  0.848700  0.882900  0.883700  1.0  -0.2537
  C  C690  1  0.852000  0.852200  0.848400  1.0  -0.0394
  C  C691  1  0.892810  0.834490  0.871300  1.0  -0.1641
  C  C692  1  0.893450  0.800240  0.828200  1.0  0.704
  C  C693  1  0.970800  0.884200  0.170100  1.0  -0.155
  C  C694  1  0.001100  0.839300  0.178300  1.0  -0.2204
  C  C695  1  0.906750  0.327270  0.313300  1.0  0.7036
  C  C696  1  0.909480  0.370610  0.349500  1.0  -0.1374
  C  C697  1  0.952860  0.393000  0.403000  1.0  -0.0588
  C  C698  1  0.954400  0.430880  0.438100  1.0  -0.1688
  C  C699  1  0.914600  0.449770  0.419200  1.0  0.0909
  C  C700  1  0.870400  0.428000  0.363200  1.0  -0.1825
  C  C701  1  0.868640  0.388400  0.330400  1.0  -0.0332
  C  C702  1  0.914300  0.489100  0.452700  1.0  0.0301
  C  C703  1  0.948100  0.492200  0.524400  1.0  0.119
  C  C704  1  0.880900  0.564500  0.454400  1.0  0.1806
  C  C705  1  0.912790  0.565890  0.523800  1.0  0.0422
  C  C706  1  0.947000  0.529600  0.561200  1.0  -0.0995
  C  C707  1  0.881800  0.528500  0.416900  1.0  -0.1513
  C  C708  1  0.863930  0.642920  0.578800  1.0  -0.0367
  C  C709  1  0.867100  0.610570  0.541700  1.0  -0.1168
  C  C710  1  0.909700  0.601140  0.560900  1.0  0.0309
  C  C711  1  0.950010  0.624880  0.618400  1.0  0.0079
  C  C712  1  0.948410  0.657070  0.656100  1.0  0.0384
  C  C713  1  0.904210  0.666250  0.634600  1.0  -0.0797
  C  C714  1  0.902060  0.699190  0.677100  1.0  0.696
  C  C715  1  0.028400  0.470100  0.642200  1.0  0.2403
  C  C716  1  0.824900  0.608400  0.340000  1.0  -0.108
  C  C717  1  0.800400  0.660700  0.311800  1.0  -0.0791
  C  C718  1  0.792500  0.678000  0.258400  1.0  -0.3459
  C  C719  1  0.748400  0.742600  0.563300  1.0  0.119
  C  C720  1  0.704000  0.740200  0.517500  1.0  -0.2157
  C  C721  1  0.675400  0.744600  0.529900  1.0  0.041
  C  C722  1  0.701100  0.746600  0.600000  1.0  -0.2423
  C  C723  1  0.751200  0.745100  0.647800  1.0  0.167
  C  C724  1  0.549360  0.718500  0.370300  1.0  0.1847
  C  C725  1  0.597930  0.718160  0.417400  1.0  -0.1985
  C  C726  1  0.622950  0.741190  0.478300  1.0  0.1112
  C  C727  1  0.597010  0.762900  0.489400  1.0  -0.2147
  C  C728  1  0.549300  0.762800  0.440200  1.0  0.1932
  C  C729  1  0.395570  0.671520  0.199900  1.0  0.7072
  C  C730  1  0.393560  0.627050  0.164800  1.0  -0.0793
  C  C731  1  0.434980  0.602150  0.194500  1.0  -0.0497
  C  C732  1  0.432900  0.563830  0.159500  1.0  -0.0886
  C  C733  1  0.391200  0.550060  0.096700  1.0  0.0369
  C  C734  1  0.350200  0.574100  0.069100  1.0  -0.1358
  C  C735  1  0.351470  0.611370  0.103400  1.0  -0.0303
  C  C736  1  0.418500  0.432100  0.056600  1.0  0.2647
  C  C737  1  0.416900  0.470000  0.090100  1.0  -0.1136
  C  C738  1  0.392300  0.508900  0.058200  1.0  -0.0272
  C  C739  1  0.366700  0.516500  0.988300  1.0  0.2446
  C  C740  1  0.362200  0.480400  0.949300  1.0  -0.0421
  C  C741  1  0.388100  0.435000  0.981300  1.0  -0.1414
  C  C742  1  0.433000  0.347400  0.934000  1.0  -0.023
  C  C743  1  0.432200  0.378500  0.972600  1.0  -0.1873
  C  C744  1  0.390100  0.398800  0.946100  1.0  0.0865
  C  C745  1  0.348700  0.382900  0.883700  1.0  -0.2537
  C  C746  1  0.352000  0.352200  0.848400  1.0  -0.0394
  C  C747  1  0.392810  0.334490  0.871300  1.0  -0.1641
  C  C748  1  0.393450  0.300240  0.828200  1.0  0.704
  C  C749  1  0.470800  0.384200  0.170100  1.0  -0.155
  C  C750  1  0.501100  0.339300  0.178300  1.0  -0.2204
  C  C751  1  0.406750  0.827270  0.313300  1.0  0.7036
  C  C752  1  0.409480  0.870610  0.349500  1.0  -0.1374
  C  C753  1  0.452860  0.893000  0.403000  1.0  -0.0588
  C  C754  1  0.454400  0.930880  0.438100  1.0  -0.1688
  C  C755  1  0.414600  0.949770  0.419200  1.0  0.0909
  C  C756  1  0.370400  0.928000  0.363200  1.0  -0.1825
  C  C757  1  0.368640  0.888400  0.330400  1.0  -0.0332
  C  C758  1  0.414300  0.989100  0.452700  1.0  0.0301
  C  C759  1  0.448100  0.992200  0.524400  1.0  0.119
  C  C760  1  0.380900  0.064500  0.454400  1.0  0.1806
  C  C761  1  0.412790  0.065890  0.523800  1.0  0.0422
  C  C762  1  0.447000  0.029600  0.561200  1.0  -0.0995
  C  C763  1  0.381800  0.028500  0.416900  1.0  -0.1513
  C  C764  1  0.363930  0.142920  0.578800  1.0  -0.0367
  C  C765  1  0.367100  0.110570  0.541700  1.0  -0.1168
  C  C766  1  0.409700  0.101140  0.560900  1.0  0.0309
  C  C767  1  0.450010  0.124880  0.618400  1.0  0.0079
  C  C768  1  0.448410  0.157070  0.656100  1.0  0.0384
  C  C769  1  0.404210  0.166250  0.634600  1.0  -0.0797
  C  C770  1  0.402060  0.199190  0.677100  1.0  0.696
  C  C771  1  0.528400  0.970100  0.642200  1.0  0.2403
  C  C772  1  0.324900  0.108400  0.340000  1.0  -0.108
  C  C773  1  0.300400  0.160700  0.311800  1.0  -0.0791
  C  C774  1  0.292500  0.178000  0.258400  1.0  -0.3459
  C  C775  1  0.248400  0.242600  0.563300  1.0  0.119
  C  C776  1  0.204000  0.240200  0.517500  1.0  -0.2157
  C  C777  1  0.175400  0.244600  0.529900  1.0  0.041
  C  C778  1  0.201100  0.246600  0.600000  1.0  -0.2423
  C  C779  1  0.251200  0.245100  0.647800  1.0  0.167
  C  C780  1  0.049360  0.218500  0.370300  1.0  0.1847
  C  C781  1  0.097930  0.218160  0.417400  1.0  -0.1985
  C  C782  1  0.122950  0.241190  0.478300  1.0  0.1112
  C  C783  1  0.097010  0.262900  0.489400  1.0  -0.2147
  C  C784  1  0.049300  0.262800  0.440200  1.0  0.1932
  N  N785  1  0.225020  0.257060  0.369830  1.0  -0.3359
  N  N786  1  0.475410  0.258520  0.619610  1.0  -0.3299
  N  N787  1  0.725020  0.757060  0.369830  1.0  -0.3359
  N  N788  1  0.975410  0.758520  0.619610  1.0  -0.3299
  N  N789  1  0.225020  0.742940  0.869830  1.0  -0.3372
  N  N790  1  0.475410  0.741480  0.119610  1.0  -0.3301
  N  N791  1  0.725020  0.242940  0.869830  1.0  -0.3372
  N  N792  1  0.975410  0.241480  0.119610  1.0  -0.3301
  N  N793  1  0.774980  0.257060  0.130170  1.0  -0.3382
  N  N794  1  0.524590  0.258520  0.880390  1.0  -0.329
  N  N795  1  0.274980  0.757060  0.130170  1.0  -0.3382
  N  N796  1  0.024590  0.758520  0.880390  1.0  -0.329
  N  N797  1  0.774980  0.742940  0.630170  1.0  -0.3383
  N  N798  1  0.524590  0.741480  0.380390  1.0  -0.3297
  N  N799  1  0.274980  0.242940  0.630170  1.0  -0.3383
  N  N800  1  0.024590  0.241480  0.380390  1.0  -0.3297
  O  O801  1  0.142160  0.807010  0.829590  1.0  -0.5813
  O  O802  1  0.064000  0.815380  0.746130  1.0  -0.5911
  O  O803  1  0.057600  0.107000  0.908900  1.0  -0.4837
  O  O804  1  0.162000  0.942200  0.047900  1.0  -0.5089
  O  O805  1  0.144820  0.211500  0.229380  1.0  -0.5909
  O  O806  1  0.066340  0.212460  0.147340  1.0  -0.6063
  O  O807  1  0.133210  0.688930  0.735860  1.0  -0.6022
  O  O808  1  0.054390  0.689910  0.662120  1.0  -0.5941
  O  O809  1  0.014700  0.540100  0.436000  1.0  -0.3982
  O  O810  1  0.152300  0.399600  0.583300  1.0  -0.4159
  O  O811  1  0.138390  0.293150  0.345180  1.0  -0.5951
  O  O812  1  0.060030  0.283530  0.269350  1.0  -0.5846
  O  O813  1  0.642160  0.307010  0.829590  1.0  -0.5813
  O  O814  1  0.564000  0.315380  0.746130  1.0  -0.5911
  O  O815  1  0.557600  0.607000  0.908900  1.0  -0.4837
  O  O816  1  0.662000  0.442200  0.047900  1.0  -0.5089
  O  O817  1  0.644820  0.711500  0.229380  1.0  -0.5909
  O  O818  1  0.566340  0.712460  0.147340  1.0  -0.6063
  O  O819  1  0.633210  0.188930  0.735860  1.0  -0.6022
  O  O820  1  0.554390  0.189910  0.662120  1.0  -0.5941
  O  O821  1  0.514700  0.040100  0.436000  1.0  -0.3982
  O  O822  1  0.652300  0.899600  0.583300  1.0  -0.4159
  O  O823  1  0.638390  0.793150  0.345180  1.0  -0.5951
  O  O824  1  0.560030  0.783530  0.269350  1.0  -0.5846
  O  O825  1  0.142160  0.192990  0.329590  1.0  -0.5812
  O  O826  1  0.064000  0.184620  0.246130  1.0  -0.591
  O  O827  1  0.057600  0.893000  0.408900  1.0  -0.4831
  O  O828  1  0.162000  0.057800  0.547900  1.0  -0.5097
  O  O829  1  0.144820  0.788500  0.729380  1.0  -0.5914
  O  O830  1  0.066340  0.787540  0.647340  1.0  -0.6068
  O  O831  1  0.133210  0.311070  0.235860  1.0  -0.6018
  O  O832  1  0.054390  0.310090  0.162120  1.0  -0.5938
  O  O833  1  0.014700  0.459900  0.936000  1.0  -0.3984
  O  O834  1  0.152300  0.600400  0.083300  1.0  -0.4156
  O  O835  1  0.138390  0.706850  0.845180  1.0  -0.5958
  O  O836  1  0.060030  0.716470  0.769350  1.0  -0.5852
  O  O837  1  0.642160  0.692990  0.329590  1.0  -0.5812
  O  O838  1  0.564000  0.684620  0.246130  1.0  -0.591
  O  O839  1  0.557600  0.393000  0.408900  1.0  -0.4831
  O  O840  1  0.662000  0.557800  0.547900  1.0  -0.5097
  O  O841  1  0.644820  0.288500  0.729380  1.0  -0.5914
  O  O842  1  0.566340  0.287540  0.647340  1.0  -0.6068
  O  O843  1  0.633210  0.811070  0.235860  1.0  -0.6018
  O  O844  1  0.554390  0.810090  0.162120  1.0  -0.5938
  O  O845  1  0.514700  0.959900  0.936000  1.0  -0.3984
  O  O846  1  0.652300  0.100400  0.083300  1.0  -0.4156
  O  O847  1  0.638390  0.206850  0.845180  1.0  -0.5958
  O  O848  1  0.560030  0.216470  0.769350  1.0  -0.5852
  O  O849  1  0.857840  0.807010  0.670410  1.0  -0.5818
  O  O850  1  0.936000  0.815380  0.753870  1.0  -0.5921
  O  O851  1  0.942400  0.107000  0.591100  1.0  -0.484
  O  O852  1  0.838000  0.942200  0.452100  1.0  -0.5086
  O  O853  1  0.855180  0.211500  0.270620  1.0  -0.5914
  O  O854  1  0.933660  0.212460  0.352660  1.0  -0.6079
  O  O855  1  0.866790  0.688930  0.764140  1.0  -0.6012
  O  O856  1  0.945610  0.689910  0.837880  1.0  -0.5937
  O  O857  1  0.985300  0.540100  0.064000  1.0  -0.3971
  O  O858  1  0.847700  0.399600  0.916700  1.0  -0.4154
  O  O859  1  0.861610  0.293150  0.154820  1.0  -0.5949
  O  O860  1  0.939970  0.283530  0.230650  1.0  -0.5847
  O  O861  1  0.357840  0.307010  0.670410  1.0  -0.5818
  O  O862  1  0.436000  0.315380  0.753870  1.0  -0.5921
  O  O863  1  0.442400  0.607000  0.591100  1.0  -0.484
  O  O864  1  0.338000  0.442200  0.452100  1.0  -0.5086
  O  O865  1  0.355180  0.711500  0.270620  1.0  -0.5914
  O  O866  1  0.433660  0.712460  0.352660  1.0  -0.6079
  O  O867  1  0.366790  0.188930  0.764140  1.0  -0.6012
  O  O868  1  0.445610  0.189910  0.837880  1.0  -0.5937
  O  O869  1  0.485300  0.040100  0.064000  1.0  -0.3971
  O  O870  1  0.347700  0.899600  0.916700  1.0  -0.4154
  O  O871  1  0.361610  0.793150  0.154820  1.0  -0.5949
  O  O872  1  0.439970  0.783530  0.230650  1.0  -0.5847
  O  O873  1  0.857840  0.192990  0.170410  1.0  -0.581
  O  O874  1  0.936000  0.184620  0.253870  1.0  -0.5919
  O  O875  1  0.942400  0.893000  0.091100  1.0  -0.484
  O  O876  1  0.838000  0.057800  0.952100  1.0  -0.51
  O  O877  1  0.855180  0.788500  0.770620  1.0  -0.5918
  O  O878  1  0.933660  0.787540  0.852660  1.0  -0.6082
  O  O879  1  0.866790  0.311070  0.264140  1.0  -0.601
  O  O880  1  0.945610  0.310090  0.337880  1.0  -0.5934
  O  O881  1  0.985300  0.459900  0.564000  1.0  -0.4005
  O  O882  1  0.847700  0.600400  0.416700  1.0  -0.4151
  O  O883  1  0.861610  0.706850  0.654820  1.0  -0.5953
  O  O884  1  0.939970  0.716470  0.730650  1.0  -0.5852
  O  O885  1  0.357840  0.692990  0.170410  1.0  -0.581
  O  O886  1  0.436000  0.684620  0.253870  1.0  -0.5919
  O  O887  1  0.442400  0.393000  0.091100  1.0  -0.484
  O  O888  1  0.338000  0.557800  0.952100  1.0  -0.51
  O  O889  1  0.355180  0.288500  0.770620  1.0  -0.5918
  O  O890  1  0.433660  0.287540  0.852660  1.0  -0.6082
  O  O891  1  0.366790  0.811070  0.264140  1.0  -0.601
  O  O892  1  0.445610  0.810090  0.337880  1.0  -0.5934
  O  O893  1  0.485300  0.959900  0.564000  1.0  -0.4005
  O  O894  1  0.347700  0.100400  0.416700  1.0  -0.4151
  O  O895  1  0.361610  0.206850  0.654820  1.0  -0.5953
  O  O896  1  0.439970  0.216470  0.730650  1.0  -0.5852
