# generated using pymatgen
data_ZnH24C30NO6
_symmetry_space_group_name_H-M   'P 1'
_cell_length_a   39.13320000
_cell_length_b   27.45030000
_cell_length_c   27.34970000
_cell_angle_alpha   90.00000000
_cell_angle_beta   134.02200000
_cell_angle_gamma   90.00000000
_symmetry_Int_Tables_number   1
_chemical_formula_structural   ZnH24C30NO6
_chemical_formula_sum   'Zn16 H384 C480 N16 O96'
_cell_volume   21126.03608241
_cell_formula_units_Z   16
loop_
 _symmetry_equiv_pos_site_id
 _symmetry_equiv_pos_as_xyz
  1  'x, y, z'
loop_
 _atom_site_type_symbol
 _atom_site_label
 _atom_site_symmetry_multiplicity
 _atom_site_fract_x
 _atom_site_fract_y
 _atom_site_fract_z
 _atom_site_occupancy
 _atom_site_charge
  Zn  Zn1  1  0.048520  0.752300  0.901350  1.0  0.9224
  Zn  Zn2  1  0.152760  0.747520  0.004490  1.0  0.9227
  Zn  Zn3  1  0.548520  0.252300  0.901350  1.0  0.9224
  Zn  Zn4  1  0.652760  0.247520  0.004490  1.0  0.9227
  Zn  Zn5  1  0.048520  0.247700  0.401350  1.0  0.9224
  Zn  Zn6  1  0.152760  0.252480  0.504490  1.0  0.9226
  Zn  Zn7  1  0.548520  0.747700  0.401350  1.0  0.9224
  Zn  Zn8  1  0.652760  0.752480  0.504490  1.0  0.9226
  Zn  Zn9  1  0.951480  0.752300  0.598650  1.0  0.9221
  Zn  Zn10  1  0.847240  0.747520  0.495510  1.0  0.9217
  Zn  Zn11  1  0.451480  0.252300  0.598650  1.0  0.9221
  Zn  Zn12  1  0.347240  0.247520  0.495510  1.0  0.9217
  Zn  Zn13  1  0.951480  0.247700  0.098650  1.0  0.922
  Zn  Zn14  1  0.847240  0.252480  0.995510  1.0  0.9216
  Zn  Zn15  1  0.451480  0.747700  0.098650  1.0  0.922
  Zn  Zn16  1  0.347240  0.752480  0.995510  1.0  0.9216
  H  H17  1  0.036800  0.888300  0.808800  1.0  0.0812
  H  H18  1  0.036300  0.952200  0.752700  1.0  0.1224
  H  H19  1  0.176900  0.937300  0.877900  1.0  0.108
  H  H20  1  0.177700  0.875000  0.935200  1.0  0.1207
  H  H21  1  0.059800  0.033400  0.758500  1.0  0.1176
  H  H22  1  0.151700  0.015300  0.708200  1.0  0.1109
  H  H23  1  0.036500  0.109700  0.587000  1.0  0.0975
  H  H24  1  0.036000  0.164100  0.521500  1.0  0.1043
  H  H25  1  0.177100  0.161500  0.658700  1.0  0.1006
  H  H26  1  0.178700  0.102400  0.719300  1.0  0.1225
  H  H27  1  0.164500  0.937100  0.701300  1.0  0.0743
  H  H28  1  0.211200  0.955400  0.773800  1.0  0.0709
  H  H29  1  0.176000  0.861300  0.753300  1.0  0.0761
  H  H30  1  0.226500  0.880300  0.819000  1.0  0.0692
  H  H31  1  0.195800  0.864400  0.690000  1.0  0.0902
  H  H32  1  0.242700  0.893300  0.747600  1.0  0.0866
  H  H33  1  0.236200  0.800200  0.781200  1.0  0.0789
  H  H34  1  0.282100  0.827200  0.809500  1.0  0.0992
  H  H35  1  0.257900  0.809800  0.701900  1.0  0.0788
  H  H36  1  0.274900  0.764500  0.748800  1.0  0.0944
  H  H37  1  0.218100  0.751200  0.651600  1.0  0.0407
  H  H38  1  0.190300  0.793400  0.649900  1.0  0.0897
  H  H39  1  0.207200  0.748000  0.696900  1.0  0.0951
  H  H40  1  0.032200  0.108900  0.752400  1.0  0.0809
  H  H41  1  0.008500  0.152600  0.698900  1.0  0.0924
  H  H42  1  0.973000  0.076200  0.669300  1.0  0.0777
  H  H43  1  0.009200  0.065500  0.662900  1.0  0.0974
  H  H44  1  0.950200  0.150400  0.599500  1.0  0.0673
  H  H45  1  0.979000  0.129400  0.585000  1.0  0.099
  H  H46  1  0.893500  0.130300  0.515900  1.0  0.1408
  H  H47  1  0.910800  0.076000  0.527100  1.0  0.1199
  H  H48  1  0.027000  0.670300  0.745200  1.0  0.099
  H  H49  1  0.023700  0.615600  0.677400  1.0  0.1132
  H  H50  1  0.165500  0.599200  0.825800  1.0  0.1148
  H  H51  1  0.167300  0.651300  0.895700  1.0  0.1086
  H  H52  1  0.074100  0.604000  0.631400  1.0  0.0857
  H  H53  1  0.141600  0.451700  0.729300  1.0  0.1424
  H  H54  1  0.024600  0.385600  0.457300  1.0  0.0969
  H  H55  1  0.024500  0.452900  0.508600  1.0  0.0893
  H  H56  1  0.162800  0.437700  0.666667  1.0  0.1005
  H  H57  1  0.164500  0.370800  0.616100  1.0  0.1031
  H  H58  1  0.966700  0.716500  0.878700  1.0  0.0811
  H  H59  1  0.886200  0.717000  0.801000  1.0  0.1354
  H  H60  1  0.887800  0.799500  0.683000  1.0  0.1157
  H  H61  1  0.969100  0.796600  0.764200  1.0  0.0921
  H  H62  1  0.733100  0.730000  0.648400  1.0  0.077
  H  H63  1  0.813800  0.737900  0.733000  1.0  0.0933
  H  H64  1  0.814500  0.790200  0.606000  1.0  0.1051
  H  H65  1  0.536800  0.388300  0.808800  1.0  0.0812
  H  H66  1  0.536300  0.452200  0.752700  1.0  0.1224
  H  H67  1  0.676900  0.437300  0.877900  1.0  0.108
  H  H68  1  0.677700  0.375000  0.935200  1.0  0.1207
  H  H69  1  0.559800  0.533400  0.758500  1.0  0.1176
  H  H70  1  0.651700  0.515300  0.708200  1.0  0.1109
  H  H71  1  0.536500  0.609700  0.587000  1.0  0.0975
  H  H72  1  0.536000  0.664100  0.521500  1.0  0.1043
  H  H73  1  0.677100  0.661500  0.658700  1.0  0.1006
  H  H74  1  0.678700  0.602400  0.719300  1.0  0.1225
  H  H75  1  0.664500  0.437100  0.701300  1.0  0.0743
  H  H76  1  0.711200  0.455400  0.773800  1.0  0.0709
  H  H77  1  0.676000  0.361300  0.753300  1.0  0.0761
  H  H78  1  0.726500  0.380300  0.819000  1.0  0.0692
  H  H79  1  0.695800  0.364400  0.690000  1.0  0.0902
  H  H80  1  0.742700  0.393300  0.747600  1.0  0.0866
  H  H81  1  0.736200  0.300200  0.781200  1.0  0.0789
  H  H82  1  0.782100  0.327200  0.809500  1.0  0.0992
  H  H83  1  0.757900  0.309800  0.701900  1.0  0.0788
  H  H84  1  0.774900  0.264500  0.748800  1.0  0.0944
  H  H85  1  0.718100  0.251200  0.651600  1.0  0.0407
  H  H86  1  0.690300  0.293400  0.649900  1.0  0.0897
  H  H87  1  0.707200  0.248000  0.696900  1.0  0.0951
  H  H88  1  0.532200  0.608900  0.752400  1.0  0.0809
  H  H89  1  0.508500  0.652600  0.698900  1.0  0.0924
  H  H90  1  0.473000  0.576200  0.669300  1.0  0.0777
  H  H91  1  0.509200  0.565500  0.662900  1.0  0.0974
  H  H92  1  0.450200  0.650400  0.599500  1.0  0.0673
  H  H93  1  0.479000  0.629400  0.585000  1.0  0.099
  H  H94  1  0.393500  0.630300  0.515900  1.0  0.1408
  H  H95  1  0.410800  0.576000  0.527100  1.0  0.1199
  H  H96  1  0.527000  0.170300  0.745200  1.0  0.099
  H  H97  1  0.523700  0.115600  0.677400  1.0  0.1132
  H  H98  1  0.665500  0.099200  0.825800  1.0  0.1148
  H  H99  1  0.667300  0.151300  0.895700  1.0  0.1086
  H  H100  1  0.574100  0.104000  0.631400  1.0  0.0857
  H  H101  1  0.641600  0.951700  0.729300  1.0  0.1424
  H  H102  1  0.524600  0.885600  0.457300  1.0  0.0969
  H  H103  1  0.524500  0.952900  0.508600  1.0  0.0893
  H  H104  1  0.662800  0.937700  0.666667  1.0  0.1005
  H  H105  1  0.664500  0.870800  0.616100  1.0  0.1031
  H  H106  1  0.466700  0.216500  0.878700  1.0  0.0811
  H  H107  1  0.386200  0.217000  0.801000  1.0  0.1354
  H  H108  1  0.387800  0.299500  0.683000  1.0  0.1157
  H  H109  1  0.469100  0.296600  0.764200  1.0  0.0921
  H  H110  1  0.233100  0.230000  0.648400  1.0  0.077
  H  H111  1  0.313800  0.237900  0.733000  1.0  0.0933
  H  H112  1  0.314500  0.290200  0.606000  1.0  0.1051
  H  H113  1  0.036800  0.111700  0.308800  1.0  0.0814
  H  H114  1  0.036300  0.047800  0.252700  1.0  0.1225
  H  H115  1  0.176900  0.062700  0.377900  1.0  0.1076
  H  H116  1  0.177700  0.125000  0.435200  1.0  0.121
  H  H117  1  0.059800  0.966600  0.258500  1.0  0.1176
  H  H118  1  0.151700  0.984700  0.208200  1.0  0.1108
  H  H119  1  0.036500  0.890300  0.087000  1.0  0.0976
  H  H120  1  0.036000  0.835900  0.021500  1.0  0.1045
  H  H121  1  0.177100  0.838500  0.158700  1.0  0.1004
  H  H122  1  0.178700  0.897600  0.219300  1.0  0.1223
  H  H123  1  0.164500  0.062900  0.201300  1.0  0.0742
  H  H124  1  0.211200  0.044600  0.273800  1.0  0.0702
  H  H125  1  0.176000  0.138700  0.253300  1.0  0.0764
  H  H126  1  0.226500  0.119700  0.319000  1.0  0.0698
  H  H127  1  0.195800  0.135600  0.190000  1.0  0.0899
  H  H128  1  0.242700  0.106700  0.247600  1.0  0.0865
  H  H129  1  0.236200  0.199800  0.281200  1.0  0.0801
  H  H130  1  0.282100  0.172800  0.309500  1.0  0.099
  H  H131  1  0.257900  0.190200  0.201900  1.0  0.0785
  H  H132  1  0.274900  0.235500  0.248800  1.0  0.0967
  H  H133  1  0.218100  0.248800  0.151600  1.0  0.0405
  H  H134  1  0.190300  0.206600  0.149900  1.0  0.089
  H  H135  1  0.207200  0.252000  0.196900  1.0  0.0974
  H  H136  1  0.032200  0.891100  0.252400  1.0  0.0811
  H  H137  1  0.008500  0.847400  0.198900  1.0  0.0885
  H  H138  1  0.973000  0.923800  0.169300  1.0  0.0768
  H  H139  1  0.009200  0.934500  0.162900  1.0  0.0964
  H  H140  1  0.950200  0.849600  0.099500  1.0  0.068
  H  H141  1  0.979000  0.870600  0.085000  1.0  0.099
  H  H142  1  0.893500  0.869700  0.015900  1.0  0.1403
  H  H143  1  0.910800  0.924000  0.027100  1.0  0.1213
  H  H144  1  0.027000  0.329700  0.245200  1.0  0.099
  H  H145  1  0.023700  0.384400  0.177400  1.0  0.1131
  H  H146  1  0.165500  0.400800  0.325800  1.0  0.1151
  H  H147  1  0.167300  0.348700  0.395700  1.0  0.1087
  H  H148  1  0.074100  0.396000  0.131400  1.0  0.0849
  H  H149  1  0.141600  0.548300  0.229300  1.0  0.1422
  H  H150  1  0.024600  0.614400  0.957300  1.0  0.0969
  H  H151  1  0.024500  0.547100  0.008600  1.0  0.0892
  H  H152  1  0.162800  0.562300  0.166600  1.0  0.0996
  H  H153  1  0.164500  0.629200  0.116100  1.0  0.1031
  H  H154  1  0.966700  0.283500  0.378700  1.0  0.0812
  H  H155  1  0.886200  0.283000  0.301000  1.0  0.1351
  H  H156  1  0.887800  0.200500  0.183000  1.0  0.1152
  H  H157  1  0.969100  0.203400  0.264200  1.0  0.0921
  H  H158  1  0.733100  0.270000  0.148400  1.0  0.0767
  H  H159  1  0.813800  0.262100  0.233000  1.0  0.0934
  H  H160  1  0.814500  0.209800  0.106000  1.0  0.1053
  H  H161  1  0.536800  0.611700  0.308800  1.0  0.0814
  H  H162  1  0.536300  0.547800  0.252700  1.0  0.1225
  H  H163  1  0.676900  0.562700  0.377900  1.0  0.1076
  H  H164  1  0.677700  0.625000  0.435200  1.0  0.121
  H  H165  1  0.559800  0.466600  0.258500  1.0  0.1176
  H  H166  1  0.651700  0.484700  0.208200  1.0  0.1108
  H  H167  1  0.536500  0.390300  0.087000  1.0  0.0976
  H  H168  1  0.536000  0.335900  0.021500  1.0  0.1045
  H  H169  1  0.677100  0.338500  0.158700  1.0  0.1004
  H  H170  1  0.678700  0.397600  0.219300  1.0  0.1223
  H  H171  1  0.664500  0.562900  0.201300  1.0  0.0742
  H  H172  1  0.711200  0.544600  0.273800  1.0  0.0702
  H  H173  1  0.676000  0.638700  0.253300  1.0  0.0764
  H  H174  1  0.726500  0.619700  0.319000  1.0  0.0698
  H  H175  1  0.695800  0.635600  0.190000  1.0  0.0899
  H  H176  1  0.742700  0.606700  0.247600  1.0  0.0865
  H  H177  1  0.736200  0.699800  0.281200  1.0  0.0801
  H  H178  1  0.782100  0.672800  0.309500  1.0  0.099
  H  H179  1  0.757900  0.690200  0.201900  1.0  0.0785
  H  H180  1  0.774900  0.735500  0.248800  1.0  0.0967
  H  H181  1  0.718100  0.748800  0.151600  1.0  0.0405
  H  H182  1  0.690300  0.706600  0.149900  1.0  0.089
  H  H183  1  0.707200  0.752000  0.196900  1.0  0.0974
  H  H184  1  0.532200  0.391100  0.252400  1.0  0.0811
  H  H185  1  0.508500  0.347400  0.198900  1.0  0.0885
  H  H186  1  0.473000  0.423800  0.169300  1.0  0.0768
  H  H187  1  0.509200  0.434500  0.162900  1.0  0.0964
  H  H188  1  0.450200  0.349600  0.099500  1.0  0.068
  H  H189  1  0.479000  0.370600  0.085000  1.0  0.099
  H  H190  1  0.393500  0.369700  0.015900  1.0  0.1403
  H  H191  1  0.410800  0.424000  0.027100  1.0  0.1213
  H  H192  1  0.527000  0.829700  0.245200  1.0  0.099
  H  H193  1  0.523700  0.884400  0.177400  1.0  0.1131
  H  H194  1  0.665500  0.900800  0.325800  1.0  0.1151
  H  H195  1  0.667300  0.848700  0.395700  1.0  0.1087
  H  H196  1  0.574100  0.896000  0.131400  1.0  0.0849
  H  H197  1  0.641600  0.048300  0.229300  1.0  0.1422
  H  H198  1  0.524600  0.114400  0.957300  1.0  0.0969
  H  H199  1  0.524500  0.047100  0.008600  1.0  0.0892
  H  H200  1  0.662800  0.062300  0.166600  1.0  0.0996
  H  H201  1  0.664500  0.129200  0.116100  1.0  0.1031
  H  H202  1  0.466700  0.783500  0.378700  1.0  0.0812
  H  H203  1  0.386200  0.783000  0.301000  1.0  0.1351
  H  H204  1  0.387800  0.700500  0.183000  1.0  0.1152
  H  H205  1  0.469100  0.703400  0.264200  1.0  0.0921
  H  H206  1  0.233100  0.770000  0.148400  1.0  0.0767
  H  H207  1  0.313800  0.762100  0.233000  1.0  0.0934
  H  H208  1  0.314500  0.709800  0.106000  1.0  0.1053
  H  H209  1  0.963200  0.888300  0.691200  1.0  0.0808
  H  H210  1  0.963700  0.952200  0.747300  1.0  0.1222
  H  H211  1  0.823100  0.937300  0.622100  1.0  0.1078
  H  H212  1  0.822300  0.875000  0.564800  1.0  0.1216
  H  H213  1  0.940200  0.033400  0.741500  1.0  0.1177
  H  H214  1  0.848300  0.015300  0.791800  1.0  0.1117
  H  H215  1  0.963500  0.109700  0.913000  1.0  0.0982
  H  H216  1  0.964000  0.164100  0.978500  1.0  0.1036
  H  H217  1  0.822900  0.161500  0.841300  1.0  0.0997
  H  H218  1  0.821300  0.102400  0.780700  1.0  0.123
  H  H219  1  0.835500  0.937100  0.798700  1.0  0.0753
  H  H220  1  0.788800  0.955400  0.726200  1.0  0.0691
  H  H221  1  0.824000  0.861300  0.746700  1.0  0.0782
  H  H222  1  0.773500  0.880300  0.681000  1.0  0.0695
  H  H223  1  0.804200  0.864400  0.810000  1.0  0.0904
  H  H224  1  0.757300  0.893300  0.752400  1.0  0.0851
  H  H225  1  0.763800  0.800200  0.718800  1.0  0.078
  H  H226  1  0.717900  0.827200  0.690500  1.0  0.0937
  H  H227  1  0.742100  0.809800  0.798100  1.0  0.0797
  H  H228  1  0.725100  0.764500  0.751200  1.0  0.091
  H  H229  1  0.781900  0.751200  0.848400  1.0  0.0419
  H  H230  1  0.809700  0.793400  0.850100  1.0  0.0903
  H  H231  1  0.792800  0.748000  0.803100  1.0  0.0969
  H  H232  1  0.967800  0.108900  0.747600  1.0  0.0792
  H  H233  1  0.991500  0.152600  0.801100  1.0  0.0915
  H  H234  1  0.027000  0.076200  0.830700  1.0  0.0776
  H  H235  1  0.990800  0.065500  0.837100  1.0  0.0972
  H  H236  1  0.049800  0.150400  0.900500  1.0  0.0665
  H  H237  1  0.021000  0.129400  0.915000  1.0  0.0931
  H  H238  1  0.106500  0.130300  0.984100  1.0  0.1473
  H  H239  1  0.089200  0.076000  0.972900  1.0  0.1202
  H  H240  1  0.973000  0.670300  0.754800  1.0  0.0994
  H  H241  1  0.976300  0.615600  0.822600  1.0  0.113
  H  H242  1  0.834500  0.599200  0.674200  1.0  0.1154
  H  H243  1  0.832700  0.651300  0.604300  1.0  0.1087
  H  H244  1  0.925900  0.604000  0.868600  1.0  0.0858
  H  H245  1  0.858400  0.451700  0.770700  1.0  0.1423
  H  H246  1  0.975400  0.385600  0.042700  1.0  0.0969
  H  H247  1  0.975500  0.452900  0.991400  1.0  0.0893
  H  H248  1  0.837200  0.437700  0.833400  1.0  0.0994
  H  H249  1  0.835500  0.370800  0.883900  1.0  0.1028
  H  H250  1  0.033300  0.716500  0.621300  1.0  0.0807
  H  H251  1  0.113800  0.717000  0.699000  1.0  0.1351
  H  H252  1  0.112200  0.799500  0.817000  1.0  0.1154
  H  H253  1  0.030900  0.796600  0.735800  1.0  0.0915
  H  H254  1  0.266900  0.730000  0.851600  1.0  0.0778
  H  H255  1  0.186200  0.737900  0.767000  1.0  0.0934
  H  H256  1  0.185500  0.790200  0.894000  1.0  0.1046
  H  H257  1  0.463200  0.388300  0.691200  1.0  0.0808
  H  H258  1  0.463700  0.452200  0.747300  1.0  0.1222
  H  H259  1  0.323100  0.437300  0.622100  1.0  0.1078
  H  H260  1  0.322300  0.375000  0.564800  1.0  0.1216
  H  H261  1  0.440200  0.533400  0.741500  1.0  0.1177
  H  H262  1  0.348300  0.515300  0.791800  1.0  0.1117
  H  H263  1  0.463500  0.609700  0.913000  1.0  0.0982
  H  H264  1  0.464000  0.664100  0.978500  1.0  0.1036
  H  H265  1  0.322900  0.661500  0.841300  1.0  0.0997
  H  H266  1  0.321300  0.602400  0.780700  1.0  0.123
  H  H267  1  0.335500  0.437100  0.798700  1.0  0.0753
  H  H268  1  0.288800  0.455400  0.726200  1.0  0.0691
  H  H269  1  0.324000  0.361300  0.746700  1.0  0.0782
  H  H270  1  0.273500  0.380300  0.681000  1.0  0.0695
  H  H271  1  0.304200  0.364400  0.810000  1.0  0.0904
  H  H272  1  0.257300  0.393300  0.752400  1.0  0.0851
  H  H273  1  0.263800  0.300200  0.718800  1.0  0.078
  H  H274  1  0.217900  0.327200  0.690500  1.0  0.0937
  H  H275  1  0.242100  0.309800  0.798100  1.0  0.0797
  H  H276  1  0.225100  0.264500  0.751200  1.0  0.091
  H  H277  1  0.281900  0.251200  0.848400  1.0  0.0419
  H  H278  1  0.309700  0.293400  0.850100  1.0  0.0903
  H  H279  1  0.292800  0.248000  0.803100  1.0  0.0969
  H  H280  1  0.467800  0.608900  0.747600  1.0  0.0792
  H  H281  1  0.491500  0.652600  0.801100  1.0  0.0915
  H  H282  1  0.527000  0.576200  0.830700  1.0  0.0776
  H  H283  1  0.490800  0.565500  0.837100  1.0  0.0972
  H  H284  1  0.549800  0.650400  0.900500  1.0  0.0665
  H  H285  1  0.521000  0.629400  0.915000  1.0  0.0931
  H  H286  1  0.606500  0.630300  0.984100  1.0  0.1473
  H  H287  1  0.589200  0.576000  0.972900  1.0  0.1202
  H  H288  1  0.473000  0.170300  0.754800  1.0  0.0994
  H  H289  1  0.476300  0.115600  0.822600  1.0  0.113
  H  H290  1  0.334500  0.099200  0.674200  1.0  0.1154
  H  H291  1  0.332700  0.151300  0.604300  1.0  0.1087
  H  H292  1  0.425900  0.104000  0.868600  1.0  0.0858
  H  H293  1  0.358400  0.951700  0.770700  1.0  0.1423
  H  H294  1  0.475400  0.885600  0.042700  1.0  0.0969
  H  H295  1  0.475500  0.952900  0.991400  1.0  0.0893
  H  H296  1  0.337200  0.937700  0.833400  1.0  0.0994
  H  H297  1  0.335500  0.870800  0.883900  1.0  0.1028
  H  H298  1  0.533300  0.216500  0.621300  1.0  0.0807
  H  H299  1  0.613800  0.217000  0.699000  1.0  0.1351
  H  H300  1  0.612200  0.299500  0.817000  1.0  0.1154
  H  H301  1  0.530900  0.296600  0.735800  1.0  0.0915
  H  H302  1  0.766900  0.230000  0.851600  1.0  0.0778
  H  H303  1  0.686200  0.237900  0.767000  1.0  0.0934
  H  H304  1  0.685500  0.290200  0.894000  1.0  0.1046
  H  H305  1  0.963200  0.111700  0.191200  1.0  0.0809
  H  H306  1  0.963700  0.047800  0.247300  1.0  0.1225
  H  H307  1  0.823100  0.062700  0.122100  1.0  0.1078
  H  H308  1  0.822300  0.125000  0.064800  1.0  0.1217
  H  H309  1  0.940200  0.966600  0.241500  1.0  0.1181
  H  H310  1  0.848300  0.984700  0.291800  1.0  0.1119
  H  H311  1  0.963500  0.890300  0.413000  1.0  0.0981
  H  H312  1  0.964000  0.835900  0.478500  1.0  0.1038
  H  H313  1  0.822900  0.838500  0.341300  1.0  0.0998
  H  H314  1  0.821300  0.897600  0.280700  1.0  0.1231
  H  H315  1  0.835500  0.062900  0.298700  1.0  0.0756
  H  H316  1  0.788800  0.044600  0.226200  1.0  0.0686
  H  H317  1  0.824000  0.138700  0.246700  1.0  0.0787
  H  H318  1  0.773500  0.119700  0.181000  1.0  0.0693
  H  H319  1  0.804200  0.135600  0.310000  1.0  0.0906
  H  H320  1  0.757300  0.106700  0.252400  1.0  0.0873
  H  H321  1  0.763800  0.199800  0.218800  1.0  0.0794
  H  H322  1  0.717900  0.172800  0.190500  1.0  0.0936
  H  H323  1  0.742100  0.190200  0.298100  1.0  0.0783
  H  H324  1  0.725100  0.235500  0.251200  1.0  0.0909
  H  H325  1  0.781900  0.248800  0.348400  1.0  0.0449
  H  H326  1  0.809700  0.206600  0.350100  1.0  0.0898
  H  H327  1  0.792800  0.252000  0.303100  1.0  0.0971
  H  H328  1  0.967800  0.891100  0.247600  1.0  0.0795
  H  H329  1  0.991500  0.847400  0.301100  1.0  0.0876
  H  H330  1  0.027000  0.923800  0.330700  1.0  0.0795
  H  H331  1  0.990800  0.934500  0.337100  1.0  0.0952
  H  H332  1  0.049800  0.849600  0.400500  1.0  0.0667
  H  H333  1  0.021000  0.870600  0.415000  1.0  0.0929
  H  H334  1  0.106500  0.869700  0.484100  1.0  0.1471
  H  H335  1  0.089200  0.924000  0.472900  1.0  0.1207
  H  H336  1  0.973000  0.329700  0.254800  1.0  0.0994
  H  H337  1  0.976300  0.384400  0.322600  1.0  0.113
  H  H338  1  0.834500  0.400800  0.174200  1.0  0.1152
  H  H339  1  0.832700  0.348700  0.104300  1.0  0.1083
  H  H340  1  0.925900  0.396000  0.368600  1.0  0.0857
  H  H341  1  0.858400  0.548300  0.270700  1.0  0.1425
  H  H342  1  0.975400  0.614400  0.542700  1.0  0.0967
  H  H343  1  0.975500  0.547100  0.491400  1.0  0.0892
  H  H344  1  0.837200  0.562300  0.333400  1.0  0.099
  H  H345  1  0.835500  0.629200  0.383900  1.0  0.1031
  H  H346  1  0.033300  0.283500  0.121300  1.0  0.081
  H  H347  1  0.113800  0.283000  0.199000  1.0  0.135
  H  H348  1  0.112200  0.200500  0.317000  1.0  0.1152
  H  H349  1  0.030900  0.203400  0.235800  1.0  0.0918
  H  H350  1  0.266900  0.270000  0.351600  1.0  0.0768
  H  H351  1  0.186200  0.262100  0.267000  1.0  0.0938
  H  H352  1  0.185500  0.209800  0.394000  1.0  0.1049
  H  H353  1  0.463200  0.611700  0.191200  1.0  0.0809
  H  H354  1  0.463700  0.547800  0.247300  1.0  0.1225
  H  H355  1  0.323100  0.562700  0.122100  1.0  0.1078
  H  H356  1  0.322300  0.625000  0.064800  1.0  0.1217
  H  H357  1  0.440200  0.466600  0.241500  1.0  0.1181
  H  H358  1  0.348300  0.484700  0.291800  1.0  0.1119
  H  H359  1  0.463500  0.390300  0.413000  1.0  0.0981
  H  H360  1  0.464000  0.335900  0.478500  1.0  0.1038
  H  H361  1  0.322900  0.338500  0.341300  1.0  0.0998
  H  H362  1  0.321300  0.397600  0.280700  1.0  0.1231
  H  H363  1  0.335500  0.562900  0.298700  1.0  0.0756
  H  H364  1  0.288800  0.544600  0.226200  1.0  0.0686
  H  H365  1  0.324000  0.638700  0.246700  1.0  0.0787
  H  H366  1  0.273500  0.619700  0.181000  1.0  0.0693
  H  H367  1  0.304200  0.635600  0.310000  1.0  0.0906
  H  H368  1  0.257300  0.606700  0.252400  1.0  0.0873
  H  H369  1  0.263800  0.699800  0.218800  1.0  0.0794
  H  H370  1  0.217900  0.672800  0.190500  1.0  0.0936
  H  H371  1  0.242100  0.690200  0.298100  1.0  0.0783
  H  H372  1  0.225100  0.735500  0.251200  1.0  0.0909
  H  H373  1  0.281900  0.748800  0.348400  1.0  0.0449
  H  H374  1  0.309700  0.706600  0.350100  1.0  0.0898
  H  H375  1  0.292800  0.752000  0.303100  1.0  0.0971
  H  H376  1  0.467800  0.391100  0.247600  1.0  0.0795
  H  H377  1  0.491500  0.347400  0.301100  1.0  0.0876
  H  H378  1  0.527000  0.423800  0.330700  1.0  0.0795
  H  H379  1  0.490800  0.434500  0.337100  1.0  0.0952
  H  H380  1  0.549800  0.349600  0.400500  1.0  0.0667
  H  H381  1  0.521000  0.370600  0.415000  1.0  0.0929
  H  H382  1  0.606500  0.369700  0.484100  1.0  0.1471
  H  H383  1  0.589200  0.424000  0.472900  1.0  0.1207
  H  H384  1  0.473000  0.829700  0.254800  1.0  0.0994
  H  H385  1  0.476300  0.884400  0.322600  1.0  0.113
  H  H386  1  0.334500  0.900800  0.174200  1.0  0.1152
  H  H387  1  0.332700  0.848700  0.104300  1.0  0.1083
  H  H388  1  0.425900  0.896000  0.368600  1.0  0.0857
  H  H389  1  0.358400  0.048300  0.270700  1.0  0.1425
  H  H390  1  0.475400  0.114400  0.542700  1.0  0.0967
  H  H391  1  0.475500  0.047100  0.491400  1.0  0.0892
  H  H392  1  0.337200  0.062300  0.333400  1.0  0.099
  H  H393  1  0.335500  0.129200  0.383900  1.0  0.1031
  H  H394  1  0.533300  0.783500  0.121300  1.0  0.081
  H  H395  1  0.613800  0.783000  0.199000  1.0  0.135
  H  H396  1  0.612200  0.700500  0.317000  1.0  0.1152
  H  H397  1  0.530900  0.703400  0.235800  1.0  0.0918
  H  H398  1  0.766900  0.770000  0.351600  1.0  0.0768
  H  H399  1  0.686200  0.762100  0.267000  1.0  0.0938
  H  H400  1  0.685500  0.709800  0.394000  1.0  0.1049
  C  C401  1  0.104200  0.829810  0.905600  1.0  0.6951
  C  C402  1  0.104930  0.873440  0.874700  1.0  -0.0733
  C  C403  1  0.065350  0.897700  0.822800  1.0  -0.0286
  C  C404  1  0.064600  0.936500  0.788500  1.0  -0.162
  C  C405  1  0.107600  0.950940  0.809800  1.0  0.0102
  C  C406  1  0.148400  0.927500  0.863600  1.0  -0.133
  C  C407  1  0.149180  0.889630  0.897900  1.0  -0.114
  C  C408  1  0.109300  0.991000  0.774600  1.0  -0.0075
  C  C409  1  0.080400  0.031000  0.752500  1.0  -0.1859
  C  C410  1  0.083700  0.067900  0.720500  1.0  0.0999
  C  C411  1  0.110300  0.062600  0.702500  1.0  -0.0025
  C  C412  1  0.133700  0.019900  0.718400  1.0  -0.1974
  C  C413  1  0.130500  0.981900  0.751100  1.0  0.1867
  C  C414  1  0.107100  0.098900  0.659400  1.0  0.0175
  C  C415  1  0.065000  0.118500  0.600600  1.0  -0.1123
  C  C416  1  0.064700  0.151600  0.561100  1.0  -0.0353
  C  C417  1  0.105340  0.165400  0.579500  1.0  -0.1271
  C  C418  1  0.148700  0.149000  0.642400  1.0  -0.0443
  C  C419  1  0.149800  0.115000  0.680000  1.0  -0.1578
  C  C420  1  0.105530  0.199110  0.536500  1.0  0.7149
  C  C421  1  0.184700  0.932900  0.749800  1.0  0.0809
  C  C422  1  0.201800  0.882800  0.769800  1.0  -0.1206
  C  C423  1  0.221900  0.867700  0.738900  1.0  -0.1228
  C  C424  1  0.249500  0.819900  0.768300  1.0  -0.1412
  C  C425  1  0.250000  0.788800  0.721300  1.0  -0.1238
  C  C426  1  0.215000  0.769600  0.678200  1.0  -0.3516
  C  C427  1  0.020100  0.119400  0.708900  1.0  -0.0916
  C  C428  1  0.992100  0.091100  0.662900  1.0  -0.1206
  C  C429  1  0.957600  0.120200  0.590000  1.0  -0.0416
  C  C430  1  0.919300  0.109800  0.530000  1.0  -0.0561
  C  C431  1  0.099060  0.697740  0.872200  1.0  0.6807
  C  C432  1  0.097930  0.665070  0.827900  1.0  -0.1384
  C  C433  1  0.054640  0.655060  0.762000  1.0  -0.0723
  C  C434  1  0.052800  0.622100  0.721100  1.0  -0.1111
  C  C435  1  0.092400  0.599600  0.743900  1.0  0.0242
  C  C436  1  0.137500  0.612200  0.810400  1.0  -0.1265
  C  C437  1  0.138600  0.644300  0.851800  1.0  -0.0396
  C  C438  1  0.091900  0.563400  0.703600  1.0  0.0245
  C  C439  1  0.081800  0.572100  0.647300  1.0  -0.096
  C  C440  1  0.081600  0.537400  0.608500  1.0  0.3145
  C  C441  1  0.093700  0.492100  0.631900  1.0  0.0113
  C  C442  1  0.124600  0.480400  0.708000  1.0  -0.1017
  C  C443  1  0.123400  0.520600  0.742100  1.0  0.1225
  C  C444  1  0.052900  0.396100  0.499400  1.0  -0.0274
  C  C445  1  0.052900  0.436500  0.531100  1.0  -0.0725
  C  C446  1  0.092100  0.452100  0.591900  1.0  0.0689
  C  C447  1  0.134800  0.427200  0.624200  1.0  -0.1361
  C  C448  1  0.136100  0.387100  0.594000  1.0  -0.0524
  C  C449  1  0.094160  0.372440  0.530400  1.0  -0.1251
  C  C450  1  0.094360  0.328510  0.497800  1.0  0.7023
  C  C451  1  0.950550  0.733800  0.838600  1.0  0.1864
  C  C452  1  0.902150  0.733600  0.792200  1.0  -0.2201
  C  C453  1  0.877570  0.758080  0.732500  1.0  -0.0188
  C  C454  1  0.903450  0.782100  0.723000  1.0  -0.1337
  C  C455  1  0.952200  0.780700  0.771900  1.0  0.1546
  C  C456  1  0.749100  0.742400  0.637400  1.0  0.138
  C  C457  1  0.798800  0.745100  0.688600  1.0  -0.132
  C  C458  1  0.824230  0.756600  0.678200  1.0  0.2503
  C  C459  1  0.798900  0.776200  0.616900  1.0  -0.0353
  C  C460  1  0.749900  0.776100  0.569200  1.0  0.3168
  C  C461  1  0.604200  0.329810  0.905600  1.0  0.6951
  C  C462  1  0.604930  0.373440  0.874700  1.0  -0.0733
  C  C463  1  0.565350  0.397700  0.822800  1.0  -0.0286
  C  C464  1  0.564600  0.436500  0.788500  1.0  -0.162
  C  C465  1  0.607600  0.450940  0.809800  1.0  0.0102
  C  C466  1  0.648400  0.427500  0.863600  1.0  -0.133
  C  C467  1  0.649180  0.389630  0.897900  1.0  -0.114
  C  C468  1  0.609300  0.491000  0.774600  1.0  -0.0075
  C  C469  1  0.580400  0.531000  0.752500  1.0  -0.1859
  C  C470  1  0.583700  0.567900  0.720500  1.0  0.0999
  C  C471  1  0.610300  0.562600  0.702500  1.0  -0.0025
  C  C472  1  0.633700  0.519900  0.718400  1.0  -0.1974
  C  C473  1  0.630500  0.481900  0.751100  1.0  0.1867
  C  C474  1  0.607100  0.598900  0.659400  1.0  0.0175
  C  C475  1  0.565000  0.618500  0.600600  1.0  -0.1123
  C  C476  1  0.564700  0.651600  0.561100  1.0  -0.0353
  C  C477  1  0.605340  0.665400  0.579500  1.0  -0.1271
  C  C478  1  0.648700  0.649000  0.642400  1.0  -0.0443
  C  C479  1  0.649800  0.615000  0.680000  1.0  -0.1578
  C  C480  1  0.605530  0.699110  0.536500  1.0  0.7149
  C  C481  1  0.684700  0.432900  0.749800  1.0  0.0809
  C  C482  1  0.701800  0.382800  0.769800  1.0  -0.1206
  C  C483  1  0.721900  0.367700  0.738900  1.0  -0.1228
  C  C484  1  0.749500  0.319900  0.768300  1.0  -0.1412
  C  C485  1  0.750000  0.288800  0.721300  1.0  -0.1238
  C  C486  1  0.715000  0.269600  0.678200  1.0  -0.3516
  C  C487  1  0.520100  0.619400  0.708900  1.0  -0.0916
  C  C488  1  0.492100  0.591100  0.662900  1.0  -0.1206
  C  C489  1  0.457600  0.620200  0.590000  1.0  -0.0416
  C  C490  1  0.419300  0.609800  0.530000  1.0  -0.0561
  C  C491  1  0.599060  0.197740  0.872200  1.0  0.6807
  C  C492  1  0.597930  0.165070  0.827900  1.0  -0.1384
  C  C493  1  0.554640  0.155060  0.762000  1.0  -0.0723
  C  C494  1  0.552800  0.122100  0.721100  1.0  -0.1111
  C  C495  1  0.592400  0.099600  0.743900  1.0  0.0242
  C  C496  1  0.637500  0.112200  0.810400  1.0  -0.1265
  C  C497  1  0.638600  0.144300  0.851800  1.0  -0.0396
  C  C498  1  0.591900  0.063400  0.703600  1.0  0.0245
  C  C499  1  0.581800  0.072100  0.647300  1.0  -0.096
  C  C500  1  0.581600  0.037400  0.608500  1.0  0.3145
  C  C501  1  0.593700  0.992100  0.631900  1.0  0.0113
  C  C502  1  0.624600  0.980400  0.708000  1.0  -0.1017
  C  C503  1  0.623400  0.020600  0.742100  1.0  0.1225
  C  C504  1  0.552900  0.896100  0.499400  1.0  -0.0274
  C  C505  1  0.552900  0.936500  0.531100  1.0  -0.0725
  C  C506  1  0.592100  0.952100  0.591900  1.0  0.0689
  C  C507  1  0.634800  0.927200  0.624200  1.0  -0.1361
  C  C508  1  0.636100  0.887100  0.594000  1.0  -0.0524
  C  C509  1  0.594160  0.872440  0.530400  1.0  -0.1251
  C  C510  1  0.594360  0.828510  0.497800  1.0  0.7023
  C  C511  1  0.450550  0.233800  0.838600  1.0  0.1864
  C  C512  1  0.402150  0.233600  0.792200  1.0  -0.2201
  C  C513  1  0.377570  0.258080  0.732500  1.0  -0.0188
  C  C514  1  0.403450  0.282100  0.723000  1.0  -0.1337
  C  C515  1  0.452200  0.280700  0.771900  1.0  0.1546
  C  C516  1  0.249100  0.242400  0.637400  1.0  0.138
  C  C517  1  0.298800  0.245100  0.688600  1.0  -0.132
  C  C518  1  0.324230  0.256600  0.678200  1.0  0.2503
  C  C519  1  0.298900  0.276200  0.616900  1.0  -0.0353
  C  C520  1  0.249900  0.276100  0.569200  1.0  0.3168
  C  C521  1  0.104200  0.170190  0.405600  1.0  0.6942
  C  C522  1  0.104930  0.126560  0.374700  1.0  -0.0756
  C  C523  1  0.065350  0.102300  0.322800  1.0  -0.0279
  C  C524  1  0.064600  0.063500  0.288500  1.0  -0.1624
  C  C525  1  0.107600  0.049060  0.309800  1.0  0.0096
  C  C526  1  0.148400  0.072500  0.363600  1.0  -0.1327
  C  C527  1  0.149180  0.110370  0.397900  1.0  -0.1136
  C  C528  1  0.109300  0.009000  0.274600  1.0  -0.0074
  C  C529  1  0.080400  0.969000  0.252500  1.0  -0.1856
  C  C530  1  0.083700  0.932100  0.220500  1.0  0.0998
  C  C531  1  0.110300  0.937400  0.202500  1.0  -0.0033
  C  C532  1  0.133700  0.980100  0.218400  1.0  -0.1974
  C  C533  1  0.130500  0.018100  0.251100  1.0  0.186
  C  C534  1  0.107100  0.901100  0.159400  1.0  0.0177
  C  C535  1  0.065000  0.881500  0.100600  1.0  -0.1129
  C  C536  1  0.064700  0.848400  0.061100  1.0  -0.035
  C  C537  1  0.105340  0.834600  0.079500  1.0  -0.1274
  C  C538  1  0.148700  0.851000  0.142400  1.0  -0.0445
  C  C539  1  0.149800  0.885000  0.180000  1.0  -0.1577
  C  C540  1  0.105530  0.800890  0.036500  1.0  0.7142
  C  C541  1  0.184700  0.067100  0.249800  1.0  0.0819
  C  C542  1  0.201800  0.117200  0.269800  1.0  -0.1197
  C  C543  1  0.221900  0.132300  0.238900  1.0  -0.1216
  C  C544  1  0.249500  0.180100  0.268300  1.0  -0.1412
  C  C545  1  0.250000  0.211200  0.221300  1.0  -0.1237
  C  C546  1  0.215000  0.230400  0.178200  1.0  -0.3515
  C  C547  1  0.020100  0.880600  0.208900  1.0  -0.0883
  C  C548  1  0.992100  0.908900  0.162900  1.0  -0.1213
  C  C549  1  0.957600  0.879800  0.090000  1.0  -0.0444
  C  C550  1  0.919300  0.890200  0.030000  1.0  -0.0551
  C  C551  1  0.099060  0.302260  0.372200  1.0  0.681
  C  C552  1  0.097930  0.334930  0.327900  1.0  -0.1384
  C  C553  1  0.054640  0.344940  0.262000  1.0  -0.0728
  C  C554  1  0.052800  0.377900  0.221100  1.0  -0.1121
  C  C555  1  0.092400  0.400400  0.243900  1.0  0.0237
  C  C556  1  0.137500  0.387800  0.310400  1.0  -0.1271
  C  C557  1  0.138600  0.355700  0.351800  1.0  -0.0385
  C  C558  1  0.091900  0.436600  0.203600  1.0  0.0244
  C  C559  1  0.081800  0.427900  0.147300  1.0  -0.094
  C  C560  1  0.081600  0.462600  0.108500  1.0  0.3137
  C  C561  1  0.093700  0.507900  0.131900  1.0  0.011
  C  C562  1  0.124600  0.519600  0.208000  1.0  -0.1005
  C  C563  1  0.123400  0.479400  0.242100  1.0  0.1226
  C  C564  1  0.052900  0.603900  0.999400  1.0  -0.0273
  C  C565  1  0.052900  0.563500  0.031100  1.0  -0.0728
  C  C566  1  0.092100  0.547900  0.091900  1.0  0.0684
  C  C567  1  0.134800  0.572800  0.124200  1.0  -0.1304
  C  C568  1  0.136100  0.612900  0.094000  1.0  -0.0516
  C  C569  1  0.094160  0.627560  0.030400  1.0  -0.1251
  C  C570  1  0.094360  0.671490  0.997800  1.0  0.703
  C  C571  1  0.950550  0.266200  0.338600  1.0  0.187
  C  C572  1  0.902150  0.266400  0.292200  1.0  -0.2194
  C  C573  1  0.877570  0.241920  0.232500  1.0  -0.0187
  C  C574  1  0.903450  0.217900  0.223000  1.0  -0.134
  C  C575  1  0.952200  0.219300  0.271900  1.0  0.1539
  C  C576  1  0.749100  0.257600  0.137400  1.0  0.1377
  C  C577  1  0.798800  0.254900  0.188600  1.0  -0.1333
  C  C578  1  0.824230  0.243400  0.178200  1.0  0.2502
  C  C579  1  0.798900  0.223800  0.116900  1.0  -0.0353
  C  C580  1  0.749900  0.223900  0.069200  1.0  0.3169
  C  C581  1  0.604200  0.670190  0.405600  1.0  0.6942
  C  C582  1  0.604930  0.626560  0.374700  1.0  -0.0756
  C  C583  1  0.565350  0.602300  0.322800  1.0  -0.0279
  C  C584  1  0.564600  0.563500  0.288500  1.0  -0.1624
  C  C585  1  0.607600  0.549060  0.309800  1.0  0.0096
  C  C586  1  0.648400  0.572500  0.363600  1.0  -0.1327
  C  C587  1  0.649180  0.610370  0.397900  1.0  -0.1136
  C  C588  1  0.609300  0.509000  0.274600  1.0  -0.0074
  C  C589  1  0.580400  0.469000  0.252500  1.0  -0.1856
  C  C590  1  0.583700  0.432100  0.220500  1.0  0.0998
  C  C591  1  0.610300  0.437400  0.202500  1.0  -0.0033
  C  C592  1  0.633700  0.480100  0.218400  1.0  -0.1974
  C  C593  1  0.630500  0.518100  0.251100  1.0  0.186
  C  C594  1  0.607100  0.401100  0.159400  1.0  0.0177
  C  C595  1  0.565000  0.381500  0.100600  1.0  -0.1129
  C  C596  1  0.564700  0.348400  0.061100  1.0  -0.035
  C  C597  1  0.605340  0.334600  0.079500  1.0  -0.1274
  C  C598  1  0.648700  0.351000  0.142400  1.0  -0.0445
  C  C599  1  0.649800  0.385000  0.180000  1.0  -0.1577
  C  C600  1  0.605530  0.300890  0.036500  1.0  0.7142
  C  C601  1  0.684700  0.567100  0.249800  1.0  0.0819
  C  C602  1  0.701800  0.617200  0.269800  1.0  -0.1197
  C  C603  1  0.721900  0.632300  0.238900  1.0  -0.1216
  C  C604  1  0.749500  0.680100  0.268300  1.0  -0.1412
  C  C605  1  0.750000  0.711200  0.221300  1.0  -0.1237
  C  C606  1  0.715000  0.730400  0.178200  1.0  -0.3515
  C  C607  1  0.520100  0.380600  0.208900  1.0  -0.0883
  C  C608  1  0.492100  0.408900  0.162900  1.0  -0.1213
  C  C609  1  0.457600  0.379800  0.090000  1.0  -0.0444
  C  C610  1  0.419300  0.390200  0.030000  1.0  -0.0551
  C  C611  1  0.599060  0.802260  0.372200  1.0  0.681
  C  C612  1  0.597930  0.834930  0.327900  1.0  -0.1384
  C  C613  1  0.554640  0.844940  0.262000  1.0  -0.0728
  C  C614  1  0.552800  0.877900  0.221100  1.0  -0.1121
  C  C615  1  0.592400  0.900400  0.243900  1.0  0.0237
  C  C616  1  0.637500  0.887800  0.310400  1.0  -0.1271
  C  C617  1  0.638600  0.855700  0.351800  1.0  -0.0385
  C  C618  1  0.591900  0.936600  0.203600  1.0  0.0244
  C  C619  1  0.581800  0.927900  0.147300  1.0  -0.094
  C  C620  1  0.581600  0.962600  0.108500  1.0  0.3137
  C  C621  1  0.593700  0.007900  0.131900  1.0  0.011
  C  C622  1  0.624600  0.019600  0.208000  1.0  -0.1005
  C  C623  1  0.623400  0.979400  0.242100  1.0  0.1226
  C  C624  1  0.552900  0.103900  0.999400  1.0  -0.0273
  C  C625  1  0.552900  0.063500  0.031100  1.0  -0.0728
  C  C626  1  0.592100  0.047900  0.091900  1.0  0.0684
  C  C627  1  0.634800  0.072800  0.124200  1.0  -0.1304
  C  C628  1  0.636100  0.112900  0.094000  1.0  -0.0516
  C  C629  1  0.594160  0.127560  0.030400  1.0  -0.1251
  C  C630  1  0.594360  0.171490  0.997800  1.0  0.703
  C  C631  1  0.450550  0.766200  0.338600  1.0  0.187
  C  C632  1  0.402150  0.766400  0.292200  1.0  -0.2194
  C  C633  1  0.377570  0.741920  0.232500  1.0  -0.0187
  C  C634  1  0.403450  0.717900  0.223000  1.0  -0.134
  C  C635  1  0.452200  0.719300  0.271900  1.0  0.1539
  C  C636  1  0.249100  0.757600  0.137400  1.0  0.1377
  C  C637  1  0.298800  0.754900  0.188600  1.0  -0.1333
  C  C638  1  0.324230  0.743400  0.178200  1.0  0.2502
  C  C639  1  0.298900  0.723800  0.116900  1.0  -0.0353
  C  C640  1  0.249900  0.723900  0.069200  1.0  0.3169
  C  C641  1  0.895800  0.829810  0.594400  1.0  0.6949
  C  C642  1  0.895070  0.873440  0.625300  1.0  -0.0743
  C  C643  1  0.934650  0.897700  0.677200  1.0  -0.0266
  C  C644  1  0.935400  0.936500  0.711500  1.0  -0.1615
  C  C645  1  0.892400  0.950940  0.690200  1.0  0.0094
  C  C646  1  0.851600  0.927500  0.636400  1.0  -0.1328
  C  C647  1  0.850820  0.889630  0.602100  1.0  -0.1158
  C  C648  1  0.890700  0.991000  0.725400  1.0  -0.0095
  C  C649  1  0.919600  0.031000  0.747500  1.0  -0.1853
  C  C650  1  0.916300  0.067900  0.779500  1.0  0.0996
  C  C651  1  0.889700  0.062600  0.797500  1.0  -0.0029
  C  C652  1  0.866300  0.019900  0.781600  1.0  -0.1983
  C  C653  1  0.869500  0.981900  0.748900  1.0  0.187
  C  C654  1  0.892900  0.098900  0.840600  1.0  0.0167
  C  C655  1  0.935000  0.118500  0.899400  1.0  -0.1124
  C  C656  1  0.935300  0.151600  0.938900  1.0  -0.0349
  C  C657  1  0.894660  0.165400  0.920500  1.0  -0.1271
  C  C658  1  0.851300  0.149000  0.857600  1.0  -0.0454
  C  C659  1  0.850200  0.115000  0.820000  1.0  -0.1585
  C  C660  1  0.894470  0.199110  0.963500  1.0  0.7148
  C  C661  1  0.815300  0.932900  0.750200  1.0  0.0807
  C  C662  1  0.798200  0.882800  0.730200  1.0  -0.1199
  C  C663  1  0.778100  0.867700  0.761100  1.0  -0.1244
  C  C664  1  0.750500  0.819900  0.731700  1.0  -0.1401
  C  C665  1  0.750000  0.788800  0.778700  1.0  -0.1245
  C  C666  1  0.785000  0.769600  0.821800  1.0  -0.3457
  C  C667  1  0.979900  0.119400  0.791100  1.0  -0.0961
  C  C668  1  0.007900  0.091100  0.837100  1.0  -0.1162
  C  C669  1  0.042400  0.120200  0.910000  1.0  -0.0414
  C  C670  1  0.080700  0.109800  0.970000  1.0  -0.0601
  C  C671  1  0.900940  0.697740  0.627800  1.0  0.6817
  C  C672  1  0.902070  0.665070  0.672100  1.0  -0.1372
  C  C673  1  0.945360  0.655060  0.738000  1.0  -0.0738
  C  C674  1  0.947200  0.622100  0.778900  1.0  -0.1119
  C  C675  1  0.907600  0.599600  0.756100  1.0  0.0231
  C  C676  1  0.862500  0.612200  0.689600  1.0  -0.1273
  C  C677  1  0.861400  0.644300  0.648200  1.0  -0.0394
  C  C678  1  0.908100  0.563400  0.796400  1.0  0.0248
  C  C679  1  0.918200  0.572100  0.852700  1.0  -0.0953
  C  C680  1  0.918400  0.537400  0.891500  1.0  0.3112
  C  C681  1  0.906300  0.492100  0.868100  1.0  0.0116
  C  C682  1  0.875400  0.480400  0.792000  1.0  -0.0995
  C  C683  1  0.876600  0.520600  0.757900  1.0  0.1256
  C  C684  1  0.947100  0.396100  0.000600  1.0  -0.0274
  C  C685  1  0.947100  0.436500  0.968900  1.0  -0.0719
  C  C686  1  0.907900  0.452100  0.908100  1.0  0.0692
  C  C687  1  0.865200  0.427200  0.875800  1.0  -0.131
  C  C688  1  0.863900  0.387100  0.906000  1.0  -0.0518
  C  C689  1  0.905840  0.372440  0.969600  1.0  -0.1257
  C  C690  1  0.905640  0.328510  0.002200  1.0  0.7031
  C  C691  1  0.049450  0.733800  0.661400  1.0  0.1877
  C  C692  1  0.097850  0.733600  0.707800  1.0  -0.2168
  C  C693  1  0.122430  0.758080  0.767500  1.0  -0.019
  C  C694  1  0.096550  0.782100  0.777000  1.0  -0.1338
  C  C695  1  0.047800  0.780700  0.728100  1.0  0.154
  C  C696  1  0.250900  0.742400  0.862600  1.0  0.1366
  C  C697  1  0.201200  0.745100  0.811400  1.0  -0.1323
  C  C698  1  0.175770  0.756600  0.821800  1.0  0.2499
  C  C699  1  0.201100  0.776200  0.883100  1.0  -0.0366
  C  C700  1  0.250100  0.776100  0.930800  1.0  0.3139
  C  C701  1  0.395800  0.329810  0.594400  1.0  0.6949
  C  C702  1  0.395070  0.373440  0.625300  1.0  -0.0743
  C  C703  1  0.434650  0.397700  0.677200  1.0  -0.0266
  C  C704  1  0.435400  0.436500  0.711500  1.0  -0.1615
  C  C705  1  0.392400  0.450940  0.690200  1.0  0.0094
  C  C706  1  0.351600  0.427500  0.636400  1.0  -0.1328
  C  C707  1  0.350820  0.389630  0.602100  1.0  -0.1158
  C  C708  1  0.390700  0.491000  0.725400  1.0  -0.0095
  C  C709  1  0.419600  0.531000  0.747500  1.0  -0.1853
  C  C710  1  0.416300  0.567900  0.779500  1.0  0.0996
  C  C711  1  0.389700  0.562600  0.797500  1.0  -0.0029
  C  C712  1  0.366300  0.519900  0.781600  1.0  -0.1983
  C  C713  1  0.369500  0.481900  0.748900  1.0  0.187
  C  C714  1  0.392900  0.598900  0.840600  1.0  0.0167
  C  C715  1  0.435000  0.618500  0.899400  1.0  -0.1124
  C  C716  1  0.435300  0.651600  0.938900  1.0  -0.0349
  C  C717  1  0.394660  0.665400  0.920500  1.0  -0.1271
  C  C718  1  0.351300  0.649000  0.857600  1.0  -0.0454
  C  C719  1  0.350200  0.615000  0.820000  1.0  -0.1585
  C  C720  1  0.394470  0.699110  0.963500  1.0  0.7148
  C  C721  1  0.315300  0.432900  0.750200  1.0  0.0807
  C  C722  1  0.298200  0.382800  0.730200  1.0  -0.1199
  C  C723  1  0.278100  0.367700  0.761100  1.0  -0.1244
  C  C724  1  0.250500  0.319900  0.731700  1.0  -0.1401
  C  C725  1  0.250000  0.288800  0.778700  1.0  -0.1245
  C  C726  1  0.285000  0.269600  0.821800  1.0  -0.3457
  C  C727  1  0.479900  0.619400  0.791100  1.0  -0.0961
  C  C728  1  0.507900  0.591100  0.837100  1.0  -0.1162
  C  C729  1  0.542400  0.620200  0.910000  1.0  -0.0414
  C  C730  1  0.580700  0.609800  0.970000  1.0  -0.0601
  C  C731  1  0.400940  0.197740  0.627800  1.0  0.6817
  C  C732  1  0.402070  0.165070  0.672100  1.0  -0.1372
  C  C733  1  0.445360  0.155060  0.738000  1.0  -0.0738
  C  C734  1  0.447200  0.122100  0.778900  1.0  -0.1119
  C  C735  1  0.407600  0.099600  0.756100  1.0  0.0231
  C  C736  1  0.362500  0.112200  0.689600  1.0  -0.1273
  C  C737  1  0.361400  0.144300  0.648200  1.0  -0.0394
  C  C738  1  0.408100  0.063400  0.796400  1.0  0.0248
  C  C739  1  0.418200  0.072100  0.852700  1.0  -0.0953
  C  C740  1  0.418400  0.037400  0.891500  1.0  0.3112
  C  C741  1  0.406300  0.992100  0.868100  1.0  0.0116
  C  C742  1  0.375400  0.980400  0.792000  1.0  -0.0995
  C  C743  1  0.376600  0.020600  0.757900  1.0  0.1256
  C  C744  1  0.447100  0.896100  0.000600  1.0  -0.0274
  C  C745  1  0.447100  0.936500  0.968900  1.0  -0.0719
  C  C746  1  0.407900  0.952100  0.908100  1.0  0.0692
  C  C747  1  0.365200  0.927200  0.875800  1.0  -0.131
  C  C748  1  0.363900  0.887100  0.906000  1.0  -0.0518
  C  C749  1  0.405840  0.872440  0.969600  1.0  -0.1257
  C  C750  1  0.405640  0.828510  0.002200  1.0  0.7031
  C  C751  1  0.549450  0.233800  0.661400  1.0  0.1877
  C  C752  1  0.597850  0.233600  0.707800  1.0  -0.2168
  C  C753  1  0.622430  0.258080  0.767500  1.0  -0.019
  C  C754  1  0.596550  0.282100  0.777000  1.0  -0.1338
  C  C755  1  0.547800  0.280700  0.728100  1.0  0.154
  C  C756  1  0.750900  0.242400  0.862600  1.0  0.1366
  C  C757  1  0.701200  0.245100  0.811400  1.0  -0.1323
  C  C758  1  0.675770  0.256600  0.821800  1.0  0.2499
  C  C759  1  0.701100  0.276200  0.883100  1.0  -0.0366
  C  C760  1  0.750100  0.276100  0.930800  1.0  0.3139
  C  C761  1  0.895800  0.170190  0.094400  1.0  0.6928
  C  C762  1  0.895070  0.126560  0.125300  1.0  -0.0744
  C  C763  1  0.934650  0.102300  0.177200  1.0  -0.0269
  C  C764  1  0.935400  0.063500  0.211500  1.0  -0.1621
  C  C765  1  0.892400  0.049060  0.190200  1.0  0.0088
  C  C766  1  0.851600  0.072500  0.136400  1.0  -0.1326
  C  C767  1  0.850820  0.110370  0.102100  1.0  -0.1146
  C  C768  1  0.890700  0.009000  0.225400  1.0  -0.0095
  C  C769  1  0.919600  0.969000  0.247500  1.0  -0.1851
  C  C770  1  0.916300  0.932100  0.279500  1.0  0.099
  C  C771  1  0.889700  0.937400  0.297500  1.0  -0.0037
  C  C772  1  0.866300  0.980100  0.281600  1.0  -0.1981
  C  C773  1  0.869500  0.018100  0.248900  1.0  0.1861
  C  C774  1  0.892900  0.901100  0.340600  1.0  0.017
  C  C775  1  0.935000  0.881500  0.399400  1.0  -0.1128
  C  C776  1  0.935300  0.848400  0.438900  1.0  -0.0345
  C  C777  1  0.894660  0.834600  0.420500  1.0  -0.1271
  C  C778  1  0.851300  0.851000  0.357600  1.0  -0.0452
  C  C779  1  0.850200  0.885000  0.320000  1.0  -0.1587
  C  C780  1  0.894470  0.800890  0.463500  1.0  0.7141
  C  C781  1  0.815300  0.067100  0.250200  1.0  0.0816
  C  C782  1  0.798200  0.117200  0.230200  1.0  -0.1203
  C  C783  1  0.778100  0.132300  0.261100  1.0  -0.1233
  C  C784  1  0.750500  0.180100  0.231700  1.0  -0.1395
  C  C785  1  0.750000  0.211200  0.278700  1.0  -0.1249
  C  C786  1  0.785000  0.230400  0.321800  1.0  -0.348
  C  C787  1  0.979900  0.880600  0.291100  1.0  -0.0933
  C  C788  1  0.007900  0.908900  0.337100  1.0  -0.1163
  C  C789  1  0.042400  0.879800  0.410000  1.0  -0.042
  C  C790  1  0.080700  0.890200  0.470000  1.0  -0.0574
  C  C791  1  0.900940  0.302260  0.127800  1.0  0.6825
  C  C792  1  0.902070  0.334930  0.172100  1.0  -0.1395
  C  C793  1  0.945360  0.344940  0.238000  1.0  -0.073
  C  C794  1  0.947200  0.377900  0.278900  1.0  -0.112
  C  C795  1  0.907600  0.400400  0.256100  1.0  0.0233
  C  C796  1  0.862500  0.387800  0.189600  1.0  -0.1273
  C  C797  1  0.861400  0.355700  0.148200  1.0  -0.0393
  C  C798  1  0.908100  0.436600  0.296400  1.0  0.0251
  C  C799  1  0.918200  0.427900  0.352700  1.0  -0.0931
  C  C800  1  0.918400  0.462600  0.391500  1.0  0.3119
  C  C801  1  0.906300  0.507900  0.368100  1.0  0.0114
  C  C802  1  0.875400  0.519600  0.292000  1.0  -0.1017
  C  C803  1  0.876600  0.479400  0.257900  1.0  0.1251
  C  C804  1  0.947100  0.603900  0.500600  1.0  -0.0274
  C  C805  1  0.947100  0.563500  0.468900  1.0  -0.0721
  C  C806  1  0.907900  0.547900  0.408100  1.0  0.0686
  C  C807  1  0.865200  0.572800  0.375800  1.0  -0.1308
  C  C808  1  0.863900  0.612900  0.406000  1.0  -0.0514
  C  C809  1  0.905840  0.627560  0.469600  1.0  -0.126
  C  C810  1  0.905640  0.671490  0.502200  1.0  0.7036
  C  C811  1  0.049450  0.266200  0.161400  1.0  0.1873
  C  C812  1  0.097850  0.266400  0.207800  1.0  -0.2166
  C  C813  1  0.122430  0.241920  0.267500  1.0  -0.0191
  C  C814  1  0.096550  0.217900  0.277000  1.0  -0.1336
  C  C815  1  0.047800  0.219300  0.228100  1.0  0.1541
  C  C816  1  0.250900  0.257600  0.362600  1.0  0.1371
  C  C817  1  0.201200  0.254900  0.311400  1.0  -0.1346
  C  C818  1  0.175770  0.243400  0.321800  1.0  0.2499
  C  C819  1  0.201100  0.223800  0.383100  1.0  -0.036
  C  C820  1  0.250100  0.223900  0.430800  1.0  0.3151
  C  C821  1  0.395800  0.670190  0.094400  1.0  0.6928
  C  C822  1  0.395070  0.626560  0.125300  1.0  -0.0744
  C  C823  1  0.434650  0.602300  0.177200  1.0  -0.0269
  C  C824  1  0.435400  0.563500  0.211500  1.0  -0.1621
  C  C825  1  0.392400  0.549060  0.190200  1.0  0.0088
  C  C826  1  0.351600  0.572500  0.136400  1.0  -0.1326
  C  C827  1  0.350820  0.610370  0.102100  1.0  -0.1146
  C  C828  1  0.390700  0.509000  0.225400  1.0  -0.0095
  C  C829  1  0.419600  0.469000  0.247500  1.0  -0.1851
  C  C830  1  0.416300  0.432100  0.279500  1.0  0.099
  C  C831  1  0.389700  0.437400  0.297500  1.0  -0.0037
  C  C832  1  0.366300  0.480100  0.281600  1.0  -0.1981
  C  C833  1  0.369500  0.518100  0.248900  1.0  0.1861
  C  C834  1  0.392900  0.401100  0.340600  1.0  0.017
  C  C835  1  0.435000  0.381500  0.399400  1.0  -0.1128
  C  C836  1  0.435300  0.348400  0.438900  1.0  -0.0345
  C  C837  1  0.394660  0.334600  0.420500  1.0  -0.1271
  C  C838  1  0.351300  0.351000  0.357600  1.0  -0.0452
  C  C839  1  0.350200  0.385000  0.320000  1.0  -0.1587
  C  C840  1  0.394470  0.300890  0.463500  1.0  0.7141
  C  C841  1  0.315300  0.567100  0.250200  1.0  0.0816
  C  C842  1  0.298200  0.617200  0.230200  1.0  -0.1203
  C  C843  1  0.278100  0.632300  0.261100  1.0  -0.1233
  C  C844  1  0.250500  0.680100  0.231700  1.0  -0.1395
  C  C845  1  0.250000  0.711200  0.278700  1.0  -0.1249
  C  C846  1  0.285000  0.730400  0.321800  1.0  -0.348
  C  C847  1  0.479900  0.380600  0.291100  1.0  -0.0933
  C  C848  1  0.507900  0.408900  0.337100  1.0  -0.1163
  C  C849  1  0.542400  0.379800  0.410000  1.0  -0.042
  C  C850  1  0.580700  0.390200  0.470000  1.0  -0.0574
  C  C851  1  0.400940  0.802260  0.127800  1.0  0.6825
  C  C852  1  0.402070  0.834930  0.172100  1.0  -0.1395
  C  C853  1  0.445360  0.844940  0.238000  1.0  -0.073
  C  C854  1  0.447200  0.877900  0.278900  1.0  -0.112
  C  C855  1  0.407600  0.900400  0.256100  1.0  0.0233
  C  C856  1  0.362500  0.887800  0.189600  1.0  -0.1273
  C  C857  1  0.361400  0.855700  0.148200  1.0  -0.0393
  C  C858  1  0.408100  0.936600  0.296400  1.0  0.0251
  C  C859  1  0.418200  0.927900  0.352700  1.0  -0.0931
  C  C860  1  0.418400  0.962600  0.391500  1.0  0.3119
  C  C861  1  0.406300  0.007900  0.368100  1.0  0.0114
  C  C862  1  0.375400  0.019600  0.292000  1.0  -0.1017
  C  C863  1  0.376600  0.979400  0.257900  1.0  0.1251
  C  C864  1  0.447100  0.103900  0.500600  1.0  -0.0274
  C  C865  1  0.447100  0.063500  0.468900  1.0  -0.0721
  C  C866  1  0.407900  0.047900  0.408100  1.0  0.0686
  C  C867  1  0.365200  0.072800  0.375800  1.0  -0.1308
  C  C868  1  0.363900  0.112900  0.406000  1.0  -0.0514
  C  C869  1  0.405840  0.127560  0.469600  1.0  -0.126
  C  C870  1  0.405640  0.171490  0.502200  1.0  0.7036
  C  C871  1  0.549450  0.766200  0.161400  1.0  0.1873
  C  C872  1  0.597850  0.766400  0.207800  1.0  -0.2166
  C  C873  1  0.622430  0.741920  0.267500  1.0  -0.0191
  C  C874  1  0.596550  0.717900  0.277000  1.0  -0.1336
  C  C875  1  0.547800  0.719300  0.228100  1.0  0.1541
  C  C876  1  0.750900  0.757600  0.362600  1.0  0.1371
  C  C877  1  0.701200  0.754900  0.311400  1.0  -0.1346
  C  C878  1  0.675770  0.743400  0.321800  1.0  0.2499
  C  C879  1  0.701100  0.723800  0.383100  1.0  -0.036
  C  C880  1  0.750100  0.723900  0.430800  1.0  0.3151
  N  N881  1  0.976140  0.756730  0.831200  1.0  -0.3192
  N  N882  1  0.725110  0.755780  0.577000  1.0  -0.2235
  N  N883  1  0.476140  0.256730  0.831200  1.0  -0.3192
  N  N884  1  0.225110  0.255780  0.577000  1.0  -0.2235
  N  N885  1  0.976140  0.243270  0.331200  1.0  -0.3184
  N  N886  1  0.725110  0.244220  0.077000  1.0  -0.2232
  N  N887  1  0.476140  0.743270  0.331200  1.0  -0.3184
  N  N888  1  0.225110  0.744220  0.077000  1.0  -0.2232
  N  N889  1  0.023860  0.756730  0.668800  1.0  -0.3194
  N  N890  1  0.274890  0.755780  0.923000  1.0  -0.2243
  N  N891  1  0.523860  0.256730  0.668800  1.0  -0.3194
  N  N892  1  0.774890  0.255780  0.923000  1.0  -0.2243
  N  N893  1  0.023860  0.243270  0.168800  1.0  -0.3206
  N  N894  1  0.274890  0.244220  0.423000  1.0  -0.2246
  N  N895  1  0.523860  0.743270  0.168800  1.0  -0.3206
  N  N896  1  0.774890  0.744220  0.423000  1.0  -0.2246
  O  O897  1  0.142420  0.808170  0.951350  1.0  -0.5922
  O  O898  1  0.063690  0.815510  0.880300  1.0  -0.6016
  O  O899  1  0.144120  0.209320  0.555690  1.0  -0.5868
  O  O900  1  0.065800  0.212610  0.482130  1.0  -0.5996
  O  O901  1  0.156800  0.941600  0.768600  1.0  -0.3595
  O  O902  1  0.055200  0.110200  0.700800  1.0  -0.5519
  O  O903  1  0.060820  0.715640  0.849990  1.0  -0.5834
  O  O904  1  0.139420  0.706470  0.930610  1.0  -0.5989
  O  O905  1  0.055630  0.312130  0.445800  1.0  -0.5744
  O  O906  1  0.134790  0.310470  0.528650  1.0  -0.6143
  O  O907  1  0.077500  0.547800  0.559600  1.0  -0.45
  O  O908  1  0.138100  0.505400  0.801700  1.0  -0.4543
  O  O909  1  0.642420  0.308170  0.951350  1.0  -0.5922
  O  O910  1  0.563690  0.315510  0.880300  1.0  -0.6016
  O  O911  1  0.644120  0.709320  0.555690  1.0  -0.5868
  O  O912  1  0.565800  0.712610  0.482130  1.0  -0.5996
  O  O913  1  0.656800  0.441600  0.768600  1.0  -0.3595
  O  O914  1  0.555200  0.610200  0.700800  1.0  -0.5519
  O  O915  1  0.560820  0.215640  0.849990  1.0  -0.5834
  O  O916  1  0.639420  0.206470  0.930610  1.0  -0.5989
  O  O917  1  0.555630  0.812130  0.445800  1.0  -0.5744
  O  O918  1  0.634790  0.810470  0.528650  1.0  -0.6143
  O  O919  1  0.577500  0.047800  0.559600  1.0  -0.45
  O  O920  1  0.638100  0.005400  0.801700  1.0  -0.4574
  O  O921  1  0.142420  0.191830  0.451350  1.0  -0.5929
  O  O922  1  0.063690  0.184490  0.380300  1.0  -0.6013
  O  O923  1  0.144120  0.790680  0.055690  1.0  -0.5869
  O  O924  1  0.065800  0.787390  0.982130  1.0  -0.599
  O  O925  1  0.156800  0.058400  0.268600  1.0  -0.3592
  O  O926  1  0.055200  0.889800  0.200800  1.0  -0.5509
  O  O927  1  0.060820  0.284360  0.349990  1.0  -0.5835
  O  O928  1  0.139420  0.293530  0.430610  1.0  -0.5991
  O  O929  1  0.055630  0.687870  0.945800  1.0  -0.5742
  O  O930  1  0.134790  0.689530  0.028650  1.0  -0.6144
  O  O931  1  0.077500  0.452200  0.059600  1.0  -0.449
  O  O932  1  0.138100  0.494600  0.301700  1.0  -0.4502
  O  O933  1  0.642420  0.691830  0.451350  1.0  -0.5929
  O  O934  1  0.563690  0.684490  0.380300  1.0  -0.6013
  O  O935  1  0.644120  0.290680  0.055690  1.0  -0.5869
  O  O936  1  0.565800  0.287390  0.982130  1.0  -0.599
  O  O937  1  0.656800  0.558400  0.268600  1.0  -0.3592
  O  O938  1  0.555200  0.389800  0.200800  1.0  -0.5509
  O  O939  1  0.560820  0.784360  0.349990  1.0  -0.5835
  O  O940  1  0.639420  0.793530  0.430610  1.0  -0.5991
  O  O941  1  0.555630  0.187870  0.945800  1.0  -0.5742
  O  O942  1  0.634790  0.189530  0.028650  1.0  -0.6144
  O  O943  1  0.577500  0.952200  0.059600  1.0  -0.449
  O  O944  1  0.638100  0.994600  0.301700  1.0  -0.4499
  O  O945  1  0.857580  0.808170  0.548650  1.0  -0.5918
  O  O946  1  0.936310  0.815510  0.619700  1.0  -0.601
  O  O947  1  0.855880  0.209320  0.944310  1.0  -0.5869
  O  O948  1  0.934200  0.212610  0.017870  1.0  -0.5999
  O  O949  1  0.843200  0.941600  0.731400  1.0  -0.358
  O  O950  1  0.944800  0.110200  0.799200  1.0  -0.555
  O  O951  1  0.939180  0.715640  0.650010  1.0  -0.5844
  O  O952  1  0.860580  0.706470  0.569390  1.0  -0.5989
  O  O953  1  0.944370  0.312130  0.054200  1.0  -0.5742
  O  O954  1  0.865210  0.310470  0.971350  1.0  -0.6146
  O  O955  1  0.922500  0.547800  0.940400  1.0  -0.4513
  O  O956  1  0.861900  0.505400  0.698300  1.0  -0.4507
  O  O957  1  0.357580  0.308170  0.548650  1.0  -0.5918
  O  O958  1  0.436310  0.315510  0.619700  1.0  -0.601
  O  O959  1  0.355880  0.709320  0.944310  1.0  -0.5869
  O  O960  1  0.434200  0.712610  0.017870  1.0  -0.5999
  O  O961  1  0.343200  0.441600  0.731400  1.0  -0.358
  O  O962  1  0.444800  0.610200  0.799200  1.0  -0.555
  O  O963  1  0.439180  0.215640  0.650010  1.0  -0.5844
  O  O964  1  0.360580  0.206470  0.569390  1.0  -0.5989
  O  O965  1  0.444370  0.812130  0.054200  1.0  -0.5742
  O  O966  1  0.365210  0.810470  0.971350  1.0  -0.6146
  O  O967  1  0.422500  0.047800  0.940400  1.0  -0.4513
  O  O968  1  0.361900  0.005400  0.698300  1.0  -0.451
  O  O969  1  0.857580  0.191830  0.048650  1.0  -0.592
  O  O970  1  0.936310  0.184490  0.119700  1.0  -0.6007
  O  O971  1  0.855880  0.790680  0.444310  1.0  -0.5868
  O  O972  1  0.934200  0.787390  0.517870  1.0  -0.5996
  O  O973  1  0.843200  0.058400  0.231400  1.0  -0.3577
  O  O974  1  0.944800  0.889800  0.299200  1.0  -0.5557
  O  O975  1  0.939180  0.284360  0.150010  1.0  -0.5843
  O  O976  1  0.860580  0.293530  0.069390  1.0  -0.5991
  O  O977  1  0.944370  0.687870  0.554200  1.0  -0.5742
  O  O978  1  0.865210  0.689530  0.471350  1.0  -0.6145
  O  O979  1  0.922500  0.452200  0.440400  1.0  -0.4525
  O  O980  1  0.861900  0.494600  0.198300  1.0  -0.4531
  O  O981  1  0.357580  0.691830  0.048650  1.0  -0.592
  O  O982  1  0.436310  0.684490  0.119700  1.0  -0.6007
  O  O983  1  0.355880  0.290680  0.444310  1.0  -0.5868
  O  O984  1  0.434200  0.287390  0.517870  1.0  -0.5996
  O  O985  1  0.343200  0.558400  0.231400  1.0  -0.3577
  O  O986  1  0.444800  0.389800  0.299200  1.0  -0.5557
  O  O987  1  0.439180  0.784360  0.150010  1.0  -0.5843
  O  O988  1  0.360580  0.793530  0.069390  1.0  -0.5991
  O  O989  1  0.444370  0.187870  0.554200  1.0  -0.5742
  O  O990  1  0.365210  0.189530  0.471350  1.0  -0.6145
  O  O991  1  0.422500  0.952200  0.440400  1.0  -0.4525
  O  O992  1  0.361900  0.994600  0.198300  1.0  -0.4557
