# generated using pymatgen
data_LaH32C40(NO)8
_symmetry_space_group_name_H-M   'P 1'
_cell_length_a   25.99700000
_cell_length_b   25.99700000
_cell_length_c   26.78470000
_cell_angle_alpha   90.00000000
_cell_angle_beta   90.00000000
_cell_angle_gamma   90.00000000
_symmetry_Int_Tables_number   1
_chemical_formula_structural   LaH32C40(NO)8
_chemical_formula_sum   'La12 H384 C480 N96 O96'
_cell_volume   18102.27902786
_cell_formula_units_Z   12
loop_
 _symmetry_equiv_pos_site_id
 _symmetry_equiv_pos_as_xyz
  1  'x, y, z'
loop_
 _atom_site_type_symbol
 _atom_site_label
 _atom_site_symmetry_multiplicity
 _atom_site_fract_x
 _atom_site_fract_y
 _atom_site_fract_z
 _atom_site_occupancy
 _atom_site_charge
  La  La1  1  0.751060  0.740730  0.082730  1.0  2.1088
  La  La2  1  0.248940  0.259270  0.082730  1.0  2.1084
  La  La3  1  0.740730  0.248940  0.917270  1.0  2.1081
  La  La4  1  0.259270  0.751060  0.917270  1.0  2.1087
  La  La5  1  0.751060  0.259270  0.582730  1.0  2.1085
  La  La6  1  0.248940  0.740730  0.582730  1.0  2.1087
  La  La7  1  0.740730  0.751060  0.417270  1.0  2.1083
  La  La8  1  0.259270  0.248940  0.417270  1.0  2.1085
  La  La9  1  0.758630  0.241370  0.250000  1.0  2.147
  La  La10  1  0.241370  0.758630  0.250000  1.0  2.1457
  La  La11  1  0.241370  0.241370  0.750000  1.0  2.1463
  La  La12  1  0.758630  0.758630  0.750000  1.0  2.1462
  H  H13  1  0.721400  0.340300  0.137700  1.0  0.1043
  H  H14  1  0.698700  0.424800  0.121100  1.0  0.1021
  H  H15  1  0.803700  0.471400  0.220500  1.0  0.0915
  H  H16  1  0.824800  0.386300  0.236100  1.0  0.1012
  H  H17  1  0.666500  0.091900  0.239300  1.0  0.1034
  H  H18  1  0.674600  0.006600  0.214700  1.0  0.1007
  H  H19  1  0.806600  0.043400  0.147200  1.0  0.0954
  H  H20  1  0.781100  0.129900  0.149200  1.0  0.109
  H  H21  1  0.860300  0.276200  0.148200  1.0  0.102
  H  H22  1  0.945800  0.290300  0.125300  1.0  0.1058
  H  H23  1  0.989800  0.180900  0.221400  1.0  0.1037
  H  H24  1  0.904100  0.156600  0.229000  1.0  0.0905
  H  H25  1  0.612700  0.328100  0.227300  1.0  0.0995
  H  H26  1  0.525400  0.316900  0.210300  1.0  0.1005
  H  H27  1  0.559500  0.193300  0.128700  1.0  0.1022
  H  H28  1  0.646600  0.208700  0.141600  1.0  0.0951
  H  H29  1  0.865100  0.706800  0.989000  1.0  0.0988
  H  H30  1  0.949000  0.707600  0.956000  1.0  0.0977
  H  H31  1  0.986400  0.817000  0.054500  1.0  0.1029
  H  H32  1  0.900000  0.824100  0.076100  1.0  0.0986
  H  H33  1  0.831500  0.879200  0.116300  1.0  0.0983
  H  H34  1  0.815500  0.966700  0.123500  1.0  0.101
  H  H35  1  0.682900  0.935100  0.190100  1.0  0.0989
  H  H36  1  0.706500  0.848300  0.194500  1.0  0.0984
  H  H37  1  0.651500  0.787700  0.969800  1.0  0.1058
  H  H38  1  0.564700  0.805100  0.955500  1.0  0.1086
  H  H39  1  0.527600  0.692300  0.050500  1.0  0.1045
  H  H40  1  0.612700  0.663600  0.047000  1.0  0.1057
  H  H41  1  0.721000  0.633400  0.979600  1.0  0.0963
  H  H42  1  0.699800  0.547200  0.969800  1.0  0.1117
  H  H43  1  0.489900  0.827700  0.955000  1.0  0.1026
  H  H44  1  0.833100  0.595200  0.071900  1.0  0.0992
  H  H45  1  0.365100  0.300400  0.167300  1.0  0.1031
  H  H46  1  0.451900  0.315900  0.182000  1.0  0.0935
  H  H47  1  0.487300  0.183400  0.115900  1.0  0.0966
  H  H48  1  0.399400  0.164700  0.109800  1.0  0.0983
  H  H49  1  0.801800  0.852500  0.000400  1.0  0.1003
  H  H50  1  0.814800  0.938100  0.977600  1.0  0.0984
  H  H51  1  0.024900  0.677900  0.964500  1.0  0.1042
  H  H52  1  0.661900  0.888100  0.049000  1.0  0.1051
  H  H53  1  0.148900  0.227400  0.198800  1.0  0.0998
  H  H54  1  0.063900  0.205600  0.214300  1.0  0.1065
  H  H55  1  0.019100  0.315000  0.118200  1.0  0.103
  H  H56  1  0.105000  0.328600  0.097100  1.0  0.1005
  H  H57  1  0.784700  0.628600  0.165700  1.0  0.0915
  H  H58  1  0.790200  0.547900  0.203200  1.0  0.1019
  H  H59  1  0.671000  0.501500  0.121800  1.0  0.0986
  H  H60  1  0.653700  0.586600  0.102900  1.0  0.1014
  H  H61  1  0.278600  0.659700  0.137700  1.0  0.1045
  H  H62  1  0.301300  0.575200  0.121100  1.0  0.1031
  H  H63  1  0.196300  0.528600  0.220500  1.0  0.0917
  H  H64  1  0.175200  0.613700  0.236100  1.0  0.1014
  H  H65  1  0.333500  0.908100  0.239300  1.0  0.1034
  H  H66  1  0.325400  0.993400  0.214700  1.0  0.1037
  H  H67  1  0.193400  0.956600  0.147200  1.0  0.0956
  H  H68  1  0.218900  0.870100  0.149200  1.0  0.1088
  H  H69  1  0.139700  0.723800  0.148200  1.0  0.1023
  H  H70  1  0.054200  0.709700  0.125300  1.0  0.1061
  H  H71  1  0.010200  0.819100  0.221400  1.0  0.1032
  H  H72  1  0.095900  0.843400  0.229000  1.0  0.0912
  H  H73  1  0.387300  0.671900  0.227300  1.0  0.0987
  H  H74  1  0.474600  0.683100  0.210300  1.0  0.0995
  H  H75  1  0.440500  0.806700  0.128700  1.0  0.1028
  H  H76  1  0.353400  0.791300  0.141600  1.0  0.0952
  H  H77  1  0.134900  0.293200  0.989000  1.0  0.0986
  H  H78  1  0.051000  0.292400  0.956000  1.0  0.0973
  H  H79  1  0.013600  0.183000  0.054500  1.0  0.1013
  H  H80  1  0.100000  0.175900  0.076100  1.0  0.0985
  H  H81  1  0.168500  0.120800  0.116300  1.0  0.0973
  H  H82  1  0.184500  0.033300  0.123500  1.0  0.1001
  H  H83  1  0.317100  0.064900  0.190100  1.0  0.0998
  H  H84  1  0.293500  0.151700  0.194500  1.0  0.0974
  H  H85  1  0.348500  0.212300  0.969800  1.0  0.1053
  H  H86  1  0.435300  0.194900  0.955500  1.0  0.1083
  H  H87  1  0.472400  0.307700  0.050500  1.0  0.1062
  H  H88  1  0.387300  0.336400  0.047000  1.0  0.1052
  H  H89  1  0.279000  0.366600  0.979600  1.0  0.0961
  H  H90  1  0.300200  0.452800  0.969800  1.0  0.1119
  H  H91  1  0.510100  0.172300  0.955000  1.0  0.1018
  H  H92  1  0.166900  0.404800  0.071900  1.0  0.0997
  H  H93  1  0.634900  0.699600  0.167300  1.0  0.1033
  H  H94  1  0.548100  0.684100  0.182000  1.0  0.0935
  H  H95  1  0.512700  0.816600  0.115900  1.0  0.0973
  H  H96  1  0.600600  0.835300  0.109800  1.0  0.0997
  H  H97  1  0.198200  0.147500  0.000400  1.0  0.1001
  H  H98  1  0.185200  0.061900  0.977600  1.0  0.0989
  H  H99  1  0.975100  0.322100  0.964500  1.0  0.1043
  H  H100  1  0.338100  0.111900  0.049000  1.0  0.105
  H  H101  1  0.851100  0.772600  0.198800  1.0  0.0995
  H  H102  1  0.936100  0.794400  0.214300  1.0  0.1061
  H  H103  1  0.980900  0.685000  0.118200  1.0  0.1029
  H  H104  1  0.895000  0.671400  0.097100  1.0  0.0998
  H  H105  1  0.215300  0.371400  0.165700  1.0  0.0922
  H  H106  1  0.209800  0.452100  0.203200  1.0  0.1019
  H  H107  1  0.329000  0.498500  0.121800  1.0  0.0991
  H  H108  1  0.346300  0.413400  0.102900  1.0  0.1009
  H  H109  1  0.340300  0.278600  0.862300  1.0  0.1044
  H  H110  1  0.424800  0.301300  0.878900  1.0  0.1017
  H  H111  1  0.471400  0.196300  0.779500  1.0  0.0934
  H  H112  1  0.386300  0.175200  0.763900  1.0  0.1009
  H  H113  1  0.091900  0.333500  0.760700  1.0  0.1034
  H  H114  1  0.006600  0.325400  0.785300  1.0  0.1053
  H  H115  1  0.043400  0.193400  0.852800  1.0  0.0963
  H  H116  1  0.129900  0.218900  0.850800  1.0  0.1091
  H  H117  1  0.276200  0.139700  0.851800  1.0  0.1018
  H  H118  1  0.290300  0.054200  0.874700  1.0  0.1059
  H  H119  1  0.180900  0.010200  0.778600  1.0  0.1016
  H  H120  1  0.156600  0.095900  0.771000  1.0  0.0936
  H  H121  1  0.328100  0.387300  0.772700  1.0  0.1005
  H  H122  1  0.316900  0.474600  0.789700  1.0  0.0983
  H  H123  1  0.193300  0.440500  0.871300  1.0  0.0975
  H  H124  1  0.208700  0.353400  0.858400  1.0  0.0955
  H  H125  1  0.706800  0.134900  0.011000  1.0  0.0995
  H  H126  1  0.707600  0.051000  0.044000  1.0  0.0967
  H  H127  1  0.817000  0.013600  0.945500  1.0  0.1004
  H  H128  1  0.824100  0.100000  0.923900  1.0  0.0986
  H  H129  1  0.879200  0.168500  0.883700  1.0  0.0982
  H  H130  1  0.966700  0.184500  0.876500  1.0  0.1011
  H  H131  1  0.935100  0.317100  0.809900  1.0  0.1024
  H  H132  1  0.848300  0.293500  0.805500  1.0  0.0986
  H  H133  1  0.787700  0.348500  0.030200  1.0  0.1059
  H  H134  1  0.805100  0.435300  0.044500  1.0  0.1084
  H  H135  1  0.692300  0.472400  0.949500  1.0  0.1044
  H  H136  1  0.663600  0.387300  0.953000  1.0  0.1053
  H  H137  1  0.633400  0.279000  0.020400  1.0  0.0959
  H  H138  1  0.547200  0.300200  0.030200  1.0  0.1122
  H  H139  1  0.827700  0.510100  0.045000  1.0  0.1009
  H  H140  1  0.595200  0.166900  0.928100  1.0  0.0986
  H  H141  1  0.300400  0.634900  0.832700  1.0  0.103
  H  H142  1  0.315900  0.548100  0.818000  1.0  0.0928
  H  H143  1  0.183400  0.512700  0.884100  1.0  0.0946
  H  H144  1  0.164700  0.600600  0.890200  1.0  0.0979
  H  H145  1  0.852500  0.198200  0.999600  1.0  0.1005
  H  H146  1  0.938100  0.185200  0.022400  1.0  0.0998
  H  H147  1  0.677900  0.975100  0.035500  1.0  0.103
  H  H148  1  0.888100  0.338100  0.951000  1.0  0.1055
  H  H149  1  0.227400  0.851100  0.801200  1.0  0.0995
  H  H150  1  0.205600  0.936100  0.785700  1.0  0.1051
  H  H151  1  0.315000  0.980900  0.881800  1.0  0.1019
  H  H152  1  0.328600  0.895000  0.902900  1.0  0.1002
  H  H153  1  0.628600  0.215300  0.834300  1.0  0.0918
  H  H154  1  0.547900  0.209800  0.796800  1.0  0.1019
  H  H155  1  0.501500  0.329000  0.878200  1.0  0.1011
  H  H156  1  0.586600  0.346300  0.897100  1.0  0.1018
  H  H157  1  0.659700  0.721400  0.862300  1.0  0.1048
  H  H158  1  0.575200  0.698700  0.878900  1.0  0.1018
  H  H159  1  0.528600  0.803700  0.779500  1.0  0.0937
  H  H160  1  0.613700  0.824800  0.763900  1.0  0.1012
  H  H161  1  0.908100  0.666500  0.760700  1.0  0.103
  H  H162  1  0.993400  0.674600  0.785300  1.0  0.1038
  H  H163  1  0.956600  0.806600  0.852800  1.0  0.0963
  H  H164  1  0.870100  0.781100  0.850800  1.0  0.1084
  H  H165  1  0.723800  0.860300  0.851800  1.0  0.1023
  H  H166  1  0.709700  0.945800  0.874700  1.0  0.1054
  H  H167  1  0.819100  0.989800  0.778600  1.0  0.1023
  H  H168  1  0.843400  0.904100  0.771000  1.0  0.0942
  H  H169  1  0.671900  0.612700  0.772700  1.0  0.0999
  H  H170  1  0.683100  0.525400  0.789700  1.0  0.0971
  H  H171  1  0.806700  0.559500  0.871300  1.0  0.0996
  H  H172  1  0.791300  0.646600  0.858400  1.0  0.0951
  H  H173  1  0.293200  0.865100  0.011000  1.0  0.0994
  H  H174  1  0.292400  0.949000  0.044000  1.0  0.0969
  H  H175  1  0.183000  0.986400  0.945500  1.0  0.1009
  H  H176  1  0.175900  0.900000  0.923900  1.0  0.0984
  H  H177  1  0.120800  0.831500  0.883700  1.0  0.0981
  H  H178  1  0.033300  0.815500  0.876500  1.0  0.1017
  H  H179  1  0.064900  0.682900  0.809900  1.0  0.1021
  H  H180  1  0.151700  0.706500  0.805500  1.0  0.098
  H  H181  1  0.212300  0.651500  0.030200  1.0  0.1057
  H  H182  1  0.194900  0.564700  0.044500  1.0  0.1077
  H  H183  1  0.307700  0.527600  0.949500  1.0  0.1049
  H  H184  1  0.336400  0.612700  0.953000  1.0  0.1055
  H  H185  1  0.366600  0.721000  0.020400  1.0  0.096
  H  H186  1  0.452800  0.699800  0.030200  1.0  0.1119
  H  H187  1  0.172300  0.489900  0.045000  1.0  0.1006
  H  H188  1  0.404800  0.833100  0.928100  1.0  0.0999
  H  H189  1  0.699600  0.365100  0.832700  1.0  0.1021
  H  H190  1  0.684100  0.451900  0.818000  1.0  0.0921
  H  H191  1  0.816600  0.487300  0.884100  1.0  0.095
  H  H192  1  0.835300  0.399400  0.890200  1.0  0.0981
  H  H193  1  0.147500  0.801800  0.999600  1.0  0.1005
  H  H194  1  0.061900  0.814800  0.022400  1.0  0.1005
  H  H195  1  0.322100  0.024900  0.035500  1.0  0.1024
  H  H196  1  0.111900  0.661900  0.951000  1.0  0.1052
  H  H197  1  0.772600  0.148900  0.801200  1.0  0.0995
  H  H198  1  0.794400  0.063900  0.785700  1.0  0.1069
  H  H199  1  0.685000  0.019100  0.881800  1.0  0.1023
  H  H200  1  0.671400  0.105000  0.902900  1.0  0.1007
  H  H201  1  0.371400  0.784700  0.834300  1.0  0.0915
  H  H202  1  0.452100  0.790200  0.796800  1.0  0.1022
  H  H203  1  0.498500  0.671000  0.878200  1.0  0.101
  H  H204  1  0.413400  0.653700  0.897100  1.0  0.1012
  H  H205  1  0.721400  0.659700  0.637700  1.0  0.1045
  H  H206  1  0.698700  0.575200  0.621100  1.0  0.1022
  H  H207  1  0.803700  0.528600  0.720500  1.0  0.0918
  H  H208  1  0.824800  0.613700  0.736100  1.0  0.1015
  H  H209  1  0.666500  0.908100  0.739300  1.0  0.1037
  H  H210  1  0.674600  0.993400  0.714700  1.0  0.1018
  H  H211  1  0.806600  0.956600  0.647200  1.0  0.0953
  H  H212  1  0.781100  0.870100  0.649200  1.0  0.1091
  H  H213  1  0.860300  0.723800  0.648200  1.0  0.1018
  H  H214  1  0.945800  0.709700  0.625300  1.0  0.1058
  H  H215  1  0.989800  0.819100  0.721400  1.0  0.1033
  H  H216  1  0.904100  0.843400  0.729000  1.0  0.0914
  H  H217  1  0.612700  0.671900  0.727300  1.0  0.0992
  H  H218  1  0.525400  0.683100  0.710300  1.0  0.099
  H  H219  1  0.559500  0.806700  0.628700  1.0  0.1026
  H  H220  1  0.646600  0.791300  0.641600  1.0  0.0954
  H  H221  1  0.865100  0.293200  0.489000  1.0  0.0989
  H  H222  1  0.949000  0.292400  0.456000  1.0  0.0972
  H  H223  1  0.986400  0.183000  0.554500  1.0  0.1013
  H  H224  1  0.900000  0.175900  0.576100  1.0  0.0981
  H  H225  1  0.831500  0.120800  0.616300  1.0  0.0984
  H  H226  1  0.815500  0.033300  0.623500  1.0  0.1005
  H  H227  1  0.682900  0.064900  0.690100  1.0  0.0991
  H  H228  1  0.706500  0.151700  0.694500  1.0  0.098
  H  H229  1  0.651500  0.212300  0.469800  1.0  0.1056
  H  H230  1  0.564700  0.194900  0.455500  1.0  0.1082
  H  H231  1  0.527600  0.307700  0.550500  1.0  0.1058
  H  H232  1  0.612700  0.336400  0.547000  1.0  0.1058
  H  H233  1  0.721000  0.366600  0.479600  1.0  0.0961
  H  H234  1  0.699800  0.452800  0.469800  1.0  0.1116
  H  H235  1  0.489900  0.172300  0.455000  1.0  0.1024
  H  H236  1  0.833100  0.404800  0.571900  1.0  0.0992
  H  H237  1  0.365100  0.699600  0.667300  1.0  0.103
  H  H238  1  0.451900  0.684100  0.682000  1.0  0.0935
  H  H239  1  0.487300  0.816600  0.615900  1.0  0.0973
  H  H240  1  0.399400  0.835300  0.609800  1.0  0.0995
  H  H241  1  0.801800  0.147500  0.500400  1.0  0.1003
  H  H242  1  0.814800  0.061900  0.477600  1.0  0.0982
  H  H243  1  0.024900  0.322100  0.464500  1.0  0.1046
  H  H244  1  0.661900  0.111900  0.549000  1.0  0.105
  H  H245  1  0.148900  0.772600  0.698800  1.0  0.0996
  H  H246  1  0.063900  0.794400  0.714300  1.0  0.1062
  H  H247  1  0.019100  0.685000  0.618200  1.0  0.1025
  H  H248  1  0.105000  0.671400  0.597100  1.0  0.1001
  H  H249  1  0.784700  0.371400  0.665700  1.0  0.0923
  H  H250  1  0.790200  0.452100  0.703200  1.0  0.1023
  H  H251  1  0.671000  0.498500  0.621800  1.0  0.0988
  H  H252  1  0.653700  0.413400  0.602900  1.0  0.1013
  H  H253  1  0.278600  0.340300  0.637700  1.0  0.1044
  H  H254  1  0.301300  0.424800  0.621100  1.0  0.1032
  H  H255  1  0.196300  0.471400  0.720500  1.0  0.0918
  H  H256  1  0.175200  0.386300  0.736100  1.0  0.1012
  H  H257  1  0.333500  0.091900  0.739300  1.0  0.1035
  H  H258  1  0.325400  0.006600  0.714700  1.0  0.1025
  H  H259  1  0.193400  0.043400  0.647200  1.0  0.0957
  H  H260  1  0.218900  0.129900  0.649200  1.0  0.1089
  H  H261  1  0.139700  0.276200  0.648200  1.0  0.1024
  H  H262  1  0.054200  0.290300  0.625300  1.0  0.1059
  H  H263  1  0.010200  0.180900  0.721400  1.0  0.1037
  H  H264  1  0.095900  0.156600  0.729000  1.0  0.0912
  H  H265  1  0.387300  0.328100  0.727300  1.0  0.0995
  H  H266  1  0.474600  0.316900  0.710300  1.0  0.1008
  H  H267  1  0.440500  0.193300  0.628700  1.0  0.1025
  H  H268  1  0.353400  0.208700  0.641600  1.0  0.0949
  H  H269  1  0.134900  0.706800  0.489000  1.0  0.0987
  H  H270  1  0.051000  0.707600  0.456000  1.0  0.0979
  H  H271  1  0.013600  0.817000  0.554500  1.0  0.1031
  H  H272  1  0.100000  0.824100  0.576100  1.0  0.099
  H  H273  1  0.168500  0.879200  0.616300  1.0  0.0973
  H  H274  1  0.184500  0.966700  0.623500  1.0  0.1009
  H  H275  1  0.317100  0.935100  0.690100  1.0  0.0997
  H  H276  1  0.293500  0.848300  0.694500  1.0  0.0979
  H  H277  1  0.348500  0.787700  0.469800  1.0  0.1059
  H  H278  1  0.435300  0.805100  0.455500  1.0  0.1083
  H  H279  1  0.472400  0.692300  0.550500  1.0  0.1048
  H  H280  1  0.387300  0.663600  0.547000  1.0  0.1053
  H  H281  1  0.279000  0.633400  0.479600  1.0  0.0963
  H  H282  1  0.300200  0.547200  0.469800  1.0  0.112
  H  H283  1  0.510100  0.827700  0.455000  1.0  0.1026
  H  H284  1  0.166900  0.595200  0.571900  1.0  0.0996
  H  H285  1  0.634900  0.300400  0.667300  1.0  0.1031
  H  H286  1  0.548100  0.315900  0.682000  1.0  0.0935
  H  H287  1  0.512700  0.183400  0.615900  1.0  0.0958
  H  H288  1  0.600600  0.164700  0.609800  1.0  0.0984
  H  H289  1  0.198200  0.852500  0.500400  1.0  0.0998
  H  H290  1  0.185200  0.938100  0.477600  1.0  0.0989
  H  H291  1  0.975100  0.677900  0.464500  1.0  0.1043
  H  H292  1  0.338100  0.888100  0.549000  1.0  0.1049
  H  H293  1  0.851100  0.227400  0.698800  1.0  0.0997
  H  H294  1  0.936100  0.205600  0.714300  1.0  0.1063
  H  H295  1  0.980900  0.315000  0.618200  1.0  0.1036
  H  H296  1  0.895000  0.328600  0.597100  1.0  0.1002
  H  H297  1  0.215300  0.628600  0.665700  1.0  0.0919
  H  H298  1  0.209800  0.547900  0.703200  1.0  0.1016
  H  H299  1  0.329000  0.501500  0.621800  1.0  0.099
  H  H300  1  0.346300  0.586600  0.602900  1.0  0.1009
  H  H301  1  0.340300  0.721400  0.362300  1.0  0.1046
  H  H302  1  0.424800  0.698700  0.378900  1.0  0.1018
  H  H303  1  0.471400  0.803700  0.279500  1.0  0.0939
  H  H304  1  0.386300  0.824800  0.263900  1.0  0.1008
  H  H305  1  0.091900  0.666500  0.260700  1.0  0.1029
  H  H306  1  0.006600  0.674600  0.285300  1.0  0.1035
  H  H307  1  0.043400  0.806600  0.352800  1.0  0.0964
  H  H308  1  0.129900  0.781100  0.350800  1.0  0.1086
  H  H309  1  0.276200  0.860300  0.351800  1.0  0.1023
  H  H310  1  0.290300  0.945800  0.374700  1.0  0.1059
  H  H311  1  0.180900  0.989800  0.278600  1.0  0.1021
  H  H312  1  0.156600  0.904100  0.271000  1.0  0.0942
  H  H313  1  0.328100  0.612700  0.272700  1.0  0.1007
  H  H314  1  0.316900  0.525400  0.289700  1.0  0.0981
  H  H315  1  0.193300  0.559500  0.371300  1.0  0.0974
  H  H316  1  0.208700  0.646600  0.358400  1.0  0.0955
  H  H317  1  0.706800  0.865100  0.511000  1.0  0.0996
  H  H318  1  0.707600  0.949000  0.544000  1.0  0.0968
  H  H319  1  0.817000  0.986400  0.445500  1.0  0.1008
  H  H320  1  0.824100  0.900000  0.423900  1.0  0.0988
  H  H321  1  0.879200  0.831500  0.383700  1.0  0.0979
  H  H322  1  0.966700  0.815500  0.376500  1.0  0.1017
  H  H323  1  0.935100  0.682900  0.309900  1.0  0.102
  H  H324  1  0.848300  0.706500  0.305500  1.0  0.0984
  H  H325  1  0.787700  0.651500  0.530200  1.0  0.1056
  H  H326  1  0.805100  0.564700  0.544500  1.0  0.1083
  H  H327  1  0.692300  0.527600  0.449500  1.0  0.1035
  H  H328  1  0.663600  0.612700  0.453000  1.0  0.1052
  H  H329  1  0.633400  0.721000  0.520400  1.0  0.0958
  H  H330  1  0.547200  0.699800  0.530200  1.0  0.1117
  H  H331  1  0.827700  0.489900  0.545000  1.0  0.1009
  H  H332  1  0.595200  0.833100  0.428100  1.0  0.0996
  H  H333  1  0.300400  0.365100  0.332700  1.0  0.1026
  H  H334  1  0.315900  0.451900  0.318000  1.0  0.0927
  H  H335  1  0.183400  0.487300  0.384100  1.0  0.0948
  H  H336  1  0.164700  0.399400  0.390200  1.0  0.0979
  H  H337  1  0.852500  0.801800  0.499600  1.0  0.1005
  H  H338  1  0.938100  0.814800  0.522400  1.0  0.1002
  H  H339  1  0.677900  0.024900  0.535500  1.0  0.1029
  H  H340  1  0.888100  0.661900  0.451000  1.0  0.1052
  H  H341  1  0.227400  0.148900  0.301200  1.0  0.0994
  H  H342  1  0.205600  0.063900  0.285700  1.0  0.1053
  H  H343  1  0.315000  0.019100  0.381800  1.0  0.1023
  H  H344  1  0.328600  0.105000  0.402900  1.0  0.1003
  H  H345  1  0.628600  0.784700  0.334300  1.0  0.0911
  H  H346  1  0.547900  0.790200  0.296800  1.0  0.1015
  H  H347  1  0.501500  0.671000  0.378200  1.0  0.1004
  H  H348  1  0.586600  0.653700  0.397100  1.0  0.1015
  H  H349  1  0.659700  0.278600  0.362300  1.0  0.1046
  H  H350  1  0.575200  0.301300  0.378900  1.0  0.1018
  H  H351  1  0.528600  0.196300  0.279500  1.0  0.0932
  H  H352  1  0.613700  0.175200  0.263900  1.0  0.101
  H  H353  1  0.908100  0.333500  0.260700  1.0  0.1037
  H  H354  1  0.993400  0.325400  0.285300  1.0  0.1052
  H  H355  1  0.956600  0.193400  0.352800  1.0  0.0964
  H  H356  1  0.870100  0.218900  0.350800  1.0  0.109
  H  H357  1  0.723800  0.139700  0.351800  1.0  0.102
  H  H358  1  0.709700  0.054200  0.374700  1.0  0.1051
  H  H359  1  0.819100  0.010200  0.278600  1.0  0.1022
  H  H360  1  0.843400  0.095900  0.271000  1.0  0.0943
  H  H361  1  0.671900  0.387300  0.272700  1.0  0.1002
  H  H362  1  0.683100  0.474600  0.289700  1.0  0.0977
  H  H363  1  0.806700  0.440500  0.371300  1.0  0.0997
  H  H364  1  0.791300  0.353400  0.358400  1.0  0.0953
  H  H365  1  0.293200  0.134900  0.511000  1.0  0.0988
  H  H366  1  0.292400  0.051000  0.544000  1.0  0.0967
  H  H367  1  0.183000  0.013600  0.445500  1.0  0.1005
  H  H368  1  0.175900  0.100000  0.423900  1.0  0.0978
  H  H369  1  0.120800  0.168500  0.383700  1.0  0.0983
  H  H370  1  0.033300  0.184500  0.376500  1.0  0.1007
  H  H371  1  0.064900  0.317100  0.309900  1.0  0.1023
  H  H372  1  0.151700  0.293500  0.305500  1.0  0.0983
  H  H373  1  0.212300  0.348500  0.530200  1.0  0.1057
  H  H374  1  0.194900  0.435300  0.544500  1.0  0.1076
  H  H375  1  0.307700  0.472400  0.449500  1.0  0.1055
  H  H376  1  0.336400  0.387300  0.453000  1.0  0.1055
  H  H377  1  0.366600  0.279000  0.520400  1.0  0.096
  H  H378  1  0.452800  0.300200  0.530200  1.0  0.1122
  H  H379  1  0.172300  0.510100  0.545000  1.0  0.1011
  H  H380  1  0.404800  0.166900  0.428100  1.0  0.099
  H  H381  1  0.699600  0.634900  0.332700  1.0  0.1028
  H  H382  1  0.684100  0.548100  0.318000  1.0  0.0922
  H  H383  1  0.816600  0.512700  0.384100  1.0  0.0944
  H  H384  1  0.835300  0.600600  0.390200  1.0  0.0979
  H  H385  1  0.147500  0.198200  0.499600  1.0  0.1009
  H  H386  1  0.061900  0.185200  0.522400  1.0  0.0999
  H  H387  1  0.322100  0.975100  0.535500  1.0  0.1025
  H  H388  1  0.111900  0.338100  0.451000  1.0  0.1058
  H  H389  1  0.772600  0.851100  0.301200  1.0  0.0994
  H  H390  1  0.794400  0.936100  0.285700  1.0  0.1069
  H  H391  1  0.685000  0.980900  0.381800  1.0  0.1021
  H  H392  1  0.671400  0.895000  0.402900  1.0  0.1007
  H  H393  1  0.371400  0.215300  0.334300  1.0  0.0919
  H  H394  1  0.452100  0.209800  0.296800  1.0  0.1021
  H  H395  1  0.498500  0.329000  0.378200  1.0  0.1011
  H  H396  1  0.413400  0.346300  0.397100  1.0  0.1014
  C  C397  1  0.738350  0.367520  0.154780  1.0  -0.0319
  C  C398  1  0.724810  0.417770  0.144990  1.0  -0.1515
  C  C399  1  0.748380  0.457800  0.169150  1.0  0.0758
  C  C400  1  0.786100  0.444880  0.203100  1.0  -0.1592
  C  C401  1  0.798900  0.394290  0.212330  1.0  0.0272
  C  C402  1  0.693400  0.082050  0.217300  1.0  0.0357
  C  C403  1  0.699600  0.031000  0.204300  1.0  -0.1874
  C  C404  1  0.741300  0.014800  0.176800  1.0  0.028
  C  C405  1  0.774600  0.052750  0.161800  1.0  -0.1768
  C  C406  1  0.762800  0.104360  0.167300  1.0  -0.0225
  C  C407  1  0.886930  0.254800  0.161000  1.0  0.0022
  C  C408  1  0.937830  0.265600  0.150300  1.0  -0.1751
  C  C409  1  0.977300  0.241100  0.175100  1.0  0.0916
  C  C410  1  0.963850  0.200000  0.204700  1.0  -0.1847
  C  C411  1  0.912780  0.186300  0.210100  1.0  -0.0118
  C  C412  1  0.601560  0.300400  0.206800  1.0  0.0
  C  C413  1  0.549930  0.294400  0.195600  1.0  -0.1684
  C  C414  1  0.533500  0.256600  0.163500  1.0  0.0294
  C  C415  1  0.569970  0.222600  0.147300  1.0  -0.1697
  C  C416  1  0.621400  0.229800  0.157100  1.0  0.002
  C  C417  1  0.889390  0.732200  0.998800  1.0  0.0303
  C  C418  1  0.940260  0.729200  0.983300  1.0  -0.198
  C  C419  1  0.978300  0.756900  0.007100  1.0  0.0587
  C  C420  1  0.961870  0.794500  0.039800  1.0  -0.1551
  C  C421  1  0.910440  0.800100  0.051300  1.0  -0.0376
  C  C422  1  0.801200  0.890790  0.132800  1.0  0.0075
  C  C423  1  0.792800  0.942900  0.139000  1.0  -0.1786
  C  C424  1  0.752400  0.961000  0.167200  1.0  0.0549
  C  C425  1  0.716100  0.924430  0.179600  1.0  -0.193
  C  C426  1  0.727200  0.872500  0.177000  1.0  0.0653
  C  C427  1  0.625720  0.766300  0.983900  1.0  0.0065
  C  C428  1  0.574090  0.777700  0.977100  1.0  -0.172
  C  C429  1  0.536200  0.750200  0.000900  1.0  0.0062
  C  C430  1  0.552030  0.710000  0.030400  1.0  -0.2152
  C  C431  1  0.603070  0.695000  0.031500  1.0  0.0144
  C  C432  1  0.741400  0.607700  0.995200  1.0  -0.0421
  C  C433  1  0.730000  0.556350  0.987700  1.0  -0.182
  C  C434  1  0.482000  0.761900  0.994200  1.0  0.0379
  C  C435  1  0.465500  0.802900  0.965900  1.0  -0.204
  C  C436  1  0.809000  0.585600  0.046900  1.0  0.0502
  C  C437  1  0.390430  0.276700  0.156300  1.0  -0.0696
  C  C438  1  0.441810  0.284600  0.166500  1.0  -0.1636
  C  C439  1  0.479000  0.248900  0.155100  1.0  0.0437
  C  C440  1  0.462600  0.206800  0.129000  1.0  -0.1736
  C  C441  1  0.410900  0.197300  0.121400  1.0  0.0259
  C  C442  1  0.776100  0.877640  0.006800  1.0  -0.0031
  C  C443  1  0.784500  0.928780  0.995300  1.0  -0.1666
  C  C444  1  0.033200  0.750100  0.991100  1.0  0.0808
  C  C445  1  0.049500  0.703800  0.972000  1.0  -0.1729
  C  C446  1  0.694300  0.898900  0.036500  1.0  -0.0075
  C  C447  1  0.122080  0.244800  0.181700  1.0  0.0083
  C  C448  1  0.071480  0.231900  0.190800  1.0  -0.1648
  C  C449  1  0.031800  0.256400  0.166400  1.0  0.0695
  C  C450  1  0.045270  0.295000  0.133700  1.0  -0.1829
  C  C451  1  0.096300  0.305000  0.122900  1.0  -0.0076
  C  C452  1  0.759300  0.603100  0.159300  1.0  0.0363
  C  C453  1  0.765700  0.554000  0.177600  1.0  -0.1556
  C  C454  1  0.737000  0.513700  0.159600  1.0  0.0706
  C  C455  1  0.694200  0.527430  0.132400  1.0  -0.1807
  C  C456  1  0.684400  0.578000  0.120200  1.0  -0.0076
  C  C457  1  0.261650  0.632480  0.154780  1.0  -0.0323
  C  C458  1  0.275190  0.582230  0.144990  1.0  -0.1519
  C  C459  1  0.251620  0.542200  0.169150  1.0  0.0747
  C  C460  1  0.213900  0.555120  0.203100  1.0  -0.1617
  C  C461  1  0.201100  0.605710  0.212330  1.0  0.0262
  C  C462  1  0.306600  0.917950  0.217300  1.0  0.0366
  C  C463  1  0.300400  0.969000  0.204300  1.0  -0.1858
  C  C464  1  0.258700  0.985200  0.176800  1.0  0.0293
  C  C465  1  0.225400  0.947250  0.161800  1.0  -0.1773
  C  C466  1  0.237200  0.895640  0.167300  1.0  -0.0221
  C  C467  1  0.113070  0.745200  0.161000  1.0  0.0028
  C  C468  1  0.062170  0.734400  0.150300  1.0  -0.1733
  C  C469  1  0.022700  0.758900  0.175100  1.0  0.0924
  C  C470  1  0.036150  0.800000  0.204700  1.0  -0.1858
  C  C471  1  0.087220  0.813700  0.210100  1.0  -0.0089
  C  C472  1  0.398440  0.699600  0.206800  1.0  -0.0023
  C  C473  1  0.450070  0.705600  0.195600  1.0  -0.1673
  C  C474  1  0.466500  0.743400  0.163500  1.0  0.0292
  C  C475  1  0.430030  0.777400  0.147300  1.0  -0.1663
  C  C476  1  0.378600  0.770200  0.157100  1.0  0.003
  C  C477  1  0.110610  0.267800  0.998800  1.0  0.0302
  C  C478  1  0.059740  0.270800  0.983300  1.0  -0.1983
  C  C479  1  0.021700  0.243100  0.007100  1.0  0.0585
  C  C480  1  0.038130  0.205500  0.039800  1.0  -0.1541
  C  C481  1  0.089560  0.199900  0.051300  1.0  -0.0384
  C  C482  1  0.198800  0.109210  0.132800  1.0  0.0072
  C  C483  1  0.207200  0.057100  0.139000  1.0  -0.1773
  C  C484  1  0.247600  0.039000  0.167200  1.0  0.0555
  C  C485  1  0.283900  0.075570  0.179600  1.0  -0.1929
  C  C486  1  0.272800  0.127500  0.177000  1.0  0.0642
  C  C487  1  0.374280  0.233700  0.983900  1.0  0.006
  C  C488  1  0.425910  0.222300  0.977100  1.0  -0.1733
  C  C489  1  0.463800  0.249800  0.000900  1.0  0.0052
  C  C490  1  0.447970  0.290000  0.030400  1.0  -0.214
  C  C491  1  0.396930  0.305000  0.031500  1.0  0.0143
  C  C492  1  0.258600  0.392300  0.995200  1.0  -0.0419
  C  C493  1  0.270000  0.443650  0.987700  1.0  -0.1831
  C  C494  1  0.518000  0.238100  0.994200  1.0  0.0382
  C  C495  1  0.534500  0.197100  0.965900  1.0  -0.2021
  C  C496  1  0.191000  0.414400  0.046900  1.0  0.0468
  C  C497  1  0.609570  0.723300  0.156300  1.0  -0.0685
  C  C498  1  0.558190  0.715400  0.166500  1.0  -0.164
  C  C499  1  0.521000  0.751100  0.155100  1.0  0.0433
  C  C500  1  0.537400  0.793200  0.129000  1.0  -0.1736
  C  C501  1  0.589100  0.802700  0.121400  1.0  0.0263
  C  C502  1  0.223900  0.122360  0.006800  1.0  -0.0016
  C  C503  1  0.215500  0.071220  0.995300  1.0  -0.168
  C  C504  1  0.966800  0.249900  0.991100  1.0  0.0811
  C  C505  1  0.950500  0.296200  0.972000  1.0  -0.174
  C  C506  1  0.305700  0.101100  0.036500  1.0  -0.0093
  C  C507  1  0.877920  0.755200  0.181700  1.0  0.0078
  C  C508  1  0.928520  0.768100  0.190800  1.0  -0.1653
  C  C509  1  0.968200  0.743600  0.166400  1.0  0.0695
  C  C510  1  0.954730  0.705000  0.133700  1.0  -0.1831
  C  C511  1  0.903700  0.695000  0.122900  1.0  -0.0076
  C  C512  1  0.240700  0.396900  0.159300  1.0  0.0371
  C  C513  1  0.234300  0.446000  0.177600  1.0  -0.1563
  C  C514  1  0.263000  0.486300  0.159600  1.0  0.0704
  C  C515  1  0.305800  0.472570  0.132400  1.0  -0.1811
  C  C516  1  0.315600  0.422000  0.120200  1.0  -0.0064
  C  C517  1  0.367520  0.261650  0.845220  1.0  -0.0299
  C  C518  1  0.417770  0.275190  0.855010  1.0  -0.1543
  C  C519  1  0.457800  0.251620  0.830850  1.0  0.0747
  C  C520  1  0.444880  0.213900  0.796900  1.0  -0.1618
  C  C521  1  0.394290  0.201100  0.787670  1.0  0.0267
  C  C522  1  0.082050  0.306600  0.782700  1.0  0.0339
  C  C523  1  0.031000  0.300400  0.795700  1.0  -0.1895
  C  C524  1  0.014800  0.258700  0.823200  1.0  0.0312
  C  C525  1  0.052750  0.225400  0.838200  1.0  -0.1812
  C  C526  1  0.104360  0.237200  0.832700  1.0  -0.019
  C  C527  1  0.254800  0.113070  0.839000  1.0  0.0013
  C  C528  1  0.265600  0.062170  0.849700  1.0  -0.1706
  C  C529  1  0.241100  0.022700  0.824900  1.0  0.0903
  C  C530  1  0.200000  0.036150  0.795300  1.0  -0.1847
  C  C531  1  0.186300  0.087220  0.789900  1.0  -0.0121
  C  C532  1  0.300400  0.398440  0.793200  1.0  0.001
  C  C533  1  0.294400  0.450070  0.804400  1.0  -0.1657
  C  C534  1  0.256600  0.466500  0.836500  1.0  0.0289
  C  C535  1  0.222600  0.430030  0.852700  1.0  -0.163
  C  C536  1  0.229800  0.378600  0.842900  1.0  0.0013
  C  C537  1  0.732200  0.110610  0.001200  1.0  0.0287
  C  C538  1  0.729200  0.059740  0.016700  1.0  -0.1939
  C  C539  1  0.756900  0.021700  0.992900  1.0  0.0589
  C  C540  1  0.794500  0.038130  0.960200  1.0  -0.1512
  C  C541  1  0.800100  0.089560  0.948700  1.0  -0.0422
  C  C542  1  0.890790  0.198800  0.867200  1.0  0.0052
  C  C543  1  0.942900  0.207200  0.861000  1.0  -0.1813
  C  C544  1  0.961000  0.247600  0.832800  1.0  0.0561
  C  C545  1  0.924430  0.283900  0.820400  1.0  -0.1942
  C  C546  1  0.872500  0.272800  0.823000  1.0  0.0638
  C  C547  1  0.766300  0.374280  0.016100  1.0  0.0035
  C  C548  1  0.777700  0.425910  0.022900  1.0  -0.1673
  C  C549  1  0.750200  0.463800  0.999100  1.0  0.0061
  C  C550  1  0.710000  0.447970  0.969600  1.0  -0.2139
  C  C551  1  0.695000  0.396930  0.968500  1.0  0.0162
  C  C552  1  0.607700  0.258600  0.004800  1.0  -0.0385
  C  C553  1  0.556350  0.270000  0.012300  1.0  -0.1836
  C  C554  1  0.761900  0.518000  0.005800  1.0  0.0371
  C  C555  1  0.802900  0.534500  0.034100  1.0  -0.202
  C  C556  1  0.585600  0.191000  0.953100  1.0  0.0482
  C  C557  1  0.276700  0.609570  0.843700  1.0  -0.0687
  C  C558  1  0.284600  0.558190  0.833500  1.0  -0.1596
  C  C559  1  0.248900  0.521000  0.844900  1.0  0.0419
  C  C560  1  0.206800  0.537400  0.871000  1.0  -0.1736
  C  C561  1  0.197300  0.589100  0.878600  1.0  0.0269
  C  C562  1  0.877640  0.223900  0.993200  1.0  -0.0025
  C  C563  1  0.928780  0.215500  0.004700  1.0  -0.1716
  C  C564  1  0.750100  0.966800  0.008900  1.0  0.0878
  C  C565  1  0.703800  0.950500  0.028000  1.0  -0.1706
  C  C566  1  0.898900  0.305700  0.963500  1.0  -0.0122
  C  C567  1  0.244800  0.877920  0.818300  1.0  0.0081
  C  C568  1  0.231900  0.928520  0.809200  1.0  -0.1602
  C  C569  1  0.256400  0.968200  0.833600  1.0  0.0675
  C  C570  1  0.295000  0.954730  0.866300  1.0  -0.1819
  C  C571  1  0.305000  0.903700  0.877100  1.0  -0.007
  C  C572  1  0.603100  0.240700  0.840700  1.0  0.0387
  C  C573  1  0.554000  0.234300  0.822400  1.0  -0.1582
  C  C574  1  0.513700  0.263000  0.840400  1.0  0.0709
  C  C575  1  0.527430  0.305800  0.867600  1.0  -0.1812
  C  C576  1  0.578000  0.315600  0.879800  1.0  -0.0079
  C  C577  1  0.632480  0.738350  0.845220  1.0  -0.0295
  C  C578  1  0.582230  0.724810  0.855010  1.0  -0.1538
  C  C579  1  0.542200  0.748380  0.830850  1.0  0.0745
  C  C580  1  0.555120  0.786100  0.796900  1.0  -0.1633
  C  C581  1  0.605710  0.798900  0.787670  1.0  0.0274
  C  C582  1  0.917950  0.693400  0.782700  1.0  0.0348
  C  C583  1  0.969000  0.699600  0.795700  1.0  -0.1897
  C  C584  1  0.985200  0.741300  0.823200  1.0  0.0311
  C  C585  1  0.947250  0.774600  0.838200  1.0  -0.1793
  C  C586  1  0.895640  0.762800  0.832700  1.0  -0.0222
  C  C587  1  0.745200  0.886930  0.839000  1.0  0.0021
  C  C588  1  0.734400  0.937830  0.849700  1.0  -0.1713
  C  C589  1  0.758900  0.977300  0.824900  1.0  0.091
  C  C590  1  0.800000  0.963850  0.795300  1.0  -0.1863
  C  C591  1  0.813700  0.912780  0.789900  1.0  -0.0093
  C  C592  1  0.699600  0.601560  0.793200  1.0  0.0026
  C  C593  1  0.705600  0.549930  0.804400  1.0  -0.1662
  C  C594  1  0.743400  0.533500  0.836500  1.0  0.0285
  C  C595  1  0.777400  0.569970  0.852700  1.0  -0.1636
  C  C596  1  0.770200  0.621400  0.842900  1.0  0.002
  C  C597  1  0.267800  0.889390  0.001200  1.0  0.0304
  C  C598  1  0.270800  0.940260  0.016700  1.0  -0.1935
  C  C599  1  0.243100  0.978300  0.992900  1.0  0.0583
  C  C600  1  0.205500  0.961870  0.960200  1.0  -0.1518
  C  C601  1  0.199900  0.910440  0.948700  1.0  -0.0449
  C  C602  1  0.109210  0.801200  0.867200  1.0  0.0081
  C  C603  1  0.057100  0.792800  0.861000  1.0  -0.1812
  C  C604  1  0.039000  0.752400  0.832800  1.0  0.0564
  C  C605  1  0.075570  0.716100  0.820400  1.0  -0.1944
  C  C606  1  0.127500  0.727200  0.823000  1.0  0.0642
  C  C607  1  0.233700  0.625720  0.016100  1.0  0.0037
  C  C608  1  0.222300  0.574090  0.022900  1.0  -0.1674
  C  C609  1  0.249800  0.536200  0.999100  1.0  0.0062
  C  C610  1  0.290000  0.552030  0.969600  1.0  -0.213
  C  C611  1  0.305000  0.603070  0.968500  1.0  0.0156
  C  C612  1  0.392300  0.741400  0.004800  1.0  -0.0393
  C  C613  1  0.443650  0.730000  0.012300  1.0  -0.1844
  C  C614  1  0.238100  0.482000  0.005800  1.0  0.036
  C  C615  1  0.197100  0.465500  0.034100  1.0  -0.2021
  C  C616  1  0.414400  0.809000  0.953100  1.0  0.0452
  C  C617  1  0.723300  0.390430  0.843700  1.0  -0.069
  C  C618  1  0.715400  0.441810  0.833500  1.0  -0.1581
  C  C619  1  0.751100  0.479000  0.844900  1.0  0.0426
  C  C620  1  0.793200  0.462600  0.871000  1.0  -0.1704
  C  C621  1  0.802700  0.410900  0.878600  1.0  0.0288
  C  C622  1  0.122360  0.776100  0.993200  1.0  -0.0024
  C  C623  1  0.071220  0.784500  0.004700  1.0  -0.1728
  C  C624  1  0.249900  0.033200  0.008900  1.0  0.0878
  C  C625  1  0.296200  0.049500  0.028000  1.0  -0.1699
  C  C626  1  0.101100  0.694300  0.963500  1.0  -0.0123
  C  C627  1  0.755200  0.122080  0.818300  1.0  0.0099
  C  C628  1  0.768100  0.071480  0.809200  1.0  -0.1604
  C  C629  1  0.743600  0.031800  0.833600  1.0  0.0669
  C  C630  1  0.705000  0.045270  0.866300  1.0  -0.183
  C  C631  1  0.695000  0.096300  0.877100  1.0  -0.0088
  C  C632  1  0.396900  0.759300  0.840700  1.0  0.0393
  C  C633  1  0.446000  0.765700  0.822400  1.0  -0.1596
  C  C634  1  0.486300  0.737000  0.840400  1.0  0.0709
  C  C635  1  0.472570  0.694200  0.867600  1.0  -0.1834
  C  C636  1  0.422000  0.684400  0.879800  1.0  -0.0099
  C  C637  1  0.738350  0.632480  0.654780  1.0  -0.0321
  C  C638  1  0.724810  0.582230  0.644990  1.0  -0.1516
  C  C639  1  0.748380  0.542200  0.669150  1.0  0.0748
  C  C640  1  0.786100  0.555120  0.703100  1.0  -0.1591
  C  C641  1  0.798900  0.605710  0.712330  1.0  0.0269
  C  C642  1  0.693400  0.917950  0.717300  1.0  0.0361
  C  C643  1  0.699600  0.969000  0.704300  1.0  -0.1878
  C  C644  1  0.741300  0.985200  0.676800  1.0  0.0282
  C  C645  1  0.774600  0.947250  0.661800  1.0  -0.1773
  C  C646  1  0.762800  0.895640  0.667300  1.0  -0.0226
  C  C647  1  0.886930  0.745200  0.661000  1.0  0.0026
  C  C648  1  0.937830  0.734400  0.650300  1.0  -0.1736
  C  C649  1  0.977300  0.758900  0.675100  1.0  0.0915
  C  C650  1  0.963850  0.800000  0.704700  1.0  -0.1846
  C  C651  1  0.912780  0.813700  0.710100  1.0  -0.0095
  C  C652  1  0.601560  0.699600  0.706800  1.0  -0.0015
  C  C653  1  0.549930  0.705600  0.695600  1.0  -0.1671
  C  C654  1  0.533500  0.743400  0.663500  1.0  0.0289
  C  C655  1  0.569970  0.777400  0.647300  1.0  -0.1673
  C  C656  1  0.621400  0.770200  0.657100  1.0  0.0028
  C  C657  1  0.889390  0.267800  0.498800  1.0  0.0299
  C  C658  1  0.940260  0.270800  0.483300  1.0  -0.1983
  C  C659  1  0.978300  0.243100  0.507100  1.0  0.0592
  C  C660  1  0.961870  0.205500  0.539800  1.0  -0.1566
  C  C661  1  0.910440  0.199900  0.551300  1.0  -0.0398
  C  C662  1  0.801200  0.109210  0.632800  1.0  0.0077
  C  C663  1  0.792800  0.057100  0.639000  1.0  -0.1786
  C  C664  1  0.752400  0.039000  0.667200  1.0  0.0551
  C  C665  1  0.716100  0.075570  0.679600  1.0  -0.1925
  C  C666  1  0.727200  0.127500  0.677000  1.0  0.0645
  C  C667  1  0.625720  0.233700  0.483900  1.0  0.006
  C  C668  1  0.574090  0.222300  0.477100  1.0  -0.1732
  C  C669  1  0.536200  0.249800  0.500900  1.0  0.0062
  C  C670  1  0.552030  0.290000  0.530400  1.0  -0.2146
  C  C671  1  0.603070  0.305000  0.531500  1.0  0.0152
  C  C672  1  0.741400  0.392300  0.495200  1.0  -0.0413
  C  C673  1  0.730000  0.443650  0.487700  1.0  -0.1819
  C  C674  1  0.482000  0.238100  0.494200  1.0  0.0375
  C  C675  1  0.465500  0.197100  0.465900  1.0  -0.2042
  C  C676  1  0.809000  0.414400  0.546900  1.0  0.0497
  C  C677  1  0.390430  0.723300  0.656300  1.0  -0.0698
  C  C678  1  0.441810  0.715400  0.666500  1.0  -0.1653
  C  C679  1  0.479000  0.751100  0.655100  1.0  0.0436
  C  C680  1  0.462600  0.793200  0.629000  1.0  -0.1729
  C  C681  1  0.410900  0.802700  0.621400  1.0  0.0247
  C  C682  1  0.776100  0.122360  0.506800  1.0  -0.0027
  C  C683  1  0.784500  0.071220  0.495300  1.0  -0.1663
  C  C684  1  0.033200  0.249900  0.491100  1.0  0.0808
  C  C685  1  0.049500  0.296200  0.472000  1.0  -0.1736
  C  C686  1  0.694300  0.101100  0.536500  1.0  -0.0075
  C  C687  1  0.122080  0.755200  0.681700  1.0  0.0082
  C  C688  1  0.071480  0.768100  0.690800  1.0  -0.1663
  C  C689  1  0.031800  0.743600  0.666400  1.0  0.0697
  C  C690  1  0.045270  0.705000  0.633700  1.0  -0.1814
  C  C691  1  0.096300  0.695000  0.622900  1.0  -0.007
  C  C692  1  0.759300  0.396900  0.659300  1.0  0.0363
  C  C693  1  0.765700  0.446000  0.677600  1.0  -0.1557
  C  C694  1  0.737000  0.486300  0.659600  1.0  0.0702
  C  C695  1  0.694200  0.472570  0.632400  1.0  -0.1803
  C  C696  1  0.684400  0.422000  0.620200  1.0  -0.0078
  C  C697  1  0.261650  0.367520  0.654780  1.0  -0.032
  C  C698  1  0.275190  0.417770  0.644990  1.0  -0.152
  C  C699  1  0.251620  0.457800  0.669150  1.0  0.0757
  C  C700  1  0.213900  0.444880  0.703100  1.0  -0.1623
  C  C701  1  0.201100  0.394290  0.712330  1.0  0.0266
  C  C702  1  0.306600  0.082050  0.717300  1.0  0.0364
  C  C703  1  0.300400  0.031000  0.704300  1.0  -0.186
  C  C704  1  0.258700  0.014800  0.676800  1.0  0.0292
  C  C705  1  0.225400  0.052750  0.661800  1.0  -0.1773
  C  C706  1  0.237200  0.104360  0.667300  1.0  -0.0224
  C  C707  1  0.113070  0.254800  0.661000  1.0  0.0028
  C  C708  1  0.062170  0.265600  0.650300  1.0  -0.1748
  C  C709  1  0.022700  0.241100  0.675100  1.0  0.0924
  C  C710  1  0.036150  0.200000  0.704700  1.0  -0.1833
  C  C711  1  0.087220  0.186300  0.710100  1.0  -0.0116
  C  C712  1  0.398440  0.300400  0.706800  1.0  -0.0008
  C  C713  1  0.450070  0.294400  0.695600  1.0  -0.1668
  C  C714  1  0.466500  0.256600  0.663500  1.0  0.0294
  C  C715  1  0.430030  0.222600  0.647300  1.0  -0.169
  C  C716  1  0.378600  0.229800  0.657100  1.0  0.0024
  C  C717  1  0.110610  0.732200  0.498800  1.0  0.0304
  C  C718  1  0.059740  0.729200  0.483300  1.0  -0.198
  C  C719  1  0.021700  0.756900  0.507100  1.0  0.0582
  C  C720  1  0.038130  0.794500  0.539800  1.0  -0.1538
  C  C721  1  0.089560  0.800100  0.551300  1.0  -0.0358
  C  C722  1  0.198800  0.890790  0.632800  1.0  0.0069
  C  C723  1  0.207200  0.942900  0.639000  1.0  -0.1771
  C  C724  1  0.247600  0.961000  0.667200  1.0  0.0551
  C  C725  1  0.283900  0.924430  0.679600  1.0  -0.1934
  C  C726  1  0.272800  0.872500  0.677000  1.0  0.0648
  C  C727  1  0.374280  0.766300  0.483900  1.0  0.0067
  C  C728  1  0.425910  0.777700  0.477100  1.0  -0.1715
  C  C729  1  0.463800  0.750200  0.500900  1.0  0.0052
  C  C730  1  0.447970  0.710000  0.530400  1.0  -0.2161
  C  C731  1  0.396930  0.695000  0.531500  1.0  0.0143
  C  C732  1  0.258600  0.607700  0.495200  1.0  -0.0423
  C  C733  1  0.270000  0.556350  0.487700  1.0  -0.183
  C  C734  1  0.518000  0.761900  0.494200  1.0  0.0386
  C  C735  1  0.534500  0.802900  0.465900  1.0  -0.2046
  C  C736  1  0.191000  0.585600  0.546900  1.0  0.0466
  C  C737  1  0.609570  0.276700  0.656300  1.0  -0.0678
  C  C738  1  0.558190  0.284600  0.666500  1.0  -0.1627
  C  C739  1  0.521000  0.248900  0.655100  1.0  0.0435
  C  C740  1  0.537400  0.206800  0.629000  1.0  -0.1717
  C  C741  1  0.589100  0.197300  0.621400  1.0  0.0266
  C  C742  1  0.223900  0.877640  0.506800  1.0  -0.002
  C  C743  1  0.215500  0.928780  0.495300  1.0  -0.1677
  C  C744  1  0.966800  0.750100  0.491100  1.0  0.0813
  C  C745  1  0.950500  0.703800  0.472000  1.0  -0.1749
  C  C746  1  0.305700  0.898900  0.536500  1.0  -0.0096
  C  C747  1  0.877920  0.244800  0.681700  1.0  0.0078
  C  C748  1  0.928520  0.231900  0.690800  1.0  -0.164
  C  C749  1  0.968200  0.256400  0.666400  1.0  0.0695
  C  C750  1  0.954730  0.295000  0.633700  1.0  -0.1828
  C  C751  1  0.903700  0.305000  0.622900  1.0  -0.0087
  C  C752  1  0.240700  0.603100  0.659300  1.0  0.0357
  C  C753  1  0.234300  0.554000  0.677600  1.0  -0.1566
  C  C754  1  0.263000  0.513700  0.659600  1.0  0.0708
  C  C755  1  0.305800  0.527430  0.632400  1.0  -0.1812
  C  C756  1  0.315600  0.578000  0.620200  1.0  -0.006
  C  C757  1  0.367520  0.738350  0.345220  1.0  -0.0298
  C  C758  1  0.417770  0.724810  0.355010  1.0  -0.1535
  C  C759  1  0.457800  0.748380  0.330850  1.0  0.0746
  C  C760  1  0.444880  0.786100  0.296900  1.0  -0.1608
  C  C761  1  0.394290  0.798900  0.287670  1.0  0.0265
  C  C762  1  0.082050  0.693400  0.282700  1.0  0.0351
  C  C763  1  0.031000  0.699600  0.295700  1.0  -0.1904
  C  C764  1  0.014800  0.741300  0.323200  1.0  0.0313
  C  C765  1  0.052750  0.774600  0.338200  1.0  -0.1805
  C  C766  1  0.104360  0.762800  0.332700  1.0  -0.0195
  C  C767  1  0.254800  0.886930  0.339000  1.0  0.0022
  C  C768  1  0.265600  0.937830  0.349700  1.0  -0.171
  C  C769  1  0.241100  0.977300  0.324900  1.0  0.0904
  C  C770  1  0.200000  0.963850  0.295300  1.0  -0.1852
  C  C771  1  0.186300  0.912780  0.289900  1.0  -0.0121
  C  C772  1  0.300400  0.601560  0.293200  1.0  0.0015
  C  C773  1  0.294400  0.549930  0.304400  1.0  -0.1651
  C  C774  1  0.256600  0.533500  0.336500  1.0  0.0288
  C  C775  1  0.222600  0.569970  0.352700  1.0  -0.163
  C  C776  1  0.229800  0.621400  0.342900  1.0  0.0011
  C  C777  1  0.732200  0.889390  0.501200  1.0  0.0302
  C  C778  1  0.729200  0.940260  0.516700  1.0  -0.1939
  C  C779  1  0.756900  0.978300  0.492900  1.0  0.059
  C  C780  1  0.794500  0.961870  0.460200  1.0  -0.1511
  C  C781  1  0.800100  0.910440  0.448700  1.0  -0.0429
  C  C782  1  0.890790  0.801200  0.367200  1.0  0.007
  C  C783  1  0.942900  0.792800  0.361000  1.0  -0.1813
  C  C784  1  0.961000  0.752400  0.332800  1.0  0.0561
  C  C785  1  0.924430  0.716100  0.320400  1.0  -0.1941
  C  C786  1  0.872500  0.727200  0.323000  1.0  0.0632
  C  C787  1  0.766300  0.625720  0.516100  1.0  0.0026
  C  C788  1  0.777700  0.574090  0.522900  1.0  -0.1671
  C  C789  1  0.750200  0.536200  0.499100  1.0  0.0061
  C  C790  1  0.710000  0.552030  0.469600  1.0  -0.2143
  C  C791  1  0.695000  0.603070  0.468500  1.0  0.0157
  C  C792  1  0.607700  0.741400  0.504800  1.0  -0.0393
  C  C793  1  0.556350  0.730000  0.512300  1.0  -0.1844
  C  C794  1  0.761900  0.482000  0.505800  1.0  0.0367
  C  C795  1  0.802900  0.465500  0.534100  1.0  -0.2018
  C  C796  1  0.585600  0.809000  0.453100  1.0  0.0462
  C  C797  1  0.276700  0.390430  0.343700  1.0  -0.0692
  C  C798  1  0.284600  0.441810  0.333500  1.0  -0.1598
  C  C799  1  0.248900  0.479000  0.344900  1.0  0.042
  C  C800  1  0.206800  0.462600  0.371000  1.0  -0.1744
  C  C801  1  0.197300  0.410900  0.378600  1.0  0.0274
  C  C802  1  0.877640  0.776100  0.493200  1.0  -0.0028
  C  C803  1  0.928780  0.784500  0.504700  1.0  -0.1717
  C  C804  1  0.750100  0.033200  0.508900  1.0  0.0876
  C  C805  1  0.703800  0.049500  0.528000  1.0  -0.1708
  C  C806  1  0.898900  0.694300  0.463500  1.0  -0.0137
  C  C807  1  0.244800  0.122080  0.318300  1.0  0.0087
  C  C808  1  0.231900  0.071480  0.309200  1.0  -0.1602
  C  C809  1  0.256400  0.031800  0.333600  1.0  0.0672
  C  C810  1  0.295000  0.045270  0.366300  1.0  -0.1816
  C  C811  1  0.305000  0.096300  0.377100  1.0  -0.007
  C  C812  1  0.603100  0.759300  0.340700  1.0  0.0382
  C  C813  1  0.554000  0.765700  0.322400  1.0  -0.1593
  C  C814  1  0.513700  0.737000  0.340400  1.0  0.071
  C  C815  1  0.527430  0.694200  0.367600  1.0  -0.1802
  C  C816  1  0.578000  0.684400  0.379800  1.0  -0.0094
  C  C817  1  0.632480  0.261650  0.345220  1.0  -0.0296
  C  C818  1  0.582230  0.275190  0.355010  1.0  -0.1543
  C  C819  1  0.542200  0.251620  0.330850  1.0  0.0743
  C  C820  1  0.555120  0.213900  0.296900  1.0  -0.1621
  C  C821  1  0.605710  0.201100  0.287670  1.0  0.0273
  C  C822  1  0.917950  0.306600  0.282700  1.0  0.0334
  C  C823  1  0.969000  0.300400  0.295700  1.0  -0.1872
  C  C824  1  0.985200  0.258700  0.323200  1.0  0.0311
  C  C825  1  0.947250  0.225400  0.338200  1.0  -0.1799
  C  C826  1  0.895640  0.237200  0.332700  1.0  -0.0212
  C  C827  1  0.745200  0.113070  0.339000  1.0  0.0002
  C  C828  1  0.734400  0.062170  0.349700  1.0  -0.1714
  C  C829  1  0.758900  0.022700  0.324900  1.0  0.0908
  C  C830  1  0.800000  0.036150  0.295300  1.0  -0.1864
  C  C831  1  0.813700  0.087220  0.289900  1.0  -0.0092
  C  C832  1  0.699600  0.398440  0.293200  1.0  0.0022
  C  C833  1  0.705600  0.450070  0.304400  1.0  -0.167
  C  C834  1  0.743400  0.466500  0.336500  1.0  0.0286
  C  C835  1  0.777400  0.430030  0.352700  1.0  -0.1633
  C  C836  1  0.770200  0.378600  0.342900  1.0  0.0015
  C  C837  1  0.267800  0.110610  0.501200  1.0  0.0295
  C  C838  1  0.270800  0.059740  0.516700  1.0  -0.1938
  C  C839  1  0.243100  0.021700  0.492900  1.0  0.0585
  C  C840  1  0.205500  0.038130  0.460200  1.0  -0.1515
  C  C841  1  0.199900  0.089560  0.448700  1.0  -0.0446
  C  C842  1  0.109210  0.198800  0.367200  1.0  0.006
  C  C843  1  0.057100  0.207200  0.361000  1.0  -0.1804
  C  C844  1  0.039000  0.247600  0.332800  1.0  0.0563
  C  C845  1  0.075570  0.283900  0.320400  1.0  -0.1946
  C  C846  1  0.127500  0.272800  0.323000  1.0  0.0649
  C  C847  1  0.233700  0.374280  0.516100  1.0  0.0048
  C  C848  1  0.222300  0.425910  0.522900  1.0  -0.1674
  C  C849  1  0.249800  0.463800  0.499100  1.0  0.0063
  C  C850  1  0.290000  0.447970  0.469600  1.0  -0.2126
  C  C851  1  0.305000  0.396930  0.468500  1.0  0.0152
  C  C852  1  0.392300  0.258600  0.504800  1.0  -0.0385
  C  C853  1  0.443650  0.270000  0.512300  1.0  -0.1832
  C  C854  1  0.238100  0.518000  0.505800  1.0  0.0363
  C  C855  1  0.197100  0.534500  0.534100  1.0  -0.2023
  C  C856  1  0.414400  0.191000  0.453100  1.0  0.0477
  C  C857  1  0.723300  0.609570  0.343700  1.0  -0.0693
  C  C858  1  0.715400  0.558190  0.333500  1.0  -0.1579
  C  C859  1  0.751100  0.521000  0.344900  1.0  0.0425
  C  C860  1  0.793200  0.537400  0.371000  1.0  -0.1707
  C  C861  1  0.802700  0.589100  0.378600  1.0  0.0288
  C  C862  1  0.122360  0.223900  0.493200  1.0  -0.0027
  C  C863  1  0.071220  0.215500  0.504700  1.0  -0.1725
  C  C864  1  0.249900  0.966800  0.508900  1.0  0.088
  C  C865  1  0.296200  0.950500  0.528000  1.0  -0.1695
  C  C866  1  0.101100  0.305700  0.463500  1.0  -0.0105
  C  C867  1  0.755200  0.877920  0.318300  1.0  0.0092
  C  C868  1  0.768100  0.928520  0.309200  1.0  -0.1605
  C  C869  1  0.743600  0.968200  0.333600  1.0  0.067
  C  C870  1  0.705000  0.954730  0.366300  1.0  -0.1835
  C  C871  1  0.695000  0.903700  0.377100  1.0  -0.0091
  C  C872  1  0.396900  0.240700  0.340700  1.0  0.04
  C  C873  1  0.446000  0.234300  0.322400  1.0  -0.1585
  C  C874  1  0.486300  0.263000  0.340400  1.0  0.0704
  C  C875  1  0.472570  0.305800  0.367600  1.0  -0.1822
  C  C876  1  0.422000  0.315600  0.379800  1.0  -0.0084
  N  N877  1  0.774800  0.356690  0.187920  1.0  0.309
  N  N878  1  0.725200  0.117400  0.198900  1.0  0.2703
  N  N879  1  0.875510  0.214170  0.189300  1.0  0.2794
  N  N880  1  0.635400  0.266800  0.188500  1.0  0.2562
  N  N881  1  0.875380  0.771500  0.027600  1.0  0.1993
  N  N882  1  0.767180  0.856700  0.149800  1.0  0.2588
  N  N883  1  0.638600  0.724870  0.010400  1.0  0.31
  N  N884  1  0.780800  0.621300  0.024100  1.0  0.3072
  N  N885  1  0.377300  0.235040  0.130500  1.0  0.2238
  N  N886  1  0.731010  0.864400  0.027100  1.0  0.3238
  N  N887  1  0.133300  0.281600  0.148700  1.0  0.2885
  N  N888  1  0.717610  0.614800  0.132600  1.0  0.2652
  N  N889  1  0.225200  0.643310  0.187920  1.0  0.3108
  N  N890  1  0.274800  0.882600  0.198900  1.0  0.2711
  N  N891  1  0.124490  0.785830  0.189300  1.0  0.281
  N  N892  1  0.364600  0.733200  0.188500  1.0  0.2552
  N  N893  1  0.124620  0.228500  0.027600  1.0  0.1981
  N  N894  1  0.232820  0.143300  0.149800  1.0  0.2594
  N  N895  1  0.361400  0.275130  0.010400  1.0  0.3091
  N  N896  1  0.219200  0.378700  0.024100  1.0  0.3054
  N  N897  1  0.622700  0.764960  0.130500  1.0  0.2232
  N  N898  1  0.268990  0.135600  0.027100  1.0  0.3244
  N  N899  1  0.866700  0.718400  0.148700  1.0  0.287
  N  N900  1  0.282390  0.385200  0.132600  1.0  0.2652
  N  N901  1  0.356690  0.225200  0.812080  1.0  0.3082
  N  N902  1  0.117400  0.274800  0.801100  1.0  0.2644
  N  N903  1  0.214170  0.124490  0.810700  1.0  0.2844
  N  N904  1  0.266800  0.364600  0.811500  1.0  0.2582
  N  N905  1  0.771500  0.124620  0.972400  1.0  0.2002
  N  N906  1  0.856700  0.232820  0.850200  1.0  0.2561
  N  N907  1  0.724870  0.361400  0.989600  1.0  0.3112
  N  N908  1  0.621300  0.219200  0.975900  1.0  0.2885
  N  N909  1  0.235040  0.622700  0.869500  1.0  0.2286
  N  N910  1  0.864400  0.268990  0.972900  1.0  0.3231
  N  N911  1  0.281600  0.866700  0.851300  1.0  0.2896
  N  N912  1  0.614800  0.282390  0.867400  1.0  0.2627
  N  N913  1  0.643310  0.774800  0.812080  1.0  0.3095
  N  N914  1  0.882600  0.725200  0.801100  1.0  0.2652
  N  N915  1  0.785830  0.875510  0.810700  1.0  0.2831
  N  N916  1  0.733200  0.635400  0.811500  1.0  0.2605
  N  N917  1  0.228500  0.875380  0.972400  1.0  0.2
  N  N918  1  0.143300  0.767180  0.850200  1.0  0.2556
  N  N919  1  0.275130  0.638600  0.989600  1.0  0.3134
  N  N920  1  0.378700  0.780800  0.975900  1.0  0.2877
  N  N921  1  0.764960  0.377300  0.869500  1.0  0.2278
  N  N922  1  0.135600  0.731010  0.972900  1.0  0.3231
  N  N923  1  0.718400  0.133300  0.851300  1.0  0.2899
  N  N924  1  0.385200  0.717610  0.867400  1.0  0.2612
  N  N925  1  0.774800  0.643310  0.687920  1.0  0.3101
  N  N926  1  0.725200  0.882600  0.698900  1.0  0.2704
  N  N927  1  0.875510  0.785830  0.689300  1.0  0.2806
  N  N928  1  0.635400  0.733200  0.688500  1.0  0.2568
  N  N929  1  0.875380  0.228500  0.527600  1.0  0.1986
  N  N930  1  0.767180  0.143300  0.649800  1.0  0.2597
  N  N931  1  0.638600  0.275130  0.510400  1.0  0.3101
  N  N932  1  0.780800  0.378700  0.524100  1.0  0.306
  N  N933  1  0.377300  0.764960  0.630500  1.0  0.2246
  N  N934  1  0.731010  0.135600  0.527100  1.0  0.324
  N  N935  1  0.133300  0.718400  0.648700  1.0  0.2886
  N  N936  1  0.717610  0.385200  0.632600  1.0  0.2637
  N  N937  1  0.225200  0.356690  0.687920  1.0  0.3089
  N  N938  1  0.274800  0.117400  0.698900  1.0  0.2703
  N  N939  1  0.124490  0.214170  0.689300  1.0  0.2806
  N  N940  1  0.364600  0.266800  0.688500  1.0  0.2549
  N  N941  1  0.124620  0.771500  0.527600  1.0  0.198
  N  N942  1  0.232820  0.856700  0.649800  1.0  0.2585
  N  N943  1  0.361400  0.724870  0.510400  1.0  0.3083
  N  N944  1  0.219200  0.621300  0.524100  1.0  0.3078
  N  N945  1  0.622700  0.235040  0.630500  1.0  0.2226
  N  N946  1  0.268990  0.864400  0.527100  1.0  0.3244
  N  N947  1  0.866700  0.281600  0.648700  1.0  0.2872
  N  N948  1  0.282390  0.614800  0.632600  1.0  0.2663
  N  N949  1  0.356690  0.774800  0.312080  1.0  0.3088
  N  N950  1  0.117400  0.725200  0.301100  1.0  0.2646
  N  N951  1  0.214170  0.875510  0.310700  1.0  0.2836
  N  N952  1  0.266800  0.635400  0.311500  1.0  0.2609
  N  N953  1  0.771500  0.875380  0.472400  1.0  0.1997
  N  N954  1  0.856700  0.767180  0.350200  1.0  0.2557
  N  N955  1  0.724870  0.638600  0.489600  1.0  0.3129
  N  N956  1  0.621300  0.780800  0.475900  1.0  0.2874
  N  N957  1  0.235040  0.377300  0.369500  1.0  0.2268
  N  N958  1  0.864400  0.731010  0.472900  1.0  0.3232
  N  N959  1  0.281600  0.133300  0.351300  1.0  0.2907
  N  N960  1  0.614800  0.717610  0.367400  1.0  0.2625
  N  N961  1  0.643310  0.225200  0.312080  1.0  0.3089
  N  N962  1  0.882600  0.274800  0.301100  1.0  0.2656
  N  N963  1  0.785830  0.124490  0.310700  1.0  0.2834
  N  N964  1  0.733200  0.364600  0.311500  1.0  0.2575
  N  N965  1  0.228500  0.124620  0.472400  1.0  0.2015
  N  N966  1  0.143300  0.232820  0.350200  1.0  0.2561
  N  N967  1  0.275130  0.361400  0.489600  1.0  0.3122
  N  N968  1  0.378700  0.219200  0.475900  1.0  0.2884
  N  N969  1  0.764960  0.622700  0.369500  1.0  0.2291
  N  N970  1  0.135600  0.268990  0.472900  1.0  0.3227
  N  N971  1  0.718400  0.866700  0.351300  1.0  0.2878
  N  N972  1  0.385200  0.282390  0.367400  1.0  0.2618
  O  O973  1  0.789400  0.307800  0.190400  1.0  -0.632
  O  O974  1  0.718000  0.168700  0.202700  1.0  -0.6355
  O  O975  1  0.828000  0.203400  0.198800  1.0  -0.6858
  O  O976  1  0.685400  0.276200  0.203500  1.0  -0.6369
  O  O977  1  0.827800  0.779200  0.045500  1.0  -0.6346
  O  O978  1  0.779400  0.806500  0.140600  1.0  -0.6498
  O  O979  1  0.688800  0.712700  0.018900  1.0  -0.6476
  O  O980  1  0.792300  0.671900  0.027600  1.0  -0.6523
  O  O981  1  0.326000  0.230100  0.128300  1.0  -0.6685
  O  O982  1  0.720900  0.814400  0.035600  1.0  -0.6482
  O  O983  1  0.184000  0.296800  0.141100  1.0  -0.65
  O  O984  1  0.707900  0.661200  0.118300  1.0  -0.6581
  O  O985  1  0.210600  0.692200  0.190400  1.0  -0.6323
  O  O986  1  0.282000  0.831300  0.202700  1.0  -0.6339
  O  O987  1  0.172000  0.796600  0.198800  1.0  -0.6849
  O  O988  1  0.314600  0.723800  0.203500  1.0  -0.6346
  O  O989  1  0.172200  0.220800  0.045500  1.0  -0.6344
  O  O990  1  0.220600  0.193500  0.140600  1.0  -0.6507
  O  O991  1  0.311200  0.287300  0.018900  1.0  -0.6471
  O  O992  1  0.207700  0.328100  0.027600  1.0  -0.6526
  O  O993  1  0.674000  0.769900  0.128300  1.0  -0.6676
  O  O994  1  0.279100  0.185600  0.035600  1.0  -0.6497
  O  O995  1  0.816000  0.703200  0.141100  1.0  -0.6507
  O  O996  1  0.292100  0.338800  0.118300  1.0  -0.658
  O  O997  1  0.307800  0.210600  0.809600  1.0  -0.6332
  O  O998  1  0.168700  0.282000  0.797300  1.0  -0.6333
  O  O999  1  0.203400  0.172000  0.801200  1.0  -0.6858
  O  O1000  1  0.276200  0.314600  0.796500  1.0  -0.6336
  O  O1001  1  0.779200  0.172200  0.954500  1.0  -0.6351
  O  O1002  1  0.806500  0.220600  0.859400  1.0  -0.6494
  O  O1003  1  0.712700  0.311200  0.981100  1.0  -0.647
  O  O1004  1  0.671900  0.207700  0.972400  1.0  -0.6561
  O  O1005  1  0.230100  0.674000  0.871700  1.0  -0.6694
  O  O1006  1  0.814400  0.279100  0.964400  1.0  -0.6481
  O  O1007  1  0.296800  0.816000  0.858900  1.0  -0.6472
  O  O1008  1  0.661200  0.292100  0.881700  1.0  -0.6574
  O  O1009  1  0.692200  0.789400  0.809600  1.0  -0.6331
  O  O1010  1  0.831300  0.718000  0.797300  1.0  -0.6342
  O  O1011  1  0.796600  0.828000  0.801200  1.0  -0.685
  O  O1012  1  0.723800  0.685400  0.796500  1.0  -0.6348
  O  O1013  1  0.220800  0.827800  0.954500  1.0  -0.6346
  O  O1014  1  0.193500  0.779400  0.859400  1.0  -0.6495
  O  O1015  1  0.287300  0.688800  0.981100  1.0  -0.6465
  O  O1016  1  0.328100  0.792300  0.972400  1.0  -0.6544
  O  O1017  1  0.769900  0.326000  0.871700  1.0  -0.6678
  O  O1018  1  0.185600  0.720900  0.964400  1.0  -0.6501
  O  O1019  1  0.703200  0.184000  0.858900  1.0  -0.6481
  O  O1020  1  0.338800  0.707900  0.881700  1.0  -0.6573
  O  O1021  1  0.789400  0.692200  0.690400  1.0  -0.631
  O  O1022  1  0.718000  0.831300  0.702700  1.0  -0.6346
  O  O1023  1  0.828000  0.796600  0.698800  1.0  -0.6855
  O  O1024  1  0.685400  0.723800  0.703500  1.0  -0.6368
  O  O1025  1  0.827800  0.220800  0.545500  1.0  -0.6347
  O  O1026  1  0.779400  0.193500  0.640600  1.0  -0.6506
  O  O1027  1  0.688800  0.287300  0.518900  1.0  -0.6473
  O  O1028  1  0.792300  0.328100  0.527600  1.0  -0.6524
  O  O1029  1  0.326000  0.769900  0.628300  1.0  -0.6685
  O  O1030  1  0.720900  0.185600  0.535600  1.0  -0.6496
  O  O1031  1  0.184000  0.703200  0.641100  1.0  -0.6505
  O  O1032  1  0.707900  0.338800  0.618300  1.0  -0.6582
  O  O1033  1  0.210600  0.307800  0.690400  1.0  -0.6325
  O  O1034  1  0.282000  0.168700  0.702700  1.0  -0.6342
  O  O1035  1  0.172000  0.203400  0.698800  1.0  -0.6853
  O  O1036  1  0.314600  0.276200  0.703500  1.0  -0.6348
  O  O1037  1  0.172200  0.779200  0.545500  1.0  -0.6343
  O  O1038  1  0.220600  0.806500  0.640600  1.0  -0.6497
  O  O1039  1  0.311200  0.712700  0.518900  1.0  -0.6474
  O  O1040  1  0.207700  0.671900  0.527600  1.0  -0.6531
  O  O1041  1  0.674000  0.230100  0.628300  1.0  -0.6676
  O  O1042  1  0.279100  0.814400  0.535600  1.0  -0.6483
  O  O1043  1  0.816000  0.296800  0.641100  1.0  -0.6505
  O  O1044  1  0.292100  0.661200  0.618300  1.0  -0.6571
  O  O1045  1  0.307800  0.789400  0.309600  1.0  -0.6338
  O  O1046  1  0.168700  0.718000  0.297300  1.0  -0.6335
  O  O1047  1  0.203400  0.828000  0.301200  1.0  -0.685
  O  O1048  1  0.276200  0.685400  0.296500  1.0  -0.6349
  O  O1049  1  0.779200  0.827800  0.454500  1.0  -0.6344
  O  O1050  1  0.806500  0.779400  0.359400  1.0  -0.6492
  O  O1051  1  0.712700  0.688800  0.481100  1.0  -0.647
  O  O1052  1  0.671900  0.792300  0.472400  1.0  -0.6562
  O  O1053  1  0.230100  0.326000  0.371700  1.0  -0.6676
  O  O1054  1  0.814400  0.720900  0.464400  1.0  -0.6478
  O  O1055  1  0.296800  0.184000  0.358900  1.0  -0.6478
  O  O1056  1  0.661200  0.707900  0.381700  1.0  -0.6579
  O  O1057  1  0.692200  0.210600  0.309600  1.0  -0.6329
  O  O1058  1  0.831300  0.282000  0.297300  1.0  -0.6342
  O  O1059  1  0.796600  0.172000  0.301200  1.0  -0.6853
  O  O1060  1  0.723800  0.314600  0.296500  1.0  -0.6336
  O  O1061  1  0.220800  0.172200  0.454500  1.0  -0.635
  O  O1062  1  0.193500  0.220600  0.359400  1.0  -0.6497
  O  O1063  1  0.287300  0.311200  0.481100  1.0  -0.6468
  O  O1064  1  0.328100  0.207700  0.472400  1.0  -0.6542
  O  O1065  1  0.769900  0.674000  0.371700  1.0  -0.6697
  O  O1066  1  0.185600  0.279100  0.464400  1.0  -0.65
  O  O1067  1  0.703200  0.816000  0.358900  1.0  -0.6473
  O  O1068  1  0.338800  0.292100  0.381700  1.0  -0.6571
