# generated using pymatgen
data_ZnBH37(C8O)4
_symmetry_space_group_name_H-M   'P 1'
_cell_length_a   32.05640000
_cell_length_b   32.05640000
_cell_length_c   32.05640000
_cell_angle_alpha   109.47100000
_cell_angle_beta   109.47100000
_cell_angle_gamma   109.47100000
_symmetry_Int_Tables_number   1
_chemical_formula_structural   ZnBH37(C8O)4
_chemical_formula_sum   'Zn24 B24 H888 C768 O96'
_cell_volume   25358.63674604
_cell_formula_units_Z   24
loop_
 _symmetry_equiv_pos_site_id
 _symmetry_equiv_pos_as_xyz
  1  'x, y, z'
loop_
 _atom_site_type_symbol
 _atom_site_label
 _atom_site_symmetry_multiplicity
 _atom_site_fract_x
 _atom_site_fract_y
 _atom_site_fract_z
 _atom_site_occupancy
 _atom_site_charge
  Zn  Zn1  1  0.384840  0.000000  0.000000  1.0  0.7547
  Zn  Zn2  1  0.500000  0.000000  0.000000  1.0  1.1374
  Zn  Zn3  1  0.500000  0.115160  0.500000  1.0  0.7531
  Zn  Zn4  1  0.500000  0.884840  0.500000  1.0  0.7526
  Zn  Zn5  1  0.000000  0.500000  0.500000  1.0  1.1374
  Zn  Zn6  1  0.000000  0.500000  0.000000  1.0  1.1374
  Zn  Zn7  1  0.615160  0.615160  0.115160  1.0  0.7526
  Zn  Zn8  1  0.500000  0.384840  0.500000  1.0  0.7526
  Zn  Zn9  1  0.500000  0.000000  0.500000  1.0  1.1374
  Zn  Zn10  1  0.000000  0.500000  0.884840  1.0  0.7535
  Zn  Zn11  1  0.884840  0.884840  0.384840  1.0  0.7522
  Zn  Zn12  1  0.500000  0.615160  0.500000  1.0  0.7531
  Zn  Zn13  1  0.000000  0.500000  0.615160  1.0  0.7474
  Zn  Zn14  1  0.615160  0.000000  0.000000  1.0  0.7555
  Zn  Zn15  1  0.000000  0.500000  0.115160  1.0  0.7474
  Zn  Zn16  1  0.115160  0.000000  0.000000  1.0  0.7555
  Zn  Zn17  1  0.000000  0.000000  0.000000  1.0  1.1374
  Zn  Zn18  1  0.500000  0.500000  0.500000  1.0  1.1374
  Zn  Zn19  1  0.115160  0.115160  0.615160  1.0  0.7526
  Zn  Zn20  1  0.000000  0.000000  0.500000  1.0  1.1375
  Zn  Zn21  1  0.384840  0.384840  0.884840  1.0  0.7522
  Zn  Zn22  1  0.000000  0.500000  0.384840  1.0  0.7535
  Zn  Zn23  1  0.500000  0.500000  0.000000  1.0  1.1375
  Zn  Zn24  1  0.884840  0.000000  0.000000  1.0  0.7547
  B  B25  1  0.436800  0.718400  0.968400  1.0  0.3917
  B  B26  1  0.031600  0.250000  0.968400  1.0  0.3934
  B  B27  1  0.468400  0.436800  0.218400  1.0  0.3931
  B  B28  1  0.250000  0.781600  0.218400  1.0  0.3936
  B  B29  1  0.531600  0.968400  0.250000  1.0  0.3922
  B  B30  1  0.718400  0.250000  0.281600  1.0  0.3922
  B  B31  1  0.250000  0.468400  0.531600  1.0  0.3932
  B  B32  1  0.281600  0.750000  0.718400  1.0  0.3934
  B  B33  1  0.781600  0.063200  0.531600  1.0  0.3934
  B  B34  1  0.531600  0.563200  0.781600  1.0  0.3933
  B  B35  1  0.936800  0.968400  0.718400  1.0  0.3919
  B  B36  1  0.750000  0.218400  0.781600  1.0  0.3932
  B  B37  1  0.718400  0.468400  0.936800  1.0  0.3934
  B  B38  1  0.031600  0.781600  0.563200  1.0  0.3934
  B  B39  1  0.281600  0.531600  0.063200  1.0  0.3934
  B  B40  1  0.063200  0.031600  0.281600  1.0  0.3925
  B  B41  1  0.968400  0.750000  0.031600  1.0  0.3922
  B  B42  1  0.218400  0.936800  0.468400  1.0  0.393
  B  B43  1  0.750000  0.531600  0.468400  1.0  0.3936
  B  B44  1  0.468400  0.031600  0.750000  1.0  0.3917
  B  B45  1  0.218400  0.281600  0.250000  1.0  0.3917
  B  B46  1  0.563200  0.281600  0.031600  1.0  0.3926
  B  B47  1  0.781600  0.718400  0.750000  1.0  0.3922
  B  B48  1  0.968400  0.218400  0.436800  1.0  0.3934
  H  H49  1  0.384800  0.634800  0.269600  1.0  0.1187
  H  H50  1  0.596200  0.696000  0.989400  1.0  0.1115
  H  H51  1  0.214100  0.436000  0.232700  1.0  0.1072
  H  H52  1  0.039900  0.256300  0.207800  1.0  0.1067
  H  H53  1  0.134800  0.884800  0.769600  1.0  0.1187
  H  H54  1  0.365300  0.397500  0.254000  1.0  0.0972
  H  H55  1  0.566700  0.404000  0.954700  1.0  0.1031
  H  H56  1  0.746900  0.606900  0.518200  1.0  0.1083
  H  H57  1  0.061000  0.652600  0.647000  1.0  0.111
  H  H58  1  0.184200  0.896800  0.515600  1.0  0.1031
  H  H59  1  0.707500  0.957000  0.424300  1.0  0.1273
  H  H60  1  0.728700  0.088700  0.481800  1.0  0.1112
  H  H61  1  0.266500  0.743600  0.105500  1.0  0.1203
  H  H62  1  0.106900  0.860000  0.588700  1.0  0.1098
  H  H63  1  0.283600  0.539900  0.832100  1.0  0.1046
  H  H64  1  0.337300  0.933300  0.388000  1.0  0.1052
  H  H65  1  0.735400  0.369300  0.298300  1.0  0.1152
  H  H66  1  0.449300  0.545300  0.612000  1.0  0.1031
  H  H67  1  0.299900  0.441600  0.386500  1.0  0.1144
  H  H68  1  0.967300  0.250500  0.543000  1.0  0.1262
  H  H69  1  0.933300  0.888000  0.837300  1.0  0.1028
  H  H70  1  0.200100  0.613500  0.558400  1.0  0.114
  H  H71  1  0.832100  0.039900  0.283600  1.0  0.1041
  H  H72  1  0.839000  0.733500  0.977100  1.0  0.1166
  H  H73  1  0.989600  0.918700  0.708700  1.0  0.1064
  H  H74  1  0.505600  0.414000  0.853000  1.0  0.1118
  H  H75  1  0.296700  0.018600  0.732700  1.0  0.1078
  H  H76  1  0.269100  0.663200  0.199100  1.0  0.1096
  H  H77  1  0.611300  0.143500  0.746000  1.0  0.0979
  H  H78  1  0.138100  0.977100  0.243600  1.0  0.1168
  H  H79  1  0.141700  0.055100  0.441600  1.0  0.1103
  H  H80  1  0.784100  0.491900  0.870400  1.0  0.1172
  H  H81  1  0.292500  0.249500  0.216800  1.0  0.1272
  H  H82  1  0.280900  0.291300  0.210000  1.0  0.1053
  H  H83  1  0.780900  0.210000  0.291300  1.0  0.1049
  H  H84  1  0.908400  0.347400  0.994400  1.0  0.1099
  H  H85  1  0.332100  0.048500  0.792200  1.0  0.1059
  H  H86  1  0.370400  0.784100  0.991900  1.0  0.1154
  H  H87  1  0.552800  0.404600  0.380000  1.0  0.1027
  H  H88  1  0.221900  0.018600  0.285900  1.0  0.1093
  H  H89  1  0.292200  0.960100  0.243700  1.0  0.1036
  H  H90  1  0.447200  0.595400  0.620000  1.0  0.1041
  H  H91  1  0.856500  0.102500  0.467800  1.0  0.0961
  H  H92  1  0.291300  0.710000  0.780900  1.0  0.1053
  H  H93  1  0.989600  0.070900  0.780900  1.0  0.1041
  H  H94  1  0.807000  0.041700  0.233500  1.0  0.1267
  H  H95  1  0.269600  0.134800  0.384800  1.0  0.118
  H  H96  1  0.477100  0.839000  0.233500  1.0  0.1181
  H  H97  1  0.764600  0.701700  0.630700  1.0  0.1169
  H  H98  1  0.005600  0.152600  0.091600  1.0  0.1116
  H  H99  1  0.893200  0.293400  0.989400  1.0  0.1097
  H  H100  1  0.856500  0.754000  0.888700  1.0  0.0979
  H  H101  1  0.960100  0.743700  0.792200  1.0  0.1066
  H  H102  1  0.106800  0.400200  0.596200  1.0  0.1095
  H  H103  1  0.703300  0.721900  0.936000  1.0  0.1064
  H  H104  1  0.096200  0.989400  0.696000  1.0  0.1101
  H  H105  1  0.927500  0.893000  0.510500  1.0  0.1159
  H  H106  1  0.929000  0.130700  0.866100  1.0  0.1166
  H  H107  1  0.732700  0.214100  0.936000  1.0  0.1081
  H  H108  1  0.733500  0.926500  0.691800  1.0  0.125
  H  H109  1  0.936000  0.221900  0.703300  1.0  0.1063
  H  H110  1  0.290000  0.719100  0.208700  1.0  0.1043
  H  H111  1  0.870400  0.878500  0.586300  1.0  0.116
  H  H112  1  0.062900  0.133900  0.264600  1.0  0.1149
  H  H113  1  0.382500  0.393000  0.465500  1.0  0.1211
  H  H114  1  0.518200  0.411300  0.271300  1.0  0.1101
  H  H115  1  0.381200  0.984400  0.668600  1.0  0.1013
  H  H116  1  0.756300  0.539900  0.707800  1.0  0.1056
  H  H117  1  0.900200  0.606800  0.096200  1.0  0.1101
  H  H118  1  0.437100  0.735400  0.866100  1.0  0.1162
  H  H119  1  0.732700  0.518600  0.296700  1.0  0.1088
  H  H120  1  0.005600  0.853000  0.414000  1.0  0.1078
  H  H121  1  0.701700  0.130700  0.264600  1.0  0.1168
  H  H122  1  0.200100  0.586600  0.141700  1.0  0.1108
  H  H123  1  0.163200  0.394100  0.964100  1.0  0.1111
  H  H124  1  0.120000  0.447200  0.095400  1.0  0.1014
  H  H125  1  0.219100  0.429100  0.010400  1.0  0.1047
  H  H126  1  0.088700  0.981800  0.228700  1.0  0.11
  H  H127  1  0.284100  0.413700  0.292200  1.0  0.1144
  H  H128  1  0.299900  0.858300  0.413400  1.0  0.1111
  H  H129  1  0.721900  0.285900  0.018600  1.0  0.1108
  H  H130  1  0.308200  0.734700  0.541700  1.0  0.1296
  H  H131  1  0.481800  0.588700  0.728700  1.0  0.1125
  H  H132  1  0.228700  0.746900  0.640000  1.0  0.1115
  H  H133  1  0.022900  0.256400  0.361900  1.0  0.1203
  H  H134  1  0.896800  0.015600  0.684200  1.0  0.1019
  H  H135  1  0.648200  0.052800  0.172800  1.0  0.1076
  H  H136  1  0.102500  0.134700  0.246000  1.0  0.0961
  H  H137  1  0.904600  0.052800  0.880000  1.0  0.106
  H  H138  1  0.716800  0.424300  0.467300  1.0  0.1263
  H  H139  1  0.039900  0.783600  0.332100  1.0  0.104
  H  H140  1  0.668600  0.484400  0.381200  1.0  0.1018
  H  H141  1  0.464100  0.163200  0.894100  1.0  0.1078
  H  H142  1  0.300900  0.730900  0.836800  1.0  0.1082
  H  H143  1  0.048500  0.292200  0.832100  1.0  0.1091
  H  H144  1  0.643500  0.111300  0.246000  1.0  0.0983
  H  H145  1  0.989500  0.072500  0.607000  1.0  0.1178
  H  H146  1  0.792200  0.284100  0.913700  1.0  0.1159
  H  H147  1  0.733500  0.807000  0.541700  1.0  0.1276
  H  H148  1  0.798300  0.735400  0.869300  1.0  0.1164
  H  H149  1  0.730900  0.394100  0.430000  1.0  0.1118
  H  H150  1  0.911300  0.893100  0.640000  1.0  0.1113
  H  H151  1  0.404600  0.880000  0.052800  1.0  0.1034
  H  H152  1  0.091600  0.439000  0.586000  1.0  0.1105
  H  H153  1  0.491900  0.121500  0.707800  1.0  0.1147
  H  H154  1  0.703300  0.981400  0.267300  1.0  0.1072
  H  H155  1  0.929100  0.719100  0.510400  1.0  0.1047
  H  H156  1  0.489600  0.708700  0.918700  1.0  0.1053
  H  H157  1  0.756300  0.216400  0.548500  1.0  0.1053
  H  H158  1  0.304000  0.793400  0.900200  1.0  0.1097
  H  H159  1  0.771300  0.518200  0.911300  1.0  0.1105
  H  H160  1  0.256300  0.548500  0.216400  1.0  0.1085
  H  H161  1  0.331400  0.515600  0.618800  1.0  0.1031
  H  H162  1  0.315800  0.484400  0.103200  1.0  0.1027
  H  H163  1  0.369300  0.571000  0.633900  1.0  0.1153
  H  H164  1  0.753100  0.271300  0.860000  1.0  0.1113
  H  H165  1  0.981800  0.253100  0.893100  1.0  0.1108
  H  H166  1  0.064000  0.285900  0.267300  1.0  0.1086
  H  H167  1  0.596000  0.050700  0.162700  1.0  0.102
  H  H168  1  0.140000  0.228700  0.246900  1.0  0.1114
  H  H169  1  0.641700  0.200100  0.086600  1.0  0.1094
  H  H170  1  0.893200  0.599800  0.403800  1.0  0.1091
  H  H171  1  0.984400  0.168600  0.881200  1.0  0.1036
  H  H172  1  0.043000  0.075700  0.792500  1.0  0.1263
  H  H173  1  0.904600  0.851800  0.524600  1.0  0.104
  H  H174  1  0.018200  0.271300  0.411300  1.0  0.1108
  H  H175  1  0.785900  0.221900  0.518600  1.0  0.1077
  H  H176  1  0.662700  0.066700  0.612000  1.0  0.1039
  H  H177  1  0.707800  0.039900  0.756300  1.0  0.1051
  H  H178  1  0.117500  0.583000  0.010500  1.0  0.116
  H  H179  1  0.161000  0.266500  0.022900  1.0  0.1171
  H  H180  1  0.426500  0.193000  0.734700  1.0  0.1283
  H  H181  1  0.147000  0.086000  0.494400  1.0  0.107
  H  H182  1  0.460100  0.792200  0.743700  1.0  0.1069
  H  H183  1  0.396800  0.684200  0.015600  1.0  0.1035
  H  H184  1  0.360000  0.753100  0.771300  1.0  0.1094
  H  H185  1  0.308200  0.573500  0.266500  1.0  0.1281
  H  H186  1  0.429100  0.918700  0.210000  1.0  0.1056
  H  H187  1  0.070000  0.800900  0.464100  1.0  0.1052
  H  H188  1  0.884800  0.615200  0.750000  1.0  0.1174
  H  H189  1  0.429000  0.866100  0.130700  1.0  0.1161
  H  H190  1  0.606900  0.018200  0.246900  1.0  0.1098
  H  H191  1  0.918700  0.208700  0.489600  1.0  0.1065
  H  H192  1  0.532200  0.134700  0.888700  1.0  0.0969
  H  H193  1  0.439000  0.086000  0.591600  1.0  0.1076
  H  H194  1  0.618800  0.603200  0.787400  1.0  0.1022
  H  H195  1  0.408400  0.994400  0.347400  1.0  0.1104
  H  H196  1  0.733500  0.256400  0.894500  1.0  0.1183
  H  H197  1  0.573500  0.766500  0.808200  1.0  0.1264
  H  H198  1  0.394500  0.661000  0.138100  1.0  0.119
  H  H199  1  0.058400  0.200100  0.113500  1.0  0.112
  H  H200  1  0.790000  0.581300  0.570900  1.0  0.1052
  H  H201  1  0.212600  0.315800  0.331400  1.0  0.103
  H  H202  1  0.233500  0.339000  0.477100  1.0  0.1179
  H  H203  1  0.897500  0.032200  0.643500  1.0  0.0967
  H  H204  1  0.534500  0.107000  0.617500  1.0  0.1169
  H  H205  1  0.555100  0.641700  0.941600  1.0  0.1117
  H  H206  1  0.558400  0.113500  0.200100  1.0  0.1099
  H  H207  1  0.103200  0.118800  0.287400  1.0  0.1004
  H  H208  1  0.606900  0.588700  0.860000  1.0  0.1117
  H  H209  1  0.599800  0.696000  0.706600  1.0  0.112
  H  H210  1  0.735400  0.366100  0.937100  1.0  0.1178
  H  H211  1  0.545300  0.433300  0.096000  1.0  0.1048
  H  H212  1  0.099800  0.706600  0.696000  1.0  0.1108
  H  H213  1  0.370400  0.586300  0.878500  1.0  0.1153
  H  H214  1  0.927500  0.034500  0.917000  1.0  0.1184
  H  H215  1  0.769600  0.384800  0.134800  1.0  0.118
  H  H216  1  0.254000  0.897500  0.365300  1.0  0.096
  H  H217  1  0.612000  0.045300  0.449300  1.0  0.1025
  H  H218  1  0.266500  0.522900  0.661000  1.0  0.1157
  H  H219  1  0.586300  0.378500  0.870400  1.0  0.1168
  H  H220  1  0.393200  0.403800  0.599800  1.0  0.1122
  H  H221  1  0.643500  0.532200  0.897500  1.0  0.099
  H  H222  1  0.991900  0.707800  0.121500  1.0  0.1175
  H  H223  1  0.602500  0.356500  0.967800  1.0  0.0988
  H  H224  1  0.347400  0.494400  0.408400  1.0  0.1075
  H  H225  1  0.691800  0.426500  0.733500  1.0  0.128
  H  H226  1  0.708700  0.418700  0.989600  1.0  0.1059
  H  H227  1  0.424300  0.967300  0.216800  1.0  0.1253
  H  H228  1  0.096000  0.933300  0.545300  1.0  0.1046
  H  H229  1  0.283200  0.707500  0.250500  1.0  0.126
  H  H230  1  0.853000  0.939000  0.847400  1.0  0.1103
  H  H231  1  0.117500  0.534500  0.607000  1.0  0.1163
  H  H232  1  0.719100  0.010400  0.429100  1.0  0.1074
  H  H233  1  0.061000  0.408400  0.914000  1.0  0.1107
  H  H234  1  0.510500  0.117500  0.083000  1.0  0.1183
  H  H235  1  0.586300  0.207800  0.215900  1.0  0.1153
  H  H236  1  0.696000  0.489400  0.096200  1.0  0.1092
  H  H237  1  0.404600  0.524600  0.851800  1.0  0.1044
  H  H238  1  0.163200  0.769100  0.699100  1.0  0.1112
  H  H239  1  0.388700  0.532200  0.634700  1.0  0.0989
  H  H240  1  0.447200  0.851800  0.327200  1.0  0.1035
  H  H241  1  0.869300  0.633900  0.571000  1.0  0.1164
  H  H242  1  0.332100  0.283600  0.039900  1.0  0.1038
  H  H243  1  0.052800  0.380000  0.404600  1.0  0.1028
  H  H244  1  0.228700  0.481800  0.088700  1.0  0.1112
  H  H245  1  0.518200  0.106900  0.746900  1.0  0.1098
  H  H246  1  0.283200  0.575700  0.532700  1.0  0.1237
  H  H247  1  0.860000  0.771300  0.753100  1.0  0.1107
  H  H248  1  0.235400  0.937100  0.366100  1.0  0.116
  H  H249  1  0.652600  0.505600  0.591600  1.0  0.1092
  H  H250  1  0.591600  0.005600  0.652600  1.0  0.1111
  H  H251  1  0.880000  0.327200  0.475400  1.0  0.1024
  H  H252  1  0.861900  0.022900  0.756400  1.0  0.1166
  H  H253  1  0.939000  0.347400  0.353000  1.0  0.1102
  H  H254  1  0.050700  0.662700  0.096000  1.0  0.1047
  H  H255  1  0.168600  0.381200  0.484400  1.0  0.1043
  H  H256  1  0.465500  0.893000  0.382500  1.0  0.1171
  H  H257  1  0.750000  0.115200  0.884800  1.0  0.1182
  H  H258  1  0.743600  0.138100  0.477100  1.0  0.1177
  H  H259  1  0.851800  0.024600  0.404600  1.0  0.1025
  H  H260  1  0.937100  0.071000  0.701700  1.0  0.1154
  H  H261  1  0.949300  0.337300  0.904000  1.0  0.1041
  H  H262  1  0.394100  0.464100  0.663200  1.0  0.1074
  H  H263  1  0.052800  0.672800  0.148200  1.0  0.1024
  H  H264  1  0.552800  0.148200  0.672800  1.0  0.1036
  H  H265  1  0.232700  0.936000  0.214100  1.0  0.1054
  H  H266  1  0.728700  0.640000  0.746900  1.0  0.1098
  H  H267  1  0.467800  0.865300  0.111300  1.0  0.0969
  H  H268  1  0.293400  0.489400  0.393200  1.0  0.1106
  H  H269  1  0.411300  0.771300  0.018200  1.0  0.1108
  H  H270  1  0.913400  0.613500  0.055100  1.0  0.1122
  H  H271  1  0.888000  0.337300  0.433300  1.0  0.1049
  H  H272  1  0.613500  0.555100  0.413400  1.0  0.1112
  H  H273  1  0.583000  0.510500  0.617500  1.0  0.1166
  H  H274  1  0.250000  0.365200  0.634800  1.0  0.1182
  H  H275  1  0.706600  0.510600  0.606800  1.0  0.1096
  H  H276  1  0.112000  0.449300  0.045300  1.0  0.1048
  H  H277  1  0.403800  0.099800  0.893200  1.0  0.1075
  H  H278  1  0.083000  0.465500  0.072500  1.0  0.1156
  H  H279  1  0.451500  0.167900  0.707800  1.0  0.107
  H  H280  1  0.361900  0.756400  0.022900  1.0  0.12
  H  H281  1  0.860000  0.088700  0.606900  1.0  0.1118
  H  H282  1  0.010600  0.804000  0.403800  1.0  0.1113
  H  H283  1  0.366100  0.929000  0.630700  1.0  0.1141
  H  H284  1  0.433300  0.596000  0.045300  1.0  0.1024
  H  H285  1  0.436000  0.703300  0.221900  1.0  0.1065
  H  H286  1  0.413400  0.358300  0.299900  1.0  0.1113
  H  H287  1  0.652600  0.147000  0.561000  1.0  0.1079
  H  H288  1  0.967800  0.856500  0.602500  1.0  0.0982
  H  H289  1  0.285900  0.518600  0.221900  1.0  0.1095
  H  H290  1  0.765300  0.573500  0.307000  1.0  0.1284
  H  H291  1  0.207500  0.424300  0.957000  1.0  0.124
  H  H292  1  0.441600  0.555100  0.141700  1.0  0.1088
  H  H293  1  0.827200  0.380000  0.975400  1.0  0.1022
  H  H294  1  0.134700  0.746000  0.602500  1.0  0.0959
  H  H295  1  0.243700  0.783600  0.451500  1.0  0.1057
  H  H296  1  0.913700  0.784100  0.792200  1.0  0.1143
  H  H297  1  0.769100  0.199100  0.663200  1.0  0.1061
  H  H298  1  0.700100  0.141700  0.586600  1.0  0.1106
  H  H299  1  0.621500  0.991900  0.207800  1.0  0.1183
  H  H300  1  0.933300  0.045300  0.596000  1.0  0.1029
  H  H301  1  0.243600  0.766500  0.605500  1.0  0.1173
  H  H302  1  0.534500  0.427500  0.417000  1.0  0.1154
  H  H303  1  0.607000  0.572500  0.989500  1.0  0.1151
  H  H304  1  0.596200  0.900200  0.106800  1.0  0.1096
  H  H305  1  0.800900  0.836800  0.730900  1.0  0.1088
  H  H306  1  0.444900  0.358300  0.058400  1.0  0.1112
  H  H307  1  0.072500  0.965500  0.083000  1.0  0.118
  H  H308  1  0.331400  0.815800  0.212600  1.0  0.1029
  H  H309  1  0.105500  0.861900  0.339000  1.0  0.1177
  H  H310  1  0.714100  0.232700  0.436000  1.0  0.109
  H  H311  1  0.212600  0.896800  0.381200  1.0  0.1028
  H  H312  1  0.427500  0.510500  0.893000  1.0  0.1166
  H  H313  1  0.018600  0.785900  0.721900  1.0  0.1089
  H  H314  1  0.086600  0.386500  0.944900  1.0  0.1132
  H  H315  1  0.250500  0.207500  0.283200  1.0  0.1278
  H  H316  1  0.436000  0.732700  0.714100  1.0  0.108
  H  H317  1  0.293400  0.804000  0.400200  1.0  0.1114
  H  H318  1  0.562900  0.264600  0.133900  1.0  0.1157
  H  H319  1  0.882500  0.465500  0.393000  1.0  0.1166
  H  H320  1  0.575700  0.032700  0.783200  1.0  0.1255
  H  H321  1  0.960100  0.216400  0.667900  1.0  0.1074
  H  H322  1  0.015600  0.831400  0.118800  1.0  0.1033
  H  H323  1  0.032200  0.888700  0.134700  1.0  0.098
  H  H324  1  0.630700  0.429000  0.366100  1.0  0.1139
  H  H325  1  0.216400  0.167900  0.460100  1.0  0.1059
  H  H326  1  0.746000  0.102500  0.634700  1.0  0.0974
  H  H327  1  0.831400  0.212600  0.815800  1.0  0.1037
  H  H328  1  0.778100  0.796700  0.564000  1.0  0.1075
  H  H329  1  0.581300  0.070900  0.290000  1.0  0.1044
  H  H330  1  0.138100  0.161000  0.394500  1.0  0.1193
  H  H331  1  0.566700  0.162700  0.112000  1.0  0.1053
  H  H332  1  0.134800  0.250000  0.865200  1.0  0.1195
  H  H333  1  0.203300  0.936000  0.721900  1.0  0.1065
  H  H334  1  0.010400  0.929100  0.219100  1.0  0.1059
  H  H335  1  0.491900  0.370400  0.284100  1.0  0.1162
  H  H336  1  0.617500  0.607000  0.534500  1.0  0.1188
  H  H337  1  0.388000  0.433300  0.337300  1.0  0.1048
  H  H338  1  0.888700  0.634700  0.532200  1.0  0.0947
  H  H339  1  0.662700  0.596000  0.550700  1.0  0.1035
  H  H340  1  0.191800  0.733500  0.426500  1.0  0.1241
  H  H341  1  0.957000  0.032700  0.249500  1.0  0.1254
  H  H342  1  0.634700  0.602500  0.746000  1.0  0.0968
  H  H343  1  0.693000  0.766500  0.958300  1.0  0.1258
  H  H344  1  0.147000  0.061000  0.152600  1.0  0.1105
  H  H345  1  0.605900  0.070000  0.769100  1.0  0.1081
  H  H346  1  0.663200  0.699100  0.769100  1.0  0.1068
  H  H347  1  0.062900  0.929000  0.298300  1.0  0.1137
  H  H348  1  0.595400  0.120000  0.947200  1.0  0.1032
  H  H349  1  0.388700  0.856500  0.254000  1.0  0.098
  H  H350  1  0.886500  0.299900  0.941600  1.0  0.1107
  H  H351  1  0.210000  0.418700  0.429100  1.0  0.1042
  H  H352  1  0.787400  0.103200  0.618800  1.0  0.1034
  H  H353  1  0.018200  0.746900  0.106900  1.0  0.1106
  H  H354  1  0.798300  0.062900  0.429000  1.0  0.1159
  H  H355  1  0.588700  0.228700  0.981800  1.0  0.111
  H  H356  1  0.618800  0.015600  0.331400  1.0  0.1018
  H  H357  1  0.515600  0.396800  0.184200  1.0  0.1022
  H  H358  1  0.208700  0.989600  0.418700  1.0  0.1073
  H  H359  1  0.865200  0.115200  0.230400  1.0  0.1185
  H  H360  1  0.380000  0.475400  0.327200  1.0  0.105
  H  H361  1  0.796700  0.732700  0.018600  1.0  0.1066
  H  H362  1  0.572500  0.489500  0.107000  1.0  0.1167
  H  H363  1  0.539900  0.207800  0.256300  1.0  0.1065
  H  H364  1  0.894100  0.663200  0.464100  1.0  0.1097
  H  H365  1  0.454700  0.566700  0.904000  1.0  0.1041
  H  H366  1  0.353000  0.505600  0.914000  1.0  0.1072
  H  H367  1  0.360000  0.606900  0.088700  1.0  0.1071
  H  H368  1  0.394500  0.733500  0.756400  1.0  0.1172
  H  H369  1  0.369300  0.798300  0.235400  1.0  0.1159
  H  H370  1  0.706600  0.196000  0.599800  1.0  0.1112
  H  H371  1  0.870400  0.991900  0.784100  1.0  0.1172
  H  H372  1  0.058400  0.858300  0.444900  1.0  0.1107
  H  H373  1  0.756400  0.233500  0.394500  1.0  0.1173
  H  H374  1  0.954700  0.904000  0.566700  1.0  0.1027
  H  H375  1  0.477100  0.638100  0.743600  1.0  0.1185
  H  H376  1  0.730900  0.336800  0.800900  1.0  0.1103
  H  H377  1  0.929100  0.210000  0.918700  1.0  0.1044
  H  H378  1  0.216800  0.467300  0.424300  1.0  0.1226
  H  H379  1  0.118800  0.331400  0.015600  1.0  0.1035
  H  H380  1  0.113500  0.700100  0.058400  1.0  0.1129
  H  H381  1  0.449300  0.904000  0.337300  1.0  0.103
  H  H382  1  0.250500  0.043000  0.467300  1.0  0.1281
  H  H383  1  0.766500  0.458300  0.193000  1.0  0.129
  H  H384  1  0.743700  0.451500  0.783600  1.0  0.1068
  H  H385  1  0.893100  0.140000  0.411300  1.0  0.1109
  H  H386  1  0.510400  0.219100  0.929100  1.0  0.1043
  H  H387  1  0.032700  0.283200  0.075700  1.0  0.1289
  H  H388  1  0.073500  0.265300  0.807000  1.0  0.129
  H  H389  1  0.070900  0.790000  0.081300  1.0  0.1039
  H  H390  1  0.235400  0.298300  0.369300  1.0  0.1172
  H  H391  1  0.667900  0.951500  0.207800  1.0  0.1059
  H  H392  1  0.215900  0.707800  0.586300  1.0  0.1169
  H  H393  1  0.107000  0.989500  0.572500  1.0  0.115
  H  H394  1  0.947200  0.620000  0.595400  1.0  0.1021
  H  H395  1  0.206600  0.606800  0.510600  1.0  0.1097
  H  H396  1  0.365200  0.134800  0.750000  1.0  0.1171
  H  H397  1  0.719100  0.708700  0.790000  1.0  0.1044
  H  H398  1  0.541700  0.307000  0.733500  1.0  0.1275
  H  H399  1  0.904000  0.837300  0.949300  1.0  0.105
  H  H400  1  0.930000  0.199100  0.535900  1.0  0.107
  H  H401  1  0.246900  0.728700  0.140000  1.0  0.1109
  H  H402  1  0.232700  0.296700  0.518600  1.0  0.1079
  H  H403  1  0.882500  0.417000  0.989500  1.0  0.1173
  H  H404  1  0.847400  0.439000  0.853000  1.0  0.1109
  H  H405  1  0.337300  0.404000  0.449300  1.0  0.1026
  H  H406  1  0.535900  0.699100  0.930000  1.0  0.1058
  H  H407  1  0.133900  0.369300  0.071000  1.0  0.1162
  H  H408  1  0.339000  0.361900  0.105500  1.0  0.1189
  H  H409  1  0.008100  0.292200  0.878500  1.0  0.1184
  H  H410  1  0.640000  0.393100  0.911300  1.0  0.1093
  H  H411  1  0.115200  0.384800  0.250000  1.0  0.1171
  H  H412  1  0.967300  0.716800  0.924300  1.0  0.127
  H  H413  1  0.792200  0.548500  0.332100  1.0  0.1066
  H  H414  1  0.249500  0.716800  0.792500  1.0  0.1289
  H  H415  1  0.926500  0.734700  0.193000  1.0  0.1289
  H  H416  1  0.721900  0.436000  0.203300  1.0  0.1056
  H  H417  1  0.793400  0.393200  0.489400  1.0  0.1099
  H  H418  1  0.638100  0.394500  0.161000  1.0  0.1178
  H  H419  1  0.075700  0.292500  0.543000  1.0  0.1259
  H  H420  1  0.583000  0.072500  0.465500  1.0  0.1168
  H  H421  1  0.880000  0.552800  0.904600  1.0  0.1021
  H  H422  1  0.414000  0.353000  0.005600  1.0  0.1085
  H  H423  1  0.599800  0.903800  0.393200  1.0  0.1106
  H  H424  1  0.230900  0.800900  0.336800  1.0  0.1063
  H  H425  1  0.914000  0.005600  0.353000  1.0  0.112
  H  H426  1  0.837300  0.449300  0.404000  1.0  0.104
  H  H427  1  0.458300  0.693000  0.266500  1.0  0.1265
  H  H428  1  0.458300  0.765300  0.691800  1.0  0.129
  H  H429  1  0.881200  0.668600  0.984400  1.0  0.1043
  H  H430  1  0.586000  0.647000  0.994400  1.0  0.1098
  H  H431  1  0.010400  0.081300  0.291300  1.0  0.1057
  H  H432  1  0.206600  0.599800  0.196000  1.0  0.1092
  H  H433  1  0.386500  0.941600  0.299900  1.0  0.1142
  H  H434  1  0.243700  0.460100  0.292200  1.0  0.1036
  H  H435  1  0.861900  0.839000  0.605500  1.0  0.1185
  H  H436  1  0.836800  0.230900  0.300900  1.0  0.1117
  H  H437  1  0.073500  0.808200  0.766500  1.0  0.128
  H  H438  1  0.393000  0.965500  0.882500  1.0  0.1176
  H  H439  1  0.756400  0.522900  0.861900  1.0  0.1164
  H  H440  1  0.336800  0.035900  0.605900  1.0  0.107
  H  H441  1  0.234700  0.426500  0.693000  1.0  0.1271
  H  H442  1  0.264600  0.630700  0.701700  1.0  0.1164
  H  H443  1  0.071000  0.869300  0.133900  1.0  0.116
  H  H444  1  0.571000  0.437100  0.201700  1.0  0.1148
  H  H445  1  0.888000  0.550700  0.954700  1.0  0.1039
  H  H446  1  0.853000  0.914000  0.505600  1.0  0.107
  H  H447  1  0.168600  0.787400  0.184200  1.0  0.103
  H  H448  1  0.130700  0.366100  0.429000  1.0  0.1164
  H  H449  1  0.219100  0.790000  0.708700  1.0  0.1039
  H  H450  1  0.133900  0.764600  0.562900  1.0  0.117
  H  H451  1  0.944900  0.058400  0.358300  1.0  0.1142
  H  H452  1  0.886500  0.586600  0.444900  1.0  0.1122
  H  H453  1  0.208700  0.219100  0.290000  1.0  0.1049
  H  H454  1  0.066700  0.112000  0.162700  1.0  0.1034
  H  H455  1  0.831400  0.618800  0.515600  1.0  0.1041
  H  H456  1  0.634700  0.032200  0.388700  1.0  0.0972
  H  H457  1  0.615200  0.365200  0.730400  1.0  0.1185
  H  H458  1  0.696000  0.206600  0.099800  1.0  0.1096
  H  H459  1  0.413400  0.055100  0.613500  1.0  0.1107
  H  H460  1  0.140000  0.911300  0.393100  1.0  0.11
  H  H461  1  0.296700  0.278100  0.064000  1.0  0.1067
  H  H462  1  0.733500  0.477100  0.339000  1.0  0.1158
  H  H463  1  0.489600  0.780900  0.070900  1.0  0.1058
  H  H464  1  0.878500  0.792200  0.008100  1.0  0.1172
  H  H465  1  0.413700  0.792200  0.784100  1.0  0.117
  H  H466  1  0.937100  0.866100  0.735400  1.0  0.115
  H  H467  1  0.510600  0.106800  0.206600  1.0  0.1097
  H  H468  1  0.099800  0.393200  0.903800  1.0  0.1092
  H  H469  1  0.484400  0.603200  0.815800  1.0  0.1018
  H  H470  1  0.691800  0.265300  0.458300  1.0  0.1285
  H  H471  1  0.254000  0.356500  0.388700  1.0  0.0983
  H  H472  1  0.543000  0.792500  0.075700  1.0  0.1279
  H  H473  1  0.611300  0.467800  0.365300  1.0  0.0986
  H  H474  1  0.808200  0.266500  0.573500  1.0  0.1252
  H  H475  1  0.141700  0.086600  0.200100  1.0  0.1122
  H  H476  1  0.266500  0.193000  0.458300  1.0  0.1274
  H  H477  1  0.199100  0.035900  0.430000  1.0  0.1089
  H  H478  1  0.707800  0.086300  0.715900  1.0  0.116
  H  H479  1  0.939000  0.591600  0.086000  1.0  0.1113
  H  H480  1  0.596000  0.545300  0.933300  1.0  0.1038
  H  H481  1  0.918700  0.710000  0.929100  1.0  0.103
  H  H482  1  0.035900  0.930000  0.699100  1.0  0.1085
  H  H483  1  0.827200  0.447200  0.351800  1.0  0.1022
  H  H484  1  0.457000  0.207500  0.924300  1.0  0.1281
  H  H485  1  0.285900  0.767300  0.564000  1.0  0.1083
  H  H486  1  0.951500  0.707800  0.167900  1.0  0.1083
  H  H487  1  0.271300  0.911300  0.518200  1.0  0.11
  H  H488  1  0.103200  0.984400  0.315800  1.0  0.1014
  H  H489  1  0.640000  0.246900  0.228700  1.0  0.1083
  H  H490  1  0.055100  0.941600  0.641700  1.0  0.1145
  H  H491  1  0.765300  0.191800  0.958300  1.0  0.1277
  H  H492  1  0.535900  0.836800  0.105900  1.0  0.1074
  H  H493  1  0.267300  0.785900  0.064000  1.0  0.1072
  H  H494  1  0.284100  0.870400  0.491900  1.0  0.1177
  H  H495  1  0.234700  0.808200  0.041700  1.0  0.1289
  H  H496  1  0.043000  0.967300  0.750500  1.0  0.1247
  H  H497  1  0.633900  0.071000  0.369300  1.0  0.1157
  H  H498  1  0.081300  0.791300  0.510400  1.0  0.1053
  H  H499  1  0.292200  0.378500  0.508100  1.0  0.1183
  H  H500  1  0.414000  0.061000  0.908400  1.0  0.1111
  H  H501  1  0.034500  0.617500  0.107000  1.0  0.1173
  H  H502  1  0.505600  0.091600  0.152600  1.0  0.1111
  H  H503  1  0.106800  0.706600  0.010600  1.0  0.109
  H  H504  1  0.893100  0.753100  0.981800  1.0  0.1073
  H  H505  1  0.271300  0.360000  0.253100  1.0  0.1086
  H  H506  1  0.148200  0.172800  0.052800  1.0  0.1019
  H  H507  1  0.351800  0.404600  0.024600  1.0  0.1026
  H  H508  1  0.327200  0.351800  0.447200  1.0  0.1034
  H  H509  1  0.010500  0.927500  0.393000  1.0  0.117
  H  H510  1  0.467300  0.543000  0.250500  1.0  0.1267
  H  H511  1  0.701700  0.571000  0.937100  1.0  0.1155
  H  H512  1  0.707800  0.621500  0.491900  1.0  0.1162
  H  H513  1  0.613500  0.058400  0.700100  1.0  0.1139
  H  H514  1  0.975400  0.880000  0.827200  1.0  0.1024
  H  H515  1  0.010500  0.083000  0.117500  1.0  0.1175
  H  H516  1  0.865200  0.750000  0.134800  1.0  0.1186
  H  H517  1  0.807000  0.765300  0.073500  1.0  0.1296
  H  H518  1  0.467300  0.924300  0.716800  1.0  0.1263
  H  H519  1  0.790000  0.208700  0.719100  1.0  0.1054
  H  H520  1  0.958300  0.266500  0.693000  1.0  0.1256
  H  H521  1  0.048500  0.756300  0.716400  1.0  0.1085
  H  H522  1  0.201700  0.264600  0.130700  1.0  0.1162
  H  H523  1  0.712600  0.381200  0.896800  1.0  0.1039
  H  H524  1  0.266500  0.073500  0.308200  1.0  0.1285
  H  H525  1  0.555100  0.913400  0.113500  1.0  0.1124
  H  H526  1  0.489500  0.607000  0.072500  1.0  0.1219
  H  H527  1  0.607000  0.034500  0.117500  1.0  0.1174
  H  H528  1  0.858300  0.944900  0.558400  1.0  0.1111
  H  H529  1  0.393000  0.427500  0.010500  1.0  0.1146
  H  H530  1  0.366100  0.437100  0.235400  1.0  0.1136
  H  H531  1  0.977100  0.233500  0.839000  1.0  0.1161
  H  H532  1  0.949300  0.612000  0.545300  1.0  0.1051
  H  H533  1  0.783200  0.250500  0.707500  1.0  0.1259
  H  H534  1  0.265300  0.958300  0.191800  1.0  0.1269
  H  H535  1  0.148200  0.975400  0.595400  1.0  0.1012
  H  H536  1  0.913400  0.299900  0.358300  1.0  0.1125
  H  H537  1  0.881200  0.212600  0.396800  1.0  0.1026
  H  H538  1  0.413700  0.621500  0.129600  1.0  0.1174
  H  H539  1  0.418700  0.489600  0.208700  1.0  0.106
  H  H540  1  0.791300  0.010400  0.581300  1.0  0.1069
  H  H541  1  0.570900  0.081300  0.790000  1.0  0.1055
  H  H542  1  0.647000  0.494400  0.086000  1.0  0.1078
  H  H543  1  0.152600  0.591600  0.505600  1.0  0.1108
  H  H544  1  0.684200  0.515600  0.896800  1.0  0.1019
  H  H545  1  0.378500  0.370400  0.086300  1.0  0.1174
  H  H546  1  0.246000  0.611300  0.643500  1.0  0.0972
  H  H547  1  0.404000  0.949300  0.837300  1.0  0.1024
  H  H548  1  0.615200  0.250000  0.384800  1.0  0.1186
  H  H549  1  0.233500  0.541700  0.807000  1.0  0.1262
  H  H550  1  0.606800  0.010600  0.706600  1.0  0.1105
  H  H551  1  0.494400  0.908400  0.847400  1.0  0.112
  H  H552  1  0.766500  0.308200  0.073500  1.0  0.1282
  H  H553  1  0.162700  0.612000  0.066700  1.0  0.104
  H  H554  1  0.339000  0.977100  0.733500  1.0  0.1164
  H  H555  1  0.710000  0.280900  0.791300  1.0  0.105
  H  H556  1  0.457000  0.249500  0.032700  1.0  0.1263
  H  H557  1  0.207500  0.783200  0.750500  1.0  0.1261
  H  H558  1  0.766500  0.105500  0.743600  1.0  0.1204
  H  H559  1  0.216400  0.048500  0.256300  1.0  0.1062
  H  H560  1  0.508100  0.629600  0.715900  1.0  0.1169
  H  H561  1  0.489400  0.893200  0.793400  1.0  0.1095
  H  H562  1  0.356500  0.467800  0.102500  1.0  0.0997
  H  H563  1  0.283600  0.743700  0.951500  1.0  0.1078
  H  H564  1  0.441600  0.886500  0.799900  1.0  0.1109
  H  H565  1  0.561000  0.914000  0.408400  1.0  0.1081
  H  H566  1  0.411300  0.640000  0.893100  1.0  0.1095
  H  H567  1  0.911300  0.018200  0.771300  1.0  0.1099
  H  H568  1  0.167900  0.960100  0.716400  1.0  0.1049
  H  H569  1  0.866100  0.630700  0.929000  1.0  0.1152
  H  H570  1  0.908400  0.561000  0.414000  1.0  0.11
  H  H571  1  0.515600  0.118800  0.831400  1.0  0.1024
  H  H572  1  0.353000  0.847400  0.939000  1.0  0.1112
  H  H573  1  0.403800  0.304000  0.010600  1.0  0.1104
  H  H574  1  0.778100  0.981400  0.714100  1.0  0.1082
  H  H575  1  0.347400  0.853000  0.439000  1.0  0.1091
  H  H576  1  0.903800  0.893200  0.099800  1.0  0.1101
  H  H577  1  0.096200  0.106800  0.900200  1.0  0.1099
  H  H578  1  0.900200  0.293400  0.304000  1.0  0.111
  H  H579  1  0.107000  0.117500  0.034500  1.0  0.1178
  H  H580  1  0.304000  0.510600  0.903800  1.0  0.1093
  H  H581  1  0.518600  0.796700  0.232700  1.0  0.1101
  H  H582  1  0.603200  0.287400  0.118800  1.0  0.1034
  H  H583  1  0.994400  0.147000  0.586000  1.0  0.1088
  H  H584  1  0.667900  0.716400  0.960100  1.0  0.1043
  H  H585  1  0.620000  0.524600  0.672800  1.0  0.1035
  H  H586  1  0.494400  0.586000  0.147000  1.0  0.1117
  H  H587  1  0.400200  0.304000  0.293400  1.0  0.1114
  H  H588  1  0.378500  0.008100  0.792200  1.0  0.1178
  H  H589  1  0.464100  0.300900  0.070000  1.0  0.106
  H  H590  1  0.143500  0.246000  0.111300  1.0  0.0973
  H  H591  1  0.749500  0.792500  0.716800  1.0  0.1287
  H  H592  1  0.070900  0.280900  0.489600  1.0  0.1044
  H  H593  1  0.292200  0.913700  0.284100  1.0  0.115
  H  H594  1  0.878500  0.086300  0.370400  1.0  0.1151
  H  H595  1  0.989500  0.917000  0.882500  1.0  0.1165
  H  H596  1  0.930000  0.730900  0.894100  1.0  0.1085
  H  H597  1  0.086600  0.700100  0.641700  1.0  0.1107
  H  H598  1  0.172800  0.620000  0.024600  1.0  0.1029
  H  H599  1  0.072500  0.107000  0.489500  1.0  0.1179
  H  H600  1  0.510600  0.403800  0.804000  1.0  0.1112
  H  H601  1  0.620000  0.095400  0.447200  1.0  0.1043
  H  H602  1  0.591600  0.586000  0.439000  1.0  0.1109
  H  H603  1  0.256400  0.394500  0.233500  1.0  0.1178
  H  H604  1  0.894500  0.756400  0.733500  1.0  0.12
  H  H605  1  0.975400  0.095400  0.648200  1.0  0.1022
  H  H606  1  0.964100  0.070000  0.300900  1.0  0.1086
  H  H607  1  0.603200  0.315800  0.984400  1.0  0.1047
  H  H608  1  0.605500  0.339000  0.861900  1.0  0.1171
  H  H609  1  0.404000  0.454700  0.066700  1.0  0.1035
  H  H610  1  0.550700  0.096000  0.662700  1.0  0.1028
  H  H611  1  0.351800  0.947200  0.827200  1.0  0.1065
  H  H612  1  0.746900  0.140000  0.728700  1.0  0.1102
  H  H613  1  0.586600  0.641700  0.700100  1.0  0.1117
  H  H614  1  0.424300  0.457000  0.707500  1.0  0.1274
  H  H615  1  0.707500  0.750500  0.783200  1.0  0.1287
  H  H616  1  0.884800  0.269600  0.634800  1.0  0.1189
  H  H617  1  0.518600  0.721900  0.785900  1.0  0.1064
  H  H618  1  0.564000  0.267300  0.285900  1.0  0.1068
  H  H619  1  0.460100  0.667900  0.216400  1.0  0.1076
  H  H620  1  0.233500  0.894500  0.256400  1.0  0.1204
  H  H621  1  0.754000  0.388700  0.356500  1.0  0.0969
  H  H622  1  0.629600  0.413700  0.121500  1.0  0.1174
  H  H623  1  0.246000  0.634700  0.102500  1.0  0.0966
  H  H624  1  0.734700  0.693000  0.426500  1.0  0.1277
  H  H625  1  0.715900  0.586300  0.707800  1.0  0.1163
  H  H626  1  0.648200  0.595400  0.975400  1.0  0.1036
  H  H627  1  0.475400  0.827200  0.880000  1.0  0.1017
  H  H628  1  0.444900  0.086600  0.886500  1.0  0.1108
  H  H629  1  0.278100  0.714100  0.981400  1.0  0.1087
  H  H630  1  0.032700  0.749500  0.457000  1.0  0.1243
  H  H631  1  0.243600  0.477100  0.138100  1.0  0.1168
  H  H632  1  0.839000  0.105500  0.361900  1.0  0.1206
  H  H633  1  0.269100  0.605900  0.570000  1.0  0.1125
  H  H634  1  0.991900  0.284100  0.370400  1.0  0.1157
  H  H635  1  0.561000  0.647000  0.652600  1.0  0.1093
  H  H636  1  0.095400  0.947200  0.120000  1.0  0.1075
  H  H637  1  0.430000  0.535900  0.199100  1.0  0.1071
  H  H638  1  0.454700  0.888000  0.050700  1.0  0.1033
  H  H639  1  0.924300  0.216800  0.967300  1.0  0.1268
  H  H640  1  0.191800  0.458300  0.265300  1.0  0.1267
  H  H641  1  0.216800  0.749500  0.292500  1.0  0.1254
  H  H642  1  0.315800  0.831400  0.712600  1.0  0.1027
  H  H643  1  0.858300  0.913400  0.799900  1.0  0.1105
  H  H644  1  0.264600  0.633900  0.062900  1.0  0.116
  H  H645  1  0.941600  0.141700  0.555100  1.0  0.1115
  H  H646  1  0.638100  0.243600  0.977100  1.0  0.1196
  H  H647  1  0.672800  0.024600  0.620000  1.0  0.1015
  H  H648  1  0.787400  0.684200  0.668600  1.0  0.1048
  H  H649  1  0.106900  0.246900  0.018200  1.0  0.1093
  H  H650  1  0.161000  0.894500  0.638100  1.0  0.1204
  H  H651  1  0.769100  0.570000  0.605900  1.0  0.1084
  H  H652  1  0.965500  0.583000  0.572500  1.0  0.1177
  H  H653  1  0.467800  0.602500  0.856500  1.0  0.0969
  H  H654  1  0.641700  0.441600  0.055100  1.0  0.1142
  H  H655  1  0.716800  0.292500  0.749500  1.0  0.1235
  H  H656  1  0.381200  0.396800  0.212600  1.0  0.1017
  H  H657  1  0.989400  0.793400  0.893200  1.0  0.1088
  H  H658  1  0.207800  0.756300  0.039900  1.0  0.1071
  H  H659  1  0.684200  0.168600  0.287400  1.0  0.1041
  H  H660  1  0.710000  0.429100  0.418700  1.0  0.1035
  H  H661  1  0.035900  0.105900  0.836800  1.0  0.1105
  H  H662  1  0.903800  0.010600  0.304000  1.0  0.1099
  H  H663  1  0.647000  0.152600  0.061000  1.0  0.1108
  H  H664  1  0.532700  0.457000  0.749500  1.0  0.1256
  H  H665  1  0.981400  0.767300  0.203300  1.0  0.1081
  H  H666  1  0.785900  0.564000  0.767300  1.0  0.1059
  H  H667  1  0.465500  0.572500  0.583000  1.0  0.1153
  H  H668  1  0.612000  0.566700  0.662700  1.0  0.1035
  H  H669  1  0.032200  0.143500  0.397500  1.0  0.0986
  H  H670  1  0.981400  0.214100  0.278100  1.0  0.1074
  H  H671  1  0.714100  0.481400  0.778100  1.0  0.1084
  H  H672  1  0.796700  0.064000  0.278100  1.0  0.1055
  H  H673  1  0.246900  0.518200  0.606900  1.0  0.1111
  H  H674  1  0.766500  0.661000  0.522900  1.0  0.1194
  H  H675  1  0.024600  0.120000  0.172800  1.0  0.1037
  H  H676  1  0.196000  0.099800  0.206600  1.0  0.11
  H  H677  1  0.075700  0.783200  0.032700  1.0  0.1257
  H  H678  1  0.924300  0.707500  0.457000  1.0  0.1232
  H  H679  1  0.764600  0.062900  0.633900  1.0  0.116
  H  H680  1  0.571000  0.133900  0.869300  1.0  0.115
  H  H681  1  0.815800  0.712600  0.831400  1.0  0.1036
  H  H682  1  0.207800  0.715900  0.086300  1.0  0.1146
  H  H683  1  0.570000  0.464100  0.800900  1.0  0.1081
  H  H684  1  0.734700  0.041700  0.808200  1.0  0.1263
  H  H685  1  0.510400  0.291300  0.081300  1.0  0.105
  H  H686  1  0.071000  0.201700  0.437100  1.0  0.1159
  H  H687  1  0.265300  0.307000  0.573500  1.0  0.1262
  H  H688  1  0.602500  0.246000  0.134700  1.0  0.0973
  H  H689  1  0.792500  0.575700  0.043000  1.0  0.1259
  H  H690  1  0.196000  0.096200  0.489400  1.0  0.11
  H  H691  1  0.894500  0.138100  0.661000  1.0  0.1186
  H  H692  1  0.489400  0.596200  0.196000  1.0  0.1115
  H  H693  1  0.700100  0.558400  0.613500  1.0  0.1137
  H  H694  1  0.869300  0.235400  0.798300  1.0  0.1166
  H  H695  1  0.716400  0.460100  0.167900  1.0  0.1054
  H  H696  1  0.091600  0.652600  0.005600  1.0  0.1093
  H  H697  1  0.668600  0.184200  0.787400  1.0  0.1002
  H  H698  1  0.193000  0.234700  0.926500  1.0  0.1291
  H  H699  1  0.661000  0.638100  0.894500  1.0  0.1201
  H  H700  1  0.298300  0.429000  0.062900  1.0  0.1138
  H  H701  1  0.066700  0.954700  0.404000  1.0  0.1029
  H  H702  1  0.944900  0.886500  0.086600  1.0  0.1091
  H  H703  1  0.115200  0.730400  0.365200  1.0  0.1173
  H  H704  1  0.715900  0.129600  0.508100  1.0  0.1139
  H  H705  1  0.489500  0.882500  0.917000  1.0  0.1196
  H  H706  1  0.712600  0.331400  0.315800  1.0  0.1025
  H  H707  1  0.951500  0.243700  0.283600  1.0  0.1084
  H  H708  1  0.699100  0.269100  0.163200  1.0  0.109
  H  H709  1  0.253100  0.860000  0.271300  1.0  0.1097
  H  H710  1  0.564000  0.296700  0.778100  1.0  0.1067
  H  H711  1  0.336800  0.300900  0.230900  1.0  0.1053
  H  H712  1  0.917000  0.534500  0.927500  1.0  0.1159
  H  H713  1  0.730400  0.865200  0.615200  1.0  0.1167
  H  H714  1  0.111300  0.365300  0.467800  1.0  0.0964
  H  H715  1  0.832100  0.792200  0.048500  1.0  0.1071
  H  H716  1  0.086000  0.091600  0.939000  1.0  0.1117
  H  H717  1  0.562900  0.298300  0.929000  1.0  0.1167
  H  H718  1  0.045300  0.096000  0.433300  1.0  0.1034
  H  H719  1  0.408400  0.414000  0.561000  1.0  0.1115
  H  H720  1  0.522900  0.161000  0.766500  1.0  0.12
  H  H721  1  0.307000  0.073500  0.765300  1.0  0.1258
  H  H722  1  0.634800  0.865200  0.250000  1.0  0.1174
  H  H723  1  0.929000  0.798300  0.562900  1.0  0.1158
  H  H724  1  0.230400  0.615200  0.865200  1.0  0.1166
  H  H725  1  0.888700  0.254000  0.856500  1.0  0.0961
  H  H726  1  0.249500  0.532700  0.957000  1.0  0.1235
  H  H727  1  0.380000  0.904600  0.552800  1.0  0.1025
  H  H728  1  0.121500  0.913700  0.629600  1.0  0.118
  H  H729  1  0.327200  0.975400  0.380000  1.0  0.103
  H  H730  1  0.783600  0.832100  0.539900  1.0  0.1059
  H  H731  1  0.184200  0.287400  0.168600  1.0  0.105
  H  H732  1  0.113500  0.413400  0.555100  1.0  0.1103
  H  H733  1  0.484400  0.881200  0.168600  1.0  0.1015
  H  H734  1  0.784100  0.292200  0.413700  1.0  0.1181
  H  H735  1  0.134700  0.388700  0.032200  1.0  0.097
  H  H736  1  0.750500  0.467300  0.043000  1.0  0.1257
  H  H737  1  0.913700  0.129600  0.621500  1.0  0.1173
  H  H738  1  0.417000  0.927500  0.534500  1.0  0.1173
  H  H739  1  0.172800  0.552800  0.648200  1.0  0.1016
  H  H740  1  0.417000  0.489500  0.382500  1.0  0.1162
  H  H741  1  0.426500  0.233500  0.191800  1.0  0.1236
  H  H742  1  0.865300  0.611300  0.967800  1.0  0.097
  H  H743  1  0.215900  0.508100  0.129600  1.0  0.1147
  H  H744  1  0.508100  0.878500  0.292200  1.0  0.1152
  H  H745  1  0.120000  0.672800  0.524600  1.0  0.1026
  H  H746  1  0.573500  0.807000  0.265300  1.0  0.127
  H  H747  1  0.957000  0.924300  0.207500  1.0  0.126
  H  H748  1  0.102500  0.967800  0.356500  1.0  0.0976
  H  H749  1  0.851800  0.827200  0.947200  1.0  0.1019
  H  H750  1  0.941600  0.799900  0.886500  1.0  0.1092
  H  H751  1  0.287400  0.618800  0.103200  1.0  0.1036
  H  H752  1  0.475400  0.648200  0.095400  1.0  0.1022
  H  H753  1  0.746000  0.643500  0.611300  1.0  0.0996
  H  H754  1  0.086300  0.870400  0.378500  1.0  0.1142
  H  H755  1  0.397500  0.643500  0.032200  1.0  0.0981
  H  H756  1  0.041700  0.733500  0.307000  1.0  0.1221
  H  H757  1  0.267300  0.481400  0.703300  1.0  0.1078
  H  H758  1  0.050700  0.388000  0.454700  1.0  0.104
  H  H759  1  0.388000  0.954700  0.550700  1.0  0.1028
  H  H760  1  0.581300  0.510400  0.791300  1.0  0.1058
  H  H761  1  0.595400  0.475400  0.148200  1.0  0.1032
  H  H762  1  0.096000  0.162700  0.050700  1.0  0.1057
  H  H763  1  0.539900  0.332100  0.783600  1.0  0.104
  H  H764  1  0.143500  0.897500  0.532200  1.0  0.0976
  H  H765  1  0.111300  0.746000  0.143500  1.0  0.0964
  H  H766  1  0.799900  0.413400  0.858300  1.0  0.1124
  H  H767  1  0.893000  0.010500  0.427500  1.0  0.1157
  H  H768  1  0.290000  0.570900  0.581300  1.0  0.1033
  H  H769  1  0.207800  0.491900  0.621500  1.0  0.1147
  H  H770  1  0.199100  0.163200  0.269100  1.0  0.108
  H  H771  1  0.989400  0.196000  0.596200  1.0  0.1102
  H  H772  1  0.086000  0.994400  0.647000  1.0  0.1107
  H  H773  1  0.221900  0.203300  0.436000  1.0  0.1086
  H  H774  1  0.481400  0.278100  0.214100  1.0  0.1053
  H  H775  1  0.018600  0.232700  0.796700  1.0  0.1085
  H  H776  1  0.771300  0.253100  0.360000  1.0  0.11
  H  H777  1  0.439000  0.353000  0.347400  1.0  0.1102
  H  H778  1  0.064000  0.778100  0.296700  1.0  0.1083
  H  H779  1  0.365300  0.967800  0.611300  1.0  0.0968
  H  H780  1  0.430000  0.894100  0.730900  1.0  0.1098
  H  H781  1  0.365200  0.230400  0.115200  1.0  0.1173
  H  H782  1  0.393100  0.981800  0.753100  1.0  0.1099
  H  H783  1  0.045300  0.949300  0.112000  1.0  0.1019
  H  H784  1  0.418700  0.929100  0.710000  1.0  0.1044
  H  H785  1  0.524600  0.351800  0.904600  1.0  0.1035
  H  H786  1  0.791300  0.780900  0.710000  1.0  0.1045
  H  H787  1  0.799900  0.386500  0.441600  1.0  0.1116
  H  H788  1  0.808200  0.541700  0.734700  1.0  0.1272
  H  H789  1  0.783200  0.532700  0.575700  1.0  0.1265
  H  H790  1  0.055100  0.113500  0.913400  1.0  0.1114
  H  H791  1  0.550700  0.454700  0.388000  1.0  0.1037
  H  H792  1  0.967800  0.111300  0.865300  1.0  0.0965
  H  H793  1  0.837300  0.388000  0.933300  1.0  0.1049
  H  H794  1  0.532700  0.075700  0.283200  1.0  0.1255
  H  H795  1  0.617500  0.010500  0.583000  1.0  0.1156
  H  H796  1  0.977100  0.743600  0.638100  1.0  0.1182
  H  H797  1  0.743600  0.605500  0.766500  1.0  0.1182
  H  H798  1  0.201700  0.937100  0.571000  1.0  0.1153
  H  H799  1  0.699100  0.430000  0.035900  1.0  0.1086
  H  H800  1  0.754000  0.365300  0.897500  1.0  0.0954
  H  H801  1  0.894100  0.230900  0.930000  1.0  0.1111
  H  H802  1  0.981800  0.728700  0.588700  1.0  0.1125
  H  H803  1  0.897500  0.865300  0.754000  1.0  0.0972
  H  H804  1  0.621500  0.629600  0.913700  1.0  0.1163
  H  H805  1  0.129600  0.008100  0.215900  1.0  0.1181
  H  H806  1  0.804000  0.900200  0.793400  1.0  0.1078
  H  H807  1  0.481800  0.893100  0.253100  1.0  0.1096
  H  H808  1  0.429000  0.562900  0.798300  1.0  0.1132
  H  H809  1  0.836800  0.605900  0.035900  1.0  0.1115
  H  H810  1  0.693000  0.926500  0.234700  1.0  0.1271
  H  H811  1  0.994400  0.847400  0.908400  1.0  0.112
  H  H812  1  0.427500  0.917000  0.034500  1.0  0.1174
  H  H813  1  0.572500  0.083000  0.965500  1.0  0.1166
  H  H814  1  0.233500  0.691800  0.926500  1.0  0.128
  H  H815  1  0.095400  0.148200  0.475400  1.0  0.1033
  H  H816  1  0.586000  0.939000  0.091600  1.0  0.1115
  H  H817  1  0.230900  0.430000  0.394100  1.0  0.1086
  H  H818  1  0.847400  0.408400  0.494400  1.0  0.1115
  H  H819  1  0.783600  0.951500  0.743700  1.0  0.1062
  H  H820  1  0.958300  0.691800  0.765300  1.0  0.1269
  H  H821  1  0.558400  0.444900  0.858300  1.0  0.1112
  H  H822  1  0.548500  0.832100  0.292200  1.0  0.105
  H  H823  1  0.522900  0.361900  0.256400  1.0  0.12
  H  H824  1  0.207800  0.451500  0.667900  1.0  0.1087
  H  H825  1  0.034500  0.417000  0.427500  1.0  0.1164
  H  H826  1  0.291300  0.581300  0.010400  1.0  0.1044
  H  H827  1  0.022900  0.766500  0.161000  1.0  0.1159
  H  H828  1  0.210000  0.791300  0.280900  1.0  0.1068
  H  H829  1  0.629600  0.215900  0.008100  1.0  0.1143
  H  H830  1  0.287400  0.668600  0.684200  1.0  0.1041
  H  H831  1  0.008100  0.715900  0.629600  1.0  0.116
  H  H832  1  0.083000  0.617500  0.510500  1.0  0.1159
  H  H833  1  0.634800  0.769600  0.884800  1.0  0.1189
  H  H834  1  0.896800  0.881200  0.712600  1.0  0.1014
  H  H835  1  0.393200  0.989400  0.293400  1.0  0.1101
  H  H836  1  0.307000  0.233500  0.041700  1.0  0.1236
  H  H837  1  0.451500  0.283600  0.243700  1.0  0.1031
  H  H838  1  0.630700  0.201700  0.764600  1.0  0.1153
  H  H839  1  0.750500  0.283200  0.207500  1.0  0.1273
  H  H840  1  0.298300  0.869300  0.735400  1.0  0.117
  H  H841  1  0.358300  0.799900  0.913400  1.0  0.1119
  H  H842  1  0.917000  0.382500  0.489500  1.0  0.1167
  H  H843  1  0.914000  0.908400  0.061000  1.0  0.1111
  H  H844  1  0.361900  0.605500  0.839000  1.0  0.1174
  H  H845  1  0.481400  0.203300  0.767300  1.0  0.1054
  H  H846  1  0.510500  0.393000  0.927500  1.0  0.1184
  H  H847  1  0.394100  0.930000  0.230900  1.0  0.1095
  H  H848  1  0.070000  0.269100  0.105900  1.0  0.1086
  H  H849  1  0.984400  0.815800  0.603200  1.0  0.1003
  H  H850  1  0.936000  0.714100  0.732700  1.0  0.1106
  H  H851  1  0.588700  0.360000  0.106900  1.0  0.1085
  H  H852  1  0.926500  0.191800  0.233500  1.0  0.1279
  H  H853  1  0.586600  0.944900  0.386500  1.0  0.1104
  H  H854  1  0.129600  0.121500  0.413700  1.0  0.1143
  H  H855  1  0.162700  0.550700  0.596000  1.0  0.1049
  H  H856  1  0.605900  0.535900  0.336800  1.0  0.1087
  H  H857  1  0.250000  0.884800  0.115200  1.0  0.1194
  H  H858  1  0.121500  0.207800  0.991900  1.0  0.1165
  H  H859  1  0.904000  0.066700  0.454700  1.0  0.1043
  H  H860  1  0.010600  0.206600  0.106800  1.0  0.11
  H  H861  1  0.548500  0.716400  0.756300  1.0  0.1055
  H  H862  1  0.292200  0.332100  0.548500  1.0  0.1064
  H  H863  1  0.545300  0.112000  0.949300  1.0  0.1029
  H  H864  1  0.130700  0.764600  0.201700  1.0  0.1164
  H  H865  1  0.382500  0.989500  0.417000  1.0  0.1158
  H  H866  1  0.815800  0.103200  0.484400  1.0  0.1032
  H  H867  1  0.708700  0.290000  0.219100  1.0  0.1029
  H  H868  1  0.397500  0.754000  0.865300  1.0  0.0961
  H  H869  1  0.393100  0.411300  0.140000  1.0  0.1105
  H  H870  1  0.256400  0.861900  0.522900  1.0  0.1186
  H  H871  1  0.716400  0.256300  0.048500  1.0  0.1076
  H  H872  1  0.356500  0.888700  0.754000  1.0  0.0964
  H  H873  1  0.792200  0.243700  0.960100  1.0  0.1081
  H  H874  1  0.570900  0.489600  0.280900  1.0  0.1059
  H  H875  1  0.661000  0.022900  0.266500  1.0  0.1169
  H  H876  1  0.118800  0.787400  0.603200  1.0  0.1041
  H  H877  1  0.707800  0.667900  0.451500  1.0  0.105
  H  H878  1  0.865300  0.254000  0.397500  1.0  0.0952
  H  H879  1  0.606800  0.596200  0.400200  1.0  0.1121
  H  H880  1  0.256300  0.707800  0.539900  1.0  0.1083
  H  H881  1  0.041700  0.308200  0.234700  1.0  0.1272
  H  H882  1  0.167900  0.207800  0.951500  1.0  0.1076
  H  H883  1  0.088700  0.106900  0.360000  1.0  0.1091
  H  H884  1  0.893000  0.882500  0.965500  1.0  0.1189
  H  H885  1  0.672800  0.648200  0.552800  1.0  0.1041
  H  H886  1  0.663200  0.964100  0.394100  1.0  0.1082
  H  H887  1  0.081300  0.290000  0.070900  1.0  0.1043
  H  H888  1  0.437100  0.701700  0.071000  1.0  0.1163
  H  H889  1  0.024600  0.904600  0.351800  1.0  0.102
  H  H890  1  0.753100  0.481800  0.393100  1.0  0.1102
  H  H891  1  0.749500  0.957000  0.532700  1.0  0.1265
  H  H892  1  0.433300  0.837300  0.888000  1.0  0.1055
  H  H893  1  0.015600  0.184200  0.396800  1.0  0.1038
  H  H894  1  0.278100  0.564000  0.796700  1.0  0.1076
  H  H895  1  0.633900  0.562900  0.764600  1.0  0.1151
  H  H896  1  0.543000  0.750500  0.967300  1.0  0.1281
  H  H897  1  0.280900  0.989600  0.570900  1.0  0.1061
  H  H898  1  0.105900  0.769100  0.070000  1.0  0.1122
  H  H899  1  0.780900  0.570900  0.989600  1.0  0.103
  H  H900  1  0.792200  0.508100  0.378500  1.0  0.1175
  H  H901  1  0.767300  0.703300  0.481400  1.0  0.1044
  H  H902  1  0.203300  0.267300  0.981400  1.0  0.1066
  H  H903  1  0.792500  0.216800  0.249500  1.0  0.1254
  H  H904  1  0.384800  0.750000  0.615200  1.0  0.1195
  H  H905  1  0.524600  0.172800  0.120000  1.0  0.1022
  H  H906  1  0.253100  0.393100  0.481800  1.0  0.1084
  H  H907  1  0.152600  0.561000  0.147000  1.0  0.1112
  H  H908  1  0.105500  0.243600  0.266500  1.0  0.1202
  H  H909  1  0.743700  0.292200  0.460100  1.0  0.1079
  H  H910  1  0.947200  0.327200  0.851800  1.0  0.1022
  H  H911  1  0.429100  0.510400  0.719100  1.0  0.1071
  H  H912  1  0.541700  0.234700  0.308200  1.0  0.129
  H  H913  1  0.605500  0.266500  0.243600  1.0  0.1174
  H  H914  1  0.300900  0.570000  0.964100  1.0  0.1076
  H  H915  1  0.292500  0.043000  0.575700  1.0  0.1267
  H  H916  1  0.800900  0.964100  0.570000  1.0  0.1079
  H  H917  1  0.804000  0.903800  0.510600  1.0  0.1107
  H  H918  1  0.767300  0.064000  0.785900  1.0  0.1074
  H  H919  1  0.105900  0.336800  0.535900  1.0  0.1092
  H  H920  1  0.964100  0.894100  0.163200  1.0  0.1094
  H  H921  1  0.396800  0.712600  0.881200  1.0  0.1045
  H  H922  1  0.954700  0.050700  0.888000  1.0  0.1026
  H  H923  1  0.575700  0.543000  0.292500  1.0  0.127
  H  H924  1  0.750000  0.634800  0.365200  1.0  0.1194
  H  H925  1  0.386500  0.444900  0.586600  1.0  0.1088
  H  H926  1  0.193000  0.958300  0.766500  1.0  0.1275
  H  H927  1  0.570000  0.105900  0.269100  1.0  0.1102
  H  H928  1  0.086300  0.215900  0.207800  1.0  0.1149
  H  H929  1  0.112000  0.662700  0.566700  1.0  0.104
  H  H930  1  0.358300  0.558400  0.944900  1.0  0.1144
  H  H931  1  0.400200  0.096200  0.606800  1.0  0.1112
  H  H932  1  0.214100  0.778100  0.481400  1.0  0.1067
  H  H933  1  0.793400  0.400200  0.804000  1.0  0.1089
  H  H934  1  0.866100  0.235400  0.437100  1.0  0.117
  H  H935  1  0.532200  0.397500  0.143500  1.0  0.097
  H  H936  1  0.965500  0.382500  0.893000  1.0  0.1174
  C  C937  1  0.854470  0.835850  0.886120  1.0  0.0237
  C  C938  1  0.135810  0.674120  0.665310  1.0  0.0731
  C  C939  1  0.883000  0.133000  0.266000  1.0  -0.0094
  C  C940  1  0.346820  0.378140  0.442520  1.0  -0.3425
  C  C941  1  0.286280  0.809660  0.314900  1.0  0.0177
  C  C942  1  0.006800  0.580100  0.961100  1.0  0.6639
  C  C943  1  0.908310  0.592650  0.070560  1.0  -0.3622
  C  C944  1  0.419900  0.538900  0.493200  1.0  0.6657
  C  C945  1  0.954200  0.209800  0.348800  1.0  0.054
  C  C946  1  0.977910  0.815660  0.907350  1.0  -0.3642
  C  C947  1  0.364190  0.334690  0.325880  1.0  0.0789
  C  C948  1  0.080100  0.573300  0.119000  1.0  0.6626
  C  C949  1  0.153600  0.714610  0.170510  1.0  0.0252
  C  C950  1  0.971380  0.685100  0.494760  1.0  0.0176
  C  C951  1  0.113880  0.664150  0.145530  1.0  0.0243
  C  C952  1  0.535680  0.117470  0.860230  1.0  -0.3551
  C  C953  1  0.529500  0.665310  0.991190  1.0  0.0773
  C  C954  1  0.869900  0.756100  0.075600  1.0  -0.0091
  C  C955  1  0.296070  0.488450  0.521100  1.0  -0.0191
  C  C956  1  0.091690  0.407350  0.929440  1.0  -0.3652
  C  C957  1  0.006800  0.426700  0.545700  1.0  0.661
  C  C958  1  0.381000  0.461100  0.954300  1.0  0.6654
  C  C959  1  0.688400  0.250000  0.311600  1.0  -0.0828
  C  C960  1  0.743900  0.630100  0.424400  1.0  -0.0177
  C  C961  1  0.476620  0.971380  0.786280  1.0  0.017
  C  C962  1  0.821700  0.762200  0.051700  1.0  -0.3481
  C  C963  1  0.954300  0.961100  0.381000  1.0  0.6639
  C  C964  1  0.645530  0.113880  0.164150  1.0  0.0237
  C  C965  1  0.993200  0.573300  0.454300  1.0  0.6635
  C  C966  1  0.374590  0.999100  0.758910  1.0  -0.3686
  C  C967  1  0.017600  0.142180  0.516160  1.0  -0.0964
  C  C968  1  0.375420  0.857820  0.373980  1.0  -0.0967
  C  C969  1  0.592650  0.022090  0.684340  1.0  -0.361
  C  C970  1  0.605400  0.954200  0.244400  1.0  0.0553
  C  C971  1  0.874590  0.115680  0.375490  1.0  -0.3697
  C  C972  1  0.709800  0.454200  0.848800  1.0  0.0532
  C  C973  1  0.557480  0.121860  0.653180  1.0  -0.3445
  C  C974  1  0.429440  0.337750  0.022090  1.0  -0.3611
  C  C975  1  0.243900  0.819500  0.113800  1.0  -0.0148
  C  C976  1  0.454200  0.348800  0.209800  1.0  0.0537
  C  C977  1  0.321700  0.051700  0.762200  1.0  -0.3464
  C  C978  1  0.209800  0.848800  0.454200  1.0  0.0558
  C  C979  1  0.499100  0.624510  0.740190  1.0  -0.3725
  C  C980  1  0.501440  0.017600  0.375420  1.0  -0.0983
  C  C981  1  0.188400  0.311600  0.250000  1.0  -0.0836
  C  C982  1  0.210500  0.440500  0.262200  1.0  -0.3464
  C  C983  1  0.050270  0.664150  0.518620  1.0  0.023
  C  C984  1  0.324550  0.464320  0.081790  1.0  -0.3568
  C  C985  1  0.038900  0.119000  0.545700  1.0  0.6662
  C  C986  1  0.785530  0.980160  0.554850  1.0  -0.3591
  C  C987  1  0.664150  0.645530  0.613880  1.0  0.0232
  C  C988  1  0.494760  0.309660  0.023380  1.0  0.0193
  C  C989  1  0.591690  0.662250  0.684340  1.0  -0.3614
  C  C990  1  0.001440  0.375420  0.017600  1.0  -0.098
  C  C991  1  0.809660  0.994760  0.523380  1.0  0.0193
  C  C992  1  0.846820  0.404300  0.968680  1.0  -0.3446
  C  C993  1  0.516910  0.455900  0.170510  1.0  0.0256
  C  C994  1  0.968350  0.113880  0.949730  1.0  0.0237
  C  C995  1  0.630100  0.705700  0.886200  1.0  -0.0084
  C  C996  1  0.714470  0.445150  0.019840  1.0  -0.3559
  C  C997  1  0.741090  0.625410  0.500900  1.0  -0.3712
  C  C998  1  0.592650  0.570560  0.408310  1.0  -0.3604
  C  C999  1  0.092650  0.408310  0.570560  1.0  -0.3617
  C  C1000  1  0.924400  0.743900  0.130100  1.0  -0.0204
  C  C1001  1  0.961690  0.635810  0.470500  1.0  0.0699
  C  C1002  1  0.178300  0.940500  0.730000  1.0  -0.347
  C  C1003  1  0.624510  0.384320  0.125410  1.0  -0.3724
  C  C1004  1  0.770000  0.821700  0.559500  1.0  -0.3458
  C  C1005  1  0.178300  0.237800  0.948300  1.0  -0.3478
  C  C1006  1  0.625410  0.000900  0.241090  1.0  -0.3694
  C  C1007  1  0.031650  0.886120  0.050270  1.0  0.0237
  C  C1008  1  0.639770  0.175450  0.757240  1.0  -0.3605
  C  C1009  1  0.170510  0.955900  0.516910  1.0  0.0308
  C  C1010  1  0.531320  0.378140  0.935620  1.0  -0.3438
  C  C1011  1  0.538310  0.008810  0.674120  1.0  0.0753
  C  C1012  1  0.694630  0.980160  0.425310  1.0  -0.3583
  C  C1013  1  0.945150  0.214470  0.519840  1.0  -0.3561
  C  C1014  1  0.057480  0.653180  0.121860  1.0  -0.3459
  C  C1015  1  0.424400  0.130100  0.743900  1.0  -0.0146
  C  C1016  1  0.550270  0.518620  0.664150  1.0  0.0222
  C  C1017  1  0.680500  0.424400  0.794300  1.0  -0.0168
  C  C1018  1  0.095700  0.442520  0.064380  1.0  -0.3468
  C  C1019  1  0.028620  0.314900  0.505240  1.0  0.0157
  C  C1020  1  0.290200  0.545800  0.151200  1.0  0.0571
  C  C1021  1  0.105400  0.244400  0.954200  1.0  0.0595
  C  C1022  1  0.319500  0.575600  0.205700  1.0  -0.0114
  C  C1023  1  0.523380  0.494760  0.809660  1.0  0.0166
  C  C1024  1  0.624580  0.142180  0.626020  1.0  -0.0971
  C  C1025  1  0.325880  0.491190  0.461690  1.0  0.0758
  C  C1026  1  0.174120  0.538310  0.508810  1.0  0.0724
  C  C1027  1  0.130100  0.886200  0.705700  1.0  -0.0093
  C  C1028  1  0.642180  0.124580  0.126020  1.0  -0.0979
  C  C1029  1  0.873980  0.498560  0.016160  1.0  -0.0977
  C  C1030  1  0.521100  0.988450  0.296070  1.0  -0.0207
  C  C1031  1  0.999100  0.258910  0.874590  1.0  -0.37
  C  C1032  1  0.035680  0.175450  0.418210  1.0  -0.3581
  C  C1033  1  0.664150  0.018620  0.550270  1.0  0.0253
  C  C1034  1  0.425310  0.480160  0.694630  1.0  -0.356
  C  C1035  1  0.032650  0.021100  0.225030  1.0  -0.0213
  C  C1036  1  0.075600  0.819500  0.705700  1.0  -0.0121
  C  C1037  1  0.294300  0.680500  0.924400  1.0  -0.0192
  C  C1038  1  0.976620  0.786280  0.971380  1.0  0.0152
  C  C1039  1  0.375420  0.517600  0.501440  1.0  -0.0989
  C  C1040  1  0.491190  0.529500  0.165310  1.0  0.0754
  C  C1041  1  0.375490  0.615680  0.874590  1.0  -0.3693
  C  C1042  1  0.045700  0.006800  0.926700  1.0  0.6635
  C  C1043  1  0.867000  0.234000  0.617000  1.0  -0.0094
  C  C1044  1  0.626020  0.642180  0.624580  1.0  -0.098
  C  C1045  1  0.829490  0.785390  0.846400  1.0  0.0264
  C  C1046  1  0.125410  0.241090  0.000900  1.0  -0.3724
  C  C1047  1  0.448300  0.178300  0.737800  1.0  -0.3457
  C  C1048  1  0.290200  0.744400  0.639000  1.0  0.0562
  C  C1049  1  0.117470  0.360230  0.035680  1.0  -0.3583
  C  C1050  1  0.988450  0.796070  0.021100  1.0  -0.019
  C  C1051  1  0.477910  0.907350  0.815660  1.0  -0.3678
  C  C1052  1  0.591690  0.929440  0.407350  1.0  -0.3584
  C  C1053  1  0.493200  0.454300  0.573300  1.0  0.6641
  C  C1054  1  0.454200  0.105400  0.744400  1.0  0.053
  C  C1055  1  0.730000  0.289500  0.051700  1.0  -0.347
  C  C1056  1  0.123200  0.061600  0.311600  1.0  -0.0835
  C  C1057  1  0.213720  0.685100  0.190340  1.0  0.0163
  C  C1058  1  0.508810  0.470500  0.834690  1.0  0.0753
  C  C1059  1  0.468350  0.949730  0.113880  1.0  0.0199
  C  C1060  1  0.491190  0.961690  0.825880  1.0  0.071
  C  C1061  1  0.115680  0.240190  0.241090  1.0  -0.3712
  C  C1062  1  0.942520  0.346820  0.878140  1.0  -0.3457
  C  C1063  1  0.674120  0.165310  0.635810  1.0  0.0747
  C  C1064  1  0.919900  0.426700  0.881000  1.0  0.6642
  C  C1065  1  0.255600  0.861000  0.209800  1.0  0.0558
  C  C1066  1  0.559500  0.237800  0.289500  1.0  -0.3484
  C  C1067  1  0.319500  0.743900  0.613800  1.0  -0.0166
  C  C1068  1  0.315660  0.477910  0.407350  1.0  -0.3605
  C  C1069  1  0.573300  0.954300  0.493200  1.0  0.6648
  C  C1070  1  0.425310  0.945150  0.230680  1.0  -0.3581
  C  C1071  1  0.059500  0.289500  0.237800  1.0  -0.3467
  C  C1072  1  0.480160  0.285530  0.054850  1.0  -0.3595
  C  C1073  1  0.971380  0.286280  0.976620  1.0  0.0151
  C  C1074  1  0.786280  0.471380  0.476620  1.0  0.0175
  C  C1075  1  0.209800  0.361000  0.255600  1.0  0.0521
  C  C1076  1  0.506800  0.961100  0.580100  1.0  0.6637
  C  C1077  1  0.789500  0.559500  0.737800  1.0  -0.344
  C  C1078  1  0.561010  0.544100  0.714610  1.0  0.0244
  C  C1079  1  0.575600  0.705700  0.819500  1.0  -0.0086
  C  C1080  1  0.289500  0.737800  0.559500  1.0  -0.3444
  C  C1081  1  0.837750  0.929440  0.522090  1.0  -0.3586
  C  C1082  1  0.670510  0.516910  0.955900  1.0  0.027
  C  C1083  1  0.468350  0.518620  0.854470  1.0  0.0215
  C  C1084  1  0.674120  0.508810  0.538310  1.0  0.0775
  C  C1085  1  0.426700  0.381000  0.419900  1.0  0.6654
  C  C1086  1  0.907350  0.591690  0.429440  1.0  -0.3609
  C  C1087  1  0.381000  0.919900  0.926700  1.0  0.6666
  C  C1088  1  0.864190  0.325880  0.334690  1.0  0.07
  C  C1089  1  0.955900  0.938990  0.785390  1.0  0.0298
  C  C1090  1  0.690340  0.213720  0.185100  1.0  0.017
  C  C1091  1  0.481380  0.835850  0.949730  1.0  0.0238
  C  C1092  1  0.230680  0.785530  0.305370  1.0  -0.3542
  C  C1093  1  0.165310  0.135810  0.174120  1.0  0.0769
  C  C1094  1  0.886120  0.550270  0.531650  1.0  0.0234
  C  C1095  1  0.570560  0.662250  0.977910  1.0  -0.3618
  C  C1096  1  0.846400  0.285390  0.829490  1.0  0.0281
  C  C1097  1  0.032650  0.011550  0.307620  1.0  -0.0211
  C  C1098  1  0.237800  0.789500  0.059500  1.0  -0.3445
  C  C1099  1  0.551700  0.730000  0.789500  1.0  -0.3428
  C  C1100  1  0.635810  0.970500  0.461690  1.0  0.0788
  C  C1101  1  0.305370  0.285530  0.230680  1.0  -0.3577
  C  C1102  1  0.011550  0.203930  0.978900  1.0  -0.0195
  C  C1103  1  0.357820  0.875420  0.873980  1.0  -0.0976
  C  C1104  1  0.786280  0.314900  0.809660  1.0  0.0172
  C  C1105  1  0.080100  0.506800  0.461100  1.0  0.6633
  C  C1106  1  0.982400  0.857820  0.483840  1.0  -0.0976
  C  C1107  1  0.285530  0.730680  0.805370  1.0  -0.3562
  C  C1108  1  0.361000  0.755600  0.709800  1.0  0.0592
  C  C1109  1  0.139770  0.382530  0.464320  1.0  -0.3574
  C  C1110  1  0.019840  0.074690  0.805370  1.0  -0.3555
  C  C1111  1  0.124510  0.999100  0.240190  1.0  -0.3686
  C  C1112  1  0.881000  0.926700  0.919900  1.0  0.6669
  C  C1113  1  0.815660  0.407350  0.477910  1.0  -0.3633
  C  C1114  1  0.386120  0.531650  0.550270  1.0  0.0237
  C  C1115  1  0.498560  0.516160  0.373980  1.0  -0.0989
  C  C1116  1  0.790200  0.151200  0.545800  1.0  0.0545
  C  C1117  1  0.145530  0.164150  0.113880  1.0  0.0233
  C  C1118  1  0.554850  0.074690  0.269320  1.0  -0.3561
  C  C1119  1  0.170510  0.214610  0.153600  1.0  0.027
  C  C1120  1  0.257240  0.639770  0.675450  1.0  -0.3581
  C  C1121  1  0.321700  0.270000  0.059500  1.0  -0.3414
  C  C1122  1  0.867000  0.633000  0.750000  1.0  -0.0133
  C  C1123  1  0.045800  0.255600  0.894600  1.0  0.0557
  C  C1124  1  0.113800  0.319500  0.243900  1.0  -0.012
  C  C1125  1  0.633000  0.250000  0.367000  1.0  -0.0115
  C  C1126  1  0.213720  0.528620  0.523380  1.0  0.0165
  C  C1127  1  0.119000  0.045700  0.538900  1.0  0.6643
  C  C1128  1  0.142180  0.016160  0.517600  1.0  -0.0982
  C  C1129  1  0.018620  0.050270  0.164150  1.0  0.0201
  C  C1130  1  0.954300  0.993200  0.073300  1.0  0.6628
  C  C1131  1  0.653180  0.621860  0.557480  1.0  -0.3444
  C  C1132  1  0.785530  0.805370  0.730680  1.0  -0.3609
  C  C1133  1  0.642180  0.517600  0.016160  1.0  -0.0973
  C  C1134  1  0.461100  0.006800  0.080100  1.0  0.6627
  C  C1135  1  0.429440  0.091690  0.907350  1.0  -0.3623
  C  C1136  1  0.815660  0.408310  0.837750  1.0  -0.3614
  C  C1137  1  0.860230  0.617470  0.535680  1.0  -0.3562
  C  C1138  1  0.785390  0.346400  0.329490  1.0  0.0253
  C  C1139  1  0.016160  0.998560  0.873980  1.0  -0.0986
  C  C1140  1  0.468680  0.846820  0.904300  1.0  -0.3461
  C  C1141  1  0.011550  0.807620  0.532650  1.0  -0.0212
  C  C1142  1  0.008810  0.834690  0.470500  1.0  0.077
  C  C1143  1  0.017600  0.875420  0.001440  1.0  -0.0969
  C  C1144  1  0.570560  0.908310  0.092650  1.0  -0.3632
  C  C1145  1  0.613880  0.468350  0.449730  1.0  0.0242
  C  C1146  1  0.250000  0.811600  0.188400  1.0  -0.0829
  C  C1147  1  0.769320  0.214470  0.694630  1.0  -0.3534
  C  C1148  1  0.758910  0.259810  0.884320  1.0  -0.3726
  C  C1149  1  0.744400  0.139000  0.790200  1.0  0.0538
  C  C1150  1  0.621860  0.057480  0.153180  1.0  -0.3457
  C  C1151  1  0.517600  0.001440  0.875420  1.0  -0.0987
  C  C1152  1  0.461100  0.454300  0.881000  1.0  0.6643
  C  C1153  1  0.692380  0.488450  0.967350  1.0  -0.0201
  C  C1154  1  0.438400  0.061600  0.750000  1.0  -0.0836
  C  C1155  1  0.994760  0.023380  0.309660  1.0  0.0158
  C  C1156  1  0.373980  0.016160  0.498560  1.0  -0.0993
  C  C1157  1  0.834690  0.970500  0.508810  1.0  0.0763
  C  C1158  1  0.467350  0.692380  0.988450  1.0  -0.0209
  C  C1159  1  0.262200  0.940500  0.210500  1.0  -0.3447
  C  C1160  1  0.755600  0.209800  0.861000  1.0  0.0561
  C  C1161  1  0.133000  0.766000  0.383000  1.0  -0.0107
  C  C1162  1  0.059500  0.770000  0.321700  1.0  -0.3414
  C  C1163  1  0.119000  0.073300  0.080100  1.0  0.6654
  C  C1164  1  0.449730  0.481380  0.335850  1.0  0.0229
  C  C1165  1  0.814900  0.528620  0.005240  1.0  0.0186
  C  C1166  1  0.692380  0.203930  0.225030  1.0  -0.0205
  C  C1167  1  0.016910  0.170510  0.455900  1.0  0.0289
  C  C1168  1  0.314900  0.005240  0.528620  1.0  0.0207
  C  C1169  1  0.185100  0.471380  0.994760  1.0  0.0177
  C  C1170  1  0.756100  0.180500  0.886200  1.0  -0.0107
  C  C1171  1  0.848800  0.894600  0.639000  1.0  0.0509
  C  C1172  1  0.756100  0.575600  0.369900  1.0  -0.022
  C  C1173  1  0.117470  0.757240  0.581790  1.0  -0.358
  C  C1174  1  0.940500  0.230000  0.678300  1.0  -0.3434
  C  C1175  1  0.785390  0.438990  0.955900  1.0  0.0272
  C  C1176  1  0.980160  0.054850  0.285530  1.0  -0.3588
  C  C1177  1  0.883000  0.750000  0.117000  1.0  -0.0115
  C  C1178  1  0.678300  0.730000  0.940500  1.0  -0.3433
  C  C1179  1  0.929440  0.022090  0.337750  1.0  -0.3613
  C  C1180  1  0.531320  0.153180  0.095700  1.0  -0.3428
  C  C1181  1  0.325880  0.834690  0.364190  1.0  0.0775
  C  C1182  1  0.364190  0.029500  0.538310  1.0  0.0749
  C  C1183  1  0.730680  0.425310  0.445150  1.0  -0.3555
  C  C1184  1  0.613800  0.243900  0.319500  1.0  -0.0091
  C  C1185  1  0.675450  0.139770  0.257240  1.0  -0.3587
  C  C1186  1  0.162250  0.070560  0.477910  1.0  -0.3607
  C  C1187  1  0.383000  0.117000  0.750000  1.0  -0.0146
  C  C1188  1  0.124510  0.125410  0.384320  1.0  -0.3714
  C  C1189  1  0.595700  0.531320  0.653180  1.0  -0.3417
  C  C1190  1  0.796070  0.274970  0.807620  1.0  -0.0196
  C  C1191  1  0.624580  0.482400  0.498560  1.0  -0.0969
  C  C1192  1  0.164150  0.613880  0.645530  1.0  0.0223
  C  C1193  1  0.551700  0.821700  0.262200  1.0  -0.3435
  C  C1194  1  0.834690  0.864190  0.825880  1.0  0.0747
  C  C1195  1  0.857820  0.983840  0.482400  1.0  -0.0995
  C  C1196  1  0.538900  0.993200  0.919900  1.0  0.6636
  C  C1197  1  0.857820  0.873980  0.875420  1.0  -0.0972
  C  C1198  1  0.750000  0.133000  0.867000  1.0  -0.0102
  C  C1199  1  0.124580  0.626020  0.142180  1.0  -0.0982
  C  C1200  1  0.531650  0.481380  0.145530  1.0  0.0231
  C  C1201  1  0.480160  0.194630  0.925310  1.0  -0.361
  C  C1202  1  0.983090  0.829490  0.544100  1.0  0.0272
  C  C1203  1  0.180500  0.386200  0.256100  1.0  -0.0117
  C  C1204  1  0.374590  0.375490  0.115680  1.0  -0.3716
  C  C1205  1  0.242760  0.918210  0.382530  1.0  -0.3591
  C  C1206  1  0.714610  0.670510  0.653600  1.0  0.0263
  C  C1207  1  0.759810  0.500900  0.875490  1.0  -0.3687
  C  C1208  1  0.205700  0.075600  0.319500  1.0  -0.0125
  C  C1209  1  0.285530  0.554850  0.980160  1.0  -0.357
  C  C1210  1  0.518620  0.164150  0.050270  1.0  0.0238
  C  C1211  1  0.051700  0.789500  0.730000  1.0  -0.3457
  C  C1212  1  0.061600  0.250000  0.938400  1.0  -0.0835
  C  C1213  1  0.790200  0.639000  0.744400  1.0  0.0557
  C  C1214  1  0.528620  0.023380  0.713720  1.0  0.0195
  C  C1215  1  0.544100  0.214610  0.061010  1.0  0.0256
  C  C1216  1  0.521100  0.532650  0.725030  1.0  -0.0201
  C  C1217  1  0.825880  0.461690  0.491190  1.0  0.0733
  C  C1218  1  0.796070  0.521100  0.488450  1.0  -0.0197
  C  C1219  1  0.894600  0.139000  0.348800  1.0  0.0548
  C  C1220  1  0.991190  0.165310  0.529500  1.0  0.0741
  C  C1221  1  0.948300  0.210500  0.270000  1.0  -0.3455
  C  C1222  1  0.573300  0.619000  0.580100  1.0  0.6628
  C  C1223  1  0.564380  0.095700  0.942520  1.0  -0.3442
  C  C1224  1  0.635810  0.665310  0.674120  1.0  0.0766
  C  C1225  1  0.038900  0.919900  0.993200  1.0  0.6654
  C  C1226  1  0.307620  0.796070  0.774970  1.0  -0.0198
  C  C1227  1  0.073300  0.493200  0.954300  1.0  0.6632
  C  C1228  1  0.307620  0.511550  0.032650  1.0  -0.02
  C  C1229  1  0.445150  0.925310  0.730680  1.0  -0.3556
  C  C1230  1  0.824550  0.081790  0.464320  1.0  -0.359
  C  C1231  1  0.617470  0.035680  0.360230  1.0  -0.3563
  C  C1232  1  0.968680  0.064380  0.621860  1.0  -0.3431
  C  C1233  1  0.286280  0.476620  0.471380  1.0  0.0175
  C  C1234  1  0.968680  0.904300  0.846820  1.0  -0.3445
  C  C1235  1  0.408310  0.337750  0.315660  1.0  -0.3616
  C  C1236  1  0.124580  0.498560  0.482400  1.0  -0.0989
  C  C1237  1  0.061600  0.811600  0.623200  1.0  -0.0829
  C  C1238  1  0.419900  0.881000  0.426700  1.0  0.6653
  C  C1239  1  0.884320  0.124510  0.625410  1.0  -0.3713
  C  C1240  1  0.554850  0.480160  0.785530  1.0  -0.3563
  C  C1241  1  0.743900  0.113800  0.819500  1.0  -0.0084
  C  C1242  1  0.258910  0.374590  0.499100  1.0  -0.3698
  C  C1243  1  0.005240  0.028620  0.814900  1.0  0.0141
  C  C1244  1  0.001440  0.626020  0.483840  1.0  -0.0995
  C  C1245  1  0.180500  0.794300  0.424400  1.0  -0.0076
  C  C1246  1  0.713720  0.190340  0.685100  1.0  0.0169
  C  C1247  1  0.725030  0.692380  0.703930  1.0  -0.022
  C  C1248  1  0.354470  0.468350  0.018620  1.0  0.0232
  C  C1249  1  0.384320  0.758910  0.759810  1.0  -0.372
  C  C1250  1  0.210500  0.770000  0.448300  1.0  -0.3419
  C  C1251  1  0.225030  0.521100  0.032650  1.0  -0.0203
  C  C1252  1  0.970500  0.008810  0.334690  1.0  0.0736
  C  C1253  1  0.250000  0.383000  0.617000  1.0  -0.0102
  C  C1254  1  0.835850  0.386120  0.354470  1.0  0.023
  C  C1255  1  0.482400  0.998560  0.124580  1.0  -0.0988
  C  C1256  1  0.559500  0.321700  0.770000  1.0  -0.3439
  C  C1257  1  0.755600  0.545800  0.394600  1.0  0.054
  C  C1258  1  0.581790  0.324550  0.964320  1.0  -0.3573
  C  C1259  1  0.145530  0.981380  0.531650  1.0  0.0268
  C  C1260  1  0.051700  0.262200  0.821700  1.0  -0.3447
  C  C1261  1  0.545700  0.926700  0.006800  1.0  0.6647
  C  C1262  1  0.766000  0.883000  0.633000  1.0  -0.0147
  C  C1263  1  0.837750  0.908310  0.815660  1.0  -0.3621
  C  C1264  1  0.964320  0.139770  0.882530  1.0  -0.357
  C  C1265  1  0.360230  0.535680  0.617470  1.0  -0.356
  C  C1266  1  0.954200  0.744400  0.105400  1.0  0.0568
  C  C1267  1  0.705700  0.386200  0.130100  1.0  -0.0126
  C  C1268  1  0.373980  0.357820  0.375420  1.0  -0.0976
  C  C1269  1  0.750000  0.617000  0.383000  1.0  -0.0084
  C  C1270  1  0.203930  0.725030  0.192380  1.0  -0.02
  C  C1271  1  0.613800  0.369900  0.794300  1.0  -0.011
  C  C1272  1  0.244400  0.790200  0.139000  1.0  0.0552
  C  C1273  1  0.894600  0.755600  0.045800  1.0  0.0564
  C  C1274  1  0.907350  0.315660  0.977910  1.0  -0.3643
  C  C1275  1  0.886200  0.205700  0.630100  1.0  -0.0167
  C  C1276  1  0.619000  0.538900  0.045700  1.0  0.6641
  C  C1277  1  0.945150  0.730680  0.925310  1.0  -0.356
  C  C1278  1  0.574690  0.519840  0.305370  1.0  -0.3558
  C  C1279  1  0.626020  0.983840  0.501440  1.0  -0.0973
  C  C1280  1  0.519840  0.805370  0.074690  1.0  -0.362
  C  C1281  1  0.617000  0.734000  0.867000  1.0  -0.0093
  C  C1282  1  0.139000  0.848800  0.394600  1.0  0.0537
  C  C1283  1  0.440500  0.762200  0.710500  1.0  -0.348
  C  C1284  1  0.665310  0.491190  0.029500  1.0  0.0742
  C  C1285  1  0.270000  0.559500  0.821700  1.0  -0.3462
  C  C1286  1  0.519840  0.714470  0.945150  1.0  -0.3572
  C  C1287  1  0.639000  0.244400  0.290200  1.0  0.0565
  C  C1288  1  0.070560  0.092650  0.908310  1.0  -0.3675
  C  C1289  1  0.064380  0.121860  0.468680  1.0  -0.3442
  C  C1290  1  0.153180  0.595700  0.031320  1.0  -0.3443
  C  C1291  1  0.016160  0.017600  0.642180  1.0  -0.0984
  C  C1292  1  0.961100  0.881000  0.454300  1.0  0.6622
  C  C1293  1  0.967350  0.988450  0.692380  1.0  -0.0212
  C  C1294  1  0.762200  0.551700  0.321700  1.0  -0.3445
  C  C1295  1  0.511550  0.978900  0.203930  1.0  -0.0211
  C  C1296  1  0.438990  0.455900  0.285390  1.0  0.0259
  C  C1297  1  0.709800  0.255600  0.361000  1.0  0.0557
  C  C1298  1  0.190340  0.005240  0.476620  1.0  0.0194
  C  C1299  1  0.500900  0.375490  0.259810  1.0  -0.371
  C  C1300  1  0.376800  0.688400  0.938400  1.0  -0.0838
  C  C1301  1  0.807620  0.774970  0.796070  1.0  -0.0211
  C  C1302  1  0.165310  0.029500  0.491190  1.0  0.0756
  C  C1303  1  0.884320  0.759810  0.758910  1.0  -0.3691
  C  C1304  1  0.378140  0.435620  0.031320  1.0  -0.3452
  C  C1305  1  0.757240  0.675450  0.639770  1.0  -0.3572
  C  C1306  1  0.869900  0.113800  0.294300  1.0  -0.0117
  C  C1307  1  0.241090  0.740190  0.115680  1.0  -0.3706
  C  C1308  1  0.875420  0.501440  0.517600  1.0  -0.0976
  C  C1309  1  0.361000  0.605400  0.151200  1.0  0.0561
  C  C1310  1  0.613880  0.145530  0.664150  1.0  0.0248
  C  C1311  1  0.121860  0.968680  0.564380  1.0  -0.3456
  C  C1312  1  0.483840  0.126020  0.001440  1.0  -0.0973
  C  C1313  1  0.274970  0.967350  0.478900  1.0  -0.0195
  C  C1314  1  0.821700  0.059500  0.270000  1.0  -0.3442
  C  C1315  1  0.825880  0.364190  0.834690  1.0  0.0703
  C  C1316  1  0.532650  0.225030  0.021100  1.0  -0.0204
  C  C1317  1  0.769320  0.554850  0.574690  1.0  -0.3555
  C  C1318  1  0.886120  0.335850  0.854470  1.0  0.0233
  C  C1319  1  0.309660  0.523380  0.994760  1.0  0.0164
  C  C1320  1  0.016910  0.846400  0.061010  1.0  0.0307
  C  C1321  1  0.926700  0.419900  0.381000  1.0  0.6641
  C  C1322  1  0.605400  0.651200  0.861000  1.0  0.0553
  C  C1323  1  0.139770  0.757240  0.175450  1.0  -0.3588
  C  C1324  1  0.230000  0.051700  0.289500  1.0  -0.3475
  C  C1325  1  0.982400  0.124580  0.998560  1.0  -0.0977
  C  C1326  1  0.464320  0.882530  0.139770  1.0  -0.3578
  C  C1327  1  0.305370  0.019840  0.574690  1.0  -0.3601
  C  C1328  1  0.770000  0.948300  0.710500  1.0  -0.3459
  C  C1329  1  0.948300  0.737800  0.178300  1.0  -0.3465
  C  C1330  1  0.633000  0.383000  0.766000  1.0  -0.0094
  C  C1331  1  0.031650  0.145530  0.481380  1.0  0.0247
  C  C1332  1  0.935620  0.878140  0.531320  1.0  -0.3444
  C  C1333  1  0.334690  0.508810  0.970500  1.0  0.0788
  C  C1334  1  0.057480  0.404300  0.435620  1.0  -0.3451
  C  C1335  1  0.561600  0.938400  0.250000  1.0  -0.0836
  C  C1336  1  0.022090  0.837750  0.429440  1.0  -0.3592
  C  C1337  1  0.449730  0.968350  0.613880  1.0  0.0233
  C  C1338  1  0.725030  0.032650  0.521100  1.0  -0.0199
  C  C1339  1  0.595700  0.064380  0.442520  1.0  -0.3426
  C  C1340  1  0.367000  0.617000  0.234000  1.0  -0.0102
  C  C1341  1  0.750000  0.188400  0.811600  1.0  -0.0831
  C  C1342  1  0.703930  0.192380  0.725030  1.0  -0.0215
  C  C1343  1  0.977910  0.162250  0.570560  1.0  -0.3601
  C  C1344  1  0.192380  0.225030  0.203930  1.0  -0.0208
  C  C1345  1  0.864190  0.538310  0.029500  1.0  0.0738
  C  C1346  1  0.625410  0.624510  0.884320  1.0  -0.3712
  C  C1347  1  0.976620  0.190340  0.505240  1.0  0.0177
  C  C1348  1  0.054850  0.785530  0.480160  1.0  -0.3545
  C  C1349  1  0.091690  0.684340  0.662250  1.0  -0.3622
  C  C1350  1  0.244400  0.454200  0.605400  1.0  0.0568
  C  C1351  1  0.904300  0.557480  0.935620  1.0  -0.3476
  C  C1352  1  0.164150  0.550270  0.018620  1.0  0.023
  C  C1353  1  0.904300  0.346820  0.468680  1.0  -0.3466
  C  C1354  1  0.978900  0.274970  0.467350  1.0  -0.019
  C  C1355  1  0.354470  0.886120  0.835850  1.0  0.0236
  C  C1356  1  0.214610  0.561010  0.044100  1.0  0.0271
  C  C1357  1  0.750000  0.561600  0.438400  1.0  -0.0829
  C  C1358  1  0.688400  0.438400  0.876800  1.0  -0.0828
  C  C1359  1  0.035680  0.860230  0.117470  1.0  -0.3581
  C  C1360  1  0.532650  0.307620  0.011550  1.0  -0.0217
  C  C1361  1  0.081790  0.117470  0.257240  1.0  -0.3558
  C  C1362  1  0.516160  0.873980  0.998560  1.0  -0.0973
  C  C1363  1  0.999100  0.740190  0.624510  1.0  -0.3735
  C  C1364  1  0.234000  0.117000  0.367000  1.0  -0.0136
  C  C1365  1  0.918210  0.882530  0.742760  1.0  -0.3572
  C  C1366  1  0.378140  0.942520  0.846820  1.0  -0.3449
  C  C1367  1  0.684340  0.162250  0.591690  1.0  -0.3612
  C  C1368  1  0.113880  0.449730  0.468350  1.0  0.023
  C  C1369  1  0.445150  0.519840  0.214470  1.0  -0.3567
  C  C1370  1  0.175450  0.257240  0.139770  1.0  -0.3589
  C  C1371  1  0.031320  0.935620  0.378140  1.0  -0.3423
  C  C1372  1  0.624510  0.240190  0.999100  1.0  -0.3695
  C  C1373  1  0.918210  0.035680  0.675450  1.0  -0.3589
  C  C1374  1  0.805370  0.574690  0.019840  1.0  -0.3555
  C  C1375  1  0.807620  0.032650  0.511550  1.0  -0.0202
  C  C1376  1  0.929440  0.907350  0.091690  1.0  -0.3657
  C  C1377  1  0.737800  0.059500  0.789500  1.0  -0.3454
  C  C1378  1  0.139000  0.290200  0.244400  1.0  0.0575
  C  C1379  1  0.919900  0.493200  0.538900  1.0  0.6634
  C  C1380  1  0.774970  0.296070  0.307620  1.0  -0.0205
  C  C1381  1  0.000900  0.259810  0.375490  1.0  -0.3704
  C  C1382  1  0.285390  0.955900  0.438990  1.0  0.03
  C  C1383  1  0.483090  0.938990  0.153600  1.0  0.0263
  C  C1384  1  0.461690  0.470500  0.635810  1.0  0.078
  C  C1385  1  0.517600  0.516160  0.142180  1.0  -0.0987
  C  C1386  1  0.981380  0.031650  0.645530  1.0  0.0228
  C  C1387  1  0.653600  0.483090  0.438990  1.0  0.0276
  C  C1388  1  0.081790  0.964320  0.324550  1.0  -0.3578
  C  C1389  1  0.438990  0.983090  0.653600  1.0  0.0273
  C  C1390  1  0.742760  0.382530  0.918210  1.0  -0.3569
  C  C1391  1  0.639770  0.464320  0.382530  1.0  -0.3553
  C  C1392  1  0.394600  0.348800  0.139000  1.0  0.0533
  C  C1393  1  0.435620  0.531320  0.878140  1.0  -0.3422
  C  C1394  1  0.861000  0.709800  0.755600  1.0  0.0553
  C  C1395  1  0.115680  0.875490  0.374590  1.0  -0.3703
  C  C1396  1  0.386200  0.630100  0.205700  1.0  -0.0096
  C  C1397  1  0.382530  0.418210  0.242760  1.0  -0.3604
  C  C1398  1  0.875490  0.874590  0.615680  1.0  -0.3695
  C  C1399  1  0.477910  0.570560  0.162250  1.0  -0.3604
  C  C1400  1  0.964320  0.824550  0.581790  1.0  -0.3607
  C  C1401  1  0.214470  0.194630  0.269320  1.0  -0.3615
  C  C1402  1  0.418210  0.742760  0.882530  1.0  -0.3593
  C  C1403  1  0.882530  0.639770  0.964320  1.0  -0.3621
  C  C1404  1  0.455900  0.785390  0.938990  1.0  0.0276
  C  C1405  1  0.653600  0.170510  0.714610  1.0  0.0295
  C  C1406  1  0.653180  0.031320  0.595700  1.0  -0.3448
  C  C1407  1  0.703930  0.511550  0.478900  1.0  -0.0189
  C  C1408  1  0.574690  0.054850  0.769320  1.0  -0.3565
  C  C1409  1  0.740190  0.124510  0.499100  1.0  -0.3703
  C  C1410  1  0.346820  0.968680  0.404300  1.0  -0.3471
  C  C1411  1  0.789500  0.230000  0.551700  1.0  -0.3424
  C  C1412  1  0.250000  0.867000  0.133000  1.0  -0.0084
  C  C1413  1  0.184340  0.591690  0.162250  1.0  -0.361
  C  C1414  1  0.482400  0.483840  0.857820  1.0  -0.0983
  C  C1415  1  0.230000  0.178300  0.440500  1.0  -0.3454
  C  C1416  1  0.117000  0.250000  0.883000  1.0  -0.0091
  C  C1417  1  0.516910  0.061010  0.846400  1.0  0.029
  C  C1418  1  0.262200  0.321700  0.551700  1.0  -0.345
  C  C1419  1  0.021100  0.296070  0.988450  1.0  -0.02
  C  C1420  1  0.151200  0.105400  0.361000  1.0  0.0558
  C  C1421  1  0.505240  0.690340  0.976620  1.0  0.0171
  C  C1422  1  0.348800  0.639000  0.894600  1.0  0.0508
  C  C1423  1  0.478900  0.011550  0.703930  1.0  -0.0205
  C  C1424  1  0.471380  0.976620  0.286280  1.0  0.0187
  C  C1425  1  0.360230  0.824550  0.242760  1.0  -0.3571
  C  C1426  1  0.908310  0.315660  0.337750  1.0  -0.3614
  C  C1427  1  0.819500  0.613800  0.743900  1.0  -0.0127
  C  C1428  1  0.545800  0.651200  0.790200  1.0  0.0539
  C  C1429  1  0.324550  0.860230  0.742760  1.0  -0.3577
  C  C1430  1  0.296070  0.807620  0.274970  1.0  -0.0199
  C  C1431  1  0.535680  0.418210  0.175450  1.0  -0.3574
  C  C1432  1  0.237800  0.448300  0.678300  1.0  -0.3447
  C  C1433  1  0.878140  0.031320  0.435620  1.0  -0.3456
  C  C1434  1  0.061010  0.714610  0.544100  1.0  0.0274
  C  C1435  1  0.023380  0.213720  0.028620  1.0  0.0163
  C  C1436  1  0.500900  0.125410  0.741090  1.0  -0.3698
  C  C1437  1  0.794300  0.869900  0.613800  1.0  -0.0144
  C  C1438  1  0.022090  0.184340  0.092650  1.0  -0.3633
  C  C1439  1  0.426700  0.045700  0.506800  1.0  0.6648
  C  C1440  1  0.194630  0.769320  0.714470  1.0  -0.3579
  C  C1441  1  0.346400  0.516910  0.561010  1.0  0.0293
  C  C1442  1  0.983090  0.153600  0.938990  1.0  0.0275
  C  C1443  1  0.483840  0.357820  0.982400  1.0  -0.0985
  C  C1444  1  0.991190  0.825880  0.961690  1.0  0.0725
  C  C1445  1  0.255600  0.394600  0.545800  1.0  0.0543
  C  C1446  1  0.967350  0.978900  0.774970  1.0  -0.0196
  C  C1447  1  0.442520  0.564380  0.595700  1.0  -0.3451
  C  C1448  1  0.242760  0.324550  0.360230  1.0  -0.3578
  C  C1449  1  0.940500  0.710500  0.762200  1.0  -0.3469
  C  C1450  1  0.044100  0.061010  0.214610  1.0  0.0259
  C  C1451  1  0.516160  0.642180  0.017600  1.0  -0.098
  C  C1452  1  0.240190  0.741090  0.615680  1.0  -0.3701
  C  C1453  1  0.044100  0.983090  0.329490  1.0  0.0257
  C  C1454  1  0.259810  0.875490  0.500900  1.0  -0.3702
  C  C1455  1  0.269320  0.694630  0.214470  1.0  -0.357
  C  C1456  1  0.105400  0.861000  0.651200  1.0  0.0546
  C  C1457  1  0.561600  0.623200  0.811600  1.0  -0.0836
  C  C1458  1  0.125410  0.884320  0.624510  1.0  -0.3707
  C  C1459  1  0.407350  0.429440  0.591690  1.0  -0.3583
  C  C1460  1  0.029500  0.991190  0.665310  1.0  0.0726
  C  C1461  1  0.506800  0.545700  0.426700  1.0  0.6649
  C  C1462  1  0.470500  0.135810  0.961690  1.0  0.0754
  C  C1463  1  0.713720  0.523380  0.528620  1.0  0.018
  C  C1464  1  0.522090  0.429440  0.837750  1.0  -0.3594
  C  C1465  1  0.955900  0.016910  0.670510  1.0  0.0277
  C  C1466  1  0.367000  0.750000  0.633000  1.0  -0.0091
  C  C1467  1  0.961690  0.325880  0.991190  1.0  0.07
  C  C1468  1  0.617470  0.581790  0.757240  1.0  -0.3563
  C  C1469  1  0.846820  0.442520  0.378140  1.0  -0.3472
  C  C1470  1  0.478900  0.467350  0.274970  1.0  -0.0205
  C  C1471  1  0.454300  0.073300  0.993200  1.0  0.6677
  C  C1472  1  0.074690  0.305370  0.519840  1.0  -0.3575
  C  C1473  1  0.334690  0.825880  0.864190  1.0  0.0704
  C  C1474  1  0.038310  0.364190  0.529500  1.0  0.0698
  C  C1475  1  0.407350  0.977910  0.315660  1.0  -0.3624
  C  C1476  1  0.794300  0.924400  0.680500  1.0  -0.0136
  C  C1477  1  0.329490  0.846400  0.785390  1.0  0.0293
  C  C1478  1  0.670510  0.153600  0.214610  1.0  0.028
  C  C1479  1  0.175450  0.918210  0.535680  1.0  -0.3591
  C  C1480  1  0.538310  0.529500  0.364190  1.0  0.0741
  C  C1481  1  0.335850  0.981380  0.449730  1.0  0.0248
  C  C1482  1  0.384320  0.625410  0.124510  1.0  -0.3704
  C  C1483  1  0.023380  0.809660  0.494760  1.0  0.0174
  C  C1484  1  0.538900  0.545700  0.119000  1.0  0.6637
  C  C1485  1  0.744400  0.605400  0.454200  1.0  0.0568
  C  C1486  1  0.741090  0.115680  0.740190  1.0  -0.3701
  C  C1487  1  0.994760  0.971380  0.185100  1.0  0.0146
  C  C1488  1  0.998560  0.373980  0.516160  1.0  -0.098
  C  C1489  1  0.561010  0.016910  0.346400  1.0  0.0276
  C  C1490  1  0.938990  0.653600  0.983090  1.0  0.0275
  C  C1491  1  0.488450  0.467350  0.192380  1.0  -0.0209
  C  C1492  1  0.241090  0.500900  0.625410  1.0  -0.3721
  C  C1493  1  0.949730  0.335850  0.481380  1.0  0.0241
  C  C1494  1  0.394600  0.045800  0.755600  1.0  0.0561
  C  C1495  1  0.938400  0.188400  0.376800  1.0  -0.0828
  C  C1496  1  0.274970  0.307620  0.296070  1.0  -0.0208
  C  C1497  1  0.621860  0.564380  0.968680  1.0  -0.3462
  C  C1498  1  0.311600  0.561600  0.123200  1.0  -0.0829
  C  C1499  1  0.762200  0.210500  0.940500  1.0  -0.3446
  C  C1500  1  0.269320  0.574690  0.554850  1.0  -0.3564
  C  C1501  1  0.774970  0.478900  0.967350  1.0  -0.0197
  C  C1502  1  0.357820  0.482400  0.983840  1.0  -0.099
  C  C1503  1  0.174120  0.635810  0.165310  1.0  0.0695
  C  C1504  1  0.881000  0.954300  0.461100  1.0  0.6646
  C  C1505  1  0.684340  0.522090  0.592650  1.0  -0.3598
  C  C1506  1  0.730680  0.305370  0.785530  1.0  -0.3579
  C  C1507  1  0.730000  0.440500  0.178300  1.0  -0.3452
  C  C1508  1  0.442520  0.878140  0.346820  1.0  -0.3441
  C  C1509  1  0.983840  0.982400  0.357820  1.0  -0.0986
  C  C1510  1  0.008810  0.174120  0.038310  1.0  0.0734
  C  C1511  1  0.876800  0.938400  0.688400  1.0  -0.0838
  C  C1512  1  0.737800  0.678300  0.448300  1.0  -0.3446
  C  C1513  1  0.225030  0.703930  0.692380  1.0  -0.0213
  C  C1514  1  0.028620  0.713720  0.023380  1.0  0.0161
  C  C1515  1  0.438400  0.376800  0.188400  1.0  -0.0852
  C  C1516  1  0.983840  0.001440  0.126020  1.0  -0.0987
  C  C1517  1  0.184340  0.592650  0.522090  1.0  -0.3634
  C  C1518  1  0.031320  0.095700  0.153180  1.0  -0.3426
  C  C1519  1  0.382530  0.964320  0.639770  1.0  -0.3591
  C  C1520  1  0.259810  0.384320  0.258910  1.0  -0.3706
  C  C1521  1  0.461690  0.991190  0.325880  1.0  0.0718
  C  C1522  1  0.135810  0.461690  0.970500  1.0  0.072
  C  C1523  1  0.829490  0.044100  0.483090  1.0  0.0291
  C  C1524  1  0.386200  0.756100  0.680500  1.0  -0.0163
  C  C1525  1  0.854470  0.018620  0.468350  1.0  0.0236
  C  C1526  1  0.346400  0.829490  0.285390  1.0  0.0297
  C  C1527  1  0.418210  0.675450  0.035680  1.0  -0.3586
  C  C1528  1  0.714470  0.269320  0.194630  1.0  -0.3554
  C  C1529  1  0.557480  0.435620  0.404300  1.0  -0.3459
  C  C1530  1  0.383000  0.266000  0.133000  1.0  -0.0107
  C  C1531  1  0.873980  0.375420  0.357820  1.0  -0.0986
  C  C1532  1  0.488450  0.021100  0.796070  1.0  -0.0195
  C  C1533  1  0.993200  0.419900  0.038900  1.0  0.6612
  C  C1534  1  0.758910  0.499100  0.374590  1.0  -0.3693
  C  C1535  1  0.185100  0.713720  0.690340  1.0  0.0191
  C  C1536  1  0.005240  0.976620  0.690340  1.0  0.0179
  C  C1537  1  0.335850  0.354470  0.386120  1.0  0.0244
  C  C1538  1  0.054850  0.269320  0.074690  1.0  -0.3566
  C  C1539  1  0.685100  0.994760  0.471380  1.0  0.0178
  C  C1540  1  0.045800  0.790200  0.651200  1.0  0.0564
  C  C1541  1  0.529500  0.864190  0.038310  1.0  0.0751
  C  C1542  1  0.074690  0.769320  0.054850  1.0  -0.3568
  C  C1543  1  0.814900  0.286280  0.309660  1.0  0.0169
  C  C1544  1  0.256100  0.886200  0.180500  1.0  -0.0174
  C  C1545  1  0.117000  0.867000  0.734000  1.0  -0.0102
  C  C1546  1  0.938990  0.285390  0.455900  1.0  0.0258
  C  C1547  1  0.499100  0.874590  0.258910  1.0  -0.3703
  C  C1548  1  0.511550  0.532650  0.807620  1.0  -0.0209
  C  C1549  1  0.924400  0.180500  0.294300  1.0  -0.0161
  C  C1550  1  0.811600  0.688400  0.750000  1.0  -0.0836
  C  C1551  1  0.133000  0.367000  0.250000  1.0  -0.0146
  C  C1552  1  0.386120  0.854470  0.335850  1.0  0.025
  C  C1553  1  0.468680  0.621860  0.064380  1.0  -0.3435
  C  C1554  1  0.483090  0.544100  0.829490  1.0  0.025
  C  C1555  1  0.000900  0.741090  0.125410  1.0  -0.3713
  C  C1556  1  0.528620  0.505240  0.314900  1.0  0.0174
  C  C1557  1  0.018620  0.968350  0.354470  1.0  0.0217
  C  C1558  1  0.680500  0.256100  0.386200  1.0  -0.0196
  C  C1559  1  0.824550  0.742760  0.860230  1.0  -0.3588
  C  C1560  1  0.404300  0.468680  0.346820  1.0  -0.3435
  C  C1561  1  0.685100  0.690340  0.713720  1.0  0.019
  C  C1562  1  0.980160  0.925310  0.194630  1.0  -0.3567
  C  C1563  1  0.126020  0.501440  0.983840  1.0  -0.0991
  C  C1564  1  0.734000  0.367000  0.117000  1.0  -0.0137
  C  C1565  1  0.470500  0.334690  0.008810  1.0  0.0781
  C  C1566  1  0.981380  0.949730  0.835850  1.0  0.021
  C  C1567  1  0.819500  0.205700  0.575600  1.0  -0.0166
  C  C1568  1  0.860230  0.242760  0.824550  1.0  -0.3589
  C  C1569  1  0.294300  0.613800  0.869900  1.0  -0.0126
  C  C1570  1  0.311600  0.750000  0.688400  1.0  -0.0835
  C  C1571  1  0.061010  0.346400  0.016910  1.0  0.0258
  C  C1572  1  0.575600  0.869900  0.256100  1.0  -0.0132
  C  C1573  1  0.113800  0.794300  0.369900  1.0  -0.0088
  C  C1574  1  0.714610  0.044100  0.561010  1.0  0.0268
  C  C1575  1  0.545800  0.894600  0.255600  1.0  0.0537
  C  C1576  1  0.925310  0.694630  0.480160  1.0  -0.3578
  C  C1577  1  0.029500  0.038310  0.864190  1.0  0.0719
  C  C1578  1  0.619000  0.080100  0.073300  1.0  0.6661
  C  C1579  1  0.467350  0.774970  0.978900  1.0  -0.0194
  C  C1580  1  0.494760  0.185100  0.971380  1.0  0.0159
  C  C1581  1  0.581790  0.257240  0.117470  1.0  -0.3582
  C  C1582  1  0.757240  0.081790  0.617470  1.0  -0.3577
  C  C1583  1  0.404300  0.935620  0.557480  1.0  -0.3421
  C  C1584  1  0.545700  0.619000  0.038900  1.0  0.6661
  C  C1585  1  0.019840  0.945150  0.714470  1.0  -0.357
  C  C1586  1  0.835850  0.449730  0.981380  1.0  0.0232
  C  C1587  1  0.424400  0.294300  0.180500  1.0  -0.0073
  C  C1588  1  0.809660  0.814900  0.786280  1.0  0.0168
  C  C1589  1  0.064380  0.942520  0.095700  1.0  -0.3461
  C  C1590  1  0.455900  0.670510  0.016910  1.0  0.0284
  C  C1591  1  0.875490  0.000900  0.759810  1.0  -0.3694
  C  C1592  1  0.194630  0.425310  0.980160  1.0  -0.3565
  C  C1593  1  0.645530  0.531650  0.981380  1.0  0.0229
  C  C1594  1  0.544100  0.329490  0.983090  1.0  0.0297
  C  C1595  1  0.315660  0.837750  0.408310  1.0  -0.3606
  C  C1596  1  0.153180  0.557480  0.621860  1.0  -0.3463
  C  C1597  1  0.878140  0.846820  0.942520  1.0  -0.3427
  C  C1598  1  0.998560  0.624580  0.982400  1.0  -0.0999
  C  C1599  1  0.348800  0.709800  0.954200  1.0  0.0566
  C  C1600  1  0.886200  0.680500  0.756100  1.0  -0.0116
  C  C1601  1  0.665310  0.174120  0.135810  1.0  0.0742
  C  C1602  1  0.740190  0.615680  0.741090  1.0  -0.371
  C  C1603  1  0.257240  0.617470  0.081790  1.0  -0.3551
  C  C1604  1  0.192380  0.967350  0.488450  1.0  -0.0212
  C  C1605  1  0.630100  0.924400  0.243900  1.0  -0.012
  C  C1606  1  0.256100  0.369900  0.575600  1.0  -0.0082
  C  C1607  1  0.615680  0.374590  0.875490  1.0  -0.3702
  C  C1608  1  0.935620  0.057480  0.904300  1.0  -0.3451
  C  C1609  1  0.846400  0.561010  0.516910  1.0  0.0257
  C  C1610  1  0.038310  0.674120  0.008810  1.0  0.0711
  C  C1611  1  0.214470  0.019840  0.445150  1.0  -0.3578
  C  C1612  1  0.369900  0.294300  0.113800  1.0  -0.0065
  C  C1613  1  0.550270  0.031650  0.386120  1.0  0.0221
  C  C1614  1  0.970500  0.961690  0.135810  1.0  0.0713
  C  C1615  1  0.092650  0.684340  0.022090  1.0  -0.3613
  C  C1616  1  0.522090  0.092650  0.184340  1.0  -0.3652
  C  C1617  1  0.440500  0.678300  0.230000  1.0  -0.3464
  C  C1618  1  0.481380  0.645530  0.031650  1.0  0.0246
  C  C1619  1  0.314900  0.309660  0.286280  1.0  0.0171
  C  C1620  1  0.518620  0.354470  0.968350  1.0  0.023
  C  C1621  1  0.285390  0.329490  0.346400  1.0  0.0285
  C  C1622  1  0.882530  0.242760  0.418210  1.0  -0.3589
  C  C1623  1  0.464320  0.581790  0.824550  1.0  -0.3599
  C  C1624  1  0.075600  0.256100  0.869900  1.0  -0.0168
  C  C1625  1  0.710500  0.262200  0.440500  1.0  -0.3462
  C  C1626  1  0.942520  0.595700  0.564380  1.0  -0.3431
  C  C1627  1  0.988450  0.192380  0.467350  1.0  -0.0198
  C  C1628  1  0.498560  0.982400  0.624580  1.0  -0.0978
  C  C1629  1  0.875420  0.373980  0.857820  1.0  -0.0976
  C  C1630  1  0.678300  0.948300  0.237800  1.0  -0.3473
  C  C1631  1  0.811600  0.123200  0.561600  1.0  -0.0836
  C  C1632  1  0.337750  0.815660  0.908310  1.0  -0.3644
  C  C1633  1  0.662250  0.477910  0.070560  1.0  -0.3602
  C  C1634  1  0.476620  0.505240  0.190340  1.0  0.02
  C  C1635  1  0.435620  0.904300  0.057480  1.0  -0.3436
  C  C1636  1  0.205700  0.130100  0.386200  1.0  -0.0129
  C  C1637  1  0.978900  0.703930  0.011550  1.0  -0.0204
  C  C1638  1  0.454300  0.381000  0.961100  1.0  0.6618
  C  C1639  1  0.289500  0.551700  0.230000  1.0  -0.3456
  C  C1640  1  0.493200  0.038900  0.419900  1.0  0.6644
  C  C1641  1  0.021100  0.725030  0.532650  1.0  -0.0194
  C  C1642  1  0.523380  0.028620  0.213720  1.0  0.0149
  C  C1643  1  0.926700  0.506800  0.045700  1.0  0.6633
  C  C1644  1  0.408310  0.070560  0.592650  1.0  -0.3591
  C  C1645  1  0.874590  0.758910  0.999100  1.0  -0.3712
  C  C1646  1  0.705700  0.319500  0.075600  1.0  -0.0121
  C  C1647  1  0.203930  0.478900  0.511550  1.0  -0.0203
  C  C1648  1  0.126020  0.624580  0.642180  1.0  -0.0976
  C  C1649  1  0.258910  0.884320  0.259810  1.0  -0.3706
  C  C1650  1  0.805370  0.230680  0.285530  1.0  -0.3576
  C  C1651  1  0.580100  0.119000  0.573300  1.0  0.6634
  C  C1652  1  0.243900  0.424400  0.630100  1.0  -0.0104
  C  C1653  1  0.329490  0.483090  0.044100  1.0  0.0283
  C  C1654  1  0.130100  0.243900  0.924400  1.0  -0.0098
  C  C1655  1  0.961100  0.080100  0.006800  1.0  0.6671
  C  C1656  1  0.045700  0.038900  0.619000  1.0  0.6639
  C  C1657  1  0.050270  0.386120  0.031650  1.0  0.0226
  C  C1658  1  0.742760  0.360230  0.324550  1.0  -0.3628
  C  C1659  1  0.949730  0.613880  0.968350  1.0  0.0226
  C  C1660  1  0.375490  0.759810  0.000900  1.0  -0.3706
  C  C1661  1  0.938400  0.750000  0.061600  1.0  -0.0828
  C  C1662  1  0.651200  0.361000  0.105400  1.0  0.0572
  C  C1663  1  0.250000  0.438400  0.561600  1.0  -0.0831
  C  C1664  1  0.337750  0.522090  0.929440  1.0  -0.3597
  C  C1665  1  0.309660  0.786280  0.814900  1.0  0.0169
  C  C1666  1  0.369900  0.075600  0.756100  1.0  -0.013
  C  C1667  1  0.615680  0.241090  0.240190  1.0  -0.372
  C  C1668  1  0.580100  0.461100  0.506800  1.0  0.6638
  C  C1669  1  0.190340  0.185100  0.213720  1.0  0.0179
  C  C1670  1  0.925310  0.230680  0.945150  1.0  -0.3567
  C  C1671  1  0.531650  0.050270  0.886120  1.0  0.0209
  C  C1672  1  0.214610  0.653600  0.670510  1.0  0.0226
  C  C1673  1  0.230680  0.445150  0.425310  1.0  -0.3564
  C  C1674  1  0.266000  0.633000  0.883000  1.0  -0.0147
  C  C1675  1  0.710500  0.448300  0.770000  1.0  -0.3451
  C  C1676  1  0.759810  0.258910  0.384320  1.0  -0.3717
  C  C1677  1  0.188400  0.876800  0.438400  1.0  -0.0852
  C  C1678  1  0.694630  0.714470  0.769320  1.0  -0.3606
  C  C1679  1  0.508810  0.038310  0.174120  1.0  0.0702
  C  C1680  1  0.662250  0.184340  0.091690  1.0  -0.3642
  C  C1681  1  0.240190  0.499100  0.124510  1.0  -0.3715
  C  C1682  1  0.617000  0.883000  0.250000  1.0  -0.0133
  C  C1683  1  0.162250  0.091690  0.184340  1.0  -0.363
  C  C1684  1  0.564380  0.468680  0.121860  1.0  -0.3427
  C  C1685  1  0.153600  0.438990  0.483090  1.0  0.0292
  C  C1686  1  0.070560  0.977910  0.662250  1.0  -0.3608
  C  C1687  1  0.861000  0.151200  0.605400  1.0  0.0571
  C  C1688  1  0.471380  0.494760  0.685100  1.0  0.0175
  C  C1689  1  0.095700  0.653180  0.531320  1.0  -0.3453
  C  C1690  1  0.121860  0.153180  0.057480  1.0  -0.3447
  C  C1691  1  0.848800  0.954200  0.709800  1.0  0.0553
  C  C1692  1  0.501440  0.483840  0.626020  1.0  -0.0979
  C  C1693  1  0.448300  0.270000  0.210500  1.0  -0.3419
  C  C1694  1  0.073300  0.580100  0.619000  1.0  0.6625
  C  C1695  1  0.690340  0.476620  0.005240  1.0  0.0185
  C  C1696  1  0.651200  0.290200  0.045800  1.0  0.0568
  C  C1697  1  0.151200  0.045800  0.290200  1.0  0.0561
  C  C1698  1  0.639000  0.394600  0.848800  1.0  0.055
  C  C1699  1  0.270000  0.710500  0.948300  1.0  -0.3459
  C  C1700  1  0.142180  0.126020  0.124580  1.0  -0.099
  C  C1701  1  0.505240  0.814900  0.028620  1.0  0.0185
  C  C1702  1  0.623200  0.311600  0.061600  1.0  -0.0835
  C  C1703  1  0.968350  0.854470  0.518620  1.0  0.0243
  C  C1704  1  0.675450  0.535680  0.918210  1.0  -0.3549
  O  O1705  1  0.457320  0.427670  0.435730  1.0  -0.6513
  O  O1706  1  0.082740  0.938730  0.000590  1.0  -0.5859
  O  O1707  1  0.355990  0.938730  0.938140  1.0  -0.5862
  O  O1708  1  0.457320  0.029650  0.521590  1.0  -0.6472
  O  O1709  1  0.500590  0.082740  0.438730  1.0  -0.5863
  O  O1710  1  0.999410  0.438140  0.582150  1.0  -0.5943
  O  O1711  1  0.000590  0.438730  0.082740  1.0  -0.594
  O  O1712  1  0.021590  0.564270  0.991940  1.0  -0.6492
  O  O1713  1  0.478410  0.470350  0.542680  1.0  -0.6494
  O  O1714  1  0.917260  0.061270  0.999410  1.0  -0.5858
  O  O1715  1  0.644010  0.582740  0.082150  1.0  -0.5907
  O  O1716  1  0.082150  0.999410  0.938140  1.0  -0.5838
  O  O1717  1  0.499410  0.917260  0.561270  1.0  -0.5903
  O  O1718  1  0.561860  0.917850  0.500590  1.0  -0.5934
  O  O1719  1  0.064270  0.521590  0.491940  1.0  -0.6501
  O  O1720  1  0.855990  0.917850  0.417260  1.0  -0.5885
  O  O1721  1  0.564270  0.072330  0.542680  1.0  -0.6508
  O  O1722  1  0.564270  0.491940  0.521590  1.0  -0.6489
  O  O1723  1  0.529650  0.957320  0.021590  1.0  -0.6492
  O  O1724  1  0.917260  0.855990  0.417850  1.0  -0.5882
  O  O1725  1  0.970350  0.978410  0.042680  1.0  -0.6495
  O  O1726  1  0.521590  0.529650  0.457320  1.0  -0.6475
  O  O1727  1  0.978410  0.435730  0.008060  1.0  -0.6493
  O  O1728  1  0.572330  0.508060  0.029650  1.0  -0.6491
  O  O1729  1  0.508060  0.978410  0.935730  1.0  -0.6495
  O  O1730  1  0.938140  0.499410  0.082150  1.0  -0.5965
  O  O1731  1  0.435730  0.927670  0.457320  1.0  -0.6525
  O  O1732  1  0.499410  0.582150  0.438140  1.0  -0.5853
  O  O1733  1  0.061270  0.561860  0.144010  1.0  -0.5942
  O  O1734  1  0.529650  0.572330  0.008060  1.0  -0.6506
  O  O1735  1  0.144010  0.061860  0.061270  1.0  -0.5863
  O  O1736  1  0.072330  0.029650  0.508060  1.0  -0.6482
  O  O1737  1  0.970350  0.991940  0.427670  1.0  -0.65
  O  O1738  1  0.500590  0.417850  0.561860  1.0  -0.5886
  O  O1739  1  0.938730  0.438140  0.855990  1.0  -0.5903
  O  O1740  1  0.417850  0.061860  0.000590  1.0  -0.586
  O  O1741  1  0.561860  0.644010  0.561270  1.0  -0.5887
  O  O1742  1  0.938140  0.438730  0.355990  1.0  -0.5901
  O  O1743  1  0.042680  0.564270  0.572330  1.0  -0.6505
  O  O1744  1  0.521590  0.991940  0.564270  1.0  -0.649
  O  O1745  1  0.072330  0.042680  0.064270  1.0  -0.6506
  O  O1746  1  0.957320  0.521590  0.029650  1.0  -0.6495
  O  O1747  1  0.438140  0.082150  0.499410  1.0  -0.5887
  O  O1748  1  0.927670  0.957320  0.935730  1.0  -0.6491
  O  O1749  1  0.935730  0.457320  0.927670  1.0  -0.6503
  O  O1750  1  0.542680  0.970350  0.478410  1.0  -0.6483
  O  O1751  1  0.917850  0.000590  0.061860  1.0  -0.5839
  O  O1752  1  0.855990  0.938140  0.938730  1.0  -0.5865
  O  O1753  1  0.008060  0.072330  0.529650  1.0  -0.6518
  O  O1754  1  0.427670  0.935730  0.957320  1.0  -0.6485
  O  O1755  1  0.572330  0.064270  0.042680  1.0  -0.6485
  O  O1756  1  0.427670  0.491940  0.970350  1.0  -0.6496
  O  O1757  1  0.000590  0.561860  0.417850  1.0  -0.5903
  O  O1758  1  0.478410  0.008060  0.435730  1.0  -0.6477
  O  O1759  1  0.082150  0.082740  0.644010  1.0  -0.5887
  O  O1760  1  0.438730  0.855990  0.438140  1.0  -0.5919
  O  O1761  1  0.417260  0.417850  0.855990  1.0  -0.5856
  O  O1762  1  0.508060  0.529650  0.072330  1.0  -0.6491
  O  O1763  1  0.935730  0.478410  0.508060  1.0  -0.6494
  O  O1764  1  0.978410  0.542680  0.470350  1.0  -0.65
  O  O1765  1  0.061860  0.500590  0.917850  1.0  -0.5934
  O  O1766  1  0.991940  0.064270  0.021590  1.0  -0.6469
  O  O1767  1  0.061860  0.561270  0.644010  1.0  -0.594
  O  O1768  1  0.491940  0.470350  0.927670  1.0  -0.6496
  O  O1769  1  0.417850  0.355990  0.917260  1.0  -0.5883
  O  O1770  1  0.029650  0.021590  0.957320  1.0  -0.6498
  O  O1771  1  0.561270  0.417260  0.499410  1.0  -0.5932
  O  O1772  1  0.021590  0.457320  0.529650  1.0  -0.6498
  O  O1773  1  0.417260  0.999410  0.061270  1.0  -0.5837
  O  O1774  1  0.470350  0.427670  0.991940  1.0  -0.652
  O  O1775  1  0.644010  0.061270  0.061860  1.0  -0.5865
  O  O1776  1  0.999410  0.561270  0.917260  1.0  -0.5903
  O  O1777  1  0.991940  0.927670  0.470350  1.0  -0.6524
  O  O1778  1  0.561270  0.144010  0.561860  1.0  -0.5882
  O  O1779  1  0.029650  0.008060  0.572330  1.0  -0.6486
  O  O1780  1  0.957320  0.435730  0.427670  1.0  -0.6503
  O  O1781  1  0.542680  0.572330  0.564270  1.0  -0.6509
  O  O1782  1  0.144010  0.082150  0.582740  1.0  -0.5912
  O  O1783  1  0.042680  0.478410  0.970350  1.0  -0.6497
  O  O1784  1  0.008060  0.935730  0.978410  1.0  -0.6474
  O  O1785  1  0.917850  0.917260  0.355990  1.0  -0.5872
  O  O1786  1  0.927670  0.970350  0.491940  1.0  -0.6492
  O  O1787  1  0.435730  0.508060  0.478410  1.0  -0.6474
  O  O1788  1  0.355990  0.417260  0.917850  1.0  -0.5894
  O  O1789  1  0.061270  0.499410  0.417260  1.0  -0.5934
  O  O1790  1  0.491940  0.021590  0.064270  1.0  -0.6495
  O  O1791  1  0.582150  0.644010  0.082740  1.0  -0.5898
  O  O1792  1  0.438730  0.582740  0.500590  1.0  -0.589
  O  O1793  1  0.438140  0.355990  0.438730  1.0  -0.593
  O  O1794  1  0.064270  0.542680  0.072330  1.0  -0.651
  O  O1795  1  0.082740  0.144010  0.582150  1.0  -0.5894
  O  O1796  1  0.582150  0.938140  0.999410  1.0  -0.5863
  O  O1797  1  0.938730  0.500590  0.582740  1.0  -0.5964
  O  O1798  1  0.582740  0.000590  0.938730  1.0  -0.5836
  O  O1799  1  0.470350  0.042680  0.978410  1.0  -0.648
  O  O1800  1  0.582740  0.582150  0.144010  1.0  -0.5883
