# generated using pymatgen
data_Cd8C53S13
_symmetry_space_group_name_H-M   'P 1'
_cell_length_a   48.44800000
_cell_length_b   48.89800000
_cell_length_c   35.85100000
_cell_angle_alpha   90.00000000
_cell_angle_beta   131.50200000
_cell_angle_gamma   90.00000000
_symmetry_Int_Tables_number   1
_chemical_formula_structural   Cd8C53S13
_chemical_formula_sum   'Cd256 C1696 S416'
_cell_volume   63607.88473821
_cell_formula_units_Z   32
loop_
 _symmetry_equiv_pos_site_id
 _symmetry_equiv_pos_as_xyz
  1  'x, y, z'
loop_
 _atom_site_type_symbol
 _atom_site_label
 _atom_site_symmetry_multiplicity
 _atom_site_fract_x
 _atom_site_fract_y
 _atom_site_fract_z
 _atom_site_occupancy
 _atom_site_charge
  Cd  Cd1  1  0.189220  0.642580  0.696960  1.0  0.5956
  Cd  Cd2  1  0.263240  0.614530  0.690290  1.0  0.6195
  Cd  Cd3  1  0.261300  0.585920  0.795320  1.0  0.5619
  Cd  Cd4  1  0.217010  0.721750  0.699760  1.0  0.6404
  Cd  Cd5  1  0.152430  0.592780  0.582720  1.0  0.6336
  Cd  Cd6  1  0.295180  0.662630  0.802060  1.0  0.5684
  Cd  Cd7  1  0.370710  0.630370  0.793930  1.0  0.652
  Cd  Cd8  1  0.372440  0.606950  0.900950  1.0  0.6499
  Cd  Cd9  1  0.156830  0.561040  0.686500  1.0  0.705
  Cd  Cd10  1  0.227220  0.536890  0.674920  1.0  0.7044
  Cd  Cd11  1  0.109070  0.694680  0.582610  1.0  0.6818
  Cd  Cd12  1  0.323060  0.742910  0.813260  1.0  0.6809
  Cd  Cd13  1  0.195700  0.674420  0.595310  1.0  0.6194
  Cd  Cd14  1  0.338410  0.556470  0.794000  1.0  0.6224
  Cd  Cd15  1  0.080660  0.619540  0.602630  1.0  0.685
  Cd  Cd16  1  0.291060  0.632810  0.908410  1.0  0.6712
  Cd  Cd17  1  0.338020  0.705860  0.928000  1.0  0.6825
  Cd  Cd18  1  0.016770  0.686150  0.565830  1.0  0.6605
  Cd  Cd19  1  0.293880  0.696750  0.697500  1.0  0.6672
  Cd  Cd20  1  0.406160  0.683740  0.903280  1.0  0.6471
  Cd  Cd21  1  0.282650  0.643210  0.603550  1.0  0.6949
  Cd  Cd22  1  0.287210  0.523230  0.430460  1.0  0.68
  Cd  Cd23  1  0.225230  0.690960  0.818370  1.0  0.6414
  Cd  Cd24  1  0.237290  0.503600  0.787280  1.0  0.6103
  Cd  Cd25  1  0.223730  0.570060  0.565570  1.0  0.6809
  Cd  Cd26  1  0.183910  0.617780  0.799890  1.0  0.6696
  Cd  Cd27  1  0.250190  0.556360  0.892790  1.0  0.6541
  Cd  Cd28  1  0.117540  0.682730  0.702950  1.0  0.5839
  Cd  Cd29  1  0.337220  0.531780  0.905510  1.0  0.6185
  Cd  Cd30  1  0.293450  0.574140  0.542100  1.0  0.6745
  Cd  Cd31  1  0.414410  0.759860  0.958990  1.0  0.6646
  Cd  Cd32  1  0.335680  0.573890  0.683330  1.0  0.6671
  Cd  Cd33  1  0.689220  0.142580  0.696960  1.0  0.5956
  Cd  Cd34  1  0.763240  0.114530  0.690290  1.0  0.6195
  Cd  Cd35  1  0.761300  0.085920  0.795320  1.0  0.5619
  Cd  Cd36  1  0.717010  0.221750  0.699760  1.0  0.6404
  Cd  Cd37  1  0.652430  0.092780  0.582720  1.0  0.6336
  Cd  Cd38  1  0.795180  0.162630  0.802060  1.0  0.5684
  Cd  Cd39  1  0.870710  0.130370  0.793930  1.0  0.652
  Cd  Cd40  1  0.872440  0.106950  0.900950  1.0  0.6499
  Cd  Cd41  1  0.656830  0.061040  0.686500  1.0  0.705
  Cd  Cd42  1  0.727220  0.036890  0.674920  1.0  0.7044
  Cd  Cd43  1  0.609070  0.194680  0.582610  1.0  0.6818
  Cd  Cd44  1  0.823060  0.242910  0.813260  1.0  0.6809
  Cd  Cd45  1  0.695700  0.174420  0.595310  1.0  0.6194
  Cd  Cd46  1  0.838410  0.056470  0.794000  1.0  0.6224
  Cd  Cd47  1  0.580660  0.119540  0.602630  1.0  0.685
  Cd  Cd48  1  0.791060  0.132810  0.908410  1.0  0.6712
  Cd  Cd49  1  0.838020  0.205860  0.928000  1.0  0.6825
  Cd  Cd50  1  0.516770  0.186150  0.565830  1.0  0.6605
  Cd  Cd51  1  0.793880  0.196750  0.697500  1.0  0.6672
  Cd  Cd52  1  0.906160  0.183740  0.903280  1.0  0.6471
  Cd  Cd53  1  0.782650  0.143210  0.603550  1.0  0.6949
  Cd  Cd54  1  0.787210  0.023230  0.430460  1.0  0.68
  Cd  Cd55  1  0.725230  0.190960  0.818370  1.0  0.6414
  Cd  Cd56  1  0.737290  0.003600  0.787280  1.0  0.6103
  Cd  Cd57  1  0.723730  0.070060  0.565570  1.0  0.6809
  Cd  Cd58  1  0.683910  0.117780  0.799890  1.0  0.6696
  Cd  Cd59  1  0.750190  0.056360  0.892790  1.0  0.6541
  Cd  Cd60  1  0.617540  0.182730  0.702950  1.0  0.5839
  Cd  Cd61  1  0.837220  0.031780  0.905510  1.0  0.6185
  Cd  Cd62  1  0.793450  0.074140  0.542100  1.0  0.6745
  Cd  Cd63  1  0.914410  0.259860  0.958990  1.0  0.6646
  Cd  Cd64  1  0.835680  0.073890  0.683330  1.0  0.6671
  Cd  Cd65  1  0.189220  0.357420  0.196960  1.0  0.5964
  Cd  Cd66  1  0.263240  0.385470  0.190290  1.0  0.6194
  Cd  Cd67  1  0.261300  0.414080  0.295320  1.0  0.5626
  Cd  Cd68  1  0.217010  0.278250  0.199760  1.0  0.6398
  Cd  Cd69  1  0.152430  0.407220  0.082720  1.0  0.6341
  Cd  Cd70  1  0.295180  0.337370  0.302060  1.0  0.5689
  Cd  Cd71  1  0.370710  0.369630  0.293930  1.0  0.6521
  Cd  Cd72  1  0.372440  0.393050  0.400950  1.0  0.6497
  Cd  Cd73  1  0.156830  0.438960  0.186500  1.0  0.7052
  Cd  Cd74  1  0.227220  0.463110  0.174920  1.0  0.7045
  Cd  Cd75  1  0.109070  0.305320  0.082610  1.0  0.6815
  Cd  Cd76  1  0.323060  0.257090  0.313260  1.0  0.6811
  Cd  Cd77  1  0.195700  0.325580  0.095310  1.0  0.6187
  Cd  Cd78  1  0.338410  0.443520  0.294000  1.0  0.6223
  Cd  Cd79  1  0.080660  0.380460  0.102630  1.0  0.6851
  Cd  Cd80  1  0.291060  0.367190  0.408410  1.0  0.6714
  Cd  Cd81  1  0.338020  0.294140  0.428000  1.0  0.6822
  Cd  Cd82  1  0.016770  0.313850  0.065830  1.0  0.6603
  Cd  Cd83  1  0.293880  0.303250  0.197500  1.0  0.6672
  Cd  Cd84  1  0.406160  0.316260  0.403280  1.0  0.6473
  Cd  Cd85  1  0.282650  0.356790  0.103550  1.0  0.6946
  Cd  Cd86  1  0.287210  0.476770  0.930460  1.0  0.6798
  Cd  Cd87  1  0.225230  0.309040  0.318370  1.0  0.6412
  Cd  Cd88  1  0.237290  0.496400  0.287280  1.0  0.611
  Cd  Cd89  1  0.223730  0.429940  0.065570  1.0  0.681
  Cd  Cd90  1  0.183910  0.382220  0.299890  1.0  0.6696
  Cd  Cd91  1  0.250190  0.443640  0.392790  1.0  0.6541
  Cd  Cd92  1  0.117540  0.317270  0.202950  1.0  0.5839
  Cd  Cd93  1  0.337220  0.468220  0.405510  1.0  0.6188
  Cd  Cd94  1  0.293450  0.425860  0.042100  1.0  0.6741
  Cd  Cd95  1  0.414410  0.240140  0.458990  1.0  0.6636
  Cd  Cd96  1  0.335680  0.426110  0.183330  1.0  0.6669
  Cd  Cd97  1  0.689220  0.857420  0.196960  1.0  0.5964
  Cd  Cd98  1  0.763240  0.885470  0.190290  1.0  0.6194
  Cd  Cd99  1  0.761300  0.914080  0.295320  1.0  0.5626
  Cd  Cd100  1  0.717010  0.778250  0.199760  1.0  0.6398
  Cd  Cd101  1  0.652430  0.907220  0.082720  1.0  0.6341
  Cd  Cd102  1  0.795180  0.837370  0.302060  1.0  0.5689
  Cd  Cd103  1  0.870710  0.869630  0.293930  1.0  0.6519
  Cd  Cd104  1  0.872440  0.893050  0.400950  1.0  0.6497
  Cd  Cd105  1  0.656830  0.938960  0.186500  1.0  0.7052
  Cd  Cd106  1  0.727220  0.963110  0.174920  1.0  0.7045
  Cd  Cd107  1  0.609070  0.805320  0.082610  1.0  0.6815
  Cd  Cd108  1  0.823060  0.757090  0.313260  1.0  0.6811
  Cd  Cd109  1  0.695700  0.825580  0.095310  1.0  0.6187
  Cd  Cd110  1  0.838410  0.943520  0.294000  1.0  0.6223
  Cd  Cd111  1  0.580660  0.880460  0.102630  1.0  0.6851
  Cd  Cd112  1  0.791060  0.867190  0.408410  1.0  0.6714
  Cd  Cd113  1  0.838020  0.794140  0.428000  1.0  0.6822
  Cd  Cd114  1  0.516770  0.813850  0.065830  1.0  0.6603
  Cd  Cd115  1  0.793880  0.803250  0.197500  1.0  0.6672
  Cd  Cd116  1  0.906160  0.816250  0.403280  1.0  0.6462
  Cd  Cd117  1  0.782650  0.856790  0.103550  1.0  0.6946
  Cd  Cd118  1  0.787210  0.976770  0.930460  1.0  0.6798
  Cd  Cd119  1  0.725230  0.809040  0.318370  1.0  0.6412
  Cd  Cd120  1  0.737290  0.996400  0.287280  1.0  0.611
  Cd  Cd121  1  0.723730  0.929930  0.065570  1.0  0.681
  Cd  Cd122  1  0.683910  0.882220  0.299890  1.0  0.6696
  Cd  Cd123  1  0.750190  0.943640  0.392790  1.0  0.6541
  Cd  Cd124  1  0.617540  0.817270  0.202950  1.0  0.5839
  Cd  Cd125  1  0.837220  0.968220  0.405510  1.0  0.6188
  Cd  Cd126  1  0.793450  0.925860  0.042100  1.0  0.6741
  Cd  Cd127  1  0.914410  0.740140  0.458990  1.0  0.6633
  Cd  Cd128  1  0.835680  0.926110  0.183330  1.0  0.6669
  Cd  Cd129  1  0.810780  0.642580  0.803040  1.0  0.5958
  Cd  Cd130  1  0.736760  0.614530  0.809710  1.0  0.6191
  Cd  Cd131  1  0.738700  0.585920  0.704680  1.0  0.5618
  Cd  Cd132  1  0.782990  0.721750  0.800240  1.0  0.6395
  Cd  Cd133  1  0.847570  0.592780  0.917280  1.0  0.6341
  Cd  Cd134  1  0.704820  0.662630  0.697940  1.0  0.5681
  Cd  Cd135  1  0.629290  0.630370  0.706070  1.0  0.6522
  Cd  Cd136  1  0.627560  0.606950  0.599050  1.0  0.6487
  Cd  Cd137  1  0.843170  0.561040  0.813500  1.0  0.7051
  Cd  Cd138  1  0.772780  0.536890  0.825080  1.0  0.7048
  Cd  Cd139  1  0.890930  0.694680  0.917390  1.0  0.6801
  Cd  Cd140  1  0.676940  0.742910  0.686740  1.0  0.6812
  Cd  Cd141  1  0.804300  0.674420  0.904690  1.0  0.619
  Cd  Cd142  1  0.661590  0.556470  0.706000  1.0  0.6222
  Cd  Cd143  1  0.919340  0.619540  0.897370  1.0  0.6849
  Cd  Cd144  1  0.708940  0.632810  0.591590  1.0  0.6716
  Cd  Cd145  1  0.661980  0.705860  0.572000  1.0  0.6813
  Cd  Cd146  1  0.983230  0.686150  0.934170  1.0  0.6599
  Cd  Cd147  1  0.706120  0.696750  0.802500  1.0  0.6654
  Cd  Cd148  1  0.593840  0.683740  0.596720  1.0  0.6473
  Cd  Cd149  1  0.717350  0.643210  0.896450  1.0  0.6952
  Cd  Cd150  1  0.712790  0.523230  0.069540  1.0  0.681
  Cd  Cd151  1  0.774770  0.690960  0.681630  1.0  0.6412
  Cd  Cd152  1  0.762710  0.503600  0.712720  1.0  0.6097
  Cd  Cd153  1  0.776270  0.570060  0.934430  1.0  0.6805
  Cd  Cd154  1  0.816090  0.617780  0.700110  1.0  0.6691
  Cd  Cd155  1  0.749810  0.556360  0.607210  1.0  0.654
  Cd  Cd156  1  0.882460  0.682730  0.797050  1.0  0.5829
  Cd  Cd157  1  0.662780  0.531780  0.594490  1.0  0.6187
  Cd  Cd158  1  0.706550  0.574140  0.957900  1.0  0.6746
  Cd  Cd159  1  0.585590  0.759860  0.541010  1.0  0.6641
  Cd  Cd160  1  0.664320  0.573890  0.816670  1.0  0.6678
  Cd  Cd161  1  0.310780  0.142580  0.803040  1.0  0.5958
  Cd  Cd162  1  0.236760  0.114530  0.809710  1.0  0.6191
  Cd  Cd163  1  0.238700  0.085920  0.704680  1.0  0.5618
  Cd  Cd164  1  0.282990  0.221750  0.800240  1.0  0.6395
  Cd  Cd165  1  0.347570  0.092780  0.917280  1.0  0.6341
  Cd  Cd166  1  0.204820  0.162630  0.697940  1.0  0.5681
  Cd  Cd167  1  0.129290  0.130370  0.706070  1.0  0.6522
  Cd  Cd168  1  0.127560  0.106950  0.599050  1.0  0.6487
  Cd  Cd169  1  0.343170  0.061040  0.813500  1.0  0.7051
  Cd  Cd170  1  0.272780  0.036890  0.825080  1.0  0.7048
  Cd  Cd171  1  0.390930  0.194680  0.917390  1.0  0.6801
  Cd  Cd172  1  0.176940  0.242910  0.686740  1.0  0.6812
  Cd  Cd173  1  0.304300  0.174420  0.904690  1.0  0.619
  Cd  Cd174  1  0.161590  0.056470  0.706000  1.0  0.6222
  Cd  Cd175  1  0.419340  0.119540  0.897370  1.0  0.6849
  Cd  Cd176  1  0.208940  0.132810  0.591590  1.0  0.6716
  Cd  Cd177  1  0.161980  0.205860  0.572000  1.0  0.6813
  Cd  Cd178  1  0.483230  0.186150  0.934170  1.0  0.6599
  Cd  Cd179  1  0.206120  0.196750  0.802500  1.0  0.6654
  Cd  Cd180  1  0.093840  0.183740  0.596720  1.0  0.6473
  Cd  Cd181  1  0.217350  0.143210  0.896450  1.0  0.6952
  Cd  Cd182  1  0.212790  0.023230  0.069540  1.0  0.681
  Cd  Cd183  1  0.274770  0.190960  0.681630  1.0  0.6412
  Cd  Cd184  1  0.262710  0.003600  0.712720  1.0  0.6097
  Cd  Cd185  1  0.276270  0.070060  0.934430  1.0  0.6805
  Cd  Cd186  1  0.316090  0.117780  0.700110  1.0  0.6691
  Cd  Cd187  1  0.249810  0.056360  0.607210  1.0  0.654
  Cd  Cd188  1  0.382460  0.182730  0.797050  1.0  0.5829
  Cd  Cd189  1  0.162780  0.031780  0.594490  1.0  0.6187
  Cd  Cd190  1  0.206550  0.074140  0.957900  1.0  0.6746
  Cd  Cd191  1  0.085590  0.259860  0.541010  1.0  0.6641
  Cd  Cd192  1  0.164320  0.073890  0.816670  1.0  0.6678
  Cd  Cd193  1  0.810780  0.357420  0.303040  1.0  0.5963
  Cd  Cd194  1  0.736760  0.385470  0.309710  1.0  0.6189
  Cd  Cd195  1  0.738700  0.414080  0.204680  1.0  0.5623
  Cd  Cd196  1  0.782990  0.278250  0.300240  1.0  0.6389
  Cd  Cd197  1  0.847570  0.407220  0.417280  1.0  0.6346
  Cd  Cd198  1  0.704820  0.337370  0.197940  1.0  0.5686
  Cd  Cd199  1  0.629290  0.369630  0.206070  1.0  0.6523
  Cd  Cd200  1  0.627560  0.393050  0.099050  1.0  0.6486
  Cd  Cd201  1  0.843170  0.438960  0.313500  1.0  0.7053
  Cd  Cd202  1  0.772780  0.463110  0.325080  1.0  0.7048
  Cd  Cd203  1  0.890930  0.305320  0.417390  1.0  0.68
  Cd  Cd204  1  0.676940  0.257090  0.186740  1.0  0.6811
  Cd  Cd205  1  0.804300  0.325580  0.404690  1.0  0.6183
  Cd  Cd206  1  0.661590  0.443530  0.206000  1.0  0.6227
  Cd  Cd207  1  0.919340  0.380460  0.397370  1.0  0.685
  Cd  Cd208  1  0.708940  0.367190  0.091590  1.0  0.6717
  Cd  Cd209  1  0.661980  0.294140  0.072000  1.0  0.681
  Cd  Cd210  1  0.983230  0.313850  0.434170  1.0  0.6597
  Cd  Cd211  1  0.706120  0.303250  0.302500  1.0  0.6655
  Cd  Cd212  1  0.593840  0.316260  0.096720  1.0  0.6474
  Cd  Cd213  1  0.717350  0.356790  0.396450  1.0  0.6948
  Cd  Cd214  1  0.712790  0.476770  0.569540  1.0  0.6808
  Cd  Cd215  1  0.774770  0.309040  0.181630  1.0  0.6409
  Cd  Cd216  1  0.762710  0.496400  0.212720  1.0  0.6103
  Cd  Cd217  1  0.776270  0.429940  0.434430  1.0  0.6807
  Cd  Cd218  1  0.816090  0.382220  0.200110  1.0  0.669
  Cd  Cd219  1  0.749810  0.443640  0.107210  1.0  0.6541
  Cd  Cd220  1  0.882460  0.317270  0.297050  1.0  0.5828
  Cd  Cd221  1  0.662780  0.468220  0.094490  1.0  0.619
  Cd  Cd222  1  0.706550  0.425860  0.457900  1.0  0.6743
  Cd  Cd223  1  0.585590  0.240140  0.041010  1.0  0.663
  Cd  Cd224  1  0.664320  0.426110  0.316670  1.0  0.6677
  Cd  Cd225  1  0.310780  0.857420  0.303040  1.0  0.5963
  Cd  Cd226  1  0.236760  0.885470  0.309710  1.0  0.6189
  Cd  Cd227  1  0.238700  0.914080  0.204680  1.0  0.5623
  Cd  Cd228  1  0.282990  0.778250  0.300240  1.0  0.6389
  Cd  Cd229  1  0.347570  0.907220  0.417280  1.0  0.6346
  Cd  Cd230  1  0.204820  0.837370  0.197940  1.0  0.5686
  Cd  Cd231  1  0.129290  0.869630  0.206070  1.0  0.6521
  Cd  Cd232  1  0.127560  0.893050  0.099050  1.0  0.6486
  Cd  Cd233  1  0.343170  0.938960  0.313500  1.0  0.7053
  Cd  Cd234  1  0.272780  0.963110  0.325080  1.0  0.7048
  Cd  Cd235  1  0.390930  0.805320  0.417390  1.0  0.68
  Cd  Cd236  1  0.176940  0.757090  0.186740  1.0  0.6811
  Cd  Cd237  1  0.304300  0.825580  0.404690  1.0  0.6183
  Cd  Cd238  1  0.161590  0.943520  0.206000  1.0  0.6224
  Cd  Cd239  1  0.419340  0.880460  0.397370  1.0  0.685
  Cd  Cd240  1  0.208940  0.867190  0.091590  1.0  0.6717
  Cd  Cd241  1  0.161980  0.794140  0.072000  1.0  0.681
  Cd  Cd242  1  0.483230  0.813850  0.434170  1.0  0.6597
  Cd  Cd243  1  0.206120  0.803250  0.302500  1.0  0.6655
  Cd  Cd244  1  0.093840  0.816250  0.096720  1.0  0.6463
  Cd  Cd245  1  0.217350  0.856790  0.396450  1.0  0.6948
  Cd  Cd246  1  0.212790  0.976770  0.569540  1.0  0.6808
  Cd  Cd247  1  0.274770  0.809040  0.181630  1.0  0.6409
  Cd  Cd248  1  0.262710  0.996400  0.212720  1.0  0.6102
  Cd  Cd249  1  0.276270  0.929930  0.434430  1.0  0.6806
  Cd  Cd250  1  0.316090  0.882220  0.200110  1.0  0.669
  Cd  Cd251  1  0.249810  0.943640  0.107210  1.0  0.6541
  Cd  Cd252  1  0.382460  0.817270  0.297050  1.0  0.5828
  Cd  Cd253  1  0.162780  0.968220  0.094490  1.0  0.619
  Cd  Cd254  1  0.206550  0.925860  0.457900  1.0  0.6743
  Cd  Cd255  1  0.085590  0.740140  0.041010  1.0  0.6628
  Cd  Cd256  1  0.164320  0.926110  0.316670  1.0  0.6677
  C  C257  1  0.334200  0.516900  0.623100  1.0  -0.0631
  C  C258  1  0.306300  0.502400  0.580500  1.0  -0.0285
  C  C259  1  0.303300  0.474300  0.583100  1.0  -0.0395
  C  C260  1  0.328200  0.460800  0.628400  1.0  -0.0494
  C  C261  1  0.356100  0.475400  0.671000  1.0  -0.0915
  C  C262  1  0.359100  0.503400  0.668400  1.0  -0.0691
  C  C263  1  0.056000  0.556300  0.602500  1.0  -0.0425
  C  C264  1  0.026900  0.546700  0.598100  1.0  -0.0796
  C  C265  1  0.999600  0.530600  0.557600  1.0  -0.086
  C  C266  1  0.001300  0.524100  0.521400  1.0  -0.0374
  C  C267  1  0.030400  0.533700  0.525800  1.0  -0.0242
  C  C268  1  0.057700  0.549800  0.566300  1.0  0.004
  C  C269  1  0.092500  0.636300  0.752200  1.0  -0.0447
  C  C270  1  0.056300  0.645600  0.718600  1.0  -0.0599
  C  C271  1  0.035600  0.647100  0.732700  1.0  -0.1098
  C  C272  1  0.051200  0.639300  0.780400  1.0  -0.0962
  C  C273  1  0.087300  0.630000  0.814000  1.0  -0.0434
  C  C274  1  0.108000  0.628500  0.799900  1.0  -0.024
  C  C275  1  0.134600  0.563310  0.475800  1.0  -0.0416
  C  C276  1  0.116900  0.567500  0.426100  1.0  -0.0633
  C  C277  1  0.093300  0.547700  0.390800  1.0  -0.1095
  C  C278  1  0.087300  0.523660  0.405300  1.0  -0.0842
  C  C279  1  0.104900  0.519470  0.455000  1.0  -0.0838
  C  C280  1  0.128600  0.539300  0.490300  1.0  -0.0283
  C  C281  1  0.415900  0.727600  0.042900  1.0  -0.0366
  C  C282  1  0.428400  0.739900  0.086700  1.0  -0.0397
  C  C283  1  0.456800  0.727900  0.132400  1.0  -0.0938
  C  C284  1  0.472600  0.703600  0.134300  1.0  -0.1056
  C  C285  1  0.460100  0.691300  0.090500  1.0  -0.0596
  C  C286  1  0.431700  0.703300  0.044800  1.0  -0.018
  C  C287  1  0.213300  0.467200  0.690600  1.0  -0.0421
  C  C288  1  0.224900  0.441000  0.691600  1.0  -0.0595
  C  C289  1  0.199100  0.421000  0.659800  1.0  -0.0475
  C  C290  1  0.161700  0.427200  0.627000  1.0  -0.0705
  C  C291  1  0.150100  0.453400  0.626000  1.0  -0.033
  C  C292  1  0.175900  0.473400  0.657800  1.0  -0.0283
  C  C293  1  0.343400  0.578000  0.513500  1.0  -0.0354
  C  C294  1  0.373300  0.561800  0.550300  1.0  -0.07
  C  C295  1  0.409000  0.571700  0.577700  1.0  -0.0684
  C  C296  1  0.414700  0.597600  0.568200  1.0  -0.0355
  C  C297  1  0.384800  0.613800  0.531300  1.0  -0.0367
  C  C298  1  0.349100  0.603900  0.504000  1.0  -0.0099
  C  C299  1  0.140000  0.496000  0.706100  1.0  -0.0258
  C  C300  1  0.143900  0.471500  0.728800  1.0  -0.0351
  C  C301  1  0.115600  0.452300  0.702900  1.0  -0.0725
  C  C302  1  0.083500  0.457700  0.654300  1.0  -0.0583
  C  C303  1  0.079600  0.482200  0.631600  1.0  -0.0453
  C  C304  1  0.107900  0.501300  0.657500  1.0  -0.0303
  C  C305  1  0.364000  0.488500  0.844700  1.0  -0.0374
  C  C306  1  0.394800  0.480800  0.892800  1.0  -0.025
  C  C307  1  0.417800  0.460200  0.900200  1.0  -0.0374
  C  C308  1  0.409900  0.447300  0.859600  1.0  -0.0631
  C  C309  1  0.379100  0.455000  0.811500  1.0  -0.0634
  C  C310  1  0.356100  0.475600  0.804000  1.0  -0.0425
  C  C311  1  0.155400  0.716000  0.810200  1.0  -0.0487
  C  C312  1  0.154200  0.692800  0.831400  1.0  -0.0167
  C  C313  1  0.145700  0.695100  0.861500  1.0  -0.0457
  C  C314  1  0.138500  0.720600  0.870400  1.0  -0.0349
  C  C315  1  0.139600  0.743900  0.849100  1.0  -0.0576
  C  C316  1  0.148100  0.741600  0.819000  1.0  -0.0288
  C  C317  1  0.058000  0.590800  0.490900  1.0  0.1032
  C  C318  1  0.025700  0.601900  0.455000  1.0  -0.0604
  C  C319  1  0.008900  0.561900  0.407500  1.0  0.4307
  C  C320  1  0.063800  0.568700  0.476500  1.0  0.1016
  C  C321  1  0.232300  0.498700  0.594000  1.0  -0.0517
  C  C322  1  0.201600  0.492900  0.544700  1.0  -0.0224
  C  C323  1  0.192900  0.465900  0.528400  1.0  -0.0252
  C  C324  1  0.214900  0.444800  0.561500  1.0  -0.0555
  C  C325  1  0.245500  0.450600  0.610800  1.0  -0.0524
  C  C326  1  0.254200  0.477600  0.627000  1.0  -0.0061
  C  C327  1  0.400900  0.533200  0.788000  1.0  -0.1102
  C  C328  1  0.424300  0.558200  0.803500  1.0  -0.0898
  C  C329  1  0.466300  0.549700  0.850700  1.0  -0.0637
  C  C330  1  0.425500  0.513700  0.832000  1.0  -0.1472
  C  C331  1  0.331600  0.682300  0.008400  1.0  -0.0928
  C  C332  1  0.294900  0.684500  0.995100  1.0  -0.0796
  C  C333  1  0.298800  0.705800  0.029000  1.0  -0.0719
  C  C334  1  0.341400  0.699800  0.077600  1.0  -0.1659
  C  C335  1  0.364800  0.685900  0.061000  1.0  -0.1446
  C  C336  1  0.423900  0.552600  0.983900  1.0  -0.0807
  C  C337  1  0.448100  0.550200  0.037300  1.0  -0.105
  C  C338  1  0.484500  0.536500  0.058800  1.0  -0.0984
  C  C339  1  0.490200  0.528800  0.027100  1.0  0.0289
  C  C340  1  0.468800  0.531400  0.977500  1.0  -0.0591
  C  C341  1  0.430500  0.543300  0.955200  1.0  0.0079
  C  C342  1  0.933800  0.689300  0.542400  1.0  -0.0729
  C  C343  1  0.957300  0.691700  0.594900  1.0  -0.0334
  C  C344  1  0.944700  0.683600  0.618200  1.0  -0.0159
  C  C345  1  0.907300  0.675000  0.592000  1.0  -0.06
  C  C346  1  0.878900  0.676000  0.535600  1.0  -0.1104
  C  C347  1  0.896000  0.683200  0.513500  1.0  0.0077
  C  C348  1  0.341100  0.759700  0.735200  1.0  -0.0627
  C  C349  1  0.255300  0.838400  0.730600  1.0  -0.0645
  C  C350  1  0.300300  0.643200  0.524300  1.0  -0.0401
  C  C351  1  0.259200  0.835300  0.695400  1.0  0.0053
  C  C352  1  0.120900  0.815900  0.572400  1.0  -0.0491
  C  C353  1  0.526500  0.667800  0.927700  1.0  -0.0576
  C  C354  1  0.138900  0.508300  0.360400  1.0  -0.0431
  C  C355  1  0.134300  0.737500  0.526700  1.0  -0.0542
  C  C356  1  0.126000  0.761800  0.499300  1.0  -0.025
  C  C357  1  0.276900  0.580500  0.006300  1.0  -0.0784
  C  C358  1  0.253900  0.813000  0.754900  1.0  -0.0888
  C  C359  1  0.264100  0.810900  0.683500  1.0  0.001
  C  C360  1  0.344400  0.853000  0.892400  1.0  -0.067
  C  C361  1  0.228500  0.684800  0.493700  1.0  -0.025
  C  C362  1  0.186600  0.499100  0.358600  1.0  -0.0554
  C  C363  1  0.538300  0.616900  0.049000  1.0  -0.0698
  C  C364  1  0.468500  0.606400  0.992700  1.0  -0.0561
  C  C365  1  0.165300  0.504600  0.412500  1.0  0.0143
  C  C366  1  0.093700  0.798600  0.561000  1.0  0.0042
  C  C367  1  0.195600  0.606000  0.455600  1.0  -0.0041
  C  C368  1  0.965900  0.667400  0.374800  1.0  -0.0553
  C  C369  1  0.174100  0.622900  0.413100  1.0  -0.1104
  C  C370  1  0.509300  0.595400  0.020700  1.0  -0.0508
  C  C371  1  0.348500  0.805200  0.880700  1.0  -0.0845
  C  C372  1  0.102300  0.773800  0.583800  1.0  0.0363
  C  C373  1  0.213200  0.731100  0.466100  1.0  -0.0276
  C  C374  1  0.507400  0.622200  0.935400  1.0  -0.0621
  C  C375  1  0.320700  0.603600  0.355200  1.0  -0.0417
  C  C376  1  0.494400  0.749100  0.886500  1.0  -0.1007
  C  C377  1  0.321000  0.798200  0.881800  1.0  -0.0638
  C  C378  1  0.319200  0.683400  0.499100  1.0  -0.0515
  C  C379  1  0.115800  0.714100  0.499600  1.0  -0.0631
  C  C380  1  0.321700  0.576200  0.338600  1.0  -0.1055
  C  C381  1  0.185400  0.617600  0.936700  1.0  -0.056
  C  C382  1  0.148400  0.506400  0.332200  1.0  -0.1011
  C  C383  1  0.171900  0.586200  0.365400  1.0  -0.0419
  C  C384  1  0.166400  0.780500  0.630400  1.0  -0.0486
  C  C385  1  0.320300  0.785800  0.661900  1.0  -0.0237
  C  C386  1  0.290100  0.675300  0.447000  1.0  -0.0356
  C  C387  1  0.083500  0.737900  0.422800  1.0  -0.0983
  C  C388  1  0.228500  0.706600  0.468900  1.0  -0.0389
  C  C389  1  0.488500  0.676900  0.896700  1.0  -0.0416
  C  C390  1  0.194000  0.608600  0.908200  1.0  0.0168
  C  C391  1  0.101100  0.761200  0.448100  1.0  -0.0055
  C  C392  1  0.319800  0.761900  0.683300  1.0  0.0035
  C  C393  1  0.163300  0.598300  0.939600  1.0  -0.045
  C  C394  1  0.262900  0.786600  0.704800  1.0  -0.0156
  C  C395  1  0.518600  0.743300  0.938900  1.0  0.0007
  C  C396  1  0.265400  0.653400  0.431800  1.0  -0.0618
  C  C397  1  0.210700  0.494700  0.410300  1.0  -0.0897
  C  C398  1  0.315400  0.846400  0.891000  1.0  -0.0523
  C  C399  1  0.362600  0.806600  0.743100  1.0  -0.0502
  C  C400  1  0.533900  0.642000  0.948800  1.0  -0.0037
  C  C401  1  0.951700  0.683100  0.390500  1.0  -0.0159
  C  C402  1  0.200100  0.497100  0.437100  1.0  0.0148
  C  C403  1  0.180100  0.585100  0.882300  1.0  -0.0953
  C  C404  1  0.415200  0.617300  0.748100  1.0  0.0885
  C  C405  1  0.199500  0.712300  0.515700  1.0  -0.0192
  C  C406  1  0.528800  0.644700  0.050800  1.0  -0.0478
  C  C407  1  0.363600  0.781900  0.766500  1.0  -0.0716
  C  C408  1  0.460700  0.658100  0.884200  1.0  -0.0955
  C  C409  1  0.463600  0.635100  0.997200  1.0  -0.0662
  C  C410  1  0.505000  0.735200  0.960000  1.0  0.0039
  C  C411  1  0.340500  0.808300  0.691400  1.0  -0.0603
  C  C412  1  0.975000  0.695200  0.437000  1.0  -0.0071
  C  C413  1  0.466700  0.732900  0.931700  1.0  -0.0873
  C  C414  1  0.090400  0.713300  0.448300  1.0  -0.0825
  C  C415  1  0.214200  0.687900  0.517800  1.0  -0.0756
  C  C416  1  0.302000  0.609300  0.370800  1.0  -0.0403
  C  C417  1  0.204100  0.579200  0.452800  1.0  -0.0689
  C  C418  1  0.012800  0.690700  0.469100  1.0  -0.0596
  C  C419  1  0.490100  0.652700  0.019100  1.0  0.0433
  C  C420  1  0.259400  0.788400  0.739600  1.0  -0.0939
  C  C421  1  0.197800  0.734400  0.489100  1.0  -0.0845
  C  C422  1  0.442700  0.739300  0.881900  1.0  -0.0059
  C  C423  1  0.137200  0.764500  0.617900  1.0  -0.0747
  C  C424  1  0.360000  0.831200  0.885100  1.0  -0.061
  C  C425  1  0.455800  0.747600  0.858300  1.0  -0.054
  C  C426  1  0.327300  0.664700  0.542500  1.0  -0.1255
  C  C427  1  0.297500  0.555700  0.334700  1.0  0.0341
  C  C428  1  0.984600  0.619400  0.515000  1.0  -0.135
  C  C429  1  0.147500  0.575000  0.913400  1.0  -0.0612
  C  C430  1  0.193500  0.568400  0.409600  1.0  -0.045
  C  C431  1  0.305500  0.820000  0.889700  1.0  -0.0753
  C  C432  1  0.157100  0.806200  0.605600  1.0  -0.0116
  C  C433  1  0.162700  0.612900  0.367000  1.0  -0.0929
  C  C434  1  0.272700  0.637800  0.471500  1.0  -0.0166
  C  C435  1  0.469200  0.631500  0.902100  1.0  -0.0358
  C  C436  1  0.277100  0.561400  0.345000  1.0  -0.0451
  C  C437  1  0.278700  0.587100  0.365900  1.0  -0.0747
  C  C438  1  0.004700  0.663400  0.406900  1.0  -0.0862
  C  C439  1  0.155600  0.567200  0.881900  1.0  -0.0736
  C  C440  1  0.028200  0.675300  0.454300  1.0  -0.0163
  C  C441  1  0.269000  0.746100  0.908600  1.0  -0.0677
  C  C442  1  0.081500  0.783000  0.691600  1.0  -0.0706
  C  C443  1  0.292000  0.756100  0.951200  1.0  0.0896
  C  C444  1  0.079700  0.754000  0.694400  1.0  -0.0613
  C  C445  1  0.033000  0.783500  0.599600  1.0  -0.0197
  C  C446  1  0.059200  0.798000  0.643600  1.0  -0.0758
  C  C447  1  0.032300  0.752800  0.602700  1.0  -0.0689
  C  C448  1  0.419400  0.718200  0.711700  1.0  -0.0693
  C  C449  1  0.391700  0.723700  0.662200  1.0  -0.0246
  C  C450  1  0.353800  0.714500  0.634700  1.0  -0.0583
  C  C451  1  0.414900  0.703800  0.742600  1.0  -0.0624
  C  C452  1  0.376700  0.694800  0.714800  1.0  0.0008
  C  C453  1  0.056600  0.740300  0.648200  1.0  -0.0537
  C  C454  1  0.348200  0.699700  0.665400  1.0  -0.088
  C  C455  1  0.298600  0.598000  0.997300  1.0  -0.0704
  C  C456  1  0.273200  0.590500  0.039900  1.0  -0.1219
  C  C457  1  0.299900  0.622800  0.025000  1.0  -0.0886
  C  C458  1  0.467000  0.522500  0.853000  1.0  -0.0655
  C  C459  1  0.959200  0.624600  0.456900  1.0  -0.0845
  C  C460  1  0.035900  0.550900  0.442000  1.0  0.256
  C  C461  1  0.384800  0.525100  0.482300  1.0  -0.0927
  C  C462  1  0.479400  0.631800  0.801400  1.0  0.0276
  C  C463  1  0.993600  0.583000  0.404000  1.0  -0.019
  C  C464  1  0.414900  0.592600  0.717000  1.0  -0.1081
  C  C465  1  0.250300  0.788700  0.927600  1.0  -0.0965
  C  C466  1  0.439100  0.630100  0.778800  1.0  0.2253
  C  C467  1  0.489100  0.611900  0.792200  1.0  -0.0758
  C  C468  1  0.288600  0.778500  0.972200  1.0  -0.0621
  C  C469  1  0.834200  0.016900  0.623100  1.0  -0.0631
  C  C470  1  0.806300  0.002400  0.580500  1.0  -0.0285
  C  C471  1  0.803300  0.974300  0.583100  1.0  -0.0395
  C  C472  1  0.828200  0.960800  0.628400  1.0  -0.0494
  C  C473  1  0.856100  0.975400  0.671000  1.0  -0.0915
  C  C474  1  0.859100  0.003400  0.668400  1.0  -0.0691
  C  C475  1  0.556000  0.056300  0.602500  1.0  -0.0425
  C  C476  1  0.526900  0.046700  0.598100  1.0  -0.0796
  C  C477  1  0.499600  0.030600  0.557600  1.0  -0.086
  C  C478  1  0.501300  0.024100  0.521400  1.0  -0.0374
  C  C479  1  0.530400  0.033700  0.525800  1.0  -0.0242
  C  C480  1  0.557700  0.049800  0.566300  1.0  0.004
  C  C481  1  0.592500  0.136300  0.752200  1.0  -0.0447
  C  C482  1  0.556300  0.145600  0.718600  1.0  -0.0599
  C  C483  1  0.535600  0.147100  0.732700  1.0  -0.1098
  C  C484  1  0.551200  0.139300  0.780400  1.0  -0.0962
  C  C485  1  0.587300  0.130000  0.814000  1.0  -0.0434
  C  C486  1  0.608000  0.128500  0.799900  1.0  -0.024
  C  C487  1  0.634600  0.063310  0.475800  1.0  -0.0416
  C  C488  1  0.616900  0.067500  0.426100  1.0  -0.0633
  C  C489  1  0.593300  0.047700  0.390800  1.0  -0.1095
  C  C490  1  0.587300  0.023660  0.405300  1.0  -0.0842
  C  C491  1  0.604900  0.019470  0.455000  1.0  -0.0838
  C  C492  1  0.628600  0.039300  0.490300  1.0  -0.0283
  C  C493  1  0.915900  0.227600  0.042900  1.0  -0.0366
  C  C494  1  0.928400  0.239900  0.086700  1.0  -0.0397
  C  C495  1  0.956800  0.227900  0.132400  1.0  -0.0938
  C  C496  1  0.972600  0.203600  0.134300  1.0  -0.1056
  C  C497  1  0.960100  0.191300  0.090500  1.0  -0.0596
  C  C498  1  0.931700  0.203300  0.044800  1.0  -0.018
  C  C499  1  0.713300  0.967200  0.690600  1.0  -0.0421
  C  C500  1  0.724900  0.941000  0.691600  1.0  -0.0595
  C  C501  1  0.699100  0.921000  0.659800  1.0  -0.0475
  C  C502  1  0.661700  0.927200  0.627000  1.0  -0.0705
  C  C503  1  0.650100  0.953400  0.626000  1.0  -0.033
  C  C504  1  0.675900  0.973400  0.657800  1.0  -0.0283
  C  C505  1  0.843400  0.078000  0.513500  1.0  -0.0354
  C  C506  1  0.873300  0.061800  0.550300  1.0  -0.07
  C  C507  1  0.909000  0.071700  0.577700  1.0  -0.0684
  C  C508  1  0.914700  0.097600  0.568200  1.0  -0.0355
  C  C509  1  0.884800  0.113800  0.531300  1.0  -0.0367
  C  C510  1  0.849100  0.103900  0.504000  1.0  -0.0099
  C  C511  1  0.640000  0.996000  0.706100  1.0  -0.0258
  C  C512  1  0.643900  0.971500  0.728800  1.0  -0.0351
  C  C513  1  0.615600  0.952300  0.702900  1.0  -0.0725
  C  C514  1  0.583500  0.957700  0.654300  1.0  -0.0583
  C  C515  1  0.579600  0.982200  0.631600  1.0  -0.0453
  C  C516  1  0.607900  0.001300  0.657500  1.0  -0.0303
  C  C517  1  0.864000  0.988500  0.844700  1.0  -0.0374
  C  C518  1  0.894800  0.980800  0.892800  1.0  -0.025
  C  C519  1  0.917800  0.960200  0.900200  1.0  -0.0374
  C  C520  1  0.909900  0.947300  0.859600  1.0  -0.0631
  C  C521  1  0.879100  0.955000  0.811500  1.0  -0.0634
  C  C522  1  0.856100  0.975600  0.804000  1.0  -0.0425
  C  C523  1  0.655400  0.216000  0.810200  1.0  -0.0487
  C  C524  1  0.654200  0.192800  0.831400  1.0  -0.0167
  C  C525  1  0.645700  0.195100  0.861500  1.0  -0.0457
  C  C526  1  0.638500  0.220600  0.870400  1.0  -0.0349
  C  C527  1  0.639600  0.243900  0.849100  1.0  -0.0576
  C  C528  1  0.648100  0.241600  0.819000  1.0  -0.0288
  C  C529  1  0.558000  0.090800  0.490900  1.0  0.1032
  C  C530  1  0.525700  0.101900  0.455000  1.0  -0.0604
  C  C531  1  0.508900  0.061900  0.407500  1.0  0.4307
  C  C532  1  0.563800  0.068700  0.476500  1.0  0.1016
  C  C533  1  0.732300  0.998700  0.594000  1.0  -0.0517
  C  C534  1  0.701600  0.992900  0.544700  1.0  -0.0224
  C  C535  1  0.692900  0.965900  0.528400  1.0  -0.0252
  C  C536  1  0.714900  0.944800  0.561500  1.0  -0.0555
  C  C537  1  0.745500  0.950600  0.610800  1.0  -0.0524
  C  C538  1  0.754200  0.977600  0.627000  1.0  -0.0061
  C  C539  1  0.900900  0.033200  0.788000  1.0  -0.1102
  C  C540  1  0.924300  0.058200  0.803500  1.0  -0.0898
  C  C541  1  0.966300  0.049700  0.850700  1.0  -0.0637
  C  C542  1  0.925500  0.013700  0.832000  1.0  -0.1472
  C  C543  1  0.831600  0.182300  0.008400  1.0  -0.0928
  C  C544  1  0.794900  0.184500  0.995100  1.0  -0.0796
  C  C545  1  0.798800  0.205800  0.029000  1.0  -0.0719
  C  C546  1  0.841400  0.199800  0.077600  1.0  -0.1659
  C  C547  1  0.864800  0.185900  0.061000  1.0  -0.1446
  C  C548  1  0.923900  0.052600  0.983900  1.0  -0.0807
  C  C549  1  0.948100  0.050200  0.037300  1.0  -0.105
  C  C550  1  0.984500  0.036500  0.058800  1.0  -0.0984
  C  C551  1  0.990200  0.028800  0.027100  1.0  0.0289
  C  C552  1  0.968800  0.031400  0.977500  1.0  -0.0591
  C  C553  1  0.930500  0.043300  0.955200  1.0  0.0079
  C  C554  1  0.433800  0.189300  0.542400  1.0  -0.0729
  C  C555  1  0.457300  0.191700  0.594900  1.0  -0.0334
  C  C556  1  0.444700  0.183600  0.618200  1.0  -0.0159
  C  C557  1  0.407300  0.175000  0.592000  1.0  -0.06
  C  C558  1  0.378900  0.176000  0.535600  1.0  -0.1104
  C  C559  1  0.396000  0.183200  0.513500  1.0  0.0077
  C  C560  1  0.841100  0.259700  0.735200  1.0  -0.0627
  C  C561  1  0.755300  0.338400  0.730600  1.0  -0.0645
  C  C562  1  0.800300  0.143200  0.524300  1.0  -0.0401
  C  C563  1  0.759200  0.335300  0.695400  1.0  0.0053
  C  C564  1  0.620900  0.315900  0.572400  1.0  -0.0491
  C  C565  1  0.026500  0.167800  0.927700  1.0  -0.0576
  C  C566  1  0.638900  0.008300  0.360400  1.0  -0.0431
  C  C567  1  0.634300  0.237500  0.526700  1.0  -0.0542
  C  C568  1  0.626000  0.261800  0.499300  1.0  -0.025
  C  C569  1  0.776900  0.080500  0.006300  1.0  -0.0784
  C  C570  1  0.753900  0.313000  0.754900  1.0  -0.0888
  C  C571  1  0.764100  0.310900  0.683500  1.0  0.001
  C  C572  1  0.844400  0.353000  0.892400  1.0  -0.067
  C  C573  1  0.728500  0.184800  0.493700  1.0  -0.025
  C  C574  1  0.686600  0.999100  0.358600  1.0  -0.0554
  C  C575  1  0.038300  0.116900  0.049000  1.0  -0.0698
  C  C576  1  0.968500  0.106400  0.992700  1.0  -0.0561
  C  C577  1  0.665300  0.004600  0.412500  1.0  0.0143
  C  C578  1  0.593700  0.298600  0.561000  1.0  0.0042
  C  C579  1  0.695600  0.106000  0.455600  1.0  -0.0041
  C  C580  1  0.465900  0.167400  0.374800  1.0  -0.0553
  C  C581  1  0.674100  0.122900  0.413100  1.0  -0.1104
  C  C582  1  0.009300  0.095400  0.020700  1.0  -0.0508
  C  C583  1  0.848500  0.305200  0.880700  1.0  -0.0845
  C  C584  1  0.602300  0.273800  0.583800  1.0  0.0363
  C  C585  1  0.713200  0.231100  0.466100  1.0  -0.0276
  C  C586  1  0.007400  0.122200  0.935400  1.0  -0.0621
  C  C587  1  0.820700  0.103600  0.355200  1.0  -0.0417
  C  C588  1  0.994400  0.249100  0.886500  1.0  -0.1007
  C  C589  1  0.821000  0.298200  0.881800  1.0  -0.0638
  C  C590  1  0.819200  0.183400  0.499100  1.0  -0.0515
  C  C591  1  0.615800  0.214100  0.499600  1.0  -0.0631
  C  C592  1  0.821700  0.076200  0.338600  1.0  -0.1055
  C  C593  1  0.685400  0.117600  0.936700  1.0  -0.056
  C  C594  1  0.648400  0.006400  0.332200  1.0  -0.1011
  C  C595  1  0.671900  0.086200  0.365400  1.0  -0.0419
  C  C596  1  0.666400  0.280500  0.630400  1.0  -0.0486
  C  C597  1  0.820300  0.285800  0.661900  1.0  -0.0237
  C  C598  1  0.790100  0.175300  0.447000  1.0  -0.0356
  C  C599  1  0.583500  0.237900  0.422800  1.0  -0.0983
  C  C600  1  0.728500  0.206600  0.468900  1.0  -0.0389
  C  C601  1  0.988500  0.176900  0.896700  1.0  -0.0416
  C  C602  1  0.694000  0.108600  0.908200  1.0  0.0168
  C  C603  1  0.601100  0.261200  0.448100  1.0  -0.0055
  C  C604  1  0.819800  0.261900  0.683300  1.0  0.0035
  C  C605  1  0.663300  0.098300  0.939600  1.0  -0.045
  C  C606  1  0.762900  0.286600  0.704800  1.0  -0.0156
  C  C607  1  0.018600  0.243300  0.938900  1.0  0.0007
  C  C608  1  0.765400  0.153400  0.431800  1.0  -0.0618
  C  C609  1  0.710700  0.994700  0.410300  1.0  -0.0897
  C  C610  1  0.815400  0.346400  0.891000  1.0  -0.0523
  C  C611  1  0.862600  0.306600  0.743100  1.0  -0.0502
  C  C612  1  0.033900  0.142000  0.948800  1.0  -0.0037
  C  C613  1  0.451700  0.183100  0.390500  1.0  -0.0159
  C  C614  1  0.700100  0.997100  0.437100  1.0  0.0148
  C  C615  1  0.680100  0.085100  0.882300  1.0  -0.0953
  C  C616  1  0.915200  0.117300  0.748100  1.0  0.0885
  C  C617  1  0.699500  0.212300  0.515700  1.0  -0.0192
  C  C618  1  0.028800  0.144700  0.050800  1.0  -0.0478
  C  C619  1  0.863600  0.281900  0.766500  1.0  -0.0716
  C  C620  1  0.960700  0.158100  0.884200  1.0  -0.0955
  C  C621  1  0.963600  0.135100  0.997200  1.0  -0.0662
  C  C622  1  0.005000  0.235200  0.960000  1.0  0.0039
  C  C623  1  0.840500  0.308300  0.691400  1.0  -0.0603
  C  C624  1  0.475000  0.195200  0.437000  1.0  -0.0071
  C  C625  1  0.966700  0.232900  0.931700  1.0  -0.0873
  C  C626  1  0.590400  0.213300  0.448300  1.0  -0.0825
  C  C627  1  0.714200  0.187900  0.517800  1.0  -0.0756
  C  C628  1  0.802000  0.109300  0.370800  1.0  -0.0403
  C  C629  1  0.704100  0.079200  0.452800  1.0  -0.0689
  C  C630  1  0.512800  0.190700  0.469100  1.0  -0.0596
  C  C631  1  0.990100  0.152700  0.019100  1.0  0.0433
  C  C632  1  0.759400  0.288400  0.739600  1.0  -0.0939
  C  C633  1  0.697800  0.234400  0.489100  1.0  -0.0845
  C  C634  1  0.942700  0.239300  0.881900  1.0  -0.0059
  C  C635  1  0.637200  0.264500  0.617900  1.0  -0.0747
  C  C636  1  0.860000  0.331200  0.885100  1.0  -0.061
  C  C637  1  0.955800  0.247600  0.858300  1.0  -0.054
  C  C638  1  0.827300  0.164700  0.542500  1.0  -0.1255
  C  C639  1  0.797500  0.055700  0.334700  1.0  0.0341
  C  C640  1  0.484600  0.119400  0.515000  1.0  -0.135
  C  C641  1  0.647500  0.075000  0.913400  1.0  -0.0612
  C  C642  1  0.693500  0.068400  0.409600  1.0  -0.045
  C  C643  1  0.805500  0.320000  0.889700  1.0  -0.0753
  C  C644  1  0.657100  0.306200  0.605600  1.0  -0.0116
  C  C645  1  0.662700  0.112900  0.367000  1.0  -0.0929
  C  C646  1  0.772700  0.137800  0.471500  1.0  -0.0166
  C  C647  1  0.969200  0.131500  0.902100  1.0  -0.0358
  C  C648  1  0.777100  0.061400  0.345000  1.0  -0.0451
  C  C649  1  0.778700  0.087100  0.365900  1.0  -0.0747
  C  C650  1  0.504700  0.163400  0.406900  1.0  -0.0862
  C  C651  1  0.655600  0.067200  0.881900  1.0  -0.0736
  C  C652  1  0.528200  0.175300  0.454300  1.0  -0.0163
  C  C653  1  0.769000  0.246100  0.908600  1.0  -0.0677
  C  C654  1  0.581500  0.283000  0.691600  1.0  -0.0706
  C  C655  1  0.792000  0.256100  0.951200  1.0  0.0896
  C  C656  1  0.579700  0.254000  0.694400  1.0  -0.0613
  C  C657  1  0.533000  0.283500  0.599600  1.0  -0.0197
  C  C658  1  0.559200  0.298000  0.643600  1.0  -0.0758
  C  C659  1  0.532300  0.252800  0.602700  1.0  -0.0689
  C  C660  1  0.919400  0.218200  0.711700  1.0  -0.0693
  C  C661  1  0.891700  0.223700  0.662200  1.0  -0.0246
  C  C662  1  0.853800  0.214500  0.634700  1.0  -0.0583
  C  C663  1  0.914900  0.203800  0.742600  1.0  -0.0624
  C  C664  1  0.876700  0.194800  0.714800  1.0  0.0008
  C  C665  1  0.556600  0.240300  0.648200  1.0  -0.0537
  C  C666  1  0.848200  0.199700  0.665400  1.0  -0.088
  C  C667  1  0.798600  0.098000  0.997300  1.0  -0.0704
  C  C668  1  0.773200  0.090500  0.039900  1.0  -0.1219
  C  C669  1  0.799900  0.122800  0.025000  1.0  -0.0886
  C  C670  1  0.967000  0.022500  0.853000  1.0  -0.0655
  C  C671  1  0.459200  0.124600  0.456900  1.0  -0.0845
  C  C672  1  0.535900  0.050900  0.442000  1.0  0.256
  C  C673  1  0.884800  0.025100  0.482300  1.0  -0.0927
  C  C674  1  0.979400  0.131800  0.801400  1.0  0.0276
  C  C675  1  0.493600  0.083000  0.404000  1.0  -0.019
  C  C676  1  0.914900  0.092600  0.717000  1.0  -0.1081
  C  C677  1  0.750300  0.288700  0.927600  1.0  -0.0965
  C  C678  1  0.939100  0.130100  0.778800  1.0  0.2253
  C  C679  1  0.989100  0.111900  0.792200  1.0  -0.0758
  C  C680  1  0.788600  0.278500  0.972200  1.0  -0.0621
  C  C681  1  0.334200  0.483100  0.123100  1.0  -0.0658
  C  C682  1  0.306300  0.497600  0.080500  1.0  -0.0297
  C  C683  1  0.303300  0.525700  0.083100  1.0  -0.0373
  C  C684  1  0.328200  0.539200  0.128400  1.0  -0.0494
  C  C685  1  0.356100  0.524600  0.171000  1.0  -0.0926
  C  C686  1  0.359100  0.496600  0.168400  1.0  -0.0693
  C  C687  1  0.056000  0.443700  0.102500  1.0  -0.0434
  C  C688  1  0.026900  0.453300  0.098100  1.0  -0.0794
  C  C689  1  0.999600  0.469400  0.057600  1.0  -0.0851
  C  C690  1  0.001300  0.475900  0.021400  1.0  -0.0371
  C  C691  1  0.030400  0.466300  0.025800  1.0  -0.0236
  C  C692  1  0.057700  0.450200  0.066300  1.0  0.0034
  C  C693  1  0.092500  0.363700  0.252200  1.0  -0.0436
  C  C694  1  0.056300  0.354400  0.218600  1.0  -0.0601
  C  C695  1  0.035600  0.352900  0.232700  1.0  -0.1098
  C  C696  1  0.051200  0.360700  0.280400  1.0  -0.0957
  C  C697  1  0.087300  0.370000  0.314000  1.0  -0.043
  C  C698  1  0.108000  0.371500  0.299900  1.0  -0.0242
  C  C699  1  0.134600  0.436690  0.975800  1.0  -0.0423
  C  C700  1  0.116900  0.432500  0.926100  1.0  -0.0636
  C  C701  1  0.093300  0.452300  0.890800  1.0  -0.1102
  C  C702  1  0.087300  0.476340  0.905300  1.0  -0.0854
  C  C703  1  0.104900  0.480530  0.955000  1.0  -0.0849
  C  C704  1  0.128600  0.460700  0.990300  1.0  -0.029
  C  C705  1  0.415900  0.272400  0.542900  1.0  -0.0367
  C  C706  1  0.428400  0.260100  0.586700  1.0  -0.0394
  C  C707  1  0.456800  0.272100  0.632400  1.0  -0.0917
  C  C708  1  0.472600  0.296400  0.634300  1.0  -0.1063
  C  C709  1  0.460100  0.308700  0.590500  1.0  -0.0611
  C  C710  1  0.431700  0.296700  0.544800  1.0  -0.0183
  C  C711  1  0.213300  0.532800  0.190600  1.0  -0.0416
  C  C712  1  0.224900  0.559000  0.191600  1.0  -0.0598
  C  C713  1  0.199100  0.579000  0.159800  1.0  -0.0473
  C  C714  1  0.161700  0.572800  0.127000  1.0  -0.0701
  C  C715  1  0.150100  0.546600  0.126000  1.0  -0.0331
  C  C716  1  0.175900  0.526600  0.157800  1.0  -0.0285
  C  C717  1  0.343400  0.422000  0.013500  1.0  -0.0344
  C  C718  1  0.373300  0.438200  0.050300  1.0  -0.072
  C  C719  1  0.409000  0.428300  0.077700  1.0  -0.0699
  C  C720  1  0.414700  0.402400  0.068200  1.0  -0.035
  C  C721  1  0.384800  0.386200  0.031300  1.0  -0.037
  C  C722  1  0.349100  0.396100  0.004000  1.0  -0.0096
  C  C723  1  0.140000  0.504000  0.206100  1.0  -0.0251
  C  C724  1  0.143900  0.528500  0.228800  1.0  -0.0352
  C  C725  1  0.115600  0.547700  0.202900  1.0  -0.0707
  C  C726  1  0.083500  0.542300  0.154300  1.0  -0.0559
  C  C727  1  0.079600  0.517800  0.131600  1.0  -0.0453
  C  C728  1  0.107900  0.498700  0.157500  1.0  -0.0317
  C  C729  1  0.364000  0.511500  0.344700  1.0  -0.036
  C  C730  1  0.394800  0.519200  0.392800  1.0  -0.0248
  C  C731  1  0.417800  0.539800  0.400200  1.0  -0.0382
  C  C732  1  0.409900  0.552700  0.359600  1.0  -0.0614
  C  C733  1  0.379100  0.545000  0.311500  1.0  -0.0649
  C  C734  1  0.356100  0.524400  0.304000  1.0  -0.0425
  C  C735  1  0.155400  0.284000  0.310200  1.0  -0.0488
  C  C736  1  0.154200  0.307200  0.331400  1.0  -0.0151
  C  C737  1  0.145700  0.304900  0.361500  1.0  -0.0458
  C  C738  1  0.138500  0.279400  0.370400  1.0  -0.0351
  C  C739  1  0.139600  0.256100  0.349100  1.0  -0.0566
  C  C740  1  0.148100  0.258400  0.319000  1.0  -0.0306
  C  C741  1  0.058000  0.409200  0.990900  1.0  0.1029
  C  C742  1  0.025700  0.398100  0.955000  1.0  -0.0622
  C  C743  1  0.008900  0.438100  0.907500  1.0  0.4336
  C  C744  1  0.063800  0.431300  0.976500  1.0  0.1006
  C  C745  1  0.232300  0.501300  0.094000  1.0  -0.0528
  C  C746  1  0.201600  0.507100  0.044700  1.0  -0.0243
  C  C747  1  0.192900  0.534100  0.028400  1.0  -0.024
  C  C748  1  0.214900  0.555200  0.061500  1.0  -0.0571
  C  C749  1  0.245500  0.549400  0.110800  1.0  -0.0537
  C  C750  1  0.254200  0.522400  0.127000  1.0  -0.0067
  C  C751  1  0.400900  0.466800  0.288000  1.0  -0.1112
  C  C752  1  0.424300  0.441800  0.303500  1.0  -0.0906
  C  C753  1  0.466300  0.450300  0.350700  1.0  -0.0647
  C  C754  1  0.425500  0.486300  0.332000  1.0  -0.1481
  C  C755  1  0.331600  0.317700  0.508400  1.0  -0.0929
  C  C756  1  0.294900  0.315500  0.495100  1.0  -0.0775
  C  C757  1  0.298800  0.294200  0.529000  1.0  -0.0722
  C  C758  1  0.341400  0.300200  0.577600  1.0  -0.1661
  C  C759  1  0.364800  0.314100  0.561000  1.0  -0.145
  C  C760  1  0.423900  0.447400  0.483900  1.0  -0.0809
  C  C761  1  0.448100  0.449800  0.537300  1.0  -0.1047
  C  C762  1  0.484500  0.463500  0.558800  1.0  -0.0978
  C  C763  1  0.490200  0.471200  0.527100  1.0  0.0288
  C  C764  1  0.468800  0.468600  0.477500  1.0  -0.0586
  C  C765  1  0.430500  0.456700  0.455200  1.0  0.008
  C  C766  1  0.933800  0.310700  0.042400  1.0  -0.0722
  C  C767  1  0.957300  0.308300  0.094900  1.0  -0.0334
  C  C768  1  0.944700  0.316400  0.118200  1.0  -0.0163
  C  C769  1  0.907300  0.325000  0.092000  1.0  -0.0601
  C  C770  1  0.878900  0.324000  0.035600  1.0  -0.1102
  C  C771  1  0.896000  0.316800  0.013500  1.0  0.007
  C  C772  1  0.341100  0.240300  0.235200  1.0  -0.0656
  C  C773  1  0.255300  0.161600  0.230600  1.0  -0.0637
  C  C774  1  0.300300  0.356800  0.024300  1.0  -0.0402
  C  C775  1  0.259200  0.164700  0.195400  1.0  0.0056
  C  C776  1  0.120900  0.184100  0.072400  1.0  -0.0513
  C  C777  1  0.526500  0.332200  0.427700  1.0  -0.058
  C  C778  1  0.138900  0.491700  0.860400  1.0  -0.0439
  C  C779  1  0.134300  0.262500  0.026700  1.0  -0.0543
  C  C780  1  0.126000  0.238200  0.999300  1.0  -0.0252
  C  C781  1  0.276900  0.419500  0.506300  1.0  -0.0783
  C  C782  1  0.253900  0.187000  0.254900  1.0  -0.0889
  C  C783  1  0.264100  0.189100  0.183500  1.0  0.0015
  C  C784  1  0.344400  0.147000  0.392400  1.0  -0.0689
  C  C785  1  0.228500  0.315200  0.993700  1.0  -0.0249
  C  C786  1  0.186600  0.500900  0.858600  1.0  -0.0545
  C  C787  1  0.538300  0.383100  0.549000  1.0  -0.0698
  C  C788  1  0.468500  0.393600  0.492700  1.0  -0.055
  C  C789  1  0.165300  0.495400  0.912500  1.0  0.0148
  C  C790  1  0.093700  0.201400  0.061000  1.0  0.0044
  C  C791  1  0.195600  0.394000  0.955600  1.0  -0.0023
  C  C792  1  0.965900  0.332600  0.874800  1.0  -0.0553
  C  C793  1  0.174100  0.377100  0.913100  1.0  -0.1107
  C  C794  1  0.509300  0.404600  0.520700  1.0  -0.0505
  C  C795  1  0.348500  0.194800  0.380700  1.0  -0.0841
  C  C796  1  0.102300  0.226200  0.083800  1.0  0.036
  C  C797  1  0.213200  0.268900  0.966100  1.0  -0.0281
  C  C798  1  0.507400  0.377800  0.435400  1.0  -0.062
  C  C799  1  0.320700  0.396400  0.855200  1.0  -0.0417
  C  C800  1  0.494400  0.250900  0.386500  1.0  -0.104
  C  C801  1  0.321000  0.201800  0.381800  1.0  -0.0651
  C  C802  1  0.319200  0.316600  0.999100  1.0  -0.0531
  C  C803  1  0.115800  0.285900  0.999600  1.0  -0.0628
  C  C804  1  0.321700  0.423800  0.838600  1.0  -0.1057
  C  C805  1  0.185400  0.382400  0.436700  1.0  -0.0577
  C  C806  1  0.148400  0.493600  0.832200  1.0  -0.1017
  C  C807  1  0.171900  0.413800  0.865400  1.0  -0.0423
  C  C808  1  0.166400  0.219500  0.130400  1.0  -0.0481
  C  C809  1  0.320300  0.214200  0.161900  1.0  -0.025
  C  C810  1  0.290100  0.324700  0.947000  1.0  -0.0343
  C  C811  1  0.083500  0.262100  0.922800  1.0  -0.0982
  C  C812  1  0.228500  0.293400  0.968900  1.0  -0.0386
  C  C813  1  0.488500  0.323100  0.396700  1.0  -0.0433
  C  C814  1  0.194000  0.391400  0.408200  1.0  0.0199
  C  C815  1  0.101100  0.238800  0.948100  1.0  -0.0044
  C  C816  1  0.319800  0.238100  0.183300  1.0  0.0062
  C  C817  1  0.163300  0.401700  0.439600  1.0  -0.0449
  C  C818  1  0.262900  0.213400  0.204800  1.0  -0.0151
  C  C819  1  0.518600  0.256700  0.438900  1.0  0.0006
  C  C820  1  0.265400  0.346600  0.931800  1.0  -0.0613
  C  C821  1  0.210700  0.505300  0.910300  1.0  -0.0898
  C  C822  1  0.315400  0.153600  0.391000  1.0  -0.05
  C  C823  1  0.362600  0.193400  0.243100  1.0  -0.05
  C  C824  1  0.533900  0.358000  0.448800  1.0  -0.0031
  C  C825  1  0.951700  0.316900  0.890500  1.0  -0.0161
  C  C826  1  0.200100  0.502900  0.937100  1.0  0.015
  C  C827  1  0.180100  0.414900  0.382300  1.0  -0.0949
  C  C828  1  0.415200  0.382700  0.248100  1.0  0.0877
  C  C829  1  0.199500  0.287700  0.015700  1.0  -0.0197
  C  C830  1  0.528800  0.355300  0.550800  1.0  -0.0479
  C  C831  1  0.363600  0.218100  0.266500  1.0  -0.0716
  C  C832  1  0.460700  0.341900  0.384200  1.0  -0.0958
  C  C833  1  0.463600  0.364900  0.497200  1.0  -0.0669
  C  C834  1  0.505000  0.264800  0.460000  1.0  0.0026
  C  C835  1  0.340500  0.191700  0.191400  1.0  -0.0608
  C  C836  1  0.975000  0.304800  0.937000  1.0  -0.0065
  C  C837  1  0.466700  0.267100  0.431700  1.0  -0.0873
  C  C838  1  0.090400  0.286700  0.948300  1.0  -0.0828
  C  C839  1  0.214200  0.312100  0.017800  1.0  -0.0739
  C  C840  1  0.302000  0.390700  0.870800  1.0  -0.0429
  C  C841  1  0.204100  0.420800  0.952800  1.0  -0.0692
  C  C842  1  0.012800  0.309300  0.969100  1.0  -0.0668
  C  C843  1  0.490100  0.347300  0.519100  1.0  0.0458
  C  C844  1  0.259400  0.211600  0.239600  1.0  -0.0944
  C  C845  1  0.197800  0.265600  0.989100  1.0  -0.0842
  C  C846  1  0.442700  0.260700  0.381900  1.0  -0.006
  C  C847  1  0.137200  0.235500  0.117900  1.0  -0.0737
  C  C848  1  0.360000  0.168800  0.385100  1.0  -0.0606
  C  C849  1  0.455800  0.252400  0.358300  1.0  -0.0543
  C  C850  1  0.327300  0.335300  0.042500  1.0  -0.1259
  C  C851  1  0.297500  0.444300  0.834700  1.0  0.0307
  C  C852  1  0.984600  0.380600  0.015000  1.0  -0.1355
  C  C853  1  0.147500  0.425000  0.413400  1.0  -0.0608
  C  C854  1  0.193500  0.431600  0.909600  1.0  -0.0447
  C  C855  1  0.305500  0.180000  0.389700  1.0  -0.075
  C  C856  1  0.157100  0.193800  0.105600  1.0  -0.0099
  C  C857  1  0.162700  0.387100  0.867000  1.0  -0.0928
  C  C858  1  0.272700  0.362200  0.971500  1.0  -0.0164
  C  C859  1  0.469200  0.368500  0.402100  1.0  -0.0354
  C  C860  1  0.277100  0.438600  0.845000  1.0  -0.0438
  C  C861  1  0.278700  0.412900  0.865900  1.0  -0.0748
  C  C862  1  0.004700  0.336600  0.906900  1.0  -0.0861
  C  C863  1  0.155600  0.432800  0.381900  1.0  -0.0778
  C  C864  1  0.028200  0.324700  0.954300  1.0  -0.0153
  C  C865  1  0.269000  0.253900  0.408600  1.0  -0.0675
  C  C866  1  0.081500  0.217000  0.191600  1.0  -0.0712
  C  C867  1  0.292000  0.243900  0.451200  1.0  0.0898
  C  C868  1  0.079700  0.246000  0.194400  1.0  -0.0616
  C  C869  1  0.033000  0.216500  0.099600  1.0  -0.0194
  C  C870  1  0.059200  0.202000  0.143600  1.0  -0.075
  C  C871  1  0.032300  0.247200  0.102700  1.0  -0.0687
  C  C872  1  0.419400  0.281800  0.211700  1.0  -0.069
  C  C873  1  0.391700  0.276300  0.162200  1.0  -0.0239
  C  C874  1  0.353800  0.285500  0.134700  1.0  -0.0592
  C  C875  1  0.414900  0.296200  0.242600  1.0  -0.0615
  C  C876  1  0.376700  0.305200  0.214800  1.0  0.0005
  C  C877  1  0.056600  0.259700  0.148200  1.0  -0.0538
  C  C878  1  0.348200  0.300300  0.165400  1.0  -0.088
  C  C879  1  0.298600  0.402000  0.497300  1.0  -0.0705
  C  C880  1  0.273200  0.409500  0.539900  1.0  -0.1219
  C  C881  1  0.299900  0.377200  0.525000  1.0  -0.0882
  C  C882  1  0.467000  0.477500  0.353000  1.0  -0.0665
  C  C883  1  0.959200  0.375400  0.956900  1.0  -0.0849
  C  C884  1  0.035900  0.449100  0.942000  1.0  0.2578
  C  C885  1  0.384800  0.474900  0.982300  1.0  -0.0929
  C  C886  1  0.479400  0.368200  0.301400  1.0  0.028
  C  C887  1  0.993600  0.417000  0.904000  1.0  -0.0186
  C  C888  1  0.414900  0.407400  0.217000  1.0  -0.1067
  C  C889  1  0.250300  0.211300  0.427600  1.0  -0.0966
  C  C890  1  0.439100  0.369900  0.278800  1.0  0.2255
  C  C891  1  0.489100  0.388100  0.292200  1.0  -0.0777
  C  C892  1  0.288600  0.221500  0.472200  1.0  -0.0643
  C  C893  1  0.834200  0.983100  0.123100  1.0  -0.0657
  C  C894  1  0.806300  0.997600  0.080500  1.0  -0.0297
  C  C895  1  0.803300  0.025700  0.083100  1.0  -0.0373
  C  C896  1  0.828200  0.039200  0.128400  1.0  -0.0494
  C  C897  1  0.856100  0.024600  0.171000  1.0  -0.0926
  C  C898  1  0.859100  0.996600  0.168400  1.0  -0.0693
  C  C899  1  0.556000  0.943700  0.102500  1.0  -0.0434
  C  C900  1  0.526900  0.953300  0.098100  1.0  -0.0794
  C  C901  1  0.499600  0.969400  0.057600  1.0  -0.0851
  C  C902  1  0.501300  0.975900  0.021400  1.0  -0.0371
  C  C903  1  0.530400  0.966300  0.025800  1.0  -0.0236
  C  C904  1  0.557700  0.950200  0.066300  1.0  0.0034
  C  C905  1  0.592500  0.863700  0.252200  1.0  -0.0436
  C  C906  1  0.556300  0.854400  0.218600  1.0  -0.0601
  C  C907  1  0.535600  0.852900  0.232700  1.0  -0.1098
  C  C908  1  0.551200  0.860700  0.280400  1.0  -0.0957
  C  C909  1  0.587300  0.870000  0.314000  1.0  -0.043
  C  C910  1  0.608000  0.871500  0.299900  1.0  -0.0242
  C  C911  1  0.634600  0.936690  0.975800  1.0  -0.0423
  C  C912  1  0.616900  0.932500  0.926100  1.0  -0.0636
  C  C913  1  0.593300  0.952300  0.890800  1.0  -0.1102
  C  C914  1  0.587300  0.976340  0.905300  1.0  -0.0854
  C  C915  1  0.604900  0.980530  0.955000  1.0  -0.0849
  C  C916  1  0.628600  0.960700  0.990300  1.0  -0.029
  C  C917  1  0.915900  0.772400  0.542900  1.0  -0.0367
  C  C918  1  0.928400  0.760100  0.586700  1.0  -0.0394
  C  C919  1  0.956800  0.772100  0.632400  1.0  -0.0917
  C  C920  1  0.972600  0.796400  0.634300  1.0  -0.1063
  C  C921  1  0.960100  0.808700  0.590500  1.0  -0.0611
  C  C922  1  0.931700  0.796700  0.544800  1.0  -0.0183
  C  C923  1  0.713300  0.032800  0.190600  1.0  -0.0416
  C  C924  1  0.724900  0.059000  0.191600  1.0  -0.0598
  C  C925  1  0.699100  0.079000  0.159800  1.0  -0.0473
  C  C926  1  0.661700  0.072800  0.127000  1.0  -0.0701
  C  C927  1  0.650100  0.046600  0.126000  1.0  -0.0331
  C  C928  1  0.675900  0.026600  0.157800  1.0  -0.0285
  C  C929  1  0.843400  0.922000  0.013500  1.0  -0.0344
  C  C930  1  0.873300  0.938200  0.050300  1.0  -0.072
  C  C931  1  0.909000  0.928300  0.077700  1.0  -0.0699
  C  C932  1  0.914700  0.902400  0.068200  1.0  -0.035
  C  C933  1  0.884800  0.886200  0.031300  1.0  -0.037
  C  C934  1  0.849100  0.896100  0.004000  1.0  -0.0096
  C  C935  1  0.640000  0.004000  0.206100  1.0  -0.0251
  C  C936  1  0.643900  0.028500  0.228800  1.0  -0.0352
  C  C937  1  0.615600  0.047700  0.202900  1.0  -0.0707
  C  C938  1  0.583500  0.042300  0.154300  1.0  -0.0559
  C  C939  1  0.579600  0.017800  0.131600  1.0  -0.0453
  C  C940  1  0.607900  0.998700  0.157500  1.0  -0.0317
  C  C941  1  0.864000  0.011500  0.344700  1.0  -0.036
  C  C942  1  0.894800  0.019200  0.392800  1.0  -0.0248
  C  C943  1  0.917800  0.039800  0.400200  1.0  -0.0382
  C  C944  1  0.909900  0.052700  0.359600  1.0  -0.0614
  C  C945  1  0.879100  0.045000  0.311500  1.0  -0.0649
  C  C946  1  0.856100  0.024400  0.304000  1.0  -0.0425
  C  C947  1  0.655400  0.784000  0.310200  1.0  -0.0488
  C  C948  1  0.654200  0.807200  0.331400  1.0  -0.0151
  C  C949  1  0.645700  0.804900  0.361500  1.0  -0.0458
  C  C950  1  0.638500  0.779400  0.370400  1.0  -0.0351
  C  C951  1  0.639600  0.756100  0.349100  1.0  -0.0566
  C  C952  1  0.648100  0.758400  0.319000  1.0  -0.0306
  C  C953  1  0.558000  0.909200  0.990900  1.0  0.1029
  C  C954  1  0.525700  0.898100  0.955000  1.0  -0.0622
  C  C955  1  0.508900  0.938100  0.907500  1.0  0.4336
  C  C956  1  0.563800  0.931300  0.976500  1.0  0.1006
  C  C957  1  0.732300  0.001300  0.094000  1.0  -0.0528
  C  C958  1  0.701600  0.007100  0.044700  1.0  -0.0243
  C  C959  1  0.692900  0.034100  0.028400  1.0  -0.024
  C  C960  1  0.714900  0.055200  0.061500  1.0  -0.0571
  C  C961  1  0.745500  0.049400  0.110800  1.0  -0.0537
  C  C962  1  0.754200  0.022400  0.127000  1.0  -0.0067
  C  C963  1  0.900900  0.966800  0.288000  1.0  -0.1112
  C  C964  1  0.924300  0.941800  0.303500  1.0  -0.0906
  C  C965  1  0.966300  0.950300  0.350700  1.0  -0.0647
  C  C966  1  0.925500  0.986300  0.332000  1.0  -0.1481
  C  C967  1  0.831600  0.817700  0.508400  1.0  -0.0929
  C  C968  1  0.794900  0.815500  0.495100  1.0  -0.0775
  C  C969  1  0.798800  0.794200  0.529000  1.0  -0.0722
  C  C970  1  0.841400  0.800200  0.577600  1.0  -0.1661
  C  C971  1  0.864800  0.814100  0.561000  1.0  -0.145
  C  C972  1  0.923900  0.947400  0.483900  1.0  -0.0809
  C  C973  1  0.948100  0.949800  0.537300  1.0  -0.1047
  C  C974  1  0.984500  0.963500  0.558800  1.0  -0.0978
  C  C975  1  0.990200  0.971200  0.527100  1.0  0.0288
  C  C976  1  0.968800  0.968600  0.477500  1.0  -0.0586
  C  C977  1  0.930500  0.956700  0.455200  1.0  0.008
  C  C978  1  0.433800  0.810700  0.042400  1.0  -0.0722
  C  C979  1  0.457300  0.808300  0.094900  1.0  -0.0334
  C  C980  1  0.444700  0.816400  0.118200  1.0  -0.0163
  C  C981  1  0.407300  0.825000  0.092000  1.0  -0.0601
  C  C982  1  0.378900  0.824000  0.035600  1.0  -0.1102
  C  C983  1  0.396000  0.816800  0.013500  1.0  0.007
  C  C984  1  0.841100  0.740300  0.235200  1.0  -0.0656
  C  C985  1  0.755300  0.661600  0.230600  1.0  -0.0637
  C  C986  1  0.800300  0.856800  0.024300  1.0  -0.0402
  C  C987  1  0.759200  0.664700  0.195400  1.0  0.0056
  C  C988  1  0.620900  0.684100  0.072400  1.0  -0.0513
  C  C989  1  0.026500  0.832200  0.427700  1.0  -0.058
  C  C990  1  0.638900  0.991700  0.860400  1.0  -0.0439
  C  C991  1  0.634300  0.762500  0.026700  1.0  -0.0543
  C  C992  1  0.626000  0.738200  0.999300  1.0  -0.0252
  C  C993  1  0.776900  0.919500  0.506300  1.0  -0.0783
  C  C994  1  0.753900  0.687000  0.254900  1.0  -0.0889
  C  C995  1  0.764100  0.689100  0.183500  1.0  0.0015
  C  C996  1  0.844400  0.647000  0.392400  1.0  -0.0689
  C  C997  1  0.728500  0.815200  0.993700  1.0  -0.0249
  C  C998  1  0.686600  0.000900  0.858600  1.0  -0.0545
  C  C999  1  0.038300  0.883100  0.549000  1.0  -0.0698
  C  C1000  1  0.968500  0.893600  0.492700  1.0  -0.055
  C  C1001  1  0.665300  0.995400  0.912500  1.0  0.0148
  C  C1002  1  0.593700  0.701400  0.061000  1.0  0.0044
  C  C1003  1  0.695600  0.894000  0.955600  1.0  -0.0023
  C  C1004  1  0.465900  0.832600  0.874800  1.0  -0.0553
  C  C1005  1  0.674100  0.877100  0.913100  1.0  -0.1107
  C  C1006  1  0.009300  0.904600  0.520700  1.0  -0.0505
  C  C1007  1  0.848500  0.694800  0.380700  1.0  -0.0841
  C  C1008  1  0.602300  0.726200  0.083800  1.0  0.036
  C  C1009  1  0.713200  0.768900  0.966100  1.0  -0.0281
  C  C1010  1  0.007400  0.877800  0.435400  1.0  -0.062
  C  C1011  1  0.820700  0.896400  0.855200  1.0  -0.0417
  C  C1012  1  0.994400  0.750900  0.386500  1.0  -0.104
  C  C1013  1  0.821000  0.701800  0.381800  1.0  -0.0651
  C  C1014  1  0.819200  0.816600  0.999100  1.0  -0.0531
  C  C1015  1  0.615800  0.785900  0.999600  1.0  -0.0628
  C  C1016  1  0.821700  0.923800  0.838600  1.0  -0.1057
  C  C1017  1  0.685400  0.882400  0.436700  1.0  -0.0577
  C  C1018  1  0.648400  0.993600  0.832200  1.0  -0.1017
  C  C1019  1  0.671900  0.913800  0.865400  1.0  -0.0423
  C  C1020  1  0.666400  0.719500  0.130400  1.0  -0.0481
  C  C1021  1  0.820300  0.714200  0.161900  1.0  -0.025
  C  C1022  1  0.790100  0.824700  0.947000  1.0  -0.0343
  C  C1023  1  0.583500  0.762100  0.922800  1.0  -0.0982
  C  C1024  1  0.728500  0.793400  0.968900  1.0  -0.0386
  C  C1025  1  0.988500  0.823100  0.396700  1.0  -0.0433
  C  C1026  1  0.694000  0.891400  0.408200  1.0  0.0199
  C  C1027  1  0.601100  0.738800  0.948100  1.0  -0.0044
  C  C1028  1  0.819800  0.738100  0.183300  1.0  0.0062
  C  C1029  1  0.663300  0.901700  0.439600  1.0  -0.0449
  C  C1030  1  0.762900  0.713400  0.204800  1.0  -0.0151
  C  C1031  1  0.018600  0.756700  0.438900  1.0  0.0006
  C  C1032  1  0.765400  0.846600  0.931800  1.0  -0.0613
  C  C1033  1  0.710700  0.005300  0.910300  1.0  -0.0898
  C  C1034  1  0.815400  0.653600  0.391000  1.0  -0.05
  C  C1035  1  0.862600  0.693400  0.243100  1.0  -0.05
  C  C1036  1  0.033900  0.858000  0.448800  1.0  -0.0031
  C  C1037  1  0.451700  0.816900  0.890500  1.0  -0.0161
  C  C1038  1  0.700100  0.002900  0.937100  1.0  0.015
  C  C1039  1  0.680100  0.914900  0.382300  1.0  -0.0949
  C  C1040  1  0.915200  0.882700  0.248100  1.0  0.0877
  C  C1041  1  0.699500  0.787700  0.015700  1.0  -0.0197
  C  C1042  1  0.028800  0.855300  0.550800  1.0  -0.0479
  C  C1043  1  0.863600  0.718100  0.266500  1.0  -0.0716
  C  C1044  1  0.960700  0.841900  0.384200  1.0  -0.0958
  C  C1045  1  0.963600  0.864900  0.497200  1.0  -0.0669
  C  C1046  1  0.005000  0.764800  0.460000  1.0  0.0026
  C  C1047  1  0.840500  0.691700  0.191400  1.0  -0.0608
  C  C1048  1  0.475000  0.804800  0.937000  1.0  -0.0065
  C  C1049  1  0.966700  0.767100  0.431700  1.0  -0.0873
  C  C1050  1  0.590400  0.786700  0.948300  1.0  -0.0828
  C  C1051  1  0.714200  0.812100  0.017800  1.0  -0.0739
  C  C1052  1  0.802000  0.890700  0.870800  1.0  -0.0429
  C  C1053  1  0.704100  0.920800  0.952800  1.0  -0.0692
  C  C1054  1  0.512800  0.809300  0.969100  1.0  -0.0668
  C  C1055  1  0.990100  0.847300  0.519100  1.0  0.0458
  C  C1056  1  0.759400  0.711600  0.239600  1.0  -0.0944
  C  C1057  1  0.697800  0.765600  0.989100  1.0  -0.0842
  C  C1058  1  0.942700  0.760700  0.381900  1.0  -0.006
  C  C1059  1  0.637200  0.735500  0.117900  1.0  -0.0737
  C  C1060  1  0.860000  0.668800  0.385100  1.0  -0.0606
  C  C1061  1  0.955800  0.752400  0.358300  1.0  -0.0543
  C  C1062  1  0.827300  0.835300  0.042500  1.0  -0.1259
  C  C1063  1  0.797500  0.944300  0.834700  1.0  0.0307
  C  C1064  1  0.484600  0.880600  0.015000  1.0  -0.1355
  C  C1065  1  0.647500  0.925000  0.413400  1.0  -0.0608
  C  C1066  1  0.693500  0.931600  0.909600  1.0  -0.0447
  C  C1067  1  0.805500  0.680000  0.389700  1.0  -0.075
  C  C1068  1  0.657100  0.693800  0.105600  1.0  -0.0099
  C  C1069  1  0.662700  0.887100  0.867000  1.0  -0.0928
  C  C1070  1  0.772700  0.862200  0.971500  1.0  -0.0164
  C  C1071  1  0.969200  0.868500  0.402100  1.0  -0.0354
  C  C1072  1  0.777100  0.938600  0.845000  1.0  -0.0438
  C  C1073  1  0.778700  0.912900  0.865900  1.0  -0.0748
  C  C1074  1  0.504700  0.836600  0.906900  1.0  -0.0861
  C  C1075  1  0.655600  0.932800  0.381900  1.0  -0.0778
  C  C1076  1  0.528200  0.824700  0.954300  1.0  -0.0153
  C  C1077  1  0.769000  0.753900  0.408600  1.0  -0.0675
  C  C1078  1  0.581500  0.717000  0.191600  1.0  -0.0712
  C  C1079  1  0.792000  0.743900  0.451200  1.0  0.0898
  C  C1080  1  0.579700  0.746000  0.194400  1.0  -0.0616
  C  C1081  1  0.533000  0.716500  0.099600  1.0  -0.0194
  C  C1082  1  0.559200  0.702000  0.143600  1.0  -0.075
  C  C1083  1  0.532300  0.747200  0.102700  1.0  -0.0687
  C  C1084  1  0.919400  0.781800  0.211700  1.0  -0.069
  C  C1085  1  0.891700  0.776300  0.162200  1.0  -0.0239
  C  C1086  1  0.853800  0.785500  0.134700  1.0  -0.0592
  C  C1087  1  0.914900  0.796200  0.242600  1.0  -0.0615
  C  C1088  1  0.876700  0.805200  0.214800  1.0  0.0005
  C  C1089  1  0.556600  0.759700  0.148200  1.0  -0.0538
  C  C1090  1  0.848200  0.800300  0.165400  1.0  -0.088
  C  C1091  1  0.798600  0.902000  0.497300  1.0  -0.0705
  C  C1092  1  0.773200  0.909500  0.539900  1.0  -0.1219
  C  C1093  1  0.799900  0.877200  0.525000  1.0  -0.0882
  C  C1094  1  0.967000  0.977500  0.353000  1.0  -0.0665
  C  C1095  1  0.459200  0.875400  0.956900  1.0  -0.0849
  C  C1096  1  0.535900  0.949100  0.942000  1.0  0.2578
  C  C1097  1  0.884800  0.974900  0.982300  1.0  -0.0929
  C  C1098  1  0.979400  0.868200  0.301400  1.0  0.028
  C  C1099  1  0.493600  0.917000  0.904000  1.0  -0.0186
  C  C1100  1  0.914900  0.907400  0.217000  1.0  -0.1067
  C  C1101  1  0.750300  0.711300  0.427600  1.0  -0.0966
  C  C1102  1  0.939100  0.869900  0.278800  1.0  0.2255
  C  C1103  1  0.989100  0.888100  0.292200  1.0  -0.0777
  C  C1104  1  0.788600  0.721500  0.472200  1.0  -0.0643
  C  C1105  1  0.665800  0.516900  0.876900  1.0  -0.0624
  C  C1106  1  0.693700  0.502400  0.919500  1.0  -0.0324
  C  C1107  1  0.696700  0.474300  0.916900  1.0  -0.0389
  C  C1108  1  0.671800  0.460800  0.871600  1.0  -0.0493
  C  C1109  1  0.643900  0.475400  0.829000  1.0  -0.0936
  C  C1110  1  0.640900  0.503400  0.831600  1.0  -0.0707
  C  C1111  1  0.944000  0.556300  0.897500  1.0  -0.0417
  C  C1112  1  0.973100  0.546700  0.901900  1.0  -0.079
  C  C1113  1  0.000400  0.530600  0.942400  1.0  -0.0839
  C  C1114  1  0.998700  0.524100  0.978600  1.0  -0.0375
  C  C1115  1  0.969600  0.533700  0.974200  1.0  -0.0276
  C  C1116  1  0.942300  0.549800  0.933700  1.0  0.0031
  C  C1117  1  0.907500  0.636300  0.747800  1.0  -0.0448
  C  C1118  1  0.943700  0.645600  0.781400  1.0  -0.0612
  C  C1119  1  0.964400  0.647100  0.767300  1.0  -0.1094
  C  C1120  1  0.948800  0.639300  0.719600  1.0  -0.1009
  C  C1121  1  0.912700  0.630000  0.686000  1.0  -0.0398
  C  C1122  1  0.892000  0.628500  0.700100  1.0  -0.0242
  C  C1123  1  0.865400  0.563310  0.024200  1.0  -0.0424
  C  C1124  1  0.883100  0.567500  0.073900  1.0  -0.0641
  C  C1125  1  0.906700  0.547700  0.109200  1.0  -0.1064
  C  C1126  1  0.912700  0.523660  0.094700  1.0  -0.0796
  C  C1127  1  0.895100  0.519470  0.045000  1.0  -0.0832
  C  C1128  1  0.871400  0.539300  0.009700  1.0  -0.0255
  C  C1129  1  0.584100  0.727600  0.457100  1.0  -0.0389
  C  C1130  1  0.571600  0.739900  0.413300  1.0  -0.0382
  C  C1131  1  0.543200  0.727900  0.367600  1.0  -0.0956
  C  C1132  1  0.527400  0.703600  0.365700  1.0  -0.1089
  C  C1133  1  0.539900  0.691300  0.409500  1.0  -0.0604
  C  C1134  1  0.568300  0.703300  0.455200  1.0  -0.0206
  C  C1135  1  0.786700  0.467200  0.809400  1.0  -0.0422
  C  C1136  1  0.775100  0.441000  0.808400  1.0  -0.0601
  C  C1137  1  0.800900  0.421000  0.840200  1.0  -0.0483
  C  C1138  1  0.838300  0.427200  0.873000  1.0  -0.0706
  C  C1139  1  0.849900  0.453400  0.874000  1.0  -0.0299
  C  C1140  1  0.824100  0.473400  0.842200  1.0  -0.0284
  C  C1141  1  0.656600  0.578000  0.986500  1.0  -0.0334
  C  C1142  1  0.626700  0.561800  0.949700  1.0  -0.069
  C  C1143  1  0.591000  0.571700  0.922300  1.0  -0.0669
  C  C1144  1  0.585300  0.597600  0.931800  1.0  -0.0315
  C  C1145  1  0.615200  0.613800  0.968700  1.0  -0.039
  C  C1146  1  0.650900  0.603900  0.996000  1.0  -0.0117
  C  C1147  1  0.860000  0.496000  0.793900  1.0  -0.0286
  C  C1148  1  0.856100  0.471500  0.771200  1.0  -0.033
  C  C1149  1  0.884400  0.452300  0.797100  1.0  -0.0718
  C  C1150  1  0.916500  0.457700  0.845700  1.0  -0.0579
  C  C1151  1  0.920400  0.482200  0.868400  1.0  -0.0464
  C  C1152  1  0.892100  0.501300  0.842500  1.0  -0.0318
  C  C1153  1  0.636000  0.488500  0.655300  1.0  -0.0363
  C  C1154  1  0.605200  0.480800  0.607200  1.0  -0.0196
  C  C1155  1  0.582200  0.460200  0.599800  1.0  -0.0345
  C  C1156  1  0.590100  0.447300  0.640400  1.0  -0.0647
  C  C1157  1  0.620900  0.455000  0.688500  1.0  -0.0626
  C  C1158  1  0.643900  0.475600  0.696000  1.0  -0.0458
  C  C1159  1  0.844600  0.716000  0.689800  1.0  -0.0491
  C  C1160  1  0.845800  0.692800  0.668600  1.0  -0.0173
  C  C1161  1  0.854300  0.695100  0.638500  1.0  -0.0425
  C  C1162  1  0.861500  0.720600  0.629600  1.0  -0.0336
  C  C1163  1  0.860400  0.743900  0.650900  1.0  -0.0549
  C  C1164  1  0.851900  0.741600  0.681000  1.0  -0.0305
  C  C1165  1  0.942000  0.590800  0.009100  1.0  0.1053
  C  C1166  1  0.974300  0.601900  0.045000  1.0  -0.0564
  C  C1167  1  0.991100  0.561900  0.092500  1.0  0.4323
  C  C1168  1  0.936200  0.568700  0.023500  1.0  0.1015
  C  C1169  1  0.767700  0.498700  0.906000  1.0  -0.052
  C  C1170  1  0.798400  0.492900  0.955300  1.0  -0.0252
  C  C1171  1  0.807100  0.465900  0.971600  1.0  -0.0247
  C  C1172  1  0.785100  0.444800  0.938500  1.0  -0.0559
  C  C1173  1  0.754500  0.450600  0.889200  1.0  -0.054
  C  C1174  1  0.745800  0.477600  0.873000  1.0  -0.0028
  C  C1175  1  0.599100  0.533200  0.712000  1.0  -0.1106
  C  C1176  1  0.575700  0.558200  0.696500  1.0  -0.0906
  C  C1177  1  0.533700  0.549700  0.649300  1.0  -0.0627
  C  C1178  1  0.574500  0.513700  0.668000  1.0  -0.1442
  C  C1179  1  0.668400  0.682300  0.491600  1.0  -0.0933
  C  C1180  1  0.705100  0.684500  0.504900  1.0  -0.0823
  C  C1181  1  0.701200  0.705800  0.471000  1.0  -0.0699
  C  C1182  1  0.658600  0.699800  0.422400  1.0  -0.1622
  C  C1183  1  0.635200  0.685900  0.439000  1.0  -0.1458
  C  C1184  1  0.576100  0.552600  0.516100  1.0  -0.0802
  C  C1185  1  0.551900  0.550200  0.462700  1.0  -0.1035
  C  C1186  1  0.515500  0.536500  0.441200  1.0  -0.0997
  C  C1187  1  0.509800  0.528800  0.472900  1.0  0.0274
  C  C1188  1  0.531200  0.531400  0.522500  1.0  -0.0622
  C  C1189  1  0.569500  0.543300  0.544800  1.0  0.0037
  C  C1190  1  0.066200  0.689300  0.957600  1.0  -0.0739
  C  C1191  1  0.042700  0.691700  0.905100  1.0  -0.0305
  C  C1192  1  0.055300  0.683600  0.881800  1.0  -0.0119
  C  C1193  1  0.092700  0.675000  0.908000  1.0  -0.0564
  C  C1194  1  0.121100  0.676000  0.964400  1.0  -0.1122
  C  C1195  1  0.104000  0.683200  0.986500  1.0  0.0073
  C  C1196  1  0.658900  0.759700  0.764800  1.0  -0.0618
  C  C1197  1  0.744700  0.838400  0.769400  1.0  -0.063
  C  C1198  1  0.699700  0.643200  0.975700  1.0  -0.0392
  C  C1199  1  0.740800  0.835300  0.804600  1.0  0.0046
  C  C1200  1  0.879100  0.815900  0.927600  1.0  -0.0492
  C  C1201  1  0.473500  0.667800  0.572300  1.0  -0.0595
  C  C1202  1  0.861100  0.508300  0.139600  1.0  -0.044
  C  C1203  1  0.865700  0.737500  0.973300  1.0  -0.0523
  C  C1204  1  0.874000  0.761800  0.000700  1.0  -0.0246
  C  C1205  1  0.723100  0.580500  0.493700  1.0  -0.0784
  C  C1206  1  0.746100  0.813000  0.745100  1.0  -0.0903
  C  C1207  1  0.735900  0.810900  0.816500  1.0  -0.0033
  C  C1208  1  0.655600  0.853000  0.607600  1.0  -0.0671
  C  C1209  1  0.771500  0.684800  0.006300  1.0  -0.0258
  C  C1210  1  0.813400  0.499100  0.141400  1.0  -0.0545
  C  C1211  1  0.461700  0.616900  0.451000  1.0  -0.0709
  C  C1212  1  0.531500  0.606400  0.507300  1.0  -0.0557
  C  C1213  1  0.834700  0.504600  0.087500  1.0  0.0201
  C  C1214  1  0.906300  0.798600  0.939000  1.0  0.0036
  C  C1215  1  0.804400  0.606000  0.044400  1.0  -0.0023
  C  C1216  1  0.034100  0.667400  0.125200  1.0  -0.0511
  C  C1217  1  0.825900  0.622900  0.086900  1.0  -0.1081
  C  C1218  1  0.490700  0.595400  0.479300  1.0  -0.051
  C  C1219  1  0.651500  0.805200  0.619300  1.0  -0.085
  C  C1220  1  0.897700  0.773800  0.916200  1.0  0.0356
  C  C1221  1  0.786800  0.731100  0.033900  1.0  -0.0291
  C  C1222  1  0.492600  0.622200  0.564600  1.0  -0.0621
  C  C1223  1  0.679300  0.603600  0.144800  1.0  -0.0405
  C  C1224  1  0.505600  0.749100  0.613500  1.0  -0.102
  C  C1225  1  0.679000  0.798200  0.618200  1.0  -0.0636
  C  C1226  1  0.680800  0.683400  0.000900  1.0  -0.051
  C  C1227  1  0.884200  0.714100  0.000400  1.0  -0.0629
  C  C1228  1  0.678300  0.576200  0.161400  1.0  -0.1096
  C  C1229  1  0.814600  0.617600  0.563300  1.0  -0.0555
  C  C1230  1  0.851600  0.506400  0.167800  1.0  -0.1032
  C  C1231  1  0.828100  0.586200  0.134600  1.0  -0.0406
  C  C1232  1  0.833600  0.780500  0.869600  1.0  -0.049
  C  C1233  1  0.679700  0.785800  0.838100  1.0  -0.0218
  C  C1234  1  0.709900  0.675300  0.053000  1.0  -0.0407
  C  C1235  1  0.916500  0.737900  0.077200  1.0  -0.0989
  C  C1236  1  0.771500  0.706600  0.031100  1.0  -0.0408
  C  C1237  1  0.511500  0.676900  0.603300  1.0  -0.042
  C  C1238  1  0.806000  0.608600  0.591800  1.0  0.0181
  C  C1239  1  0.898900  0.761200  0.051900  1.0  -0.0051
  C  C1240  1  0.680200  0.761900  0.816700  1.0  0.0027
  C  C1241  1  0.836700  0.598300  0.560400  1.0  -0.0427
  C  C1242  1  0.737100  0.786600  0.795200  1.0  -0.0179
  C  C1243  1  0.481400  0.743300  0.561100  1.0  0.0008
  C  C1244  1  0.734600  0.653400  0.068200  1.0  -0.0608
  C  C1245  1  0.789300  0.494700  0.089700  1.0  -0.0905
  C  C1246  1  0.684600  0.846400  0.609000  1.0  -0.0517
  C  C1247  1  0.637400  0.806600  0.756900  1.0  -0.0508
  C  C1248  1  0.466100  0.642000  0.551200  1.0  -0.0047
  C  C1249  1  0.048300  0.683100  0.109500  1.0  -0.0135
  C  C1250  1  0.799900  0.497100  0.062900  1.0  0.0174
  C  C1251  1  0.819900  0.585100  0.617700  1.0  -0.0943
  C  C1252  1  0.584800  0.617300  0.751900  1.0  0.0887
  C  C1253  1  0.800500  0.712300  0.984300  1.0  -0.0178
  C  C1254  1  0.471200  0.644700  0.449200  1.0  -0.048
  C  C1255  1  0.636400  0.781900  0.733500  1.0  -0.071
  C  C1256  1  0.539300  0.658100  0.615800  1.0  -0.0953
  C  C1257  1  0.536400  0.635100  0.502800  1.0  -0.0661
  C  C1258  1  0.495000  0.735200  0.540000  1.0  0.0079
  C  C1259  1  0.659500  0.808300  0.808600  1.0  -0.0596
  C  C1260  1  0.025000  0.695200  0.063000  1.0  -0.0067
  C  C1261  1  0.533300  0.732900  0.568300  1.0  -0.0864
  C  C1262  1  0.909600  0.713300  0.051700  1.0  -0.0809
  C  C1263  1  0.785800  0.687900  0.982200  1.0  -0.0745
  C  C1264  1  0.698000  0.609300  0.129200  1.0  -0.0386
  C  C1265  1  0.795900  0.579200  0.047200  1.0  -0.0695
  C  C1266  1  0.987200  0.690700  0.030900  1.0  -0.0599
  C  C1267  1  0.509900  0.652700  0.480900  1.0  0.0433
  C  C1268  1  0.740600  0.788400  0.760400  1.0  -0.0924
  C  C1269  1  0.802200  0.734400  0.010900  1.0  -0.0843
  C  C1270  1  0.557300  0.739300  0.618100  1.0  -0.0088
  C  C1271  1  0.862800  0.764500  0.882100  1.0  -0.0744
  C  C1272  1  0.640000  0.831200  0.614900  1.0  -0.0631
  C  C1273  1  0.544200  0.747600  0.641700  1.0  -0.0581
  C  C1274  1  0.672700  0.664700  0.957500  1.0  -0.1252
  C  C1275  1  0.702500  0.555700  0.165300  1.0  0.0328
  C  C1276  1  0.015400  0.619400  0.985000  1.0  -0.1366
  C  C1277  1  0.852500  0.575000  0.586600  1.0  -0.0591
  C  C1278  1  0.806500  0.568400  0.090400  1.0  -0.0465
  C  C1279  1  0.694500  0.820000  0.610300  1.0  -0.0735
  C  C1280  1  0.842900  0.806200  0.894400  1.0  -0.0111
  C  C1281  1  0.837300  0.612900  0.133000  1.0  -0.0964
  C  C1282  1  0.727300  0.637800  0.028500  1.0  -0.0151
  C  C1283  1  0.530800  0.631500  0.597900  1.0  -0.0347
  C  C1284  1  0.722900  0.561400  0.155000  1.0  -0.0456
  C  C1285  1  0.721300  0.587100  0.134100  1.0  -0.0758
  C  C1286  1  0.995300  0.663400  0.093100  1.0  -0.091
  C  C1287  1  0.844400  0.567200  0.618100  1.0  -0.0729
  C  C1288  1  0.971800  0.675300  0.045700  1.0  -0.017
  C  C1289  1  0.731000  0.746100  0.591400  1.0  -0.0707
  C  C1290  1  0.918500  0.783000  0.808400  1.0  -0.0697
  C  C1291  1  0.708000  0.756100  0.548800  1.0  0.0894
  C  C1292  1  0.920300  0.754000  0.805600  1.0  -0.0604
  C  C1293  1  0.967000  0.783500  0.900400  1.0  -0.0248
  C  C1294  1  0.940800  0.798000  0.856400  1.0  -0.0771
  C  C1295  1  0.967700  0.752800  0.897300  1.0  -0.0708
  C  C1296  1  0.580600  0.718200  0.788300  1.0  -0.0695
  C  C1297  1  0.608300  0.723700  0.837800  1.0  -0.0304
  C  C1298  1  0.646200  0.714500  0.865300  1.0  -0.0603
  C  C1299  1  0.585100  0.703800  0.757400  1.0  -0.0583
  C  C1300  1  0.623300  0.694800  0.785200  1.0  0.0053
  C  C1301  1  0.943400  0.740300  0.851800  1.0  -0.0544
  C  C1302  1  0.651800  0.699700  0.834600  1.0  -0.0881
  C  C1303  1  0.701400  0.598000  0.502700  1.0  -0.0733
  C  C1304  1  0.726800  0.590500  0.460100  1.0  -0.1174
  C  C1305  1  0.700100  0.622800  0.475000  1.0  -0.0886
  C  C1306  1  0.533000  0.522500  0.647000  1.0  -0.0665
  C  C1307  1  0.040800  0.624600  0.043100  1.0  -0.0842
  C  C1308  1  0.964100  0.550900  0.058000  1.0  0.2528
  C  C1309  1  0.615200  0.525100  0.017700  1.0  -0.0934
  C  C1310  1  0.520600  0.631800  0.698600  1.0  0.0264
  C  C1311  1  0.006400  0.583000  0.096000  1.0  -0.019
  C  C1312  1  0.585100  0.592600  0.783000  1.0  -0.1097
  C  C1313  1  0.749700  0.788700  0.572400  1.0  -0.0981
  C  C1314  1  0.560900  0.630100  0.721200  1.0  0.2252
  C  C1315  1  0.510900  0.611900  0.707800  1.0  -0.0766
  C  C1316  1  0.711400  0.778500  0.527800  1.0  -0.0621
  C  C1317  1  0.165800  0.016900  0.876900  1.0  -0.0624
  C  C1318  1  0.193700  0.002400  0.919500  1.0  -0.0324
  C  C1319  1  0.196700  0.974300  0.916900  1.0  -0.0389
  C  C1320  1  0.171800  0.960800  0.871600  1.0  -0.0493
  C  C1321  1  0.143900  0.975400  0.829000  1.0  -0.0936
  C  C1322  1  0.140900  0.003400  0.831600  1.0  -0.0707
  C  C1323  1  0.444000  0.056300  0.897500  1.0  -0.0417
  C  C1324  1  0.473100  0.046700  0.901900  1.0  -0.079
  C  C1325  1  0.500400  0.030600  0.942400  1.0  -0.0839
  C  C1326  1  0.498700  0.024100  0.978600  1.0  -0.0375
  C  C1327  1  0.469600  0.033700  0.974200  1.0  -0.0276
  C  C1328  1  0.442300  0.049800  0.933700  1.0  0.0031
  C  C1329  1  0.407500  0.136300  0.747800  1.0  -0.0448
  C  C1330  1  0.443700  0.145600  0.781400  1.0  -0.0612
  C  C1331  1  0.464400  0.147100  0.767300  1.0  -0.1094
  C  C1332  1  0.448800  0.139300  0.719600  1.0  -0.1009
  C  C1333  1  0.412700  0.130000  0.686000  1.0  -0.0398
  C  C1334  1  0.392000  0.128500  0.700100  1.0  -0.0242
  C  C1335  1  0.365400  0.063310  0.024200  1.0  -0.0424
  C  C1336  1  0.383100  0.067500  0.073900  1.0  -0.0641
  C  C1337  1  0.406700  0.047700  0.109200  1.0  -0.1064
  C  C1338  1  0.412700  0.023660  0.094700  1.0  -0.0796
  C  C1339  1  0.395100  0.019470  0.045000  1.0  -0.0832
  C  C1340  1  0.371400  0.039300  0.009700  1.0  -0.0255
  C  C1341  1  0.084100  0.227600  0.457100  1.0  -0.0389
  C  C1342  1  0.071600  0.239900  0.413300  1.0  -0.0382
  C  C1343  1  0.043200  0.227900  0.367600  1.0  -0.0956
  C  C1344  1  0.027400  0.203600  0.365700  1.0  -0.1089
  C  C1345  1  0.039900  0.191300  0.409500  1.0  -0.0604
  C  C1346  1  0.068300  0.203300  0.455200  1.0  -0.0206
  C  C1347  1  0.286700  0.967200  0.809400  1.0  -0.0422
  C  C1348  1  0.275100  0.941000  0.808400  1.0  -0.0601
  C  C1349  1  0.300900  0.921000  0.840200  1.0  -0.0483
  C  C1350  1  0.338300  0.927200  0.873000  1.0  -0.0706
  C  C1351  1  0.349900  0.953400  0.874000  1.0  -0.0299
  C  C1352  1  0.324100  0.973400  0.842200  1.0  -0.0284
  C  C1353  1  0.156600  0.078000  0.986500  1.0  -0.0334
  C  C1354  1  0.126700  0.061800  0.949700  1.0  -0.069
  C  C1355  1  0.091000  0.071700  0.922300  1.0  -0.0669
  C  C1356  1  0.085300  0.097600  0.931800  1.0  -0.0315
  C  C1357  1  0.115200  0.113800  0.968700  1.0  -0.039
  C  C1358  1  0.150900  0.103900  0.996000  1.0  -0.0117
  C  C1359  1  0.360000  0.996000  0.793900  1.0  -0.0286
  C  C1360  1  0.356100  0.971500  0.771200  1.0  -0.033
  C  C1361  1  0.384400  0.952300  0.797100  1.0  -0.0718
  C  C1362  1  0.416500  0.957700  0.845700  1.0  -0.0579
  C  C1363  1  0.420400  0.982200  0.868400  1.0  -0.0464
  C  C1364  1  0.392100  0.001300  0.842500  1.0  -0.0318
  C  C1365  1  0.136000  0.988500  0.655300  1.0  -0.0363
  C  C1366  1  0.105200  0.980800  0.607200  1.0  -0.0196
  C  C1367  1  0.082200  0.960200  0.599800  1.0  -0.0345
  C  C1368  1  0.090100  0.947300  0.640400  1.0  -0.0647
  C  C1369  1  0.120900  0.955000  0.688500  1.0  -0.0626
  C  C1370  1  0.143900  0.975600  0.696000  1.0  -0.0458
  C  C1371  1  0.344600  0.216000  0.689800  1.0  -0.0491
  C  C1372  1  0.345800  0.192800  0.668600  1.0  -0.0173
  C  C1373  1  0.354300  0.195100  0.638500  1.0  -0.0425
  C  C1374  1  0.361500  0.220600  0.629600  1.0  -0.0336
  C  C1375  1  0.360400  0.243900  0.650900  1.0  -0.0549
  C  C1376  1  0.351900  0.241600  0.681000  1.0  -0.0305
  C  C1377  1  0.442000  0.090800  0.009100  1.0  0.1053
  C  C1378  1  0.474300  0.101900  0.045000  1.0  -0.0564
  C  C1379  1  0.491100  0.061900  0.092500  1.0  0.4323
  C  C1380  1  0.436200  0.068700  0.023500  1.0  0.1015
  C  C1381  1  0.267700  0.998700  0.906000  1.0  -0.052
  C  C1382  1  0.298400  0.992900  0.955300  1.0  -0.0252
  C  C1383  1  0.307100  0.965900  0.971600  1.0  -0.0247
  C  C1384  1  0.285100  0.944800  0.938500  1.0  -0.0559
  C  C1385  1  0.254500  0.950600  0.889200  1.0  -0.054
  C  C1386  1  0.245800  0.977600  0.873000  1.0  -0.0028
  C  C1387  1  0.099100  0.033200  0.712000  1.0  -0.1106
  C  C1388  1  0.075700  0.058200  0.696500  1.0  -0.0906
  C  C1389  1  0.033700  0.049700  0.649300  1.0  -0.0627
  C  C1390  1  0.074500  0.013700  0.668000  1.0  -0.1442
  C  C1391  1  0.168400  0.182300  0.491600  1.0  -0.0933
  C  C1392  1  0.205100  0.184500  0.504900  1.0  -0.0823
  C  C1393  1  0.201200  0.205800  0.471000  1.0  -0.0699
  C  C1394  1  0.158600  0.199800  0.422400  1.0  -0.1622
  C  C1395  1  0.135200  0.185900  0.439000  1.0  -0.1458
  C  C1396  1  0.076100  0.052600  0.516100  1.0  -0.0802
  C  C1397  1  0.051900  0.050200  0.462700  1.0  -0.1035
  C  C1398  1  0.015500  0.036500  0.441200  1.0  -0.0997
  C  C1399  1  0.009800  0.028800  0.472900  1.0  0.0274
  C  C1400  1  0.031200  0.031400  0.522500  1.0  -0.0622
  C  C1401  1  0.069500  0.043300  0.544800  1.0  0.0037
  C  C1402  1  0.566200  0.189300  0.957600  1.0  -0.0739
  C  C1403  1  0.542700  0.191700  0.905100  1.0  -0.0305
  C  C1404  1  0.555300  0.183600  0.881800  1.0  -0.0119
  C  C1405  1  0.592700  0.175000  0.908000  1.0  -0.0564
  C  C1406  1  0.621100  0.176000  0.964400  1.0  -0.1122
  C  C1407  1  0.604000  0.183200  0.986500  1.0  0.0073
  C  C1408  1  0.158900  0.259700  0.764800  1.0  -0.0618
  C  C1409  1  0.244700  0.338400  0.769400  1.0  -0.063
  C  C1410  1  0.199700  0.143200  0.975700  1.0  -0.0392
  C  C1411  1  0.240800  0.335300  0.804600  1.0  0.0046
  C  C1412  1  0.379100  0.315900  0.927600  1.0  -0.0492
  C  C1413  1  0.973500  0.167800  0.572300  1.0  -0.0595
  C  C1414  1  0.361100  0.008300  0.139600  1.0  -0.044
  C  C1415  1  0.365700  0.237500  0.973300  1.0  -0.0523
  C  C1416  1  0.374000  0.261800  0.000700  1.0  -0.0246
  C  C1417  1  0.223100  0.080500  0.493700  1.0  -0.0784
  C  C1418  1  0.246100  0.313000  0.745100  1.0  -0.0903
  C  C1419  1  0.235900  0.310900  0.816500  1.0  -0.0033
  C  C1420  1  0.155600  0.353000  0.607600  1.0  -0.0671
  C  C1421  1  0.271500  0.184800  0.006300  1.0  -0.0258
  C  C1422  1  0.313400  0.999100  0.141400  1.0  -0.0545
  C  C1423  1  0.961700  0.116900  0.451000  1.0  -0.0709
  C  C1424  1  0.031500  0.106400  0.507300  1.0  -0.0557
  C  C1425  1  0.334700  0.004600  0.087500  1.0  0.0201
  C  C1426  1  0.406300  0.298600  0.939000  1.0  0.0036
  C  C1427  1  0.304400  0.106000  0.044400  1.0  -0.0023
  C  C1428  1  0.534100  0.167400  0.125200  1.0  -0.0511
  C  C1429  1  0.325900  0.122900  0.086900  1.0  -0.1081
  C  C1430  1  0.990700  0.095400  0.479300  1.0  -0.051
  C  C1431  1  0.151500  0.305200  0.619300  1.0  -0.085
  C  C1432  1  0.397700  0.273800  0.916200  1.0  0.0356
  C  C1433  1  0.286800  0.231100  0.033900  1.0  -0.0291
  C  C1434  1  0.992600  0.122200  0.564600  1.0  -0.0621
  C  C1435  1  0.179300  0.103600  0.144800  1.0  -0.0405
  C  C1436  1  0.005600  0.249100  0.613500  1.0  -0.102
  C  C1437  1  0.179000  0.298200  0.618200  1.0  -0.0636
  C  C1438  1  0.180800  0.183400  0.000900  1.0  -0.051
  C  C1439  1  0.384200  0.214100  0.000400  1.0  -0.0629
  C  C1440  1  0.178300  0.076200  0.161400  1.0  -0.1096
  C  C1441  1  0.314600  0.117600  0.563300  1.0  -0.0555
  C  C1442  1  0.351600  0.006400  0.167800  1.0  -0.1032
  C  C1443  1  0.328100  0.086200  0.134600  1.0  -0.0406
  C  C1444  1  0.333600  0.280500  0.869600  1.0  -0.049
  C  C1445  1  0.179700  0.285800  0.838100  1.0  -0.0218
  C  C1446  1  0.209900  0.175300  0.053000  1.0  -0.0407
  C  C1447  1  0.416500  0.237900  0.077200  1.0  -0.0989
  C  C1448  1  0.271500  0.206600  0.031100  1.0  -0.0408
  C  C1449  1  0.011500  0.176900  0.603300  1.0  -0.042
  C  C1450  1  0.306000  0.108600  0.591800  1.0  0.0181
  C  C1451  1  0.398900  0.261200  0.051900  1.0  -0.0051
  C  C1452  1  0.180200  0.261900  0.816700  1.0  0.0027
  C  C1453  1  0.336700  0.098300  0.560400  1.0  -0.0427
  C  C1454  1  0.237100  0.286600  0.795200  1.0  -0.0179
  C  C1455  1  0.981400  0.243300  0.561100  1.0  0.0008
  C  C1456  1  0.234600  0.153400  0.068200  1.0  -0.0608
  C  C1457  1  0.289300  0.994700  0.089700  1.0  -0.0905
  C  C1458  1  0.184600  0.346400  0.609000  1.0  -0.0517
  C  C1459  1  0.137400  0.306600  0.756900  1.0  -0.0508
  C  C1460  1  0.966100  0.142000  0.551200  1.0  -0.0047
  C  C1461  1  0.548300  0.183100  0.109500  1.0  -0.0135
  C  C1462  1  0.299900  0.997100  0.062900  1.0  0.0174
  C  C1463  1  0.319900  0.085100  0.617700  1.0  -0.0943
  C  C1464  1  0.084800  0.117300  0.751900  1.0  0.0887
  C  C1465  1  0.300500  0.212300  0.984300  1.0  -0.0178
  C  C1466  1  0.971200  0.144700  0.449200  1.0  -0.048
  C  C1467  1  0.136400  0.281900  0.733500  1.0  -0.071
  C  C1468  1  0.039300  0.158100  0.615800  1.0  -0.0953
  C  C1469  1  0.036400  0.135100  0.502800  1.0  -0.0661
  C  C1470  1  0.995000  0.235200  0.540000  1.0  0.0079
  C  C1471  1  0.159500  0.308300  0.808600  1.0  -0.0596
  C  C1472  1  0.525000  0.195200  0.063000  1.0  -0.0067
  C  C1473  1  0.033300  0.232900  0.568300  1.0  -0.0864
  C  C1474  1  0.409600  0.213300  0.051700  1.0  -0.0809
  C  C1475  1  0.285800  0.187900  0.982200  1.0  -0.0745
  C  C1476  1  0.198000  0.109300  0.129200  1.0  -0.0386
  C  C1477  1  0.295900  0.079200  0.047200  1.0  -0.0695
  C  C1478  1  0.487200  0.190700  0.030900  1.0  -0.0599
  C  C1479  1  0.009900  0.152700  0.480900  1.0  0.0433
  C  C1480  1  0.240600  0.288400  0.760400  1.0  -0.0924
  C  C1481  1  0.302200  0.234400  0.010900  1.0  -0.0843
  C  C1482  1  0.057300  0.239300  0.618100  1.0  -0.0088
  C  C1483  1  0.362800  0.264500  0.882100  1.0  -0.0744
  C  C1484  1  0.140000  0.331200  0.614900  1.0  -0.0631
  C  C1485  1  0.044200  0.247600  0.641700  1.0  -0.0581
  C  C1486  1  0.172700  0.164700  0.957500  1.0  -0.1252
  C  C1487  1  0.202500  0.055700  0.165300  1.0  0.0328
  C  C1488  1  0.515400  0.119400  0.985000  1.0  -0.1366
  C  C1489  1  0.352500  0.075000  0.586600  1.0  -0.0591
  C  C1490  1  0.306500  0.068400  0.090400  1.0  -0.0465
  C  C1491  1  0.194500  0.320000  0.610300  1.0  -0.0735
  C  C1492  1  0.342900  0.306200  0.894400  1.0  -0.0111
  C  C1493  1  0.337300  0.112900  0.133000  1.0  -0.0964
  C  C1494  1  0.227300  0.137800  0.028500  1.0  -0.0151
  C  C1495  1  0.030800  0.131500  0.597900  1.0  -0.0347
  C  C1496  1  0.222900  0.061400  0.155000  1.0  -0.0456
  C  C1497  1  0.221300  0.087100  0.134100  1.0  -0.0758
  C  C1498  1  0.495300  0.163400  0.093100  1.0  -0.091
  C  C1499  1  0.344400  0.067200  0.618100  1.0  -0.0729
  C  C1500  1  0.471800  0.175300  0.045700  1.0  -0.017
  C  C1501  1  0.231000  0.246100  0.591400  1.0  -0.0707
  C  C1502  1  0.418500  0.283000  0.808400  1.0  -0.0697
  C  C1503  1  0.208000  0.256100  0.548800  1.0  0.0894
  C  C1504  1  0.420300  0.254000  0.805600  1.0  -0.0604
  C  C1505  1  0.467000  0.283500  0.900400  1.0  -0.0248
  C  C1506  1  0.440800  0.298000  0.856400  1.0  -0.0771
  C  C1507  1  0.467700  0.252800  0.897300  1.0  -0.0708
  C  C1508  1  0.080600  0.218200  0.788300  1.0  -0.0695
  C  C1509  1  0.108300  0.223700  0.837800  1.0  -0.0304
  C  C1510  1  0.146200  0.214500  0.865300  1.0  -0.0603
  C  C1511  1  0.085100  0.203800  0.757400  1.0  -0.0583
  C  C1512  1  0.123300  0.194800  0.785200  1.0  0.0053
  C  C1513  1  0.443400  0.240300  0.851800  1.0  -0.0544
  C  C1514  1  0.151800  0.199700  0.834600  1.0  -0.0881
  C  C1515  1  0.201400  0.098000  0.502700  1.0  -0.0733
  C  C1516  1  0.226800  0.090500  0.460100  1.0  -0.1174
  C  C1517  1  0.200100  0.122800  0.475000  1.0  -0.0886
  C  C1518  1  0.033000  0.022500  0.647000  1.0  -0.0665
  C  C1519  1  0.540800  0.124600  0.043100  1.0  -0.0842
  C  C1520  1  0.464100  0.050900  0.058000  1.0  0.2528
  C  C1521  1  0.115200  0.025100  0.017700  1.0  -0.0934
  C  C1522  1  0.020600  0.131800  0.698600  1.0  0.0264
  C  C1523  1  0.506400  0.083000  0.096000  1.0  -0.019
  C  C1524  1  0.085100  0.092600  0.783000  1.0  -0.1097
  C  C1525  1  0.249700  0.288700  0.572400  1.0  -0.0981
  C  C1526  1  0.060900  0.130100  0.721200  1.0  0.2252
  C  C1527  1  0.010900  0.111900  0.707800  1.0  -0.0766
  C  C1528  1  0.211400  0.278500  0.527800  1.0  -0.0621
  C  C1529  1  0.665800  0.483100  0.376900  1.0  -0.0653
  C  C1530  1  0.693700  0.497600  0.419500  1.0  -0.0315
  C  C1531  1  0.696700  0.525700  0.416900  1.0  -0.0395
  C  C1532  1  0.671800  0.539200  0.371600  1.0  -0.0496
  C  C1533  1  0.643900  0.524600  0.329000  1.0  -0.0924
  C  C1534  1  0.640900  0.496600  0.331600  1.0  -0.0703
  C  C1535  1  0.944000  0.443700  0.397500  1.0  -0.0433
  C  C1536  1  0.973100  0.453300  0.401900  1.0  -0.0792
  C  C1537  1  0.000400  0.469400  0.442400  1.0  -0.0827
  C  C1538  1  0.998700  0.475900  0.478600  1.0  -0.0369
  C  C1539  1  0.969600  0.466300  0.474200  1.0  -0.0278
  C  C1540  1  0.942300  0.450200  0.433700  1.0  0.0029
  C  C1541  1  0.907500  0.363700  0.247800  1.0  -0.0441
  C  C1542  1  0.943700  0.354400  0.281400  1.0  -0.0615
  C  C1543  1  0.964400  0.352900  0.267300  1.0  -0.1096
  C  C1544  1  0.948800  0.360700  0.219600  1.0  -0.1014
  C  C1545  1  0.912700  0.370000  0.186000  1.0  -0.0389
  C  C1546  1  0.892000  0.371500  0.200100  1.0  -0.0239
  C  C1547  1  0.865400  0.436690  0.524200  1.0  -0.0434
  C  C1548  1  0.883100  0.432500  0.573900  1.0  -0.0639
  C  C1549  1  0.906700  0.452300  0.609200  1.0  -0.106
  C  C1550  1  0.912700  0.476340  0.594700  1.0  -0.0817
  C  C1551  1  0.895100  0.480530  0.545000  1.0  -0.0846
  C  C1552  1  0.871400  0.460700  0.509700  1.0  -0.0255
  C  C1553  1  0.584100  0.272400  0.957100  1.0  -0.0384
  C  C1554  1  0.571600  0.260100  0.913300  1.0  -0.0381
  C  C1555  1  0.543200  0.272100  0.867600  1.0  -0.0955
  C  C1556  1  0.527400  0.296400  0.865700  1.0  -0.1085
  C  C1557  1  0.539900  0.308700  0.909500  1.0  -0.0614
  C  C1558  1  0.568300  0.296700  0.955200  1.0  -0.0211
  C  C1559  1  0.786700  0.532800  0.309400  1.0  -0.042
  C  C1560  1  0.775100  0.559000  0.308400  1.0  -0.0593
  C  C1561  1  0.800900  0.579000  0.340200  1.0  -0.0475
  C  C1562  1  0.838300  0.572800  0.373000  1.0  -0.0719
  C  C1563  1  0.849900  0.546600  0.374000  1.0  -0.0301
  C  C1564  1  0.824100  0.526600  0.342200  1.0  -0.028
  C  C1565  1  0.656600  0.422000  0.486500  1.0  -0.0331
  C  C1566  1  0.626700  0.438200  0.449700  1.0  -0.0712
  C  C1567  1  0.591000  0.428300  0.422300  1.0  -0.0671
  C  C1568  1  0.585300  0.402400  0.431800  1.0  -0.0319
  C  C1569  1  0.615200  0.386200  0.468700  1.0  -0.038
  C  C1570  1  0.650900  0.396100  0.496000  1.0  -0.0084
  C  C1571  1  0.860000  0.504000  0.293900  1.0  -0.0282
  C  C1572  1  0.856100  0.528500  0.271200  1.0  -0.0322
  C  C1573  1  0.884400  0.547700  0.297100  1.0  -0.0695
  C  C1574  1  0.916500  0.542300  0.345700  1.0  -0.0563
  C  C1575  1  0.920400  0.517800  0.368400  1.0  -0.0468
  C  C1576  1  0.892100  0.498700  0.342500  1.0  -0.0322
  C  C1577  1  0.636000  0.511500  0.155300  1.0  -0.0344
  C  C1578  1  0.605200  0.519200  0.107200  1.0  -0.0198
  C  C1579  1  0.582200  0.539800  0.099800  1.0  -0.0325
  C  C1580  1  0.590100  0.552700  0.140400  1.0  -0.0637
  C  C1581  1  0.620900  0.545000  0.188500  1.0  -0.0635
  C  C1582  1  0.643900  0.524400  0.196000  1.0  -0.0455
  C  C1583  1  0.844600  0.284000  0.189800  1.0  -0.0487
  C  C1584  1  0.845800  0.307200  0.168600  1.0  -0.0155
  C  C1585  1  0.854300  0.304900  0.138500  1.0  -0.0425
  C  C1586  1  0.861500  0.279400  0.129600  1.0  -0.0337
  C  C1587  1  0.860400  0.256100  0.150900  1.0  -0.0539
  C  C1588  1  0.851900  0.258400  0.181000  1.0  -0.031
  C  C1589  1  0.942000  0.409200  0.509100  1.0  0.1043
  C  C1590  1  0.974300  0.398100  0.545000  1.0  -0.0579
  C  C1591  1  0.991100  0.438100  0.592500  1.0  0.4346
  C  C1592  1  0.936200  0.431300  0.523500  1.0  0.1018
  C  C1593  1  0.767700  0.501300  0.406000  1.0  -0.0529
  C  C1594  1  0.798400  0.507100  0.455300  1.0  -0.0253
  C  C1595  1  0.807100  0.534100  0.471600  1.0  -0.0254
  C  C1596  1  0.785100  0.555200  0.438500  1.0  -0.0575
  C  C1597  1  0.754500  0.549400  0.389200  1.0  -0.0539
  C  C1598  1  0.745800  0.522400  0.373000  1.0  -0.003
  C  C1599  1  0.599100  0.466800  0.212000  1.0  -0.1113
  C  C1600  1  0.575700  0.441800  0.196500  1.0  -0.0907
  C  C1601  1  0.533700  0.450300  0.149300  1.0  -0.0642
  C  C1602  1  0.574500  0.486300  0.168000  1.0  -0.1467
  C  C1603  1  0.668400  0.317700  0.991600  1.0  -0.0932
  C  C1604  1  0.705100  0.315500  0.004900  1.0  -0.0819
  C  C1605  1  0.701200  0.294200  0.971000  1.0  -0.0698
  C  C1606  1  0.658600  0.300200  0.922400  1.0  -0.1627
  C  C1607  1  0.635200  0.314100  0.939000  1.0  -0.1453
  C  C1608  1  0.576100  0.447400  0.016100  1.0  -0.0801
  C  C1609  1  0.551900  0.449800  0.962700  1.0  -0.1039
  C  C1610  1  0.515500  0.463500  0.941200  1.0  -0.0991
  C  C1611  1  0.509800  0.471200  0.972900  1.0  0.0269
  C  C1612  1  0.531200  0.468600  0.022500  1.0  -0.0614
  C  C1613  1  0.569500  0.456700  0.044800  1.0  0.0036
  C  C1614  1  0.066200  0.310700  0.457600  1.0  -0.0734
  C  C1615  1  0.042700  0.308300  0.405100  1.0  -0.0305
  C  C1616  1  0.055300  0.316400  0.381800  1.0  -0.0117
  C  C1617  1  0.092700  0.325000  0.408000  1.0  -0.0563
  C  C1618  1  0.121100  0.324000  0.464400  1.0  -0.1126
  C  C1619  1  0.104000  0.316800  0.486500  1.0  0.0058
  C  C1620  1  0.658900  0.240300  0.264800  1.0  -0.0645
  C  C1621  1  0.744700  0.161600  0.269400  1.0  -0.0624
  C  C1622  1  0.699700  0.356800  0.475700  1.0  -0.0392
  C  C1623  1  0.740800  0.164700  0.304600  1.0  0.005
  C  C1624  1  0.879100  0.184100  0.427600  1.0  -0.0508
  C  C1625  1  0.473500  0.332200  0.072300  1.0  -0.0608
  C  C1626  1  0.861100  0.491700  0.639600  1.0  -0.0448
  C  C1627  1  0.865700  0.262500  0.473300  1.0  -0.0523
  C  C1628  1  0.874000  0.238200  0.500700  1.0  -0.0247
  C  C1629  1  0.723100  0.419500  0.993700  1.0  -0.0772
  C  C1630  1  0.746100  0.187000  0.245100  1.0  -0.0904
  C  C1631  1  0.735900  0.189100  0.316500  1.0  -0.0027
  C  C1632  1  0.655600  0.147000  0.107600  1.0  -0.0695
  C  C1633  1  0.771500  0.315200  0.506300  1.0  -0.0261
  C  C1634  1  0.813400  0.500900  0.641400  1.0  -0.0537
  C  C1635  1  0.461700  0.383100  0.951000  1.0  -0.0698
  C  C1636  1  0.531500  0.393600  0.007300  1.0  -0.0551
  C  C1637  1  0.834700  0.495400  0.587500  1.0  0.0201
  C  C1638  1  0.906300  0.201400  0.439000  1.0  0.0054
  C  C1639  1  0.804400  0.394000  0.544400  1.0  -0.0019
  C  C1640  1  0.034100  0.332600  0.625200  1.0  -0.0516
  C  C1641  1  0.825900  0.377100  0.586900  1.0  -0.1091
  C  C1642  1  0.490700  0.404600  0.979300  1.0  -0.0508
  C  C1643  1  0.651500  0.194800  0.119300  1.0  -0.0857
  C  C1644  1  0.897700  0.226200  0.416200  1.0  0.0348
  C  C1645  1  0.786800  0.268900  0.533900  1.0  -0.0294
  C  C1646  1  0.492600  0.377800  0.064600  1.0  -0.062
  C  C1647  1  0.679300  0.396400  0.644800  1.0  -0.0415
  C  C1648  1  0.505600  0.250900  0.113500  1.0  -0.1039
  C  C1649  1  0.679000  0.201800  0.118200  1.0  -0.0646
  C  C1650  1  0.680800  0.316600  0.500900  1.0  -0.0528
  C  C1651  1  0.884200  0.285900  0.500400  1.0  -0.0624
  C  C1652  1  0.678300  0.423800  0.661400  1.0  -0.1095
  C  C1653  1  0.814600  0.382400  0.063300  1.0  -0.057
  C  C1654  1  0.851600  0.493600  0.667800  1.0  -0.1029
  C  C1655  1  0.828100  0.413800  0.634600  1.0  -0.0406
  C  C1656  1  0.833600  0.219500  0.369600  1.0  -0.0491
  C  C1657  1  0.679700  0.214200  0.338100  1.0  -0.022
  C  C1658  1  0.709900  0.324700  0.553000  1.0  -0.0398
  C  C1659  1  0.916500  0.262100  0.577200  1.0  -0.0992
  C  C1660  1  0.771500  0.293400  0.531100  1.0  -0.0409
  C  C1661  1  0.511500  0.323100  0.103300  1.0  -0.0432
  C  C1662  1  0.806000  0.391400  0.091800  1.0  0.0188
  C  C1663  1  0.898900  0.238800  0.551900  1.0  -0.0049
  C  C1664  1  0.680200  0.238100  0.316700  1.0  0.0033
  C  C1665  1  0.836700  0.401700  0.060400  1.0  -0.0424
  C  C1666  1  0.737100  0.213400  0.295200  1.0  -0.0174
  C  C1667  1  0.481400  0.256700  0.061100  1.0  0.0003
  C  C1668  1  0.734600  0.346600  0.568200  1.0  -0.0606
  C  C1669  1  0.789300  0.505300  0.589700  1.0  -0.0907
  C  C1670  1  0.684600  0.153600  0.109000  1.0  -0.0497
  C  C1671  1  0.637400  0.193400  0.256900  1.0  -0.0511
  C  C1672  1  0.466100  0.358000  0.051200  1.0  -0.0044
  C  C1673  1  0.048300  0.316900  0.609500  1.0  -0.0139
  C  C1674  1  0.799900  0.502900  0.562900  1.0  0.0178
  C  C1675  1  0.819900  0.414900  0.117700  1.0  -0.0942
  C  C1676  1  0.584800  0.382700  0.251900  1.0  0.0879
  C  C1677  1  0.800500  0.287700  0.484300  1.0  -0.0188
  C  C1678  1  0.471200  0.355300  0.949200  1.0  -0.0491
  C  C1679  1  0.636400  0.218100  0.233500  1.0  -0.0717
  C  C1680  1  0.539300  0.341900  0.115800  1.0  -0.0951
  C  C1681  1  0.536400  0.364900  0.002800  1.0  -0.0662
  C  C1682  1  0.495000  0.264800  0.040000  1.0  0.0069
  C  C1683  1  0.659500  0.191700  0.308600  1.0  -0.0599
  C  C1684  1  0.025000  0.304800  0.563000  1.0  -0.0064
  C  C1685  1  0.533300  0.267100  0.068300  1.0  -0.0859
  C  C1686  1  0.909600  0.286700  0.551700  1.0  -0.0804
  C  C1687  1  0.785800  0.312100  0.482200  1.0  -0.073
  C  C1688  1  0.698000  0.390700  0.629200  1.0  -0.0413
  C  C1689  1  0.795900  0.420800  0.547200  1.0  -0.0698
  C  C1690  1  0.987200  0.309300  0.530900  1.0  -0.0669
  C  C1691  1  0.509900  0.347300  0.980900  1.0  0.0459
  C  C1692  1  0.740600  0.211600  0.260400  1.0  -0.0922
  C  C1693  1  0.802200  0.265600  0.510900  1.0  -0.0839
  C  C1694  1  0.557300  0.260700  0.118100  1.0  -0.0087
  C  C1695  1  0.862800  0.235500  0.382100  1.0  -0.0731
  C  C1696  1  0.640000  0.168800  0.114900  1.0  -0.0618
  C  C1697  1  0.544200  0.252400  0.141700  1.0  -0.0581
  C  C1698  1  0.672700  0.335300  0.457500  1.0  -0.1264
  C  C1699  1  0.702500  0.444300  0.665300  1.0  0.0296
  C  C1700  1  0.015400  0.380600  0.485000  1.0  -0.1368
  C  C1701  1  0.852500  0.425000  0.086600  1.0  -0.0596
  C  C1702  1  0.806500  0.431600  0.590400  1.0  -0.0463
  C  C1703  1  0.694500  0.180000  0.110300  1.0  -0.0731
  C  C1704  1  0.842900  0.193800  0.394400  1.0  -0.0104
  C  C1705  1  0.837300  0.387100  0.633000  1.0  -0.0961
  C  C1706  1  0.727300  0.362200  0.528500  1.0  -0.0166
  C  C1707  1  0.530800  0.368500  0.097900  1.0  -0.0355
  C  C1708  1  0.722900  0.438600  0.655000  1.0  -0.0445
  C  C1709  1  0.721300  0.412900  0.634100  1.0  -0.0765
  C  C1710  1  0.995300  0.336600  0.593100  1.0  -0.0907
  C  C1711  1  0.844400  0.432800  0.118100  1.0  -0.0769
  C  C1712  1  0.971800  0.324700  0.545700  1.0  -0.0161
  C  C1713  1  0.731000  0.253900  0.091400  1.0  -0.0698
  C  C1714  1  0.918500  0.217000  0.308400  1.0  -0.0702
  C  C1715  1  0.708000  0.243900  0.048800  1.0  0.0896
  C  C1716  1  0.920300  0.246000  0.305600  1.0  -0.0606
  C  C1717  1  0.967000  0.216500  0.400400  1.0  -0.024
  C  C1718  1  0.940800  0.202000  0.356400  1.0  -0.0747
  C  C1719  1  0.967700  0.247200  0.397300  1.0  -0.0711
  C  C1720  1  0.580600  0.281800  0.288300  1.0  -0.0696
  C  C1721  1  0.608300  0.276300  0.337800  1.0  -0.0295
  C  C1722  1  0.646200  0.285500  0.365300  1.0  -0.0609
  C  C1723  1  0.585100  0.296200  0.257400  1.0  -0.0579
  C  C1724  1  0.623300  0.305200  0.285200  1.0  0.0045
  C  C1725  1  0.943400  0.259700  0.351800  1.0  -0.0543
  C  C1726  1  0.651800  0.300300  0.334600  1.0  -0.0883
  C  C1727  1  0.701400  0.402000  0.002700  1.0  -0.0732
  C  C1728  1  0.726800  0.409500  0.960100  1.0  -0.1184
  C  C1729  1  0.700100  0.377200  0.975000  1.0  -0.0882
  C  C1730  1  0.533000  0.477500  0.147000  1.0  -0.0673
  C  C1731  1  0.040800  0.375400  0.543100  1.0  -0.0845
  C  C1732  1  0.964100  0.449100  0.558000  1.0  0.2554
  C  C1733  1  0.615200  0.474900  0.517700  1.0  -0.0936
  C  C1734  1  0.520600  0.368200  0.198600  1.0  0.0261
  C  C1735  1  0.006400  0.417000  0.596000  1.0  -0.0168
  C  C1736  1  0.585100  0.407400  0.283000  1.0  -0.1084
  C  C1737  1  0.749700  0.211300  0.072400  1.0  -0.0985
  C  C1738  1  0.560900  0.369900  0.221200  1.0  0.2251
  C  C1739  1  0.510900  0.388100  0.207800  1.0  -0.0775
  C  C1740  1  0.711400  0.221500  0.027800  1.0  -0.0646
  C  C1741  1  0.165800  0.983100  0.376900  1.0  -0.0652
  C  C1742  1  0.193700  0.997600  0.419500  1.0  -0.0315
  C  C1743  1  0.196700  0.025700  0.416900  1.0  -0.0395
  C  C1744  1  0.171800  0.039200  0.371600  1.0  -0.0496
  C  C1745  1  0.143900  0.024600  0.329000  1.0  -0.0924
  C  C1746  1  0.140900  0.996600  0.331600  1.0  -0.0703
  C  C1747  1  0.444000  0.943700  0.397500  1.0  -0.0433
  C  C1748  1  0.473100  0.953300  0.401900  1.0  -0.0792
  C  C1749  1  0.500400  0.969400  0.442400  1.0  -0.0827
  C  C1750  1  0.498700  0.975900  0.478600  1.0  -0.0369
  C  C1751  1  0.469600  0.966300  0.474200  1.0  -0.0278
  C  C1752  1  0.442300  0.950200  0.433700  1.0  0.0029
  C  C1753  1  0.407500  0.863700  0.247800  1.0  -0.0441
  C  C1754  1  0.443700  0.854400  0.281400  1.0  -0.0615
  C  C1755  1  0.464400  0.852900  0.267300  1.0  -0.1096
  C  C1756  1  0.448800  0.860700  0.219600  1.0  -0.1014
  C  C1757  1  0.412700  0.870000  0.186000  1.0  -0.0389
  C  C1758  1  0.392000  0.871500  0.200100  1.0  -0.0239
  C  C1759  1  0.365400  0.936690  0.524200  1.0  -0.0434
  C  C1760  1  0.383100  0.932500  0.573900  1.0  -0.0639
  C  C1761  1  0.406700  0.952300  0.609200  1.0  -0.106
  C  C1762  1  0.412700  0.976340  0.594700  1.0  -0.0817
  C  C1763  1  0.395100  0.980530  0.545000  1.0  -0.0846
  C  C1764  1  0.371400  0.960700  0.509700  1.0  -0.0255
  C  C1765  1  0.084100  0.772400  0.957100  1.0  -0.0384
  C  C1766  1  0.071600  0.760100  0.913300  1.0  -0.0381
  C  C1767  1  0.043200  0.772100  0.867600  1.0  -0.0955
  C  C1768  1  0.027400  0.796400  0.865700  1.0  -0.1085
  C  C1769  1  0.039900  0.808700  0.909500  1.0  -0.0614
  C  C1770  1  0.068300  0.796700  0.955200  1.0  -0.0211
  C  C1771  1  0.286700  0.032800  0.309400  1.0  -0.042
  C  C1772  1  0.275100  0.059000  0.308400  1.0  -0.0593
  C  C1773  1  0.300900  0.079000  0.340200  1.0  -0.0475
  C  C1774  1  0.338300  0.072800  0.373000  1.0  -0.0719
  C  C1775  1  0.349900  0.046600  0.374000  1.0  -0.0301
  C  C1776  1  0.324100  0.026600  0.342200  1.0  -0.028
  C  C1777  1  0.156600  0.922000  0.486500  1.0  -0.0331
  C  C1778  1  0.126700  0.938200  0.449700  1.0  -0.0712
  C  C1779  1  0.091000  0.928300  0.422300  1.0  -0.0671
  C  C1780  1  0.085300  0.902400  0.431800  1.0  -0.0319
  C  C1781  1  0.115200  0.886200  0.468700  1.0  -0.038
  C  C1782  1  0.150900  0.896100  0.496000  1.0  -0.0084
  C  C1783  1  0.360000  0.004000  0.293900  1.0  -0.0282
  C  C1784  1  0.356100  0.028500  0.271200  1.0  -0.0322
  C  C1785  1  0.384400  0.047700  0.297100  1.0  -0.0695
  C  C1786  1  0.416500  0.042300  0.345700  1.0  -0.0563
  C  C1787  1  0.420400  0.017800  0.368400  1.0  -0.0468
  C  C1788  1  0.392100  0.998700  0.342500  1.0  -0.0322
  C  C1789  1  0.136000  0.011500  0.155300  1.0  -0.0344
  C  C1790  1  0.105200  0.019200  0.107200  1.0  -0.0198
  C  C1791  1  0.082200  0.039800  0.099800  1.0  -0.0325
  C  C1792  1  0.090100  0.052700  0.140400  1.0  -0.0637
  C  C1793  1  0.120900  0.045000  0.188500  1.0  -0.0635
  C  C1794  1  0.143900  0.024400  0.196000  1.0  -0.0455
  C  C1795  1  0.344600  0.784000  0.189800  1.0  -0.0487
  C  C1796  1  0.345800  0.807200  0.168600  1.0  -0.0155
  C  C1797  1  0.354300  0.804900  0.138500  1.0  -0.0425
  C  C1798  1  0.361500  0.779400  0.129600  1.0  -0.0337
  C  C1799  1  0.360400  0.756100  0.150900  1.0  -0.0539
  C  C1800  1  0.351900  0.758400  0.181000  1.0  -0.031
  C  C1801  1  0.442000  0.909200  0.509100  1.0  0.1043
  C  C1802  1  0.474300  0.898100  0.545000  1.0  -0.0579
  C  C1803  1  0.491100  0.938100  0.592500  1.0  0.4346
  C  C1804  1  0.436200  0.931300  0.523500  1.0  0.1018
  C  C1805  1  0.267700  0.001300  0.406000  1.0  -0.0529
  C  C1806  1  0.298400  0.007100  0.455300  1.0  -0.0253
  C  C1807  1  0.307100  0.034100  0.471600  1.0  -0.0254
  C  C1808  1  0.285100  0.055200  0.438500  1.0  -0.0575
  C  C1809  1  0.254500  0.049400  0.389200  1.0  -0.0539
  C  C1810  1  0.245800  0.022400  0.373000  1.0  -0.003
  C  C1811  1  0.099100  0.966800  0.212000  1.0  -0.1112
  C  C1812  1  0.075700  0.941800  0.196500  1.0  -0.0907
  C  C1813  1  0.033700  0.950300  0.149300  1.0  -0.0642
  C  C1814  1  0.074500  0.986300  0.168000  1.0  -0.1467
  C  C1815  1  0.168400  0.817700  0.991600  1.0  -0.0932
  C  C1816  1  0.205100  0.815500  0.004900  1.0  -0.0819
  C  C1817  1  0.201200  0.794200  0.971000  1.0  -0.0698
  C  C1818  1  0.158600  0.800200  0.922400  1.0  -0.1627
  C  C1819  1  0.135200  0.814100  0.939000  1.0  -0.1453
  C  C1820  1  0.076100  0.947400  0.016100  1.0  -0.0801
  C  C1821  1  0.051900  0.949800  0.962700  1.0  -0.1039
  C  C1822  1  0.015500  0.963500  0.941200  1.0  -0.0991
  C  C1823  1  0.009800  0.971200  0.972900  1.0  0.0269
  C  C1824  1  0.031200  0.968600  0.022500  1.0  -0.0614
  C  C1825  1  0.069500  0.956700  0.044800  1.0  0.0036
  C  C1826  1  0.566200  0.810700  0.457600  1.0  -0.0734
  C  C1827  1  0.542700  0.808300  0.405100  1.0  -0.0305
  C  C1828  1  0.555300  0.816400  0.381800  1.0  -0.0117
  C  C1829  1  0.592700  0.825000  0.408000  1.0  -0.0563
  C  C1830  1  0.621100  0.824000  0.464400  1.0  -0.1126
  C  C1831  1  0.604000  0.816800  0.486500  1.0  0.0058
  C  C1832  1  0.158900  0.740300  0.264800  1.0  -0.0645
  C  C1833  1  0.244700  0.661600  0.269400  1.0  -0.0624
  C  C1834  1  0.199700  0.856800  0.475700  1.0  -0.0392
  C  C1835  1  0.240800  0.664700  0.304600  1.0  0.005
  C  C1836  1  0.379100  0.684100  0.427600  1.0  -0.0508
  C  C1837  1  0.973500  0.832200  0.072300  1.0  -0.0608
  C  C1838  1  0.361100  0.991700  0.639600  1.0  -0.0448
  C  C1839  1  0.365700  0.762500  0.473300  1.0  -0.0523
  C  C1840  1  0.374000  0.738200  0.500700  1.0  -0.0247
  C  C1841  1  0.223100  0.919500  0.993700  1.0  -0.0772
  C  C1842  1  0.246100  0.687000  0.245100  1.0  -0.0904
  C  C1843  1  0.235900  0.689100  0.316500  1.0  -0.0027
  C  C1844  1  0.155600  0.647000  0.107600  1.0  -0.0695
  C  C1845  1  0.271500  0.815200  0.506300  1.0  -0.0261
  C  C1846  1  0.313400  0.000900  0.641400  1.0  -0.0537
  C  C1847  1  0.961700  0.883100  0.951000  1.0  -0.0698
  C  C1848  1  0.031500  0.893600  0.007300  1.0  -0.0551
  C  C1849  1  0.334700  0.995400  0.587500  1.0  0.0201
  C  C1850  1  0.406300  0.701400  0.439000  1.0  0.0054
  C  C1851  1  0.304400  0.894000  0.544400  1.0  -0.0019
  C  C1852  1  0.534100  0.832600  0.625200  1.0  -0.0516
  C  C1853  1  0.325900  0.877100  0.586900  1.0  -0.1091
  C  C1854  1  0.990700  0.904600  0.979300  1.0  -0.0508
  C  C1855  1  0.151500  0.694800  0.119300  1.0  -0.0857
  C  C1856  1  0.397700  0.726200  0.416200  1.0  0.0348
  C  C1857  1  0.286800  0.768900  0.533900  1.0  -0.0294
  C  C1858  1  0.992600  0.877800  0.064600  1.0  -0.062
  C  C1859  1  0.179300  0.896400  0.644800  1.0  -0.0415
  C  C1860  1  0.005600  0.750900  0.113500  1.0  -0.1039
  C  C1861  1  0.179000  0.701800  0.118200  1.0  -0.0646
  C  C1862  1  0.180800  0.816600  0.500900  1.0  -0.0528
  C  C1863  1  0.384200  0.785900  0.500400  1.0  -0.0624
  C  C1864  1  0.178300  0.923800  0.661400  1.0  -0.1095
  C  C1865  1  0.314600  0.882400  0.063300  1.0  -0.057
  C  C1866  1  0.351600  0.993600  0.667800  1.0  -0.1029
  C  C1867  1  0.328100  0.913800  0.634600  1.0  -0.0406
  C  C1868  1  0.333600  0.719500  0.369600  1.0  -0.0491
  C  C1869  1  0.179700  0.714200  0.338100  1.0  -0.022
  C  C1870  1  0.209900  0.824700  0.553000  1.0  -0.0398
  C  C1871  1  0.416500  0.762100  0.577200  1.0  -0.0992
  C  C1872  1  0.271500  0.793400  0.531100  1.0  -0.0409
  C  C1873  1  0.011500  0.823100  0.103300  1.0  -0.0432
  C  C1874  1  0.306000  0.891400  0.091800  1.0  0.0188
  C  C1875  1  0.398900  0.738800  0.551900  1.0  -0.0049
  C  C1876  1  0.180200  0.738100  0.316700  1.0  0.0033
  C  C1877  1  0.336700  0.901700  0.060400  1.0  -0.0424
  C  C1878  1  0.237100  0.713400  0.295200  1.0  -0.0174
  C  C1879  1  0.981400  0.756700  0.061100  1.0  0.0003
  C  C1880  1  0.234600  0.846600  0.568200  1.0  -0.0606
  C  C1881  1  0.289300  0.005300  0.589700  1.0  -0.0907
  C  C1882  1  0.184600  0.653600  0.109000  1.0  -0.0497
  C  C1883  1  0.137400  0.693400  0.256900  1.0  -0.0511
  C  C1884  1  0.966100  0.858000  0.051200  1.0  -0.0044
  C  C1885  1  0.548300  0.816900  0.609500  1.0  -0.0139
  C  C1886  1  0.299900  0.002900  0.562900  1.0  0.0178
  C  C1887  1  0.319900  0.914900  0.117700  1.0  -0.0942
  C  C1888  1  0.084800  0.882700  0.251900  1.0  0.0879
  C  C1889  1  0.300500  0.787700  0.484300  1.0  -0.0188
  C  C1890  1  0.971200  0.855300  0.949200  1.0  -0.0491
  C  C1891  1  0.136400  0.718100  0.233500  1.0  -0.0717
  C  C1892  1  0.039300  0.841900  0.115800  1.0  -0.0951
  C  C1893  1  0.036400  0.864900  0.002800  1.0  -0.0662
  C  C1894  1  0.995000  0.764800  0.040000  1.0  0.0069
  C  C1895  1  0.159500  0.691700  0.308600  1.0  -0.0599
  C  C1896  1  0.525000  0.804800  0.563000  1.0  -0.0064
  C  C1897  1  0.033300  0.767100  0.068300  1.0  -0.0859
  C  C1898  1  0.409600  0.786700  0.551700  1.0  -0.0804
  C  C1899  1  0.285800  0.812100  0.482200  1.0  -0.073
  C  C1900  1  0.198000  0.890700  0.629200  1.0  -0.0413
  C  C1901  1  0.295900  0.920800  0.547200  1.0  -0.0698
  C  C1902  1  0.487200  0.809300  0.530900  1.0  -0.0669
  C  C1903  1  0.009900  0.847300  0.980900  1.0  0.0459
  C  C1904  1  0.240600  0.711600  0.260400  1.0  -0.0922
  C  C1905  1  0.302200  0.765600  0.510900  1.0  -0.0839
  C  C1906  1  0.057300  0.760700  0.118100  1.0  -0.0087
  C  C1907  1  0.362800  0.735500  0.382100  1.0  -0.0731
  C  C1908  1  0.140000  0.668800  0.114900  1.0  -0.0618
  C  C1909  1  0.044200  0.752400  0.141700  1.0  -0.0581
  C  C1910  1  0.172700  0.835300  0.457500  1.0  -0.1264
  C  C1911  1  0.202500  0.944300  0.665300  1.0  0.0296
  C  C1912  1  0.515400  0.880600  0.485000  1.0  -0.1368
  C  C1913  1  0.352500  0.925000  0.086600  1.0  -0.0596
  C  C1914  1  0.306500  0.931600  0.590400  1.0  -0.0463
  C  C1915  1  0.194500  0.680000  0.110300  1.0  -0.0731
  C  C1916  1  0.342900  0.693800  0.394400  1.0  -0.0104
  C  C1917  1  0.337300  0.887100  0.633000  1.0  -0.0961
  C  C1918  1  0.227300  0.862200  0.528500  1.0  -0.0166
  C  C1919  1  0.030800  0.868500  0.097900  1.0  -0.0355
  C  C1920  1  0.222900  0.938600  0.655000  1.0  -0.0445
  C  C1921  1  0.221300  0.912900  0.634100  1.0  -0.0765
  C  C1922  1  0.495300  0.836600  0.593100  1.0  -0.0907
  C  C1923  1  0.344400  0.932800  0.118100  1.0  -0.0769
  C  C1924  1  0.471800  0.824700  0.545700  1.0  -0.0161
  C  C1925  1  0.231000  0.753900  0.091400  1.0  -0.0698
  C  C1926  1  0.418500  0.717000  0.308400  1.0  -0.0702
  C  C1927  1  0.208000  0.743900  0.048800  1.0  0.0896
  C  C1928  1  0.420300  0.746000  0.305600  1.0  -0.0606
  C  C1929  1  0.467000  0.716500  0.400400  1.0  -0.024
  C  C1930  1  0.440800  0.702000  0.356400  1.0  -0.0747
  C  C1931  1  0.467700  0.747200  0.397300  1.0  -0.0711
  C  C1932  1  0.080600  0.781800  0.288300  1.0  -0.0696
  C  C1933  1  0.108300  0.776300  0.337800  1.0  -0.0295
  C  C1934  1  0.146200  0.785500  0.365300  1.0  -0.0609
  C  C1935  1  0.085100  0.796200  0.257400  1.0  -0.0579
  C  C1936  1  0.123300  0.805200  0.285200  1.0  0.0045
  C  C1937  1  0.443400  0.759700  0.351800  1.0  -0.0543
  C  C1938  1  0.151800  0.800300  0.334600  1.0  -0.0883
  C  C1939  1  0.201400  0.902000  0.002700  1.0  -0.0732
  C  C1940  1  0.226800  0.909500  0.960100  1.0  -0.1184
  C  C1941  1  0.200100  0.877200  0.975000  1.0  -0.0882
  C  C1942  1  0.033000  0.977500  0.147000  1.0  -0.0673
  C  C1943  1  0.540800  0.875400  0.543100  1.0  -0.0845
  C  C1944  1  0.464100  0.949100  0.558000  1.0  0.2554
  C  C1945  1  0.115200  0.974900  0.517700  1.0  -0.0936
  C  C1946  1  0.020600  0.868200  0.198600  1.0  0.0261
  C  C1947  1  0.506400  0.917000  0.596000  1.0  -0.0168
  C  C1948  1  0.085100  0.907400  0.283000  1.0  -0.1084
  C  C1949  1  0.249700  0.711300  0.072400  1.0  -0.0985
  C  C1950  1  0.060900  0.869900  0.221200  1.0  0.2251
  C  C1951  1  0.010900  0.888100  0.207800  1.0  -0.0775
  C  C1952  1  0.211400  0.721500  0.027800  1.0  -0.0646
  S  S1953  1  0.341750  0.698720  0.861620  1.0  0.1406
  S  S1954  1  0.197990  0.631170  0.636750  1.0  0.1248
  S  S1955  1  0.231030  0.680910  0.754330  1.0  0.1534
  S  S1956  1  0.195540  0.601200  0.743930  1.0  0.1295
  S  S1957  1  0.307520  0.652550  0.745460  1.0  0.125
  S  S1958  1  0.272460  0.572680  0.738260  1.0  0.3221
  S  S1959  1  0.306550  0.622310  0.854560  1.0  0.1557
  S  S1960  1  0.451190  0.721680  0.962300  1.0  -0.3355
  S  S1961  1  0.269930  0.544610  0.844720  1.0  0.1469
  S  S1962  1  0.123960  0.659980  0.645710  1.0  0.1578
  S  S1963  1  0.342850  0.729940  0.764800  1.0  -0.3159
  S  S1964  1  0.089260  0.613950  0.539510  1.0  -0.245
  S  S1965  1  0.230520  0.715660  0.644890  1.0  -0.2395
  S  S1966  1  0.275770  0.600050  0.634730  1.0  0.2115
  S  S1967  1  0.160510  0.589650  0.518500  1.0  -0.3459
  S  S1968  1  0.213470  0.658130  0.545670  1.0  -0.3214
  S  S1969  1  0.369780  0.779830  0.871470  1.0  -0.3197
  S  S1970  1  0.040960  0.706870  0.527940  1.0  -0.3169
  S  S1971  1  0.258410  0.758490  0.767610  1.0  -0.3118
  S  S1972  1  0.173420  0.522140  0.745970  1.0  -0.3329
  S  S1973  1  0.148080  0.732280  0.648750  1.0  -0.3271
  S  S1974  1  0.161200  0.548690  0.623240  1.0  -0.1673
  S  S1975  1  0.125540  0.682100  0.531240  1.0  -0.325
  S  S1976  1  0.414580  0.670790  0.843500  1.0  -0.3305
  S  S1977  1  0.230460  0.557110  0.503460  1.0  -0.3459
  S  S1978  1  0.228970  0.651660  0.864790  1.0  -0.1201
  S  S1979  1  0.415430  0.646040  0.959250  1.0  -0.3805
  S  S1980  1  0.380310  0.744310  0.985900  1.0  -0.314
  S  S1981  1  0.302510  0.691340  0.634530  1.0  -0.3357
  S  S1982  1  0.385900  0.591360  0.848810  1.0  -0.2266
  S  S1983  1  0.163760  0.716440  0.769260  1.0  -0.3126
  S  S1984  1  0.053780  0.704040  0.653590  1.0  -0.3497
  S  S1985  1  0.257720  0.485240  0.441940  1.0  -0.3568
  S  S1986  1  0.274710  0.727620  0.871620  1.0  -0.3306
  S  S1987  1  0.185300  0.573770  0.839140  1.0  -0.3402
  S  S1988  1  0.350290  0.535690  0.740660  1.0  -0.3543
  S  S1989  1  0.246400  0.493200  0.727100  1.0  -0.3173
  S  S1990  1  0.247090  0.537680  0.339120  1.0  -0.3514
  S  S1991  1  0.248140  0.530150  0.625630  1.0  -0.2672
  S  S1992  1  0.346110  0.663460  0.973920  1.0  -0.3232
  S  S1993  1  0.117180  0.635350  0.732860  1.0  -0.3088
  S  S1994  1  0.368990  0.619420  0.721450  1.0  -0.3124
  S  S1995  1  0.381140  0.569910  0.958620  1.0  -0.2047
  S  S1996  1  0.307970  0.623750  0.566520  1.0  -0.2064
  S  S1997  1  0.348190  0.504160  0.464450  1.0  -0.3353
  S  S1998  1  0.019720  0.634750  0.573440  1.0  -0.2833
  S  S1999  1  0.335390  0.515900  0.836460  1.0  -0.3439
  S  S2000  1  0.302680  0.588500  0.955460  1.0  -0.3299
  S  S2001  1  0.344400  0.553450  0.626590  1.0  -0.3571
  S  S2002  1  0.091560  0.575450  0.645000  1.0  -0.2007
  S  S2003  1  0.948550  0.696920  0.509870  1.0  -0.3567
  S  S2004  1  0.299840  0.566600  0.478080  1.0  -0.3131
  S  S2005  1  0.841750  0.198720  0.861620  1.0  0.1406
  S  S2006  1  0.697990  0.131170  0.636750  1.0  0.1248
  S  S2007  1  0.731030  0.180910  0.754330  1.0  0.1534
  S  S2008  1  0.695540  0.101200  0.743930  1.0  0.1295
  S  S2009  1  0.807520  0.152550  0.745460  1.0  0.125
  S  S2010  1  0.772460  0.072680  0.738260  1.0  0.3221
  S  S2011  1  0.806550  0.122310  0.854560  1.0  0.1557
  S  S2012  1  0.951190  0.221680  0.962300  1.0  -0.3355
  S  S2013  1  0.769930  0.044610  0.844720  1.0  0.1469
  S  S2014  1  0.623960  0.159980  0.645710  1.0  0.1578
  S  S2015  1  0.842850  0.229940  0.764800  1.0  -0.3159
  S  S2016  1  0.589260  0.113950  0.539510  1.0  -0.245
  S  S2017  1  0.730520  0.215660  0.644890  1.0  -0.2395
  S  S2018  1  0.775770  0.100050  0.634730  1.0  0.2115
  S  S2019  1  0.660510  0.089650  0.518500  1.0  -0.3459
  S  S2020  1  0.713470  0.158130  0.545670  1.0  -0.3214
  S  S2021  1  0.869780  0.279830  0.871470  1.0  -0.3197
  S  S2022  1  0.540960  0.206870  0.527940  1.0  -0.3169
  S  S2023  1  0.758410  0.258490  0.767610  1.0  -0.3118
  S  S2024  1  0.673420  0.022140  0.745970  1.0  -0.3329
  S  S2025  1  0.648080  0.232280  0.648750  1.0  -0.3271
  S  S2026  1  0.661200  0.048690  0.623240  1.0  -0.1673
  S  S2027  1  0.625540  0.182100  0.531240  1.0  -0.325
  S  S2028  1  0.914580  0.170790  0.843500  1.0  -0.3305
  S  S2029  1  0.730460  0.057110  0.503460  1.0  -0.3459
  S  S2030  1  0.728970  0.151660  0.864790  1.0  -0.1201
  S  S2031  1  0.915430  0.146040  0.959250  1.0  -0.3805
  S  S2032  1  0.880310  0.244310  0.985900  1.0  -0.314
  S  S2033  1  0.802510  0.191340  0.634530  1.0  -0.3357
  S  S2034  1  0.885900  0.091360  0.848810  1.0  -0.2266
  S  S2035  1  0.663760  0.216440  0.769260  1.0  -0.3126
  S  S2036  1  0.553780  0.204040  0.653590  1.0  -0.3497
  S  S2037  1  0.757720  0.985240  0.441940  1.0  -0.3568
  S  S2038  1  0.774710  0.227620  0.871620  1.0  -0.3306
  S  S2039  1  0.685300  0.073770  0.839140  1.0  -0.3402
  S  S2040  1  0.850290  0.035690  0.740660  1.0  -0.3543
  S  S2041  1  0.746400  0.993200  0.727100  1.0  -0.3173
  S  S2042  1  0.747090  0.037680  0.339120  1.0  -0.3514
  S  S2043  1  0.748140  0.030150  0.625630  1.0  -0.2672
  S  S2044  1  0.846110  0.163460  0.973920  1.0  -0.3232
  S  S2045  1  0.617180  0.135350  0.732860  1.0  -0.3088
  S  S2046  1  0.868990  0.119420  0.721450  1.0  -0.3124
  S  S2047  1  0.881140  0.069910  0.958620  1.0  -0.2047
  S  S2048  1  0.807970  0.123750  0.566520  1.0  -0.2064
  S  S2049  1  0.848190  0.004160  0.464450  1.0  -0.3353
  S  S2050  1  0.519720  0.134750  0.573440  1.0  -0.2833
  S  S2051  1  0.835390  0.015900  0.836460  1.0  -0.3439
  S  S2052  1  0.802680  0.088500  0.955460  1.0  -0.3299
  S  S2053  1  0.844400  0.053450  0.626590  1.0  -0.3571
  S  S2054  1  0.591560  0.075450  0.645000  1.0  -0.2007
  S  S2055  1  0.448550  0.196920  0.509870  1.0  -0.3567
  S  S2056  1  0.799840  0.066600  0.478080  1.0  -0.3131
  S  S2057  1  0.341750  0.301280  0.361620  1.0  0.1402
  S  S2058  1  0.197990  0.368830  0.136750  1.0  0.1248
  S  S2059  1  0.231030  0.319090  0.254330  1.0  0.1533
  S  S2060  1  0.195540  0.398800  0.243930  1.0  0.1295
  S  S2061  1  0.307520  0.347450  0.245460  1.0  0.1249
  S  S2062  1  0.272460  0.427320  0.238260  1.0  0.322
  S  S2063  1  0.306550  0.377690  0.354560  1.0  0.1558
  S  S2064  1  0.451190  0.278320  0.462300  1.0  -0.3337
  S  S2065  1  0.269930  0.455390  0.344720  1.0  0.1472
  S  S2066  1  0.123960  0.340020  0.145710  1.0  0.1578
  S  S2067  1  0.342850  0.270060  0.264800  1.0  -0.3182
  S  S2068  1  0.089260  0.386050  0.039510  1.0  -0.2468
  S  S2069  1  0.230520  0.284340  0.144890  1.0  -0.24
  S  S2070  1  0.275770  0.399950  0.134730  1.0  0.2116
  S  S2071  1  0.160510  0.410350  0.018500  1.0  -0.3458
  S  S2072  1  0.213470  0.341870  0.045670  1.0  -0.3221
  S  S2073  1  0.369780  0.220170  0.371470  1.0  -0.3192
  S  S2074  1  0.040960  0.293130  0.027940  1.0  -0.3132
  S  S2075  1  0.258410  0.241510  0.267610  1.0  -0.3117
  S  S2076  1  0.173420  0.477860  0.245970  1.0  -0.3323
  S  S2077  1  0.148080  0.267720  0.148750  1.0  -0.3268
  S  S2078  1  0.161200  0.451310  0.123240  1.0  -0.1666
  S  S2079  1  0.125540  0.317900  0.031240  1.0  -0.3249
  S  S2080  1  0.414580  0.329210  0.343500  1.0  -0.3315
  S  S2081  1  0.230460  0.442890  0.003460  1.0  -0.3461
  S  S2082  1  0.228970  0.348340  0.364790  1.0  -0.1202
  S  S2083  1  0.415430  0.353960  0.459250  1.0  -0.3807
  S  S2084  1  0.380310  0.255690  0.485900  1.0  -0.3194
  S  S2085  1  0.302510  0.308660  0.134530  1.0  -0.3358
  S  S2086  1  0.385900  0.408640  0.348810  1.0  -0.2281
  S  S2087  1  0.163760  0.283560  0.269260  1.0  -0.3129
  S  S2088  1  0.053780  0.295960  0.153590  1.0  -0.3509
  S  S2089  1  0.257720  0.514760  0.941940  1.0  -0.3565
  S  S2090  1  0.274710  0.272380  0.371620  1.0  -0.3301
  S  S2091  1  0.185300  0.426230  0.339140  1.0  -0.3399
  S  S2092  1  0.350290  0.464310  0.240660  1.0  -0.3545
  S  S2093  1  0.246400  0.506800  0.227100  1.0  -0.3174
  S  S2094  1  0.247090  0.462320  0.839120  1.0  -0.3509
  S  S2095  1  0.248140  0.469850  0.125630  1.0  -0.2689
  S  S2096  1  0.346110  0.336540  0.473920  1.0  -0.3229
  S  S2097  1  0.117180  0.364650  0.232860  1.0  -0.3086
  S  S2098  1  0.368990  0.380580  0.221450  1.0  -0.3121
  S  S2099  1  0.381140  0.430090  0.458620  1.0  -0.2054
  S  S2100  1  0.307970  0.376250  0.066520  1.0  -0.2062
  S  S2101  1  0.348190  0.495840  0.964450  1.0  -0.335
  S  S2102  1  0.019720  0.365250  0.073440  1.0  -0.2842
  S  S2103  1  0.335390  0.484100  0.336460  1.0  -0.3444
  S  S2104  1  0.302680  0.411500  0.455460  1.0  -0.3293
  S  S2105  1  0.344400  0.446550  0.126590  1.0  -0.3565
  S  S2106  1  0.091560  0.424550  0.145000  1.0  -0.2004
  S  S2107  1  0.948550  0.303080  0.009870  1.0  -0.3568
  S  S2108  1  0.299840  0.433400  0.978080  1.0  -0.3124
  S  S2109  1  0.841750  0.801280  0.361620  1.0  0.1401
  S  S2110  1  0.697990  0.868830  0.136750  1.0  0.1248
  S  S2111  1  0.731030  0.819090  0.254330  1.0  0.1533
  S  S2112  1  0.695540  0.898800  0.243930  1.0  0.1295
  S  S2113  1  0.807520  0.847450  0.245460  1.0  0.1249
  S  S2114  1  0.772460  0.927320  0.238260  1.0  0.322
  S  S2115  1  0.806550  0.877690  0.354560  1.0  0.1558
  S  S2116  1  0.951190  0.778320  0.462300  1.0  -0.3335
  S  S2117  1  0.769930  0.955390  0.344720  1.0  0.1472
  S  S2118  1  0.623960  0.840020  0.145710  1.0  0.1578
  S  S2119  1  0.842850  0.770060  0.264800  1.0  -0.3182
  S  S2120  1  0.589260  0.886050  0.039510  1.0  -0.2468
  S  S2121  1  0.730520  0.784340  0.144890  1.0  -0.24
  S  S2122  1  0.775770  0.899950  0.134730  1.0  0.2116
  S  S2123  1  0.660510  0.910350  0.018500  1.0  -0.3458
  S  S2124  1  0.713470  0.841870  0.045670  1.0  -0.3221
  S  S2125  1  0.869780  0.720170  0.371470  1.0  -0.3192
  S  S2126  1  0.540960  0.793130  0.027940  1.0  -0.3132
  S  S2127  1  0.758410  0.741510  0.267610  1.0  -0.3117
  S  S2128  1  0.673420  0.977860  0.245970  1.0  -0.3323
  S  S2129  1  0.648080  0.767720  0.148750  1.0  -0.3268
  S  S2130  1  0.661200  0.951310  0.123240  1.0  -0.1666
  S  S2131  1  0.625540  0.817900  0.031240  1.0  -0.3249
  S  S2132  1  0.914580  0.829210  0.343500  1.0  -0.3315
  S  S2133  1  0.730460  0.942890  0.003460  1.0  -0.3459
  S  S2134  1  0.728970  0.848340  0.364790  1.0  -0.1202
  S  S2135  1  0.915430  0.853960  0.459250  1.0  -0.3806
  S  S2136  1  0.880310  0.755690  0.485900  1.0  -0.3194
  S  S2137  1  0.802510  0.808660  0.134530  1.0  -0.3358
  S  S2138  1  0.885900  0.908640  0.348810  1.0  -0.2281
  S  S2139  1  0.663760  0.783560  0.269260  1.0  -0.3129
  S  S2140  1  0.553780  0.795960  0.153590  1.0  -0.3509
  S  S2141  1  0.757720  0.014760  0.941940  1.0  -0.3565
  S  S2142  1  0.774710  0.772380  0.371620  1.0  -0.3301
  S  S2143  1  0.685300  0.926230  0.339140  1.0  -0.3399
  S  S2144  1  0.850290  0.964310  0.240660  1.0  -0.3545
  S  S2145  1  0.746400  0.006800  0.227100  1.0  -0.3174
  S  S2146  1  0.747090  0.962320  0.839120  1.0  -0.3509
  S  S2147  1  0.748140  0.969850  0.125630  1.0  -0.2687
  S  S2148  1  0.846110  0.836540  0.473920  1.0  -0.3229
  S  S2149  1  0.617180  0.864650  0.232860  1.0  -0.3086
  S  S2150  1  0.868990  0.880580  0.221450  1.0  -0.3121
  S  S2151  1  0.881140  0.930090  0.458620  1.0  -0.2054
  S  S2152  1  0.807970  0.876250  0.066520  1.0  -0.206
  S  S2153  1  0.848190  0.995840  0.964450  1.0  -0.335
  S  S2154  1  0.519720  0.865250  0.073440  1.0  -0.2842
  S  S2155  1  0.835390  0.984100  0.336460  1.0  -0.3444
  S  S2156  1  0.802680  0.911500  0.455460  1.0  -0.3293
  S  S2157  1  0.844400  0.946550  0.126590  1.0  -0.3565
  S  S2158  1  0.591560  0.924550  0.145000  1.0  -0.2004
  S  S2159  1  0.448550  0.803080  0.009870  1.0  -0.3568
  S  S2160  1  0.799840  0.933400  0.978080  1.0  -0.3124
  S  S2161  1  0.658250  0.698720  0.638380  1.0  0.1398
  S  S2162  1  0.802010  0.631170  0.863250  1.0  0.1241
  S  S2163  1  0.768970  0.680910  0.745670  1.0  0.1532
  S  S2164  1  0.804460  0.601200  0.756070  1.0  0.1289
  S  S2165  1  0.692480  0.652550  0.754540  1.0  0.1261
  S  S2166  1  0.727540  0.572680  0.761740  1.0  0.3224
  S  S2167  1  0.693450  0.622310  0.645440  1.0  0.1565
  S  S2168  1  0.548810  0.721680  0.537700  1.0  -0.3358
  S  S2169  1  0.730070  0.544610  0.655280  1.0  0.1457
  S  S2170  1  0.876040  0.659980  0.854290  1.0  0.158
  S  S2171  1  0.657150  0.729940  0.735200  1.0  -0.3164
  S  S2172  1  0.910740  0.613950  0.960490  1.0  -0.2454
  S  S2173  1  0.769480  0.715660  0.855110  1.0  -0.2393
  S  S2174  1  0.724230  0.600050  0.865270  1.0  0.2118
  S  S2175  1  0.839490  0.589650  0.981500  1.0  -0.3464
  S  S2176  1  0.786530  0.658130  0.954330  1.0  -0.321
  S  S2177  1  0.630220  0.779830  0.628530  1.0  -0.3207
  S  S2178  1  0.959040  0.706870  0.972060  1.0  -0.3171
  S  S2179  1  0.741590  0.758490  0.732390  1.0  -0.3103
  S  S2180  1  0.826580  0.522140  0.754030  1.0  -0.3346
  S  S2181  1  0.851920  0.732280  0.851250  1.0  -0.3274
  S  S2182  1  0.838800  0.548690  0.876760  1.0  -0.1674
  S  S2183  1  0.874460  0.682100  0.968760  1.0  -0.3252
  S  S2184  1  0.585420  0.670790  0.656500  1.0  -0.3308
  S  S2185  1  0.769540  0.557110  0.996540  1.0  -0.3451
  S  S2186  1  0.771030  0.651660  0.635210  1.0  -0.1201
  S  S2187  1  0.584570  0.646040  0.540750  1.0  -0.3817
  S  S2188  1  0.619690  0.744310  0.514100  1.0  -0.3147
  S  S2189  1  0.697490  0.691340  0.865470  1.0  -0.337
  S  S2190  1  0.614100  0.591360  0.651190  1.0  -0.2278
  S  S2191  1  0.836240  0.716440  0.730740  1.0  -0.314
  S  S2192  1  0.946220  0.704040  0.846410  1.0  -0.3506
  S  S2193  1  0.742280  0.485240  0.058060  1.0  -0.3574
  S  S2194  1  0.725290  0.727620  0.628380  1.0  -0.3317
  S  S2195  1  0.814700  0.573770  0.660860  1.0  -0.341
  S  S2196  1  0.649710  0.535690  0.759340  1.0  -0.3534
  S  S2197  1  0.753600  0.493200  0.772900  1.0  -0.3182
  S  S2198  1  0.752910  0.537680  0.160880  1.0  -0.3522
  S  S2199  1  0.751860  0.530150  0.874370  1.0  -0.2669
  S  S2200  1  0.653890  0.663460  0.526080  1.0  -0.323
  S  S2201  1  0.882820  0.635350  0.767140  1.0  -0.3094
  S  S2202  1  0.631010  0.619420  0.778550  1.0  -0.31
  S  S2203  1  0.618860  0.569910  0.541380  1.0  -0.2042
  S  S2204  1  0.692030  0.623750  0.933480  1.0  -0.2052
  S  S2205  1  0.651810  0.504160  0.035550  1.0  -0.3343
  S  S2206  1  0.980280  0.634750  0.926560  1.0  -0.2823
  S  S2207  1  0.664610  0.515900  0.663540  1.0  -0.3431
  S  S2208  1  0.697320  0.588500  0.544540  1.0  -0.3308
  S  S2209  1  0.655600  0.553450  0.873410  1.0  -0.3578
  S  S2210  1  0.908440  0.575450  0.855000  1.0  -0.2018
  S  S2211  1  0.051450  0.696920  0.990130  1.0  -0.3583
  S  S2212  1  0.700160  0.566600  0.021920  1.0  -0.3118
  S  S2213  1  0.158250  0.198720  0.638380  1.0  0.1398
  S  S2214  1  0.302010  0.131170  0.863250  1.0  0.1241
  S  S2215  1  0.268970  0.180910  0.745670  1.0  0.1532
  S  S2216  1  0.304460  0.101200  0.756070  1.0  0.1289
  S  S2217  1  0.192480  0.152550  0.754540  1.0  0.1261
  S  S2218  1  0.227540  0.072680  0.761740  1.0  0.3224
  S  S2219  1  0.193450  0.122310  0.645440  1.0  0.1565
  S  S2220  1  0.048810  0.221680  0.537700  1.0  -0.3358
  S  S2221  1  0.230070  0.044610  0.655280  1.0  0.1457
  S  S2222  1  0.376040  0.159980  0.854290  1.0  0.158
  S  S2223  1  0.157150  0.229940  0.735200  1.0  -0.3164
  S  S2224  1  0.410740  0.113950  0.960490  1.0  -0.2454
  S  S2225  1  0.269480  0.215660  0.855110  1.0  -0.2393
  S  S2226  1  0.224230  0.100050  0.865270  1.0  0.2118
  S  S2227  1  0.339490  0.089650  0.981500  1.0  -0.3464
  S  S2228  1  0.286530  0.158130  0.954330  1.0  -0.321
  S  S2229  1  0.130220  0.279830  0.628530  1.0  -0.3207
  S  S2230  1  0.459040  0.206870  0.972060  1.0  -0.3171
  S  S2231  1  0.241590  0.258490  0.732390  1.0  -0.3103
  S  S2232  1  0.326580  0.022140  0.754030  1.0  -0.3346
  S  S2233  1  0.351920  0.232280  0.851250  1.0  -0.3274
  S  S2234  1  0.338800  0.048690  0.876760  1.0  -0.1674
  S  S2235  1  0.374460  0.182100  0.968760  1.0  -0.3252
  S  S2236  1  0.085420  0.170790  0.656500  1.0  -0.3308
  S  S2237  1  0.269540  0.057110  0.996540  1.0  -0.3451
  S  S2238  1  0.271030  0.151660  0.635210  1.0  -0.1201
  S  S2239  1  0.084570  0.146040  0.540750  1.0  -0.3817
  S  S2240  1  0.119690  0.244310  0.514100  1.0  -0.3147
  S  S2241  1  0.197490  0.191340  0.865470  1.0  -0.337
  S  S2242  1  0.114100  0.091360  0.651190  1.0  -0.2278
  S  S2243  1  0.336240  0.216440  0.730740  1.0  -0.314
  S  S2244  1  0.446220  0.204040  0.846410  1.0  -0.3506
  S  S2245  1  0.242280  0.985240  0.058060  1.0  -0.3574
  S  S2246  1  0.225290  0.227620  0.628380  1.0  -0.3317
  S  S2247  1  0.314700  0.073770  0.660860  1.0  -0.341
  S  S2248  1  0.149710  0.035690  0.759340  1.0  -0.3534
  S  S2249  1  0.253600  0.993200  0.772900  1.0  -0.3182
  S  S2250  1  0.252910  0.037680  0.160880  1.0  -0.3522
  S  S2251  1  0.251860  0.030150  0.874370  1.0  -0.2669
  S  S2252  1  0.153890  0.163460  0.526080  1.0  -0.323
  S  S2253  1  0.382820  0.135350  0.767140  1.0  -0.3094
  S  S2254  1  0.131010  0.119420  0.778550  1.0  -0.31
  S  S2255  1  0.118860  0.069910  0.541380  1.0  -0.2042
  S  S2256  1  0.192030  0.123750  0.933480  1.0  -0.2052
  S  S2257  1  0.151810  0.004160  0.035550  1.0  -0.3343
  S  S2258  1  0.480280  0.134750  0.926560  1.0  -0.2823
  S  S2259  1  0.164610  0.015900  0.663540  1.0  -0.3431
  S  S2260  1  0.197320  0.088500  0.544540  1.0  -0.3308
  S  S2261  1  0.155600  0.053450  0.873410  1.0  -0.3578
  S  S2262  1  0.408440  0.075450  0.855000  1.0  -0.2018
  S  S2263  1  0.551450  0.196920  0.990130  1.0  -0.3583
  S  S2264  1  0.200160  0.066600  0.021920  1.0  -0.3118
  S  S2265  1  0.658250  0.301280  0.138380  1.0  0.1394
  S  S2266  1  0.802010  0.368830  0.363250  1.0  0.124
  S  S2267  1  0.768970  0.319090  0.245670  1.0  0.1531
  S  S2268  1  0.804460  0.398800  0.256070  1.0  0.1289
  S  S2269  1  0.692480  0.347450  0.254540  1.0  0.1261
  S  S2270  1  0.727540  0.427320  0.261740  1.0  0.3223
  S  S2271  1  0.693450  0.377690  0.145440  1.0  0.1566
  S  S2272  1  0.548810  0.278320  0.037700  1.0  -0.3336
  S  S2273  1  0.730070  0.455390  0.155280  1.0  0.1459
  S  S2274  1  0.876040  0.340020  0.354290  1.0  0.1581
  S  S2275  1  0.657150  0.270060  0.235200  1.0  -0.3181
  S  S2276  1  0.910740  0.386050  0.460490  1.0  -0.2468
  S  S2277  1  0.769480  0.284340  0.355110  1.0  -0.24
  S  S2278  1  0.724230  0.399950  0.365270  1.0  0.2118
  S  S2279  1  0.839490  0.410350  0.481500  1.0  -0.3457
  S  S2280  1  0.786530  0.341870  0.454330  1.0  -0.3215
  S  S2281  1  0.630220  0.220170  0.128530  1.0  -0.3201
  S  S2282  1  0.959040  0.293130  0.472060  1.0  -0.3133
  S  S2283  1  0.741590  0.241510  0.232390  1.0  -0.3101
  S  S2284  1  0.826580  0.477860  0.254030  1.0  -0.3346
  S  S2285  1  0.851920  0.267720  0.351250  1.0  -0.3272
  S  S2286  1  0.838800  0.451310  0.376760  1.0  -0.1669
  S  S2287  1  0.874460  0.317900  0.468760  1.0  -0.3251
  S  S2288  1  0.585420  0.329210  0.156500  1.0  -0.3316
  S  S2289  1  0.769540  0.442890  0.496540  1.0  -0.3444
  S  S2290  1  0.771030  0.348340  0.135210  1.0  -0.1203
  S  S2291  1  0.584570  0.353960  0.040750  1.0  -0.382
  S  S2292  1  0.619690  0.255690  0.014100  1.0  -0.32
  S  S2293  1  0.697490  0.308660  0.365470  1.0  -0.3371
  S  S2294  1  0.614100  0.408640  0.151190  1.0  -0.2279
  S  S2295  1  0.836240  0.283560  0.230740  1.0  -0.3137
  S  S2296  1  0.946220  0.295960  0.346410  1.0  -0.3514
  S  S2297  1  0.742280  0.514760  0.558060  1.0  -0.3571
  S  S2298  1  0.725290  0.272380  0.128380  1.0  -0.3313
  S  S2299  1  0.814700  0.426230  0.160860  1.0  -0.3405
  S  S2300  1  0.649710  0.464310  0.259340  1.0  -0.3535
  S  S2301  1  0.753600  0.506800  0.272900  1.0  -0.3185
  S  S2302  1  0.752910  0.462320  0.660880  1.0  -0.3518
  S  S2303  1  0.751860  0.469850  0.374370  1.0  -0.2693
  S  S2304  1  0.653890  0.336540  0.026080  1.0  -0.3226
  S  S2305  1  0.882820  0.364650  0.267140  1.0  -0.3095
  S  S2306  1  0.631010  0.380580  0.278550  1.0  -0.3099
  S  S2307  1  0.618860  0.430090  0.041380  1.0  -0.2052
  S  S2308  1  0.692030  0.376250  0.433480  1.0  -0.2046
  S  S2309  1  0.651810  0.495840  0.535550  1.0  -0.3339
  S  S2310  1  0.980280  0.365250  0.426560  1.0  -0.2835
  S  S2311  1  0.664610  0.484100  0.163540  1.0  -0.3436
  S  S2312  1  0.697320  0.411500  0.044540  1.0  -0.3302
  S  S2313  1  0.655600  0.446550  0.373410  1.0  -0.3574
  S  S2314  1  0.908440  0.424550  0.355000  1.0  -0.2018
  S  S2315  1  0.051450  0.303080  0.490130  1.0  -0.3586
  S  S2316  1  0.700160  0.433400  0.521920  1.0  -0.3112
  S  S2317  1  0.158250  0.801280  0.138380  1.0  0.1392
  S  S2318  1  0.302010  0.868830  0.363250  1.0  0.124
  S  S2319  1  0.268970  0.819090  0.245670  1.0  0.1531
  S  S2320  1  0.304460  0.898800  0.256070  1.0  0.1289
  S  S2321  1  0.192480  0.847450  0.254540  1.0  0.1261
  S  S2322  1  0.227540  0.927320  0.261740  1.0  0.3223
  S  S2323  1  0.193450  0.877690  0.145440  1.0  0.1566
  S  S2324  1  0.048810  0.778320  0.037700  1.0  -0.3334
  S  S2325  1  0.230070  0.955390  0.155280  1.0  0.1459
  S  S2326  1  0.376040  0.840020  0.354290  1.0  0.1581
  S  S2327  1  0.157150  0.770060  0.235200  1.0  -0.3181
  S  S2328  1  0.410740  0.886050  0.460490  1.0  -0.2468
  S  S2329  1  0.269480  0.784340  0.355110  1.0  -0.24
  S  S2330  1  0.224230  0.899950  0.365270  1.0  0.2118
  S  S2331  1  0.339490  0.910350  0.481500  1.0  -0.3457
  S  S2332  1  0.286530  0.841870  0.454330  1.0  -0.3215
  S  S2333  1  0.130220  0.720170  0.128530  1.0  -0.3201
  S  S2334  1  0.459040  0.793130  0.472060  1.0  -0.3133
  S  S2335  1  0.241590  0.741510  0.232390  1.0  -0.3101
  S  S2336  1  0.326580  0.977860  0.254030  1.0  -0.3346
  S  S2337  1  0.351920  0.767720  0.351250  1.0  -0.3272
  S  S2338  1  0.338800  0.951310  0.376760  1.0  -0.1669
  S  S2339  1  0.374460  0.817900  0.468760  1.0  -0.3251
  S  S2340  1  0.085420  0.829210  0.156500  1.0  -0.3317
  S  S2341  1  0.269540  0.942890  0.496540  1.0  -0.3441
  S  S2342  1  0.271030  0.848340  0.135210  1.0  -0.1203
  S  S2343  1  0.084570  0.853960  0.040750  1.0  -0.3818
  S  S2344  1  0.119690  0.755690  0.014100  1.0  -0.32
  S  S2345  1  0.197490  0.808660  0.365470  1.0  -0.3371
  S  S2346  1  0.114100  0.908640  0.151190  1.0  -0.2296
  S  S2347  1  0.336240  0.783560  0.230740  1.0  -0.3137
  S  S2348  1  0.446220  0.795960  0.346410  1.0  -0.3514
  S  S2349  1  0.242280  0.014760  0.558060  1.0  -0.3571
  S  S2350  1  0.225290  0.772380  0.128380  1.0  -0.3313
  S  S2351  1  0.314700  0.926230  0.160860  1.0  -0.3405
  S  S2352  1  0.149710  0.964310  0.259340  1.0  -0.3535
  S  S2353  1  0.253600  0.006800  0.272900  1.0  -0.3185
  S  S2354  1  0.252910  0.962320  0.660880  1.0  -0.3518
  S  S2355  1  0.251860  0.969850  0.374370  1.0  -0.2691
  S  S2356  1  0.153890  0.836540  0.026080  1.0  -0.3226
  S  S2357  1  0.382820  0.864650  0.267140  1.0  -0.3095
  S  S2358  1  0.131010  0.880580  0.278550  1.0  -0.3099
  S  S2359  1  0.118860  0.930090  0.041380  1.0  -0.2052
  S  S2360  1  0.192030  0.876250  0.433480  1.0  -0.2044
  S  S2361  1  0.151810  0.995840  0.535550  1.0  -0.3339
  S  S2362  1  0.480280  0.865250  0.426560  1.0  -0.2835
  S  S2363  1  0.164610  0.984100  0.163540  1.0  -0.3436
  S  S2364  1  0.197320  0.911500  0.044540  1.0  -0.3302
  S  S2365  1  0.155600  0.946550  0.373410  1.0  -0.3574
  S  S2366  1  0.408440  0.924550  0.355000  1.0  -0.2018
  S  S2367  1  0.551450  0.803080  0.490130  1.0  -0.3586
  S  S2368  1  0.200160  0.933400  0.521920  1.0  -0.3112
