# generated using pymatgen
data_Cd8C56S13
_symmetry_space_group_name_H-M   'P 1'
_cell_length_a   46.37400000
_cell_length_b   51.58100000
_cell_length_c   53.40700000
_cell_angle_alpha   90.00000000
_cell_angle_beta   90.00000000
_cell_angle_gamma   90.00000000
_symmetry_Int_Tables_number   1
_chemical_formula_structural   Cd8C56S13
_chemical_formula_sum   'Cd512 C3584 S832'
_cell_volume   127750.46762066
_cell_formula_units_Z   64
loop_
 _symmetry_equiv_pos_site_id
 _symmetry_equiv_pos_as_xyz
  1  'x, y, z'
loop_
 _atom_site_type_symbol
 _atom_site_label
 _atom_site_symmetry_multiplicity
 _atom_site_fract_x
 _atom_site_fract_y
 _atom_site_fract_z
 _atom_site_occupancy
 _atom_site_charge
  Cd  Cd1  1  0.606410  0.589800  0.854000  1.0  0.5997
  Cd  Cd2  1  0.549250  0.567880  0.908000  1.0  0.6947
  Cd  Cd3  1  0.664140  0.607930  0.906740  1.0  0.5752
  Cd  Cd4  1  0.602450  0.588390  0.960000  1.0  0.6466
  Cd  Cd5  1  0.626750  0.536990  0.910430  1.0  0.6424
  Cd  Cd6  1  0.526570  0.624680  0.852910  1.0  0.5802
  Cd  Cd7  1  0.667880  0.610630  0.799570  1.0  0.6758
  Cd  Cd8  1  0.683060  0.559380  0.965970  1.0  0.6492
  Cd  Cd9  1  0.729960  0.627620  0.952550  1.0  0.5986
  Cd  Cd10  1  0.543190  0.567780  0.803590  1.0  0.6207
  Cd  Cd11  1  0.626190  0.542900  0.794710  1.0  0.6895
  Cd  Cd12  1  0.684580  0.557290  0.849550  1.0  0.6746
  Cd  Cd13  1  0.739660  0.565080  0.905760  1.0  0.6962
  Cd  Cd14  1  0.575890  0.514960  0.853970  1.0  0.7014
  Cd  Cd15  1  0.768650  0.560450  0.975960  1.0  0.6744
  Cd  Cd16  1  0.561250  0.492110  0.781980  1.0  0.7228
  Cd  Cd17  1  0.606410  0.089800  0.354000  1.0  0.5997
  Cd  Cd18  1  0.549250  0.067880  0.408000  1.0  0.6947
  Cd  Cd19  1  0.664140  0.107930  0.406740  1.0  0.5752
  Cd  Cd20  1  0.602450  0.088390  0.460000  1.0  0.6466
  Cd  Cd21  1  0.626750  0.036990  0.410430  1.0  0.6424
  Cd  Cd22  1  0.526570  0.124680  0.352910  1.0  0.5802
  Cd  Cd23  1  0.667880  0.110630  0.299570  1.0  0.6758
  Cd  Cd24  1  0.683060  0.059380  0.465970  1.0  0.6492
  Cd  Cd25  1  0.729960  0.127620  0.452550  1.0  0.5986
  Cd  Cd26  1  0.543190  0.067780  0.303590  1.0  0.6207
  Cd  Cd27  1  0.626190  0.042900  0.294710  1.0  0.6895
  Cd  Cd28  1  0.684580  0.057290  0.349550  1.0  0.6746
  Cd  Cd29  1  0.739660  0.065080  0.405760  1.0  0.6962
  Cd  Cd30  1  0.575890  0.014960  0.353970  1.0  0.7014
  Cd  Cd31  1  0.768650  0.060450  0.475960  1.0  0.6744
  Cd  Cd32  1  0.561250  0.992110  0.281980  1.0  0.7228
  Cd  Cd33  1  0.106410  0.589800  0.354000  1.0  0.5997
  Cd  Cd34  1  0.049250  0.567880  0.408000  1.0  0.6947
  Cd  Cd35  1  0.164140  0.607930  0.406740  1.0  0.5752
  Cd  Cd36  1  0.102450  0.588390  0.460000  1.0  0.6466
  Cd  Cd37  1  0.126750  0.536990  0.410430  1.0  0.6424
  Cd  Cd38  1  0.026570  0.624680  0.352910  1.0  0.5802
  Cd  Cd39  1  0.167880  0.610630  0.299570  1.0  0.6758
  Cd  Cd40  1  0.183060  0.559380  0.465970  1.0  0.6492
  Cd  Cd41  1  0.229960  0.627620  0.452550  1.0  0.5986
  Cd  Cd42  1  0.043190  0.567780  0.303590  1.0  0.6207
  Cd  Cd43  1  0.126190  0.542900  0.294710  1.0  0.6895
  Cd  Cd44  1  0.184580  0.557290  0.349550  1.0  0.6746
  Cd  Cd45  1  0.239660  0.565080  0.405760  1.0  0.6962
  Cd  Cd46  1  0.075890  0.514960  0.353970  1.0  0.7014
  Cd  Cd47  1  0.268650  0.560450  0.475960  1.0  0.6744
  Cd  Cd48  1  0.061250  0.492110  0.281980  1.0  0.7228
  Cd  Cd49  1  0.106410  0.089800  0.854000  1.0  0.5997
  Cd  Cd50  1  0.049250  0.067880  0.908000  1.0  0.6947
  Cd  Cd51  1  0.164140  0.107930  0.906740  1.0  0.5752
  Cd  Cd52  1  0.102450  0.088390  0.960000  1.0  0.6466
  Cd  Cd53  1  0.126750  0.036990  0.910430  1.0  0.6424
  Cd  Cd54  1  0.026570  0.124680  0.852910  1.0  0.5802
  Cd  Cd55  1  0.167880  0.110630  0.799570  1.0  0.6758
  Cd  Cd56  1  0.183060  0.059380  0.965970  1.0  0.6492
  Cd  Cd57  1  0.229960  0.127620  0.952550  1.0  0.5986
  Cd  Cd58  1  0.043190  0.067780  0.803590  1.0  0.6207
  Cd  Cd59  1  0.126190  0.042900  0.794710  1.0  0.6895
  Cd  Cd60  1  0.184580  0.057290  0.849550  1.0  0.6746
  Cd  Cd61  1  0.239660  0.065080  0.905760  1.0  0.6962
  Cd  Cd62  1  0.075890  0.014960  0.853970  1.0  0.7014
  Cd  Cd63  1  0.268650  0.060450  0.975960  1.0  0.6744
  Cd  Cd64  1  0.061250  0.992110  0.781980  1.0  0.7228
  Cd  Cd65  1  0.143590  0.160200  0.854000  1.0  0.5996
  Cd  Cd66  1  0.200750  0.182120  0.908000  1.0  0.6945
  Cd  Cd67  1  0.085860  0.142070  0.906740  1.0  0.5748
  Cd  Cd68  1  0.147550  0.161610  0.960000  1.0  0.6468
  Cd  Cd69  1  0.123250  0.213010  0.910430  1.0  0.6434
  Cd  Cd70  1  0.223430  0.125320  0.852910  1.0  0.5782
  Cd  Cd71  1  0.082120  0.139370  0.799570  1.0  0.6768
  Cd  Cd72  1  0.066940  0.190620  0.965970  1.0  0.6483
  Cd  Cd73  1  0.020040  0.122380  0.952550  1.0  0.5985
  Cd  Cd74  1  0.206810  0.182220  0.803590  1.0  0.6208
  Cd  Cd75  1  0.123810  0.207100  0.794710  1.0  0.6893
  Cd  Cd76  1  0.065420  0.192710  0.849550  1.0  0.6794
  Cd  Cd77  1  0.010340  0.184920  0.905760  1.0  0.6962
  Cd  Cd78  1  0.174110  0.235040  0.853970  1.0  0.7004
  Cd  Cd79  1  0.981350  0.189550  0.975960  1.0  0.6748
  Cd  Cd80  1  0.188750  0.257890  0.781980  1.0  0.7228
  Cd  Cd81  1  0.143590  0.660200  0.354000  1.0  0.5996
  Cd  Cd82  1  0.200750  0.682120  0.408000  1.0  0.6945
  Cd  Cd83  1  0.085860  0.642070  0.406740  1.0  0.5748
  Cd  Cd84  1  0.147550  0.661610  0.460000  1.0  0.6468
  Cd  Cd85  1  0.123250  0.713010  0.410430  1.0  0.6434
  Cd  Cd86  1  0.223430  0.625320  0.352910  1.0  0.5782
  Cd  Cd87  1  0.082120  0.639370  0.299570  1.0  0.6768
  Cd  Cd88  1  0.066940  0.690620  0.465970  1.0  0.6483
  Cd  Cd89  1  0.020040  0.622380  0.452550  1.0  0.5985
  Cd  Cd90  1  0.206810  0.682220  0.303590  1.0  0.6208
  Cd  Cd91  1  0.123810  0.707100  0.294710  1.0  0.6893
  Cd  Cd92  1  0.065420  0.692710  0.349550  1.0  0.6794
  Cd  Cd93  1  0.010340  0.684920  0.405760  1.0  0.6962
  Cd  Cd94  1  0.174110  0.735040  0.353970  1.0  0.7004
  Cd  Cd95  1  0.981350  0.689550  0.475960  1.0  0.6748
  Cd  Cd96  1  0.188750  0.757890  0.281980  1.0  0.7228
  Cd  Cd97  1  0.643590  0.160200  0.354000  1.0  0.5996
  Cd  Cd98  1  0.700750  0.182120  0.408000  1.0  0.6945
  Cd  Cd99  1  0.585860  0.142070  0.406740  1.0  0.5748
  Cd  Cd100  1  0.647550  0.161610  0.460000  1.0  0.6468
  Cd  Cd101  1  0.623250  0.213010  0.410430  1.0  0.6434
  Cd  Cd102  1  0.723430  0.125320  0.352910  1.0  0.5782
  Cd  Cd103  1  0.582120  0.139370  0.299570  1.0  0.6768
  Cd  Cd104  1  0.566940  0.190620  0.465970  1.0  0.6483
  Cd  Cd105  1  0.520040  0.122380  0.452550  1.0  0.5985
  Cd  Cd106  1  0.706810  0.182220  0.303590  1.0  0.6208
  Cd  Cd107  1  0.623810  0.207100  0.294710  1.0  0.6893
  Cd  Cd108  1  0.565420  0.192710  0.349550  1.0  0.6794
  Cd  Cd109  1  0.510340  0.184920  0.405760  1.0  0.6962
  Cd  Cd110  1  0.674110  0.235040  0.353970  1.0  0.7004
  Cd  Cd111  1  0.481350  0.189550  0.475960  1.0  0.6748
  Cd  Cd112  1  0.688750  0.257890  0.281980  1.0  0.7228
  Cd  Cd113  1  0.643590  0.660200  0.854000  1.0  0.5996
  Cd  Cd114  1  0.700750  0.682120  0.908000  1.0  0.6945
  Cd  Cd115  1  0.585860  0.642070  0.906740  1.0  0.5748
  Cd  Cd116  1  0.647550  0.661610  0.960000  1.0  0.6468
  Cd  Cd117  1  0.623250  0.713010  0.910430  1.0  0.6434
  Cd  Cd118  1  0.723430  0.625320  0.852910  1.0  0.5782
  Cd  Cd119  1  0.582120  0.639370  0.799570  1.0  0.6768
  Cd  Cd120  1  0.566940  0.690620  0.965970  1.0  0.6483
  Cd  Cd121  1  0.520040  0.622380  0.952550  1.0  0.5985
  Cd  Cd122  1  0.706810  0.682220  0.803590  1.0  0.6208
  Cd  Cd123  1  0.623810  0.707100  0.794710  1.0  0.6893
  Cd  Cd124  1  0.565420  0.692710  0.849550  1.0  0.6794
  Cd  Cd125  1  0.510340  0.684920  0.905760  1.0  0.6962
  Cd  Cd126  1  0.674110  0.735040  0.853970  1.0  0.7004
  Cd  Cd127  1  0.481350  0.689550  0.975960  1.0  0.6748
  Cd  Cd128  1  0.688750  0.757890  0.781980  1.0  0.7228
  Cd  Cd129  1  0.856410  0.410200  0.104000  1.0  0.5994
  Cd  Cd130  1  0.799250  0.432120  0.158000  1.0  0.695
  Cd  Cd131  1  0.914140  0.392070  0.156740  1.0  0.5748
  Cd  Cd132  1  0.852450  0.411610  0.210000  1.0  0.6465
  Cd  Cd133  1  0.876750  0.463010  0.160430  1.0  0.6433
  Cd  Cd134  1  0.776570  0.375320  0.102910  1.0  0.5802
  Cd  Cd135  1  0.917880  0.389370  0.049570  1.0  0.676
  Cd  Cd136  1  0.933060  0.440620  0.215970  1.0  0.649
  Cd  Cd137  1  0.979960  0.372380  0.202550  1.0  0.5982
  Cd  Cd138  1  0.793190  0.432220  0.053590  1.0  0.6214
  Cd  Cd139  1  0.876190  0.457100  0.044710  1.0  0.6896
  Cd  Cd140  1  0.934580  0.442710  0.099550  1.0  0.6747
  Cd  Cd141  1  0.989660  0.434920  0.155760  1.0  0.6942
  Cd  Cd142  1  0.825890  0.485040  0.103970  1.0  0.7013
  Cd  Cd143  1  0.018650  0.439550  0.225960  1.0  0.6744
  Cd  Cd144  1  0.811250  0.507890  0.031980  1.0  0.7227
  Cd  Cd145  1  0.856410  0.910200  0.604000  1.0  0.5994
  Cd  Cd146  1  0.799250  0.932120  0.658000  1.0  0.695
  Cd  Cd147  1  0.914140  0.892070  0.656740  1.0  0.5748
  Cd  Cd148  1  0.852450  0.911610  0.710000  1.0  0.6465
  Cd  Cd149  1  0.876750  0.963010  0.660430  1.0  0.6433
  Cd  Cd150  1  0.776570  0.875320  0.602910  1.0  0.5802
  Cd  Cd151  1  0.917880  0.889370  0.549570  1.0  0.676
  Cd  Cd152  1  0.933060  0.940620  0.715970  1.0  0.649
  Cd  Cd153  1  0.979960  0.872380  0.702550  1.0  0.5982
  Cd  Cd154  1  0.793190  0.932220  0.553590  1.0  0.6214
  Cd  Cd155  1  0.876190  0.957100  0.544710  1.0  0.6902
  Cd  Cd156  1  0.934580  0.942710  0.599550  1.0  0.6762
  Cd  Cd157  1  0.989660  0.934920  0.655760  1.0  0.6942
  Cd  Cd158  1  0.825890  0.985040  0.603970  1.0  0.7013
  Cd  Cd159  1  0.018650  0.939550  0.725960  1.0  0.6744
  Cd  Cd160  1  0.811250  0.007890  0.531980  1.0  0.7227
  Cd  Cd161  1  0.356410  0.410200  0.604000  1.0  0.5994
  Cd  Cd162  1  0.299250  0.432120  0.658000  1.0  0.695
  Cd  Cd163  1  0.414140  0.392070  0.656740  1.0  0.5748
  Cd  Cd164  1  0.352450  0.411610  0.710000  1.0  0.6465
  Cd  Cd165  1  0.376750  0.463010  0.660430  1.0  0.6433
  Cd  Cd166  1  0.276570  0.375320  0.602910  1.0  0.5802
  Cd  Cd167  1  0.417880  0.389370  0.549570  1.0  0.676
  Cd  Cd168  1  0.433060  0.440620  0.715970  1.0  0.649
  Cd  Cd169  1  0.479960  0.372380  0.702550  1.0  0.5982
  Cd  Cd170  1  0.293190  0.432220  0.553590  1.0  0.6214
  Cd  Cd171  1  0.376190  0.457100  0.544710  1.0  0.6896
  Cd  Cd172  1  0.434580  0.442710  0.599550  1.0  0.6747
  Cd  Cd173  1  0.489660  0.434920  0.655760  1.0  0.6942
  Cd  Cd174  1  0.325890  0.485040  0.603970  1.0  0.7013
  Cd  Cd175  1  0.518650  0.439550  0.725960  1.0  0.6744
  Cd  Cd176  1  0.311250  0.507890  0.531980  1.0  0.7227
  Cd  Cd177  1  0.356410  0.910200  0.104000  1.0  0.5994
  Cd  Cd178  1  0.299250  0.932120  0.158000  1.0  0.695
  Cd  Cd179  1  0.414140  0.892070  0.156740  1.0  0.5748
  Cd  Cd180  1  0.352450  0.911610  0.210000  1.0  0.6465
  Cd  Cd181  1  0.376750  0.963010  0.160430  1.0  0.6433
  Cd  Cd182  1  0.276570  0.875320  0.102910  1.0  0.5802
  Cd  Cd183  1  0.417880  0.889370  0.049570  1.0  0.676
  Cd  Cd184  1  0.433060  0.940620  0.215970  1.0  0.649
  Cd  Cd185  1  0.479960  0.872380  0.202550  1.0  0.5982
  Cd  Cd186  1  0.293190  0.932220  0.053590  1.0  0.6214
  Cd  Cd187  1  0.376190  0.957100  0.044710  1.0  0.6902
  Cd  Cd188  1  0.434580  0.942710  0.099550  1.0  0.6764
  Cd  Cd189  1  0.489660  0.934920  0.155760  1.0  0.6942
  Cd  Cd190  1  0.325890  0.985040  0.103970  1.0  0.7013
  Cd  Cd191  1  0.518650  0.939550  0.225960  1.0  0.6744
  Cd  Cd192  1  0.311250  0.007890  0.031980  1.0  0.7227
  Cd  Cd193  1  0.393590  0.839800  0.104000  1.0  0.5999
  Cd  Cd194  1  0.450750  0.817880  0.158000  1.0  0.694
  Cd  Cd195  1  0.335860  0.857930  0.156740  1.0  0.5755
  Cd  Cd196  1  0.397550  0.838390  0.210000  1.0  0.647
  Cd  Cd197  1  0.373250  0.786990  0.160430  1.0  0.643
  Cd  Cd198  1  0.473430  0.874680  0.102910  1.0  0.5795
  Cd  Cd199  1  0.332120  0.860630  0.049570  1.0  0.6756
  Cd  Cd200  1  0.316940  0.809380  0.215970  1.0  0.6486
  Cd  Cd201  1  0.270040  0.877620  0.202550  1.0  0.5991
  Cd  Cd202  1  0.456810  0.817780  0.053590  1.0  0.6205
  Cd  Cd203  1  0.373810  0.792900  0.044710  1.0  0.6886
  Cd  Cd204  1  0.315420  0.807290  0.099550  1.0  0.6792
  Cd  Cd205  1  0.260340  0.815080  0.155760  1.0  0.6961
  Cd  Cd206  1  0.424110  0.764960  0.103970  1.0  0.7003
  Cd  Cd207  1  0.231350  0.810450  0.225960  1.0  0.6748
  Cd  Cd208  1  0.438750  0.742110  0.031980  1.0  0.7229
  Cd  Cd209  1  0.393590  0.339800  0.604000  1.0  0.5999
  Cd  Cd210  1  0.450750  0.317880  0.658000  1.0  0.694
  Cd  Cd211  1  0.335860  0.357930  0.656740  1.0  0.5755
  Cd  Cd212  1  0.397550  0.338390  0.710000  1.0  0.647
  Cd  Cd213  1  0.373250  0.286990  0.660430  1.0  0.643
  Cd  Cd214  1  0.473430  0.374680  0.602910  1.0  0.5795
  Cd  Cd215  1  0.332120  0.360630  0.549570  1.0  0.6756
  Cd  Cd216  1  0.316940  0.309380  0.715970  1.0  0.6486
  Cd  Cd217  1  0.270040  0.377620  0.702550  1.0  0.5991
  Cd  Cd218  1  0.456810  0.317780  0.553590  1.0  0.6205
  Cd  Cd219  1  0.373810  0.292900  0.544710  1.0  0.6886
  Cd  Cd220  1  0.315420  0.307290  0.599550  1.0  0.6792
  Cd  Cd221  1  0.260340  0.315080  0.655760  1.0  0.6961
  Cd  Cd222  1  0.424110  0.264960  0.603970  1.0  0.7003
  Cd  Cd223  1  0.231350  0.310450  0.725960  1.0  0.6748
  Cd  Cd224  1  0.438750  0.242110  0.531980  1.0  0.7229
  Cd  Cd225  1  0.893590  0.839800  0.604000  1.0  0.5999
  Cd  Cd226  1  0.950750  0.817880  0.658000  1.0  0.694
  Cd  Cd227  1  0.835860  0.857930  0.656740  1.0  0.5755
  Cd  Cd228  1  0.897550  0.838390  0.710000  1.0  0.647
  Cd  Cd229  1  0.873250  0.786990  0.660430  1.0  0.643
  Cd  Cd230  1  0.973430  0.874680  0.602910  1.0  0.5796
  Cd  Cd231  1  0.832120  0.860630  0.549570  1.0  0.6756
  Cd  Cd232  1  0.816940  0.809380  0.715970  1.0  0.6486
  Cd  Cd233  1  0.770040  0.877620  0.702550  1.0  0.5991
  Cd  Cd234  1  0.956810  0.817780  0.553590  1.0  0.6206
  Cd  Cd235  1  0.873810  0.792900  0.544710  1.0  0.6886
  Cd  Cd236  1  0.815420  0.807290  0.599550  1.0  0.6792
  Cd  Cd237  1  0.760340  0.815080  0.655760  1.0  0.6961
  Cd  Cd238  1  0.924110  0.764960  0.603970  1.0  0.7003
  Cd  Cd239  1  0.731350  0.810450  0.725960  1.0  0.6748
  Cd  Cd240  1  0.938750  0.742110  0.531980  1.0  0.7229
  Cd  Cd241  1  0.893590  0.339800  0.104000  1.0  0.5999
  Cd  Cd242  1  0.950750  0.317880  0.158000  1.0  0.694
  Cd  Cd243  1  0.835860  0.357930  0.156740  1.0  0.5755
  Cd  Cd244  1  0.897550  0.338390  0.210000  1.0  0.647
  Cd  Cd245  1  0.873250  0.286990  0.160430  1.0  0.643
  Cd  Cd246  1  0.973430  0.374680  0.102910  1.0  0.5796
  Cd  Cd247  1  0.832120  0.360630  0.049570  1.0  0.6756
  Cd  Cd248  1  0.816940  0.309380  0.215970  1.0  0.6486
  Cd  Cd249  1  0.770040  0.377620  0.202550  1.0  0.5991
  Cd  Cd250  1  0.956810  0.317780  0.053590  1.0  0.6206
  Cd  Cd251  1  0.873810  0.292900  0.044710  1.0  0.6886
  Cd  Cd252  1  0.815420  0.307290  0.099550  1.0  0.6792
  Cd  Cd253  1  0.760340  0.315080  0.155760  1.0  0.6961
  Cd  Cd254  1  0.924110  0.264960  0.103970  1.0  0.7003
  Cd  Cd255  1  0.731350  0.310450  0.225960  1.0  0.6748
  Cd  Cd256  1  0.938750  0.242110  0.031980  1.0  0.7229
  Cd  Cd257  1  0.143590  0.589800  0.896000  1.0  0.5998
  Cd  Cd258  1  0.200750  0.567880  0.842000  1.0  0.6945
  Cd  Cd259  1  0.085860  0.607930  0.843260  1.0  0.5757
  Cd  Cd260  1  0.147550  0.588390  0.790000  1.0  0.6469
  Cd  Cd261  1  0.123250  0.536990  0.839570  1.0  0.6432
  Cd  Cd262  1  0.223430  0.624680  0.897090  1.0  0.5793
  Cd  Cd263  1  0.082120  0.610630  0.950430  1.0  0.6756
  Cd  Cd264  1  0.066940  0.559380  0.784030  1.0  0.6479
  Cd  Cd265  1  0.020040  0.627620  0.797450  1.0  0.5992
  Cd  Cd266  1  0.206810  0.567780  0.946410  1.0  0.6203
  Cd  Cd267  1  0.123810  0.542900  0.955290  1.0  0.6878
  Cd  Cd268  1  0.065420  0.557290  0.900450  1.0  0.6794
  Cd  Cd269  1  0.010340  0.565080  0.844240  1.0  0.6961
  Cd  Cd270  1  0.174110  0.514960  0.896030  1.0  0.7
  Cd  Cd271  1  0.981350  0.560450  0.774040  1.0  0.6745
  Cd  Cd272  1  0.188750  0.492110  0.968020  1.0  0.7229
  Cd  Cd273  1  0.143590  0.089800  0.396000  1.0  0.5998
  Cd  Cd274  1  0.200750  0.067880  0.342000  1.0  0.6945
  Cd  Cd275  1  0.085860  0.107930  0.343260  1.0  0.5757
  Cd  Cd276  1  0.147550  0.088390  0.290000  1.0  0.6469
  Cd  Cd277  1  0.123250  0.036990  0.339570  1.0  0.6432
  Cd  Cd278  1  0.223430  0.124680  0.397090  1.0  0.5793
  Cd  Cd279  1  0.082120  0.110630  0.450430  1.0  0.6756
  Cd  Cd280  1  0.066940  0.059380  0.284030  1.0  0.6479
  Cd  Cd281  1  0.020040  0.127620  0.297450  1.0  0.5992
  Cd  Cd282  1  0.206810  0.067780  0.446410  1.0  0.6203
  Cd  Cd283  1  0.123810  0.042900  0.455290  1.0  0.688
  Cd  Cd284  1  0.065420  0.057290  0.400450  1.0  0.6794
  Cd  Cd285  1  0.010340  0.065080  0.344240  1.0  0.6961
  Cd  Cd286  1  0.174110  0.014960  0.396030  1.0  0.7
  Cd  Cd287  1  0.981350  0.060450  0.274040  1.0  0.6745
  Cd  Cd288  1  0.188750  0.992110  0.468020  1.0  0.7229
  Cd  Cd289  1  0.643590  0.589800  0.396000  1.0  0.5998
  Cd  Cd290  1  0.700750  0.567880  0.342000  1.0  0.6945
  Cd  Cd291  1  0.585860  0.607930  0.343260  1.0  0.5757
  Cd  Cd292  1  0.647550  0.588390  0.290000  1.0  0.6469
  Cd  Cd293  1  0.623250  0.536990  0.339570  1.0  0.6432
  Cd  Cd294  1  0.723430  0.624680  0.397090  1.0  0.5793
  Cd  Cd295  1  0.582120  0.610630  0.450430  1.0  0.6756
  Cd  Cd296  1  0.566940  0.559380  0.284030  1.0  0.6479
  Cd  Cd297  1  0.520040  0.627620  0.297450  1.0  0.5992
  Cd  Cd298  1  0.706810  0.567780  0.446410  1.0  0.6203
  Cd  Cd299  1  0.623810  0.542900  0.455290  1.0  0.688
  Cd  Cd300  1  0.565420  0.557290  0.400450  1.0  0.6794
  Cd  Cd301  1  0.510340  0.565080  0.344240  1.0  0.6961
  Cd  Cd302  1  0.674110  0.514960  0.396030  1.0  0.7
  Cd  Cd303  1  0.481350  0.560450  0.274040  1.0  0.6745
  Cd  Cd304  1  0.688750  0.492110  0.468020  1.0  0.7229
  Cd  Cd305  1  0.643590  0.089800  0.896000  1.0  0.5998
  Cd  Cd306  1  0.700750  0.067880  0.842000  1.0  0.6945
  Cd  Cd307  1  0.585860  0.107930  0.843260  1.0  0.5757
  Cd  Cd308  1  0.647550  0.088390  0.790000  1.0  0.6469
  Cd  Cd309  1  0.623250  0.036990  0.839570  1.0  0.6432
  Cd  Cd310  1  0.723430  0.124680  0.897090  1.0  0.5793
  Cd  Cd311  1  0.582120  0.110630  0.950430  1.0  0.6756
  Cd  Cd312  1  0.566940  0.059380  0.784030  1.0  0.6479
  Cd  Cd313  1  0.520040  0.127620  0.797450  1.0  0.5992
  Cd  Cd314  1  0.706810  0.067780  0.946410  1.0  0.6203
  Cd  Cd315  1  0.623810  0.042900  0.955290  1.0  0.6878
  Cd  Cd316  1  0.565420  0.057290  0.900450  1.0  0.6794
  Cd  Cd317  1  0.510340  0.065080  0.844240  1.0  0.6961
  Cd  Cd318  1  0.674110  0.014960  0.896030  1.0  0.7
  Cd  Cd319  1  0.481350  0.060450  0.774040  1.0  0.6745
  Cd  Cd320  1  0.688750  0.992110  0.968020  1.0  0.7229
  Cd  Cd321  1  0.606410  0.160200  0.896000  1.0  0.5993
  Cd  Cd322  1  0.549250  0.182120  0.842000  1.0  0.6955
  Cd  Cd323  1  0.664140  0.142070  0.843260  1.0  0.5751
  Cd  Cd324  1  0.602450  0.161610  0.790000  1.0  0.6465
  Cd  Cd325  1  0.626750  0.213010  0.839570  1.0  0.6434
  Cd  Cd326  1  0.526570  0.125320  0.897090  1.0  0.5801
  Cd  Cd327  1  0.667880  0.139370  0.950430  1.0  0.6759
  Cd  Cd328  1  0.683060  0.190620  0.784030  1.0  0.6484
  Cd  Cd329  1  0.729960  0.122380  0.797450  1.0  0.5983
  Cd  Cd330  1  0.543190  0.182220  0.946410  1.0  0.6205
  Cd  Cd331  1  0.626190  0.207100  0.955290  1.0  0.6886
  Cd  Cd332  1  0.684580  0.192710  0.900450  1.0  0.6749
  Cd  Cd333  1  0.739660  0.184920  0.844240  1.0  0.696
  Cd  Cd334  1  0.575890  0.235040  0.896030  1.0  0.7011
  Cd  Cd335  1  0.768650  0.189550  0.774040  1.0  0.6741
  Cd  Cd336  1  0.561250  0.257890  0.968020  1.0  0.7227
  Cd  Cd337  1  0.606410  0.660200  0.396000  1.0  0.5993
  Cd  Cd338  1  0.549250  0.682120  0.342000  1.0  0.6955
  Cd  Cd339  1  0.664140  0.642070  0.343260  1.0  0.5751
  Cd  Cd340  1  0.602450  0.661610  0.290000  1.0  0.6465
  Cd  Cd341  1  0.626750  0.713010  0.339570  1.0  0.6434
  Cd  Cd342  1  0.526570  0.625320  0.397090  1.0  0.5801
  Cd  Cd343  1  0.667880  0.639370  0.450430  1.0  0.6759
  Cd  Cd344  1  0.683060  0.690620  0.284030  1.0  0.6484
  Cd  Cd345  1  0.729960  0.622380  0.297450  1.0  0.5983
  Cd  Cd346  1  0.543190  0.682220  0.446410  1.0  0.6205
  Cd  Cd347  1  0.626190  0.707100  0.455290  1.0  0.6889
  Cd  Cd348  1  0.684580  0.692710  0.400450  1.0  0.6749
  Cd  Cd349  1  0.739660  0.684920  0.344240  1.0  0.696
  Cd  Cd350  1  0.575890  0.735040  0.396030  1.0  0.7011
  Cd  Cd351  1  0.768650  0.689550  0.274040  1.0  0.6741
  Cd  Cd352  1  0.561250  0.757890  0.468020  1.0  0.7227
  Cd  Cd353  1  0.106410  0.160200  0.396000  1.0  0.5993
  Cd  Cd354  1  0.049250  0.182120  0.342000  1.0  0.6955
  Cd  Cd355  1  0.164140  0.142070  0.343260  1.0  0.5751
  Cd  Cd356  1  0.102450  0.161610  0.290000  1.0  0.6465
  Cd  Cd357  1  0.126750  0.213010  0.339570  1.0  0.6434
  Cd  Cd358  1  0.026570  0.125320  0.397090  1.0  0.5801
  Cd  Cd359  1  0.167880  0.139370  0.450430  1.0  0.6759
  Cd  Cd360  1  0.183060  0.190620  0.284030  1.0  0.6484
  Cd  Cd361  1  0.229960  0.122380  0.297450  1.0  0.5983
  Cd  Cd362  1  0.043190  0.182220  0.446410  1.0  0.6205
  Cd  Cd363  1  0.126190  0.207100  0.455290  1.0  0.6889
  Cd  Cd364  1  0.184580  0.192710  0.400450  1.0  0.6749
  Cd  Cd365  1  0.239660  0.184920  0.344240  1.0  0.696
  Cd  Cd366  1  0.075890  0.235040  0.396030  1.0  0.7011
  Cd  Cd367  1  0.268650  0.189550  0.274040  1.0  0.6741
  Cd  Cd368  1  0.061250  0.257890  0.468020  1.0  0.7227
  Cd  Cd369  1  0.106410  0.660200  0.896000  1.0  0.5993
  Cd  Cd370  1  0.049250  0.682120  0.842000  1.0  0.6955
  Cd  Cd371  1  0.164140  0.642070  0.843260  1.0  0.5751
  Cd  Cd372  1  0.102450  0.661610  0.790000  1.0  0.6465
  Cd  Cd373  1  0.126750  0.713010  0.839570  1.0  0.6434
  Cd  Cd374  1  0.026570  0.625320  0.897090  1.0  0.5801
  Cd  Cd375  1  0.167880  0.639370  0.950430  1.0  0.6759
  Cd  Cd376  1  0.183060  0.690620  0.784030  1.0  0.6484
  Cd  Cd377  1  0.229960  0.622380  0.797450  1.0  0.5983
  Cd  Cd378  1  0.043190  0.682220  0.946410  1.0  0.6205
  Cd  Cd379  1  0.126190  0.707100  0.955290  1.0  0.6886
  Cd  Cd380  1  0.184580  0.692710  0.900450  1.0  0.6749
  Cd  Cd381  1  0.239660  0.684920  0.844240  1.0  0.696
  Cd  Cd382  1  0.075890  0.735040  0.896030  1.0  0.7011
  Cd  Cd383  1  0.268650  0.689550  0.774040  1.0  0.6741
  Cd  Cd384  1  0.061250  0.757890  0.968020  1.0  0.7227
  Cd  Cd385  1  0.393590  0.410200  0.146000  1.0  0.5995
  Cd  Cd386  1  0.450750  0.432120  0.092000  1.0  0.695
  Cd  Cd387  1  0.335860  0.392070  0.093260  1.0  0.5751
  Cd  Cd388  1  0.397550  0.411610  0.040000  1.0  0.6468
  Cd  Cd389  1  0.373250  0.463010  0.089570  1.0  0.6436
  Cd  Cd390  1  0.473430  0.375320  0.147090  1.0  0.5779
  Cd  Cd391  1  0.332120  0.389370  0.200430  1.0  0.6768
  Cd  Cd392  1  0.316940  0.440620  0.034030  1.0  0.6479
  Cd  Cd393  1  0.270040  0.372380  0.047450  1.0  0.5984
  Cd  Cd394  1  0.456810  0.432220  0.196410  1.0  0.6205
  Cd  Cd395  1  0.373810  0.457100  0.205290  1.0  0.6886
  Cd  Cd396  1  0.315420  0.442710  0.150450  1.0  0.6795
  Cd  Cd397  1  0.260340  0.434920  0.094240  1.0  0.6966
  Cd  Cd398  1  0.424110  0.485040  0.146030  1.0  0.7002
  Cd  Cd399  1  0.231350  0.439550  0.024040  1.0  0.6745
  Cd  Cd400  1  0.438750  0.507890  0.218020  1.0  0.7229
  Cd  Cd401  1  0.393590  0.910200  0.646000  1.0  0.5995
  Cd  Cd402  1  0.450750  0.932120  0.592000  1.0  0.695
  Cd  Cd403  1  0.335860  0.892070  0.593260  1.0  0.5751
  Cd  Cd404  1  0.397550  0.911610  0.540000  1.0  0.6468
  Cd  Cd405  1  0.373250  0.963010  0.589570  1.0  0.6436
  Cd  Cd406  1  0.473430  0.875320  0.647090  1.0  0.5779
  Cd  Cd407  1  0.332120  0.889370  0.700430  1.0  0.6768
  Cd  Cd408  1  0.316940  0.940620  0.534030  1.0  0.6479
  Cd  Cd409  1  0.270040  0.872380  0.547450  1.0  0.5984
  Cd  Cd410  1  0.456810  0.932220  0.696410  1.0  0.6205
  Cd  Cd411  1  0.373810  0.957100  0.705290  1.0  0.6886
  Cd  Cd412  1  0.315420  0.942710  0.650450  1.0  0.6794
  Cd  Cd413  1  0.260340  0.934920  0.594240  1.0  0.6966
  Cd  Cd414  1  0.424110  0.985040  0.646030  1.0  0.7002
  Cd  Cd415  1  0.231350  0.939550  0.524040  1.0  0.6745
  Cd  Cd416  1  0.438750  0.007890  0.718020  1.0  0.7229
  Cd  Cd417  1  0.893590  0.410200  0.646000  1.0  0.5995
  Cd  Cd418  1  0.950750  0.432120  0.592000  1.0  0.695
  Cd  Cd419  1  0.835860  0.392070  0.593260  1.0  0.5751
  Cd  Cd420  1  0.897550  0.411610  0.540000  1.0  0.6468
  Cd  Cd421  1  0.873250  0.463010  0.589570  1.0  0.6436
  Cd  Cd422  1  0.973430  0.375320  0.647090  1.0  0.58
  Cd  Cd423  1  0.832120  0.389370  0.700430  1.0  0.6768
  Cd  Cd424  1  0.816940  0.440620  0.534030  1.0  0.6479
  Cd  Cd425  1  0.770040  0.372380  0.547450  1.0  0.5984
  Cd  Cd426  1  0.956810  0.432220  0.696410  1.0  0.6205
  Cd  Cd427  1  0.873810  0.457100  0.705290  1.0  0.6886
  Cd  Cd428  1  0.815420  0.442710  0.650450  1.0  0.6795
  Cd  Cd429  1  0.760340  0.434920  0.594240  1.0  0.6966
  Cd  Cd430  1  0.924110  0.485040  0.646030  1.0  0.7002
  Cd  Cd431  1  0.731350  0.439550  0.524040  1.0  0.6745
  Cd  Cd432  1  0.938750  0.507890  0.718020  1.0  0.7229
  Cd  Cd433  1  0.893590  0.910200  0.146000  1.0  0.5995
  Cd  Cd434  1  0.950750  0.932120  0.092000  1.0  0.695
  Cd  Cd435  1  0.835860  0.892070  0.093260  1.0  0.5751
  Cd  Cd436  1  0.897550  0.911610  0.040000  1.0  0.6468
  Cd  Cd437  1  0.873250  0.963010  0.089570  1.0  0.6436
  Cd  Cd438  1  0.973430  0.875320  0.147090  1.0  0.58
  Cd  Cd439  1  0.832120  0.889370  0.200430  1.0  0.6768
  Cd  Cd440  1  0.816940  0.940620  0.034030  1.0  0.6479
  Cd  Cd441  1  0.770040  0.872380  0.047450  1.0  0.5984
  Cd  Cd442  1  0.956810  0.932220  0.196410  1.0  0.6205
  Cd  Cd443  1  0.873810  0.957100  0.205290  1.0  0.6886
  Cd  Cd444  1  0.815420  0.942710  0.150450  1.0  0.6794
  Cd  Cd445  1  0.760340  0.934920  0.094240  1.0  0.6966
  Cd  Cd446  1  0.924110  0.985040  0.146030  1.0  0.7002
  Cd  Cd447  1  0.731350  0.939550  0.024040  1.0  0.6745
  Cd  Cd448  1  0.938750  0.007890  0.218020  1.0  0.7229
  Cd  Cd449  1  0.856410  0.839800  0.146000  1.0  0.5996
  Cd  Cd450  1  0.799250  0.817880  0.092000  1.0  0.6952
  Cd  Cd451  1  0.914140  0.857930  0.093260  1.0  0.5754
  Cd  Cd452  1  0.852450  0.838390  0.040000  1.0  0.6465
  Cd  Cd453  1  0.876750  0.786990  0.089570  1.0  0.6428
  Cd  Cd454  1  0.776570  0.874680  0.147090  1.0  0.5801
  Cd  Cd455  1  0.917880  0.860630  0.200430  1.0  0.6756
  Cd  Cd456  1  0.933060  0.809380  0.034030  1.0  0.6485
  Cd  Cd457  1  0.979960  0.877620  0.047450  1.0  0.5989
  Cd  Cd458  1  0.793190  0.817780  0.196410  1.0  0.6207
  Cd  Cd459  1  0.876190  0.792900  0.205290  1.0  0.6889
  Cd  Cd460  1  0.934580  0.807290  0.150450  1.0  0.6754
  Cd  Cd461  1  0.989660  0.815080  0.094240  1.0  0.6959
  Cd  Cd462  1  0.825890  0.764960  0.146030  1.0  0.7011
  Cd  Cd463  1  0.018650  0.810450  0.024040  1.0  0.6741
  Cd  Cd464  1  0.811250  0.742110  0.218020  1.0  0.7228
  Cd  Cd465  1  0.856410  0.339800  0.646000  1.0  0.5996
  Cd  Cd466  1  0.799250  0.317880  0.592000  1.0  0.6952
  Cd  Cd467  1  0.914140  0.357930  0.593260  1.0  0.5754
  Cd  Cd468  1  0.852450  0.338390  0.540000  1.0  0.6465
  Cd  Cd469  1  0.876750  0.286990  0.589570  1.0  0.6428
  Cd  Cd470  1  0.776570  0.374680  0.647090  1.0  0.5801
  Cd  Cd471  1  0.917880  0.360630  0.700430  1.0  0.6756
  Cd  Cd472  1  0.933060  0.309380  0.534030  1.0  0.6485
  Cd  Cd473  1  0.979960  0.377620  0.547450  1.0  0.5989
  Cd  Cd474  1  0.793190  0.317780  0.696410  1.0  0.6207
  Cd  Cd475  1  0.876190  0.292900  0.705290  1.0  0.6889
  Cd  Cd476  1  0.934580  0.307290  0.650450  1.0  0.6754
  Cd  Cd477  1  0.989660  0.315080  0.594240  1.0  0.6959
  Cd  Cd478  1  0.825890  0.264960  0.646030  1.0  0.7011
  Cd  Cd479  1  0.018650  0.310450  0.524040  1.0  0.6741
  Cd  Cd480  1  0.811250  0.242110  0.718020  1.0  0.7228
  Cd  Cd481  1  0.356410  0.839800  0.646000  1.0  0.5996
  Cd  Cd482  1  0.299250  0.817880  0.592000  1.0  0.6952
  Cd  Cd483  1  0.414140  0.857930  0.593260  1.0  0.5754
  Cd  Cd484  1  0.352450  0.838390  0.540000  1.0  0.6465
  Cd  Cd485  1  0.376750  0.786990  0.589570  1.0  0.6428
  Cd  Cd486  1  0.276570  0.874680  0.647090  1.0  0.5801
  Cd  Cd487  1  0.417880  0.860630  0.700430  1.0  0.6756
  Cd  Cd488  1  0.433060  0.809380  0.534030  1.0  0.6485
  Cd  Cd489  1  0.479960  0.877620  0.547450  1.0  0.5989
  Cd  Cd490  1  0.293190  0.817780  0.696410  1.0  0.6207
  Cd  Cd491  1  0.376190  0.792900  0.705290  1.0  0.6889
  Cd  Cd492  1  0.434580  0.807290  0.650450  1.0  0.6749
  Cd  Cd493  1  0.489660  0.815080  0.594240  1.0  0.6959
  Cd  Cd494  1  0.325890  0.764960  0.646030  1.0  0.7011
  Cd  Cd495  1  0.518650  0.810450  0.524040  1.0  0.6741
  Cd  Cd496  1  0.311250  0.742110  0.718020  1.0  0.7228
  Cd  Cd497  1  0.356410  0.339800  0.146000  1.0  0.5996
  Cd  Cd498  1  0.299250  0.317880  0.092000  1.0  0.6952
  Cd  Cd499  1  0.414140  0.357930  0.093260  1.0  0.5754
  Cd  Cd500  1  0.352450  0.338390  0.040000  1.0  0.6465
  Cd  Cd501  1  0.376750  0.286990  0.089570  1.0  0.6428
  Cd  Cd502  1  0.276570  0.374680  0.147090  1.0  0.5801
  Cd  Cd503  1  0.417880  0.360630  0.200430  1.0  0.6756
  Cd  Cd504  1  0.433060  0.309380  0.034030  1.0  0.6485
  Cd  Cd505  1  0.479960  0.377620  0.047450  1.0  0.5989
  Cd  Cd506  1  0.293190  0.317780  0.196410  1.0  0.6207
  Cd  Cd507  1  0.376190  0.292900  0.205290  1.0  0.6889
  Cd  Cd508  1  0.434580  0.307290  0.150450  1.0  0.6749
  Cd  Cd509  1  0.489660  0.315080  0.094240  1.0  0.6959
  Cd  Cd510  1  0.325890  0.264960  0.146030  1.0  0.7011
  Cd  Cd511  1  0.518650  0.310450  0.024040  1.0  0.6741
  Cd  Cd512  1  0.311250  0.242110  0.218020  1.0  0.7228
  C  C513  1  0.494900  0.520400  0.791000  1.0  -0.0739
  C  C514  1  0.469900  0.516700  0.776700  1.0  -0.0101
  C  C515  1  0.443100  0.511300  0.787500  1.0  -0.0181
  C  C516  1  0.441500  0.507300  0.813100  1.0  -0.0294
  C  C517  1  0.465100  0.509900  0.828000  1.0  -0.0644
  C  C518  1  0.491200  0.517700  0.817000  1.0  -0.0076
  C  C519  1  0.768400  0.509600  0.934400  1.0  -0.0393
  C  C520  1  0.767300  0.495800  0.956800  1.0  -0.0344
  C  C521  1  0.761300  0.467900  0.956900  1.0  0.0219
  C  C522  1  0.757500  0.454500  0.936700  1.0  -0.031
  C  C523  1  0.759200  0.469400  0.915200  1.0  0.0174
  C  C524  1  0.765400  0.495800  0.914100  1.0  0.0303
  C  C525  1  0.661700  0.495600  0.950800  1.0  -0.0575
  C  C526  1  0.635200  0.485300  0.953300  1.0  -0.0086
  C  C527  1  0.626100  0.460400  0.966500  1.0  -0.013
  C  C528  1  0.648100  0.449800  0.978900  1.0  0.0115
  C  C529  1  0.677300  0.456200  0.975400  1.0  -0.0718
  C  C530  1  0.683900  0.477200  0.960500  1.0  -0.0185
  C  C531  1  0.478900  0.597100  0.808200  1.0  -0.0764
  C  C532  1  0.456000  0.579800  0.802500  1.0  -0.0648
  C  C533  1  0.435300  0.588700  0.785200  1.0  -0.013
  C  C534  1  0.436400  0.615000  0.773500  1.0  -0.0487
  C  C535  1  0.460000  0.630900  0.779000  1.0  -0.0634
  C  C536  1  0.481300  0.621700  0.797400  1.0  -0.0568
  C  C537  1  0.506700  0.514600  0.887400  1.0  -0.0064
  C  C538  1  0.509700  0.490000  0.881500  1.0  -0.0278
  C  C539  1  0.486700  0.472000  0.891800  1.0  -0.1329
  C  C540  1  0.464800  0.483200  0.908500  1.0  -0.0683
  C  C541  1  0.459700  0.510700  0.908900  1.0  -0.0951
  C  C542  1  0.481600  0.526400  0.894000  1.0  -0.0599
  C  C543  1  0.490300  0.563400  0.948700  1.0  0.0046
  C  C544  1  0.505600  0.544700  0.958400  1.0  0.0643
  C  C545  1  0.494400  0.525900  0.973700  1.0  -0.0109
  C  C546  1  0.465000  0.527900  0.982900  1.0  -0.0506
  C  C547  1  0.446400  0.546500  0.972300  1.0  -0.0703
  C  C548  1  0.460300  0.565500  0.954100  1.0  -0.0334
  C  C549  1  0.544600  0.584600  0.003000  1.0  -0.0821
  C  C550  1  0.558400  0.562100  0.008400  1.0  0.0592
  C  C551  1  0.546600  0.543600  0.023600  1.0  -0.0312
  C  C552  1  0.519600  0.548700  0.035400  1.0  -0.0013
  C  C553  1  0.507500  0.571900  0.030700  1.0  0.0642
  C  C554  1  0.516900  0.586000  0.013000  1.0  0.0522
  C  C555  1  0.594100  0.476000  0.901600  1.0  -0.0623
  C  C556  1  0.572500  0.484200  0.917000  1.0  0.0197
  C  C557  1  0.555600  0.466400  0.933500  1.0  -0.0914
  C  C558  1  0.563700  0.438000  0.931100  1.0  -0.1265
  C  C559  1  0.589400  0.431400  0.914200  1.0  -0.0291
  C  C560  1  0.602700  0.450600  0.897500  1.0  -0.0972
  C  C561  1  0.584700  0.452700  0.831800  1.0  -0.1174
  C  C562  1  0.572000  0.428300  0.838300  1.0  -0.0947
  C  C563  1  0.594000  0.410900  0.843400  1.0  -0.0106
  C  C564  1  0.621900  0.413800  0.836100  1.0  0.0025
  C  C565  1  0.632800  0.436400  0.832000  1.0  -0.0546
  C  C566  1  0.612600  0.459100  0.828700  1.0  -0.0141
  C  C567  1  0.536640  0.612830  0.753440  1.0  -0.0607
  C  C568  1  0.530300  0.639160  0.753500  1.0  -0.0036
  C  C569  1  0.508100  0.648670  0.738580  1.0  -0.0356
  C  C570  1  0.492300  0.631800  0.723590  1.0  -0.093
  C  C571  1  0.498700  0.605500  0.723530  1.0  -0.0694
  C  C572  1  0.520820  0.596000  0.738450  1.0  -0.0527
  C  C573  1  0.608500  0.515310  0.740000  1.0  -0.0431
  C  C574  1  0.591300  0.536780  0.735100  1.0  -0.0134
  C  C575  1  0.587200  0.545090  0.710630  1.0  -0.0498
  C  C576  1  0.600300  0.531900  0.691000  1.0  -0.088
  C  C577  1  0.617500  0.510500  0.695800  1.0  -0.0552
  C  C578  1  0.621700  0.502200  0.720300  1.0  -0.0019
  C  C579  1  0.675000  0.561390  0.753900  1.0  -0.0947
  C  C580  1  0.672300  0.551150  0.729900  1.0  -0.0681
  C  C581  1  0.696000  0.539680  0.718400  1.0  -0.0746
  C  C582  1  0.722300  0.538440  0.730800  1.0  -0.0475
  C  C583  1  0.725000  0.548670  0.754700  1.0  -0.0363
  C  C584  1  0.701300  0.560150  0.766300  1.0  -0.0135
  C  C585  1  0.456100  0.648200  0.871700  1.0  -0.069
  C  C586  1  0.458600  0.626900  0.855900  1.0  -0.001
  C  C587  1  0.435800  0.620200  0.840300  1.0  -0.0305
  C  C588  1  0.410700  0.634900  0.840300  1.0  -0.0284
  C  C589  1  0.408200  0.656200  0.856100  1.0  -0.0554
  C  C590  1  0.431000  0.662900  0.871700  1.0  -0.0598
  C  C591  1  0.633700  0.551700  0.010400  1.0  -0.0522
  C  C592  1  0.624400  0.529300  0.998300  1.0  -0.0712
  C  C593  1  0.615000  0.507200  0.015400  1.0  -0.0369
  C  C594  1  0.617100  0.508500  0.040800  1.0  -0.026
  C  C595  1  0.626100  0.531000  0.050500  1.0  -0.0073
  C  C596  1  0.637000  0.552600  0.035400  1.0  -0.0634
  C  C597  1  0.723500  0.560600  0.022400  1.0  -0.0622
  C  C598  1  0.735700  0.549000  0.042800  1.0  -0.0084
  C  C599  1  0.735300  0.562300  0.067200  1.0  -0.067
  C  C600  1  0.724300  0.588600  0.069000  1.0  -0.1281
  C  C601  1  0.715300  0.601700  0.045200  1.0  -0.0934
  C  C602  1  0.713700  0.586500  0.023900  1.0  0.0327
  C  C603  1  0.750200  0.529000  0.852900  1.0  -0.0541
  C  C604  1  0.759000  0.503800  0.847700  1.0  -0.0625
  C  C605  1  0.781500  0.499400  0.831000  1.0  -0.0811
  C  C606  1  0.795200  0.520200  0.819600  1.0  -0.0381
  C  C607  1  0.786400  0.545400  0.824800  1.0  -0.0363
  C  C608  1  0.764000  0.549800  0.841500  1.0  -0.0147
  C  C609  1  0.803300  0.619700  0.966500  1.0  -0.0533
  C  C610  1  0.825500  0.629100  0.983000  1.0  -0.0206
  C  C611  1  0.854200  0.635500  0.974000  1.0  -0.0648
  C  C612  1  0.858900  0.635200  0.945800  1.0  -0.1039
  C  C613  1  0.835300  0.624500  0.928100  1.0  -0.1022
  C  C614  1  0.808500  0.617500  0.940400  1.0  0.0075
  C  C615  1  0.588800  0.440100  0.747100  1.0  -0.1218
  C  C616  1  0.594700  0.444500  0.720400  1.0  -0.0576
  C  C617  1  0.622800  0.437100  0.711700  1.0  0.0029
  C  C618  1  0.643200  0.428700  0.727400  1.0  0.0065
  C  C619  1  0.637600  0.423400  0.753700  1.0  -0.0458
  C  C620  1  0.609700  0.430400  0.764300  1.0  -0.0896
  C  C621  1  0.686400  0.498400  0.806200  1.0  -0.0845
  C  C622  1  0.704900  0.475900  0.770900  1.0  -0.1208
  C  C623  1  0.683700  0.491100  0.781600  1.0  -0.0153
  C  C624  1  0.701500  0.516700  0.793400  1.0  -0.0788
  C  C625  1  0.494900  0.020400  0.291000  1.0  -0.0739
  C  C626  1  0.469900  0.016700  0.276700  1.0  -0.0101
  C  C627  1  0.443100  0.011300  0.287500  1.0  -0.0181
  C  C628  1  0.441500  0.007300  0.313100  1.0  -0.0294
  C  C629  1  0.465100  0.009900  0.328000  1.0  -0.0644
  C  C630  1  0.491200  0.017700  0.317000  1.0  -0.0076
  C  C631  1  0.768400  0.009600  0.434400  1.0  -0.0393
  C  C632  1  0.767300  0.995800  0.456800  1.0  -0.0344
  C  C633  1  0.761300  0.967900  0.456900  1.0  0.0219
  C  C634  1  0.757500  0.954500  0.436700  1.0  -0.031
  C  C635  1  0.759200  0.969400  0.415200  1.0  0.0174
  C  C636  1  0.765400  0.995800  0.414100  1.0  0.0303
  C  C637  1  0.661700  0.995600  0.450800  1.0  -0.0575
  C  C638  1  0.635200  0.985300  0.453300  1.0  -0.0086
  C  C639  1  0.626100  0.960400  0.466500  1.0  -0.013
  C  C640  1  0.648100  0.949800  0.478900  1.0  0.0115
  C  C641  1  0.677300  0.956200  0.475400  1.0  -0.0718
  C  C642  1  0.683900  0.977200  0.460500  1.0  -0.0185
  C  C643  1  0.478900  0.097100  0.308200  1.0  -0.0764
  C  C644  1  0.456000  0.079800  0.302500  1.0  -0.0648
  C  C645  1  0.435300  0.088700  0.285200  1.0  -0.013
  C  C646  1  0.436400  0.115000  0.273500  1.0  -0.0487
  C  C647  1  0.460000  0.130900  0.279000  1.0  -0.0634
  C  C648  1  0.481300  0.121700  0.297400  1.0  -0.0568
  C  C649  1  0.506700  0.014600  0.387400  1.0  -0.0064
  C  C650  1  0.509700  0.990000  0.381500  1.0  -0.0278
  C  C651  1  0.486700  0.972000  0.391800  1.0  -0.1329
  C  C652  1  0.464800  0.983200  0.408500  1.0  -0.0683
  C  C653  1  0.459700  0.010700  0.408900  1.0  -0.0951
  C  C654  1  0.481600  0.026400  0.394000  1.0  -0.0599
  C  C655  1  0.490300  0.063400  0.448700  1.0  0.0046
  C  C656  1  0.505600  0.044700  0.458400  1.0  0.0643
  C  C657  1  0.494400  0.025900  0.473700  1.0  -0.0109
  C  C658  1  0.465000  0.027900  0.482900  1.0  -0.0506
  C  C659  1  0.446400  0.046500  0.472300  1.0  -0.0703
  C  C660  1  0.460300  0.065500  0.454100  1.0  -0.0334
  C  C661  1  0.544600  0.084600  0.503000  1.0  -0.0821
  C  C662  1  0.558400  0.062100  0.508400  1.0  0.0592
  C  C663  1  0.546600  0.043600  0.523600  1.0  -0.0312
  C  C664  1  0.519600  0.048700  0.535400  1.0  -0.0013
  C  C665  1  0.507500  0.071900  0.530700  1.0  0.0642
  C  C666  1  0.516900  0.086000  0.513000  1.0  0.0522
  C  C667  1  0.594100  0.976000  0.401600  1.0  -0.0623
  C  C668  1  0.572500  0.984200  0.417000  1.0  0.0197
  C  C669  1  0.555600  0.966400  0.433500  1.0  -0.0914
  C  C670  1  0.563700  0.938000  0.431100  1.0  -0.1265
  C  C671  1  0.589400  0.931400  0.414200  1.0  -0.0291
  C  C672  1  0.602700  0.950600  0.397500  1.0  -0.0972
  C  C673  1  0.584700  0.952700  0.331800  1.0  -0.1174
  C  C674  1  0.572000  0.928300  0.338300  1.0  -0.0947
  C  C675  1  0.594000  0.910900  0.343400  1.0  -0.0106
  C  C676  1  0.621900  0.913800  0.336100  1.0  0.0025
  C  C677  1  0.632800  0.936400  0.332000  1.0  -0.0546
  C  C678  1  0.612600  0.959100  0.328700  1.0  -0.0141
  C  C679  1  0.536640  0.112830  0.253440  1.0  -0.0607
  C  C680  1  0.530300  0.139160  0.253500  1.0  -0.0036
  C  C681  1  0.508100  0.148670  0.238580  1.0  -0.0356
  C  C682  1  0.492300  0.131800  0.223590  1.0  -0.093
  C  C683  1  0.498700  0.105500  0.223530  1.0  -0.0694
  C  C684  1  0.520820  0.096000  0.238450  1.0  -0.0527
  C  C685  1  0.608500  0.015310  0.240000  1.0  -0.0431
  C  C686  1  0.591300  0.036780  0.235100  1.0  -0.0134
  C  C687  1  0.587200  0.045090  0.210630  1.0  -0.0498
  C  C688  1  0.600300  0.031900  0.191000  1.0  -0.088
  C  C689  1  0.617500  0.010500  0.195800  1.0  -0.0552
  C  C690  1  0.621700  0.002200  0.220300  1.0  -0.0019
  C  C691  1  0.675000  0.061390  0.253900  1.0  -0.0947
  C  C692  1  0.672300  0.051150  0.229900  1.0  -0.0681
  C  C693  1  0.696000  0.039680  0.218400  1.0  -0.0746
  C  C694  1  0.722300  0.038440  0.230800  1.0  -0.0475
  C  C695  1  0.725000  0.048670  0.254700  1.0  -0.0363
  C  C696  1  0.701300  0.060150  0.266300  1.0  -0.0135
  C  C697  1  0.456100  0.148200  0.371700  1.0  -0.069
  C  C698  1  0.458600  0.126900  0.355900  1.0  -0.001
  C  C699  1  0.435800  0.120200  0.340300  1.0  -0.0305
  C  C700  1  0.410700  0.134900  0.340300  1.0  -0.0284
  C  C701  1  0.408200  0.156200  0.356100  1.0  -0.0554
  C  C702  1  0.431000  0.162900  0.371700  1.0  -0.0598
  C  C703  1  0.633700  0.051700  0.510400  1.0  -0.0522
  C  C704  1  0.624400  0.029300  0.498300  1.0  -0.0712
  C  C705  1  0.615000  0.007200  0.515400  1.0  -0.0369
  C  C706  1  0.617100  0.008500  0.540800  1.0  -0.026
  C  C707  1  0.626100  0.031000  0.550500  1.0  -0.0073
  C  C708  1  0.637000  0.052600  0.535400  1.0  -0.0634
  C  C709  1  0.723500  0.060600  0.522400  1.0  -0.0622
  C  C710  1  0.735700  0.049000  0.542800  1.0  -0.0083
  C  C711  1  0.735300  0.062300  0.567200  1.0  -0.0669
  C  C712  1  0.724300  0.088600  0.569000  1.0  -0.1281
  C  C713  1  0.715300  0.101700  0.545200  1.0  -0.0934
  C  C714  1  0.713700  0.086500  0.523900  1.0  0.0327
  C  C715  1  0.750200  0.029000  0.352900  1.0  -0.0541
  C  C716  1  0.759000  0.003800  0.347700  1.0  -0.0625
  C  C717  1  0.781500  0.999400  0.331000  1.0  -0.0811
  C  C718  1  0.795200  0.020200  0.319600  1.0  -0.0369
  C  C719  1  0.786400  0.045400  0.324800  1.0  -0.0363
  C  C720  1  0.764000  0.049800  0.341500  1.0  -0.0147
  C  C721  1  0.803300  0.119700  0.466500  1.0  -0.0533
  C  C722  1  0.825500  0.129100  0.483000  1.0  -0.0206
  C  C723  1  0.854200  0.135500  0.474000  1.0  -0.0648
  C  C724  1  0.858900  0.135200  0.445800  1.0  -0.1039
  C  C725  1  0.835300  0.124500  0.428100  1.0  -0.1022
  C  C726  1  0.808500  0.117500  0.440400  1.0  0.0075
  C  C727  1  0.588800  0.940100  0.247100  1.0  -0.1218
  C  C728  1  0.594700  0.944500  0.220400  1.0  -0.0576
  C  C729  1  0.622800  0.937100  0.211700  1.0  0.0029
  C  C730  1  0.643200  0.928700  0.227400  1.0  0.0065
  C  C731  1  0.637600  0.923400  0.253700  1.0  -0.0458
  C  C732  1  0.609700  0.930400  0.264300  1.0  -0.0896
  C  C733  1  0.686400  0.998400  0.306200  1.0  -0.0845
  C  C734  1  0.704900  0.975900  0.270900  1.0  -0.1208
  C  C735  1  0.683700  0.991100  0.281600  1.0  -0.0153
  C  C736  1  0.701500  0.016700  0.293400  1.0  -0.0788
  C  C737  1  0.994900  0.520400  0.291000  1.0  -0.0739
  C  C738  1  0.969900  0.516700  0.276700  1.0  -0.0101
  C  C739  1  0.943100  0.511300  0.287500  1.0  -0.0181
  C  C740  1  0.941500  0.507300  0.313100  1.0  -0.0294
  C  C741  1  0.965100  0.509900  0.328000  1.0  -0.0644
  C  C742  1  0.991200  0.517700  0.317000  1.0  -0.0076
  C  C743  1  0.268400  0.509600  0.434400  1.0  -0.0393
  C  C744  1  0.267300  0.495800  0.456800  1.0  -0.0344
  C  C745  1  0.261300  0.467900  0.456900  1.0  0.0219
  C  C746  1  0.257500  0.454500  0.436700  1.0  -0.031
  C  C747  1  0.259200  0.469400  0.415200  1.0  0.0174
  C  C748  1  0.265400  0.495800  0.414100  1.0  0.0303
  C  C749  1  0.161700  0.495600  0.450800  1.0  -0.0575
  C  C750  1  0.135200  0.485300  0.453300  1.0  -0.0086
  C  C751  1  0.126100  0.460400  0.466500  1.0  -0.013
  C  C752  1  0.148100  0.449800  0.478900  1.0  0.0115
  C  C753  1  0.177300  0.456200  0.475400  1.0  -0.0718
  C  C754  1  0.183900  0.477200  0.460500  1.0  -0.0185
  C  C755  1  0.978900  0.597100  0.308200  1.0  -0.0764
  C  C756  1  0.956000  0.579800  0.302500  1.0  -0.0648
  C  C757  1  0.935300  0.588700  0.285200  1.0  -0.013
  C  C758  1  0.936400  0.615000  0.273500  1.0  -0.0487
  C  C759  1  0.960000  0.630900  0.279000  1.0  -0.0634
  C  C760  1  0.981300  0.621700  0.297400  1.0  -0.0568
  C  C761  1  0.006700  0.514600  0.387400  1.0  -0.0064
  C  C762  1  0.009700  0.490000  0.381500  1.0  -0.0278
  C  C763  1  0.986700  0.472000  0.391800  1.0  -0.1329
  C  C764  1  0.964800  0.483200  0.408500  1.0  -0.0683
  C  C765  1  0.959700  0.510700  0.408900  1.0  -0.0951
  C  C766  1  0.981600  0.526400  0.394000  1.0  -0.0599
  C  C767  1  0.990300  0.563400  0.448700  1.0  0.0046
  C  C768  1  0.005600  0.544700  0.458400  1.0  0.0643
  C  C769  1  0.994400  0.525900  0.473700  1.0  -0.0109
  C  C770  1  0.965000  0.527900  0.482900  1.0  -0.0506
  C  C771  1  0.946400  0.546500  0.472300  1.0  -0.0703
  C  C772  1  0.960300  0.565500  0.454100  1.0  -0.0334
  C  C773  1  0.044600  0.584600  0.503000  1.0  -0.0821
  C  C774  1  0.058400  0.562100  0.508400  1.0  0.0592
  C  C775  1  0.046600  0.543600  0.523600  1.0  -0.0312
  C  C776  1  0.019600  0.548700  0.535400  1.0  -0.0013
  C  C777  1  0.007500  0.571900  0.530700  1.0  0.0642
  C  C778  1  0.016900  0.586000  0.513000  1.0  0.0522
  C  C779  1  0.094100  0.476000  0.401600  1.0  -0.0623
  C  C780  1  0.072500  0.484200  0.417000  1.0  0.0197
  C  C781  1  0.055600  0.466400  0.433500  1.0  -0.0914
  C  C782  1  0.063700  0.438000  0.431100  1.0  -0.1265
  C  C783  1  0.089400  0.431400  0.414200  1.0  -0.0291
  C  C784  1  0.102700  0.450600  0.397500  1.0  -0.0972
  C  C785  1  0.084700  0.452700  0.331800  1.0  -0.1174
  C  C786  1  0.072000  0.428300  0.338300  1.0  -0.0947
  C  C787  1  0.094000  0.410900  0.343400  1.0  -0.0106
  C  C788  1  0.121900  0.413800  0.336100  1.0  0.0025
  C  C789  1  0.132800  0.436400  0.332000  1.0  -0.0546
  C  C790  1  0.112600  0.459100  0.328700  1.0  -0.0141
  C  C791  1  0.036640  0.612830  0.253440  1.0  -0.0607
  C  C792  1  0.030300  0.639160  0.253500  1.0  -0.0036
  C  C793  1  0.008100  0.648670  0.238580  1.0  -0.0356
  C  C794  1  0.992300  0.631800  0.223590  1.0  -0.093
  C  C795  1  0.998700  0.605500  0.223530  1.0  -0.0694
  C  C796  1  0.020820  0.596000  0.238450  1.0  -0.0527
  C  C797  1  0.108500  0.515310  0.240000  1.0  -0.0431
  C  C798  1  0.091300  0.536780  0.235100  1.0  -0.0134
  C  C799  1  0.087200  0.545090  0.210630  1.0  -0.0498
  C  C800  1  0.100300  0.531900  0.191000  1.0  -0.088
  C  C801  1  0.117500  0.510500  0.195800  1.0  -0.0552
  C  C802  1  0.121700  0.502200  0.220300  1.0  -0.0019
  C  C803  1  0.175000  0.561390  0.253900  1.0  -0.0947
  C  C804  1  0.172300  0.551150  0.229900  1.0  -0.0681
  C  C805  1  0.196000  0.539680  0.218400  1.0  -0.0746
  C  C806  1  0.222300  0.538440  0.230800  1.0  -0.0475
  C  C807  1  0.225000  0.548670  0.254700  1.0  -0.0363
  C  C808  1  0.201300  0.560150  0.266300  1.0  -0.0135
  C  C809  1  0.956100  0.648200  0.371700  1.0  -0.069
  C  C810  1  0.958600  0.626900  0.355900  1.0  -0.001
  C  C811  1  0.935800  0.620200  0.340300  1.0  -0.0305
  C  C812  1  0.910700  0.634900  0.340300  1.0  -0.0284
  C  C813  1  0.908200  0.656200  0.356100  1.0  -0.0554
  C  C814  1  0.931000  0.662900  0.371700  1.0  -0.0598
  C  C815  1  0.133700  0.551700  0.510400  1.0  -0.0522
  C  C816  1  0.124400  0.529300  0.498300  1.0  -0.0712
  C  C817  1  0.115000  0.507200  0.515400  1.0  -0.0369
  C  C818  1  0.117100  0.508500  0.540800  1.0  -0.026
  C  C819  1  0.126100  0.531000  0.550500  1.0  -0.0073
  C  C820  1  0.137000  0.552600  0.535400  1.0  -0.0634
  C  C821  1  0.223500  0.560600  0.522400  1.0  -0.0622
  C  C822  1  0.235700  0.549000  0.542800  1.0  -0.0083
  C  C823  1  0.235300  0.562300  0.567200  1.0  -0.0669
  C  C824  1  0.224300  0.588600  0.569000  1.0  -0.1281
  C  C825  1  0.215300  0.601700  0.545200  1.0  -0.0934
  C  C826  1  0.213700  0.586500  0.523900  1.0  0.0327
  C  C827  1  0.250200  0.529000  0.352900  1.0  -0.0541
  C  C828  1  0.259000  0.503800  0.347700  1.0  -0.0625
  C  C829  1  0.281500  0.499400  0.331000  1.0  -0.0811
  C  C830  1  0.295200  0.520200  0.319600  1.0  -0.0381
  C  C831  1  0.286400  0.545400  0.324800  1.0  -0.0363
  C  C832  1  0.264000  0.549800  0.341500  1.0  -0.0147
  C  C833  1  0.303300  0.619700  0.466500  1.0  -0.0533
  C  C834  1  0.325500  0.629100  0.483000  1.0  -0.0206
  C  C835  1  0.354200  0.635500  0.474000  1.0  -0.0648
  C  C836  1  0.358900  0.635200  0.445800  1.0  -0.1039
  C  C837  1  0.335300  0.624500  0.428100  1.0  -0.1022
  C  C838  1  0.308500  0.617500  0.440400  1.0  0.0075
  C  C839  1  0.088800  0.440100  0.247100  1.0  -0.1218
  C  C840  1  0.094700  0.444500  0.220400  1.0  -0.0576
  C  C841  1  0.122800  0.437100  0.211700  1.0  0.0029
  C  C842  1  0.143200  0.428700  0.227400  1.0  0.0065
  C  C843  1  0.137600  0.423400  0.253700  1.0  -0.0458
  C  C844  1  0.109700  0.430400  0.264300  1.0  -0.0896
  C  C845  1  0.186400  0.498400  0.306200  1.0  -0.0845
  C  C846  1  0.204900  0.475900  0.270900  1.0  -0.1208
  C  C847  1  0.183700  0.491100  0.281600  1.0  -0.0153
  C  C848  1  0.201500  0.516700  0.293400  1.0  -0.0788
  C  C849  1  0.994900  0.020400  0.791000  1.0  -0.0739
  C  C850  1  0.969900  0.016700  0.776700  1.0  -0.0101
  C  C851  1  0.943100  0.011300  0.787500  1.0  -0.0181
  C  C852  1  0.941500  0.007300  0.813100  1.0  -0.0294
  C  C853  1  0.965100  0.009900  0.828000  1.0  -0.0644
  C  C854  1  0.991200  0.017700  0.817000  1.0  -0.0076
  C  C855  1  0.268400  0.009600  0.934400  1.0  -0.0393
  C  C856  1  0.267300  0.995800  0.956800  1.0  -0.0344
  C  C857  1  0.261300  0.967900  0.956900  1.0  0.0219
  C  C858  1  0.257500  0.954500  0.936700  1.0  -0.031
  C  C859  1  0.259200  0.969400  0.915200  1.0  0.0174
  C  C860  1  0.265400  0.995800  0.914100  1.0  0.0303
  C  C861  1  0.161700  0.995600  0.950800  1.0  -0.0575
  C  C862  1  0.135200  0.985300  0.953300  1.0  -0.0086
  C  C863  1  0.126100  0.960400  0.966500  1.0  -0.013
  C  C864  1  0.148100  0.949800  0.978900  1.0  0.0115
  C  C865  1  0.177300  0.956200  0.975400  1.0  -0.0718
  C  C866  1  0.183900  0.977200  0.960500  1.0  -0.0185
  C  C867  1  0.978900  0.097100  0.808200  1.0  -0.0764
  C  C868  1  0.956000  0.079800  0.802500  1.0  -0.0648
  C  C869  1  0.935300  0.088700  0.785200  1.0  -0.013
  C  C870  1  0.936400  0.115000  0.773500  1.0  -0.0487
  C  C871  1  0.960000  0.130900  0.779000  1.0  -0.0634
  C  C872  1  0.981300  0.121700  0.797400  1.0  -0.0568
  C  C873  1  0.006700  0.014600  0.887400  1.0  -0.0064
  C  C874  1  0.009700  0.990000  0.881500  1.0  -0.0278
  C  C875  1  0.986700  0.972000  0.891800  1.0  -0.1329
  C  C876  1  0.964800  0.983200  0.908500  1.0  -0.0683
  C  C877  1  0.959700  0.010700  0.908900  1.0  -0.0951
  C  C878  1  0.981600  0.026400  0.894000  1.0  -0.0599
  C  C879  1  0.990300  0.063400  0.948700  1.0  0.0046
  C  C880  1  0.005600  0.044700  0.958400  1.0  0.0643
  C  C881  1  0.994400  0.025900  0.973700  1.0  -0.0109
  C  C882  1  0.965000  0.027900  0.982900  1.0  -0.0506
  C  C883  1  0.946400  0.046500  0.972300  1.0  -0.0703
  C  C884  1  0.960300  0.065500  0.954100  1.0  -0.0334
  C  C885  1  0.044600  0.084600  0.003000  1.0  -0.0821
  C  C886  1  0.058400  0.062100  0.008400  1.0  0.0592
  C  C887  1  0.046600  0.043600  0.023600  1.0  -0.0312
  C  C888  1  0.019600  0.048700  0.035400  1.0  -0.0013
  C  C889  1  0.007500  0.071900  0.030700  1.0  0.0642
  C  C890  1  0.016900  0.086000  0.013000  1.0  0.0522
  C  C891  1  0.094100  0.976000  0.901600  1.0  -0.0623
  C  C892  1  0.072500  0.984200  0.917000  1.0  0.0197
  C  C893  1  0.055600  0.966400  0.933500  1.0  -0.0914
  C  C894  1  0.063700  0.938000  0.931100  1.0  -0.1265
  C  C895  1  0.089400  0.931400  0.914200  1.0  -0.0291
  C  C896  1  0.102700  0.950600  0.897500  1.0  -0.0972
  C  C897  1  0.084700  0.952700  0.831800  1.0  -0.1174
  C  C898  1  0.072000  0.928300  0.838300  1.0  -0.0947
  C  C899  1  0.094000  0.910900  0.843400  1.0  -0.0106
  C  C900  1  0.121900  0.913800  0.836100  1.0  0.0025
  C  C901  1  0.132800  0.936400  0.832000  1.0  -0.0546
  C  C902  1  0.112600  0.959100  0.828700  1.0  -0.0141
  C  C903  1  0.036640  0.112830  0.753440  1.0  -0.0607
  C  C904  1  0.030300  0.139160  0.753500  1.0  -0.0036
  C  C905  1  0.008100  0.148670  0.738580  1.0  -0.0356
  C  C906  1  0.992300  0.131800  0.723590  1.0  -0.093
  C  C907  1  0.998700  0.105500  0.723530  1.0  -0.0694
  C  C908  1  0.020820  0.096000  0.738450  1.0  -0.0527
  C  C909  1  0.108500  0.015310  0.740000  1.0  -0.0431
  C  C910  1  0.091300  0.036780  0.735100  1.0  -0.0134
  C  C911  1  0.087200  0.045090  0.710630  1.0  -0.0498
  C  C912  1  0.100300  0.031900  0.691000  1.0  -0.088
  C  C913  1  0.117500  0.010500  0.695800  1.0  -0.0552
  C  C914  1  0.121700  0.002200  0.720300  1.0  -0.0019
  C  C915  1  0.175000  0.061390  0.753900  1.0  -0.0947
  C  C916  1  0.172300  0.051150  0.729900  1.0  -0.0681
  C  C917  1  0.196000  0.039680  0.718400  1.0  -0.0746
  C  C918  1  0.222300  0.038440  0.730800  1.0  -0.0475
  C  C919  1  0.225000  0.048670  0.754700  1.0  -0.0363
  C  C920  1  0.201300  0.060150  0.766300  1.0  -0.0135
  C  C921  1  0.956100  0.148200  0.871700  1.0  -0.069
  C  C922  1  0.958600  0.126900  0.855900  1.0  -0.001
  C  C923  1  0.935800  0.120200  0.840300  1.0  -0.0305
  C  C924  1  0.910700  0.134900  0.840300  1.0  -0.0284
  C  C925  1  0.908200  0.156200  0.856100  1.0  -0.0554
  C  C926  1  0.931000  0.162900  0.871700  1.0  -0.0598
  C  C927  1  0.133700  0.051700  0.010400  1.0  -0.0522
  C  C928  1  0.124400  0.029300  0.998300  1.0  -0.0712
  C  C929  1  0.115000  0.007200  0.015400  1.0  -0.0369
  C  C930  1  0.117100  0.008500  0.040800  1.0  -0.026
  C  C931  1  0.126100  0.031000  0.050500  1.0  -0.0073
  C  C932  1  0.137000  0.052600  0.035400  1.0  -0.0634
  C  C933  1  0.223500  0.060600  0.022400  1.0  -0.0622
  C  C934  1  0.235700  0.049000  0.042800  1.0  -0.0083
  C  C935  1  0.235300  0.062300  0.067200  1.0  -0.067
  C  C936  1  0.224300  0.088600  0.069000  1.0  -0.1281
  C  C937  1  0.215300  0.101700  0.045200  1.0  -0.0934
  C  C938  1  0.213700  0.086500  0.023900  1.0  0.0327
  C  C939  1  0.250200  0.029000  0.852900  1.0  -0.0541
  C  C940  1  0.259000  0.003800  0.847700  1.0  -0.0625
  C  C941  1  0.281500  0.999400  0.831000  1.0  -0.0811
  C  C942  1  0.295200  0.020200  0.819600  1.0  -0.0369
  C  C943  1  0.286400  0.045400  0.824800  1.0  -0.0363
  C  C944  1  0.264000  0.049800  0.841500  1.0  -0.0147
  C  C945  1  0.303300  0.119700  0.966500  1.0  -0.0533
  C  C946  1  0.325500  0.129100  0.983000  1.0  -0.0206
  C  C947  1  0.354200  0.135500  0.974000  1.0  -0.0648
  C  C948  1  0.358900  0.135200  0.945800  1.0  -0.1039
  C  C949  1  0.335300  0.124500  0.928100  1.0  -0.1022
  C  C950  1  0.308500  0.117500  0.940400  1.0  0.0075
  C  C951  1  0.088800  0.940100  0.747100  1.0  -0.1218
  C  C952  1  0.094700  0.944500  0.720400  1.0  -0.0576
  C  C953  1  0.122800  0.937100  0.711700  1.0  0.0029
  C  C954  1  0.143200  0.928700  0.727400  1.0  0.0065
  C  C955  1  0.137600  0.923400  0.753700  1.0  -0.0458
  C  C956  1  0.109700  0.930400  0.764300  1.0  -0.0896
  C  C957  1  0.186400  0.998400  0.806200  1.0  -0.0845
  C  C958  1  0.204900  0.975900  0.770900  1.0  -0.1208
  C  C959  1  0.183700  0.991100  0.781600  1.0  -0.0153
  C  C960  1  0.201500  0.016700  0.793400  1.0  -0.0788
  C  C961  1  0.255100  0.229600  0.791000  1.0  -0.0748
  C  C962  1  0.280100  0.233300  0.776700  1.0  -0.0105
  C  C963  1  0.306900  0.238700  0.787500  1.0  -0.0177
  C  C964  1  0.308500  0.242700  0.813100  1.0  -0.0285
  C  C965  1  0.284900  0.240100  0.828000  1.0  -0.0638
  C  C966  1  0.258800  0.232300  0.817000  1.0  -0.007
  C  C967  1  0.981600  0.240400  0.934400  1.0  -0.0399
  C  C968  1  0.982700  0.254200  0.956800  1.0  -0.0349
  C  C969  1  0.988700  0.282100  0.956900  1.0  0.0194
  C  C970  1  0.992500  0.295500  0.936700  1.0  -0.0294
  C  C971  1  0.990800  0.280600  0.915200  1.0  0.0165
  C  C972  1  0.984600  0.254200  0.914100  1.0  0.03
  C  C973  1  0.088300  0.254400  0.950800  1.0  -0.0577
  C  C974  1  0.114800  0.264700  0.953300  1.0  -0.01
  C  C975  1  0.123900  0.289600  0.966500  1.0  -0.0112
  C  C976  1  0.101900  0.300200  0.978900  1.0  0.0096
  C  C977  1  0.072700  0.293800  0.975400  1.0  -0.0734
  C  C978  1  0.066100  0.272800  0.960500  1.0  -0.0182
  C  C979  1  0.271100  0.152900  0.808200  1.0  -0.0762
  C  C980  1  0.294000  0.170200  0.802500  1.0  -0.0665
  C  C981  1  0.314700  0.161300  0.785200  1.0  -0.0124
  C  C982  1  0.313600  0.135000  0.773500  1.0  -0.0492
  C  C983  1  0.290000  0.119100  0.779000  1.0  -0.064
  C  C984  1  0.268700  0.128300  0.797400  1.0  -0.056
  C  C985  1  0.243300  0.235400  0.887400  1.0  -0.0078
  C  C986  1  0.240300  0.260000  0.881500  1.0  -0.028
  C  C987  1  0.263300  0.278000  0.891800  1.0  -0.1329
  C  C988  1  0.285200  0.266800  0.908500  1.0  -0.0685
  C  C989  1  0.290300  0.239300  0.908900  1.0  -0.0924
  C  C990  1  0.268400  0.223600  0.894000  1.0  -0.0575
  C  C991  1  0.259700  0.186600  0.948700  1.0  0.0035
  C  C992  1  0.244400  0.205300  0.958400  1.0  0.0639
  C  C993  1  0.255600  0.224100  0.973700  1.0  -0.011
  C  C994  1  0.285000  0.222100  0.982900  1.0  -0.0452
  C  C995  1  0.303600  0.203500  0.972300  1.0  -0.0688
  C  C996  1  0.289700  0.184500  0.954100  1.0  -0.0341
  C  C997  1  0.205400  0.165400  0.003000  1.0  -0.0826
  C  C998  1  0.191600  0.187900  0.008400  1.0  0.0613
  C  C999  1  0.203400  0.206400  0.023600  1.0  -0.0331
  C  C1000  1  0.230400  0.201300  0.035400  1.0  0.0002
  C  C1001  1  0.242500  0.178100  0.030700  1.0  0.0648
  C  C1002  1  0.233100  0.164000  0.013000  1.0  0.0568
  C  C1003  1  0.155900  0.274000  0.901600  1.0  -0.0628
  C  C1004  1  0.177500  0.265800  0.917000  1.0  0.021
  C  C1005  1  0.194400  0.283600  0.933500  1.0  -0.0932
  C  C1006  1  0.186300  0.312000  0.931100  1.0  -0.1281
  C  C1007  1  0.160600  0.318600  0.914200  1.0  -0.0233
  C  C1008  1  0.147300  0.299400  0.897500  1.0  -0.0972
  C  C1009  1  0.165300  0.297300  0.831800  1.0  -0.1189
  C  C1010  1  0.178000  0.321700  0.838300  1.0  -0.0909
  C  C1011  1  0.156000  0.339100  0.843400  1.0  -0.0082
  C  C1012  1  0.128100  0.336200  0.836100  1.0  1e-04
  C  C1013  1  0.117200  0.313600  0.832000  1.0  -0.0579
  C  C1014  1  0.137400  0.290900  0.828700  1.0  -0.0162
  C  C1015  1  0.213360  0.137170  0.753440  1.0  -0.0594
  C  C1016  1  0.219700  0.110840  0.753500  1.0  -0.0034
  C  C1017  1  0.241900  0.101330  0.738580  1.0  -0.0362
  C  C1018  1  0.257700  0.118200  0.723590  1.0  -0.0921
  C  C1019  1  0.251300  0.144500  0.723530  1.0  -0.0685
  C  C1020  1  0.229180  0.154000  0.738450  1.0  -0.0549
  C  C1021  1  0.141500  0.234690  0.740000  1.0  -0.0452
  C  C1022  1  0.158700  0.213220  0.735100  1.0  -0.0125
  C  C1023  1  0.162800  0.204910  0.710630  1.0  -0.0463
  C  C1024  1  0.149700  0.218100  0.691000  1.0  -0.0868
  C  C1025  1  0.132500  0.239500  0.695800  1.0  -0.0567
  C  C1026  1  0.128300  0.247800  0.720300  1.0  -0.0002
  C  C1027  1  0.075000  0.188610  0.753900  1.0  -0.094
  C  C1028  1  0.077700  0.198850  0.729900  1.0  -0.0683
  C  C1029  1  0.054000  0.210320  0.718400  1.0  -0.0741
  C  C1030  1  0.027700  0.211560  0.730800  1.0  -0.0477
  C  C1031  1  0.025000  0.201330  0.754700  1.0  -0.0355
  C  C1032  1  0.048700  0.189850  0.766300  1.0  -0.0131
  C  C1033  1  0.293900  0.101800  0.871700  1.0  -0.0699
  C  C1034  1  0.291400  0.123100  0.855900  1.0  -0.0028
  C  C1035  1  0.314200  0.129800  0.840300  1.0  -0.0297
  C  C1036  1  0.339300  0.115100  0.840300  1.0  -0.0276
  C  C1037  1  0.341800  0.093800  0.856100  1.0  -0.0566
  C  C1038  1  0.319000  0.087100  0.871700  1.0  -0.0594
  C  C1039  1  0.116300  0.198300  0.010400  1.0  -0.0539
  C  C1040  1  0.125600  0.220700  0.998300  1.0  -0.0701
  C  C1041  1  0.135000  0.242800  0.015400  1.0  -0.0363
  C  C1042  1  0.132900  0.241500  0.040800  1.0  -0.0237
  C  C1043  1  0.123900  0.219000  0.050500  1.0  -0.0085
  C  C1044  1  0.113000  0.197400  0.035400  1.0  -0.0639
  C  C1045  1  0.026500  0.189400  0.022400  1.0  -0.0662
  C  C1046  1  0.014300  0.201000  0.042800  1.0  -0.0044
  C  C1047  1  0.014700  0.187700  0.067200  1.0  -0.0696
  C  C1048  1  0.025700  0.161400  0.069000  1.0  -0.1292
  C  C1049  1  0.034700  0.148300  0.045200  1.0  -0.0926
  C  C1050  1  0.036300  0.163500  0.023900  1.0  0.034
  C  C1051  1  0.999800  0.221000  0.852900  1.0  -0.0454
  C  C1052  1  0.991000  0.246200  0.847700  1.0  -0.0624
  C  C1053  1  0.968500  0.250600  0.831000  1.0  -0.0828
  C  C1054  1  0.954800  0.229800  0.819600  1.0  -0.0386
  C  C1055  1  0.963600  0.204600  0.824800  1.0  -0.0363
  C  C1056  1  0.986000  0.200200  0.841500  1.0  -0.014
  C  C1057  1  0.946700  0.130300  0.966500  1.0  -0.0534
  C  C1058  1  0.924500  0.120900  0.983000  1.0  -0.0201
  C  C1059  1  0.895800  0.114500  0.974000  1.0  -0.0669
  C  C1060  1  0.891100  0.114800  0.945800  1.0  -0.1028
  C  C1061  1  0.914700  0.125500  0.928100  1.0  -0.0982
  C  C1062  1  0.941500  0.132500  0.940400  1.0  0.0068
  C  C1063  1  0.161200  0.309900  0.747100  1.0  -0.1215
  C  C1064  1  0.155300  0.305500  0.720400  1.0  -0.0553
  C  C1065  1  0.127200  0.312900  0.711700  1.0  0.0033
  C  C1066  1  0.106800  0.321300  0.727400  1.0  0.0067
  C  C1067  1  0.112400  0.326600  0.753700  1.0  -0.0458
  C  C1068  1  0.140300  0.319600  0.764300  1.0  -0.0892
  C  C1069  1  0.063600  0.251600  0.806200  1.0  -0.0846
  C  C1070  1  0.045100  0.274100  0.770900  1.0  -0.1214
  C  C1071  1  0.066300  0.258900  0.781600  1.0  -0.0124
  C  C1072  1  0.048500  0.233300  0.793400  1.0  -0.0793
  C  C1073  1  0.255100  0.729600  0.291000  1.0  -0.0748
  C  C1074  1  0.280100  0.733300  0.276700  1.0  -0.0105
  C  C1075  1  0.306900  0.738700  0.287500  1.0  -0.0177
  C  C1076  1  0.308500  0.742700  0.313100  1.0  -0.0285
  C  C1077  1  0.284900  0.740100  0.328000  1.0  -0.0638
  C  C1078  1  0.258800  0.732300  0.317000  1.0  -0.007
  C  C1079  1  0.981600  0.740400  0.434400  1.0  -0.0399
  C  C1080  1  0.982700  0.754200  0.456800  1.0  -0.0349
  C  C1081  1  0.988700  0.782100  0.456900  1.0  0.0194
  C  C1082  1  0.992500  0.795500  0.436700  1.0  -0.0294
  C  C1083  1  0.990800  0.780600  0.415200  1.0  0.0165
  C  C1084  1  0.984600  0.754200  0.414100  1.0  0.03
  C  C1085  1  0.088300  0.754400  0.450800  1.0  -0.0577
  C  C1086  1  0.114800  0.764700  0.453300  1.0  -0.01
  C  C1087  1  0.123900  0.789600  0.466500  1.0  -0.0112
  C  C1088  1  0.101900  0.800200  0.478900  1.0  0.0096
  C  C1089  1  0.072700  0.793800  0.475400  1.0  -0.0734
  C  C1090  1  0.066100  0.772800  0.460500  1.0  -0.0182
  C  C1091  1  0.271100  0.652900  0.308200  1.0  -0.0762
  C  C1092  1  0.294000  0.670200  0.302500  1.0  -0.0665
  C  C1093  1  0.314700  0.661300  0.285200  1.0  -0.0124
  C  C1094  1  0.313600  0.635000  0.273500  1.0  -0.0492
  C  C1095  1  0.290000  0.619100  0.279000  1.0  -0.064
  C  C1096  1  0.268700  0.628300  0.297400  1.0  -0.056
  C  C1097  1  0.243300  0.735400  0.387400  1.0  -0.0078
  C  C1098  1  0.240300  0.760000  0.381500  1.0  -0.028
  C  C1099  1  0.263300  0.778000  0.391800  1.0  -0.1329
  C  C1100  1  0.285200  0.766800  0.408500  1.0  -0.0685
  C  C1101  1  0.290300  0.739300  0.408900  1.0  -0.0924
  C  C1102  1  0.268400  0.723600  0.394000  1.0  -0.0575
  C  C1103  1  0.259700  0.686600  0.448700  1.0  0.0035
  C  C1104  1  0.244400  0.705300  0.458400  1.0  0.0639
  C  C1105  1  0.255600  0.724100  0.473700  1.0  -0.011
  C  C1106  1  0.285000  0.722100  0.482900  1.0  -0.0452
  C  C1107  1  0.303600  0.703500  0.472300  1.0  -0.0688
  C  C1108  1  0.289700  0.684500  0.454100  1.0  -0.0341
  C  C1109  1  0.205400  0.665400  0.503000  1.0  -0.0826
  C  C1110  1  0.191600  0.687900  0.508400  1.0  0.0613
  C  C1111  1  0.203400  0.706400  0.523600  1.0  -0.0331
  C  C1112  1  0.230400  0.701300  0.535400  1.0  0.0002
  C  C1113  1  0.242500  0.678100  0.530700  1.0  0.0648
  C  C1114  1  0.233100  0.664000  0.513000  1.0  0.0568
  C  C1115  1  0.155900  0.774000  0.401600  1.0  -0.0628
  C  C1116  1  0.177500  0.765800  0.417000  1.0  0.021
  C  C1117  1  0.194400  0.783600  0.433500  1.0  -0.0932
  C  C1118  1  0.186300  0.812000  0.431100  1.0  -0.1281
  C  C1119  1  0.160600  0.818600  0.414200  1.0  -0.0233
  C  C1120  1  0.147300  0.799400  0.397500  1.0  -0.0972
  C  C1121  1  0.165300  0.797300  0.331800  1.0  -0.1189
  C  C1122  1  0.178000  0.821700  0.338300  1.0  -0.0909
  C  C1123  1  0.156000  0.839100  0.343400  1.0  -0.0082
  C  C1124  1  0.128100  0.836200  0.336100  1.0  1e-04
  C  C1125  1  0.117200  0.813600  0.332000  1.0  -0.0579
  C  C1126  1  0.137400  0.790900  0.328700  1.0  -0.0162
  C  C1127  1  0.213360  0.637170  0.253440  1.0  -0.0594
  C  C1128  1  0.219700  0.610840  0.253500  1.0  -0.0034
  C  C1129  1  0.241900  0.601330  0.238580  1.0  -0.0362
  C  C1130  1  0.257700  0.618200  0.223590  1.0  -0.0921
  C  C1131  1  0.251300  0.644500  0.223530  1.0  -0.0685
  C  C1132  1  0.229180  0.654000  0.238450  1.0  -0.0549
  C  C1133  1  0.141500  0.734690  0.240000  1.0  -0.0452
  C  C1134  1  0.158700  0.713220  0.235100  1.0  -0.0125
  C  C1135  1  0.162800  0.704910  0.210630  1.0  -0.0463
  C  C1136  1  0.149700  0.718100  0.191000  1.0  -0.0868
  C  C1137  1  0.132500  0.739500  0.195800  1.0  -0.0567
  C  C1138  1  0.128300  0.747800  0.220300  1.0  -0.0002
  C  C1139  1  0.075000  0.688610  0.253900  1.0  -0.094
  C  C1140  1  0.077700  0.698850  0.229900  1.0  -0.0683
  C  C1141  1  0.054000  0.710320  0.218400  1.0  -0.0741
  C  C1142  1  0.027700  0.711560  0.230800  1.0  -0.0477
  C  C1143  1  0.025000  0.701330  0.254700  1.0  -0.0355
  C  C1144  1  0.048700  0.689850  0.266300  1.0  -0.0131
  C  C1145  1  0.293900  0.601800  0.371700  1.0  -0.0699
  C  C1146  1  0.291400  0.623100  0.355900  1.0  -0.0028
  C  C1147  1  0.314200  0.629800  0.340300  1.0  -0.0297
  C  C1148  1  0.339300  0.615100  0.340300  1.0  -0.0276
  C  C1149  1  0.341800  0.593800  0.356100  1.0  -0.0566
  C  C1150  1  0.319000  0.587100  0.371700  1.0  -0.0594
  C  C1151  1  0.116300  0.698300  0.510400  1.0  -0.0539
  C  C1152  1  0.125600  0.720700  0.498300  1.0  -0.0701
  C  C1153  1  0.135000  0.742800  0.515400  1.0  -0.0363
  C  C1154  1  0.132900  0.741500  0.540800  1.0  -0.0238
  C  C1155  1  0.123900  0.719000  0.550500  1.0  -0.0085
  C  C1156  1  0.113000  0.697400  0.535400  1.0  -0.0639
  C  C1157  1  0.026500  0.689400  0.522400  1.0  -0.0662
  C  C1158  1  0.014300  0.701000  0.542800  1.0  -0.0043
  C  C1159  1  0.014700  0.687700  0.567200  1.0  -0.0696
  C  C1160  1  0.025700  0.661400  0.569000  1.0  -0.1292
  C  C1161  1  0.034700  0.648300  0.545200  1.0  -0.0926
  C  C1162  1  0.036300  0.663500  0.523900  1.0  0.034
  C  C1163  1  0.999800  0.721000  0.352900  1.0  -0.0454
  C  C1164  1  0.991000  0.746200  0.347700  1.0  -0.0624
  C  C1165  1  0.968500  0.750600  0.331000  1.0  -0.0828
  C  C1166  1  0.954800  0.729800  0.319600  1.0  -0.0386
  C  C1167  1  0.963600  0.704600  0.324800  1.0  -0.0363
  C  C1168  1  0.986000  0.700200  0.341500  1.0  -0.014
  C  C1169  1  0.946700  0.630300  0.466500  1.0  -0.0534
  C  C1170  1  0.924500  0.620900  0.483000  1.0  -0.0201
  C  C1171  1  0.895800  0.614500  0.474000  1.0  -0.0669
  C  C1172  1  0.891100  0.614800  0.445800  1.0  -0.1028
  C  C1173  1  0.914700  0.625500  0.428100  1.0  -0.0982
  C  C1174  1  0.941500  0.632500  0.440400  1.0  0.0068
  C  C1175  1  0.161200  0.809900  0.247100  1.0  -0.1215
  C  C1176  1  0.155300  0.805500  0.220400  1.0  -0.0553
  C  C1177  1  0.127200  0.812900  0.211700  1.0  0.0033
  C  C1178  1  0.106800  0.821300  0.227400  1.0  0.0067
  C  C1179  1  0.112400  0.826600  0.253700  1.0  -0.0458
  C  C1180  1  0.140300  0.819600  0.264300  1.0  -0.0892
  C  C1181  1  0.063600  0.751600  0.306200  1.0  -0.0846
  C  C1182  1  0.045100  0.774100  0.270900  1.0  -0.1214
  C  C1183  1  0.066300  0.758900  0.281600  1.0  -0.0124
  C  C1184  1  0.048500  0.733300  0.293400  1.0  -0.0793
  C  C1185  1  0.755100  0.229600  0.291000  1.0  -0.0748
  C  C1186  1  0.780100  0.233300  0.276700  1.0  -0.0105
  C  C1187  1  0.806900  0.238700  0.287500  1.0  -0.0177
  C  C1188  1  0.808500  0.242700  0.313100  1.0  -0.0285
  C  C1189  1  0.784900  0.240100  0.328000  1.0  -0.0638
  C  C1190  1  0.758800  0.232300  0.317000  1.0  -0.007
  C  C1191  1  0.481600  0.240400  0.434400  1.0  -0.0399
  C  C1192  1  0.482700  0.254200  0.456800  1.0  -0.0349
  C  C1193  1  0.488700  0.282100  0.456900  1.0  0.0194
  C  C1194  1  0.492500  0.295500  0.436700  1.0  -0.0294
  C  C1195  1  0.490800  0.280600  0.415200  1.0  0.0165
  C  C1196  1  0.484600  0.254200  0.414100  1.0  0.03
  C  C1197  1  0.588300  0.254400  0.450800  1.0  -0.0577
  C  C1198  1  0.614800  0.264700  0.453300  1.0  -0.01
  C  C1199  1  0.623900  0.289600  0.466500  1.0  -0.0112
  C  C1200  1  0.601900  0.300200  0.478900  1.0  0.0096
  C  C1201  1  0.572700  0.293800  0.475400  1.0  -0.0734
  C  C1202  1  0.566100  0.272800  0.460500  1.0  -0.0182
  C  C1203  1  0.771100  0.152900  0.308200  1.0  -0.0762
  C  C1204  1  0.794000  0.170200  0.302500  1.0  -0.0665
  C  C1205  1  0.814700  0.161300  0.285200  1.0  -0.0124
  C  C1206  1  0.813600  0.135000  0.273500  1.0  -0.0492
  C  C1207  1  0.790000  0.119100  0.279000  1.0  -0.064
  C  C1208  1  0.768700  0.128300  0.297400  1.0  -0.056
  C  C1209  1  0.743300  0.235400  0.387400  1.0  -0.0078
  C  C1210  1  0.740300  0.260000  0.381500  1.0  -0.028
  C  C1211  1  0.763300  0.278000  0.391800  1.0  -0.1329
  C  C1212  1  0.785200  0.266800  0.408500  1.0  -0.0685
  C  C1213  1  0.790300  0.239300  0.408900  1.0  -0.0924
  C  C1214  1  0.768400  0.223600  0.394000  1.0  -0.0575
  C  C1215  1  0.759700  0.186600  0.448700  1.0  0.0035
  C  C1216  1  0.744400  0.205300  0.458400  1.0  0.0639
  C  C1217  1  0.755600  0.224100  0.473700  1.0  -0.011
  C  C1218  1  0.785000  0.222100  0.482900  1.0  -0.0452
  C  C1219  1  0.803600  0.203500  0.472300  1.0  -0.0688
  C  C1220  1  0.789700  0.184500  0.454100  1.0  -0.0341
  C  C1221  1  0.705400  0.165400  0.503000  1.0  -0.0826
  C  C1222  1  0.691600  0.187900  0.508400  1.0  0.0613
  C  C1223  1  0.703400  0.206400  0.523600  1.0  -0.0331
  C  C1224  1  0.730400  0.201300  0.535400  1.0  0.0002
  C  C1225  1  0.742500  0.178100  0.530700  1.0  0.0648
  C  C1226  1  0.733100  0.164000  0.513000  1.0  0.0568
  C  C1227  1  0.655900  0.274000  0.401600  1.0  -0.0628
  C  C1228  1  0.677500  0.265800  0.417000  1.0  0.021
  C  C1229  1  0.694400  0.283600  0.433500  1.0  -0.0932
  C  C1230  1  0.686300  0.312000  0.431100  1.0  -0.1281
  C  C1231  1  0.660600  0.318600  0.414200  1.0  -0.0233
  C  C1232  1  0.647300  0.299400  0.397500  1.0  -0.0972
  C  C1233  1  0.665300  0.297300  0.331800  1.0  -0.1189
  C  C1234  1  0.678000  0.321700  0.338300  1.0  -0.0909
  C  C1235  1  0.656000  0.339100  0.343400  1.0  -0.0082
  C  C1236  1  0.628100  0.336200  0.336100  1.0  1e-04
  C  C1237  1  0.617200  0.313600  0.332000  1.0  -0.0579
  C  C1238  1  0.637400  0.290900  0.328700  1.0  -0.0162
  C  C1239  1  0.713360  0.137170  0.253440  1.0  -0.0594
  C  C1240  1  0.719700  0.110840  0.253500  1.0  -0.0034
  C  C1241  1  0.741900  0.101330  0.238580  1.0  -0.0362
  C  C1242  1  0.757700  0.118200  0.223590  1.0  -0.0921
  C  C1243  1  0.751300  0.144500  0.223530  1.0  -0.0685
  C  C1244  1  0.729180  0.154000  0.238450  1.0  -0.0549
  C  C1245  1  0.641500  0.234690  0.240000  1.0  -0.0452
  C  C1246  1  0.658700  0.213220  0.235100  1.0  -0.0125
  C  C1247  1  0.662800  0.204910  0.210630  1.0  -0.0463
  C  C1248  1  0.649700  0.218100  0.191000  1.0  -0.0868
  C  C1249  1  0.632500  0.239500  0.195800  1.0  -0.0567
  C  C1250  1  0.628300  0.247800  0.220300  1.0  -0.0002
  C  C1251  1  0.575000  0.188610  0.253900  1.0  -0.094
  C  C1252  1  0.577700  0.198850  0.229900  1.0  -0.0683
  C  C1253  1  0.554000  0.210320  0.218400  1.0  -0.0741
  C  C1254  1  0.527700  0.211560  0.230800  1.0  -0.0477
  C  C1255  1  0.525000  0.201330  0.254700  1.0  -0.0355
  C  C1256  1  0.548700  0.189850  0.266300  1.0  -0.0131
  C  C1257  1  0.793900  0.101800  0.371700  1.0  -0.0699
  C  C1258  1  0.791400  0.123100  0.355900  1.0  -0.0028
  C  C1259  1  0.814200  0.129800  0.340300  1.0  -0.0297
  C  C1260  1  0.839300  0.115100  0.340300  1.0  -0.0276
  C  C1261  1  0.841800  0.093800  0.356100  1.0  -0.0566
  C  C1262  1  0.819000  0.087100  0.371700  1.0  -0.0594
  C  C1263  1  0.616300  0.198300  0.510400  1.0  -0.0539
  C  C1264  1  0.625600  0.220700  0.498300  1.0  -0.0701
  C  C1265  1  0.635000  0.242800  0.515400  1.0  -0.0363
  C  C1266  1  0.632900  0.241500  0.540800  1.0  -0.0238
  C  C1267  1  0.623900  0.219000  0.550500  1.0  -0.0085
  C  C1268  1  0.613000  0.197400  0.535400  1.0  -0.0639
  C  C1269  1  0.526500  0.189400  0.522400  1.0  -0.0662
  C  C1270  1  0.514300  0.201000  0.542800  1.0  -0.0043
  C  C1271  1  0.514700  0.187700  0.567200  1.0  -0.0696
  C  C1272  1  0.525700  0.161400  0.569000  1.0  -0.1292
  C  C1273  1  0.534700  0.148300  0.545200  1.0  -0.0926
  C  C1274  1  0.536300  0.163500  0.523900  1.0  0.034
  C  C1275  1  0.499800  0.221000  0.352900  1.0  -0.0454
  C  C1276  1  0.491000  0.246200  0.347700  1.0  -0.0624
  C  C1277  1  0.468500  0.250600  0.331000  1.0  -0.0828
  C  C1278  1  0.454800  0.229800  0.319600  1.0  -0.0386
  C  C1279  1  0.463600  0.204600  0.324800  1.0  -0.0363
  C  C1280  1  0.486000  0.200200  0.341500  1.0  -0.014
  C  C1281  1  0.446700  0.130300  0.466500  1.0  -0.0534
  C  C1282  1  0.424500  0.120900  0.483000  1.0  -0.0201
  C  C1283  1  0.395800  0.114500  0.474000  1.0  -0.0669
  C  C1284  1  0.391100  0.114800  0.445800  1.0  -0.1028
  C  C1285  1  0.414700  0.125500  0.428100  1.0  -0.0982
  C  C1286  1  0.441500  0.132500  0.440400  1.0  0.0068
  C  C1287  1  0.661200  0.309900  0.247100  1.0  -0.1215
  C  C1288  1  0.655300  0.305500  0.220400  1.0  -0.0553
  C  C1289  1  0.627200  0.312900  0.211700  1.0  0.0033
  C  C1290  1  0.606800  0.321300  0.227400  1.0  0.0067
  C  C1291  1  0.612400  0.326600  0.253700  1.0  -0.0458
  C  C1292  1  0.640300  0.319600  0.264300  1.0  -0.0892
  C  C1293  1  0.563600  0.251600  0.306200  1.0  -0.0846
  C  C1294  1  0.545100  0.274100  0.270900  1.0  -0.1214
  C  C1295  1  0.566300  0.258900  0.281600  1.0  -0.0124
  C  C1296  1  0.548500  0.233300  0.293400  1.0  -0.0793
  C  C1297  1  0.755100  0.729600  0.791000  1.0  -0.0748
  C  C1298  1  0.780100  0.733300  0.776700  1.0  -0.0105
  C  C1299  1  0.806900  0.738700  0.787500  1.0  -0.0177
  C  C1300  1  0.808500  0.742700  0.813100  1.0  -0.0285
  C  C1301  1  0.784900  0.740100  0.828000  1.0  -0.0638
  C  C1302  1  0.758800  0.732300  0.817000  1.0  -0.007
  C  C1303  1  0.481600  0.740400  0.934400  1.0  -0.0399
  C  C1304  1  0.482700  0.754200  0.956800  1.0  -0.0349
  C  C1305  1  0.488700  0.782100  0.956900  1.0  0.0194
  C  C1306  1  0.492500  0.795500  0.936700  1.0  -0.0294
  C  C1307  1  0.490800  0.780600  0.915200  1.0  0.0165
  C  C1308  1  0.484600  0.754200  0.914100  1.0  0.03
  C  C1309  1  0.588300  0.754400  0.950800  1.0  -0.0577
  C  C1310  1  0.614800  0.764700  0.953300  1.0  -0.01
  C  C1311  1  0.623900  0.789600  0.966500  1.0  -0.0112
  C  C1312  1  0.601900  0.800200  0.978900  1.0  0.0096
  C  C1313  1  0.572700  0.793800  0.975400  1.0  -0.0734
  C  C1314  1  0.566100  0.772800  0.960500  1.0  -0.0182
  C  C1315  1  0.771100  0.652900  0.808200  1.0  -0.0762
  C  C1316  1  0.794000  0.670200  0.802500  1.0  -0.0665
  C  C1317  1  0.814700  0.661300  0.785200  1.0  -0.0124
  C  C1318  1  0.813600  0.635000  0.773500  1.0  -0.0492
  C  C1319  1  0.790000  0.619100  0.779000  1.0  -0.064
  C  C1320  1  0.768700  0.628300  0.797400  1.0  -0.056
  C  C1321  1  0.743300  0.735400  0.887400  1.0  -0.0078
  C  C1322  1  0.740300  0.760000  0.881500  1.0  -0.028
  C  C1323  1  0.763300  0.778000  0.891800  1.0  -0.1329
  C  C1324  1  0.785200  0.766800  0.908500  1.0  -0.0685
  C  C1325  1  0.790300  0.739300  0.908900  1.0  -0.0924
  C  C1326  1  0.768400  0.723600  0.894000  1.0  -0.0575
  C  C1327  1  0.759700  0.686600  0.948700  1.0  0.0035
  C  C1328  1  0.744400  0.705300  0.958400  1.0  0.0639
  C  C1329  1  0.755600  0.724100  0.973700  1.0  -0.011
  C  C1330  1  0.785000  0.722100  0.982900  1.0  -0.0452
  C  C1331  1  0.803600  0.703500  0.972300  1.0  -0.0688
  C  C1332  1  0.789700  0.684500  0.954100  1.0  -0.0341
  C  C1333  1  0.705400  0.665400  0.003000  1.0  -0.0826
  C  C1334  1  0.691600  0.687900  0.008400  1.0  0.0613
  C  C1335  1  0.703400  0.706400  0.023600  1.0  -0.0331
  C  C1336  1  0.730400  0.701300  0.035400  1.0  0.0002
  C  C1337  1  0.742500  0.678100  0.030700  1.0  0.0648
  C  C1338  1  0.733100  0.664000  0.013000  1.0  0.0568
  C  C1339  1  0.655900  0.774000  0.901600  1.0  -0.0628
  C  C1340  1  0.677500  0.765800  0.917000  1.0  0.021
  C  C1341  1  0.694400  0.783600  0.933500  1.0  -0.0932
  C  C1342  1  0.686300  0.812000  0.931100  1.0  -0.1281
  C  C1343  1  0.660600  0.818600  0.914200  1.0  -0.0233
  C  C1344  1  0.647300  0.799400  0.897500  1.0  -0.0972
  C  C1345  1  0.665300  0.797300  0.831800  1.0  -0.1189
  C  C1346  1  0.678000  0.821700  0.838300  1.0  -0.0909
  C  C1347  1  0.656000  0.839100  0.843400  1.0  -0.0082
  C  C1348  1  0.628100  0.836200  0.836100  1.0  1e-04
  C  C1349  1  0.617200  0.813600  0.832000  1.0  -0.0579
  C  C1350  1  0.637400  0.790900  0.828700  1.0  -0.0162
  C  C1351  1  0.713360  0.637170  0.753440  1.0  -0.0594
  C  C1352  1  0.719700  0.610840  0.753500  1.0  -0.0034
  C  C1353  1  0.741900  0.601330  0.738580  1.0  -0.0362
  C  C1354  1  0.757700  0.618200  0.723590  1.0  -0.0921
  C  C1355  1  0.751300  0.644500  0.723530  1.0  -0.0685
  C  C1356  1  0.729180  0.654000  0.738450  1.0  -0.0549
  C  C1357  1  0.641500  0.734690  0.740000  1.0  -0.0452
  C  C1358  1  0.658700  0.713220  0.735100  1.0  -0.0125
  C  C1359  1  0.662800  0.704910  0.710630  1.0  -0.0463
  C  C1360  1  0.649700  0.718100  0.691000  1.0  -0.0868
  C  C1361  1  0.632500  0.739500  0.695800  1.0  -0.0567
  C  C1362  1  0.628300  0.747800  0.720300  1.0  -0.0002
  C  C1363  1  0.575000  0.688610  0.753900  1.0  -0.094
  C  C1364  1  0.577700  0.698850  0.729900  1.0  -0.0683
  C  C1365  1  0.554000  0.710320  0.718400  1.0  -0.0741
  C  C1366  1  0.527700  0.711560  0.730800  1.0  -0.0477
  C  C1367  1  0.525000  0.701330  0.754700  1.0  -0.0355
  C  C1368  1  0.548700  0.689850  0.766300  1.0  -0.0131
  C  C1369  1  0.793900  0.601800  0.871700  1.0  -0.0699
  C  C1370  1  0.791400  0.623100  0.855900  1.0  -0.0028
  C  C1371  1  0.814200  0.629800  0.840300  1.0  -0.0297
  C  C1372  1  0.839300  0.615100  0.840300  1.0  -0.0276
  C  C1373  1  0.841800  0.593800  0.856100  1.0  -0.0566
  C  C1374  1  0.819000  0.587100  0.871700  1.0  -0.0594
  C  C1375  1  0.616300  0.698300  0.010400  1.0  -0.0539
  C  C1376  1  0.625600  0.720700  0.998300  1.0  -0.0701
  C  C1377  1  0.635000  0.742800  0.015400  1.0  -0.0363
  C  C1378  1  0.632900  0.741500  0.040800  1.0  -0.0237
  C  C1379  1  0.623900  0.719000  0.050500  1.0  -0.0085
  C  C1380  1  0.613000  0.697400  0.035400  1.0  -0.0639
  C  C1381  1  0.526500  0.689400  0.022400  1.0  -0.0662
  C  C1382  1  0.514300  0.701000  0.042800  1.0  -0.0044
  C  C1383  1  0.514700  0.687700  0.067200  1.0  -0.0696
  C  C1384  1  0.525700  0.661400  0.069000  1.0  -0.1292
  C  C1385  1  0.534700  0.648300  0.045200  1.0  -0.0926
  C  C1386  1  0.536300  0.663500  0.023900  1.0  0.034
  C  C1387  1  0.499800  0.721000  0.852900  1.0  -0.0454
  C  C1388  1  0.491000  0.746200  0.847700  1.0  -0.0624
  C  C1389  1  0.468500  0.750600  0.831000  1.0  -0.0828
  C  C1390  1  0.454800  0.729800  0.819600  1.0  -0.0386
  C  C1391  1  0.463600  0.704600  0.824800  1.0  -0.0363
  C  C1392  1  0.486000  0.700200  0.841500  1.0  -0.014
  C  C1393  1  0.446700  0.630300  0.966500  1.0  -0.0534
  C  C1394  1  0.424500  0.620900  0.983000  1.0  -0.0201
  C  C1395  1  0.395800  0.614500  0.974000  1.0  -0.0669
  C  C1396  1  0.391100  0.614800  0.945800  1.0  -0.1028
  C  C1397  1  0.414700  0.625500  0.928100  1.0  -0.0982
  C  C1398  1  0.441500  0.632500  0.940400  1.0  0.0068
  C  C1399  1  0.661200  0.809900  0.747100  1.0  -0.1215
  C  C1400  1  0.655300  0.805500  0.720400  1.0  -0.0553
  C  C1401  1  0.627200  0.812900  0.711700  1.0  0.0033
  C  C1402  1  0.606800  0.821300  0.727400  1.0  0.0067
  C  C1403  1  0.612400  0.826600  0.753700  1.0  -0.0458
  C  C1404  1  0.640300  0.819600  0.764300  1.0  -0.0892
  C  C1405  1  0.563600  0.751600  0.806200  1.0  -0.0846
  C  C1406  1  0.545100  0.774100  0.770900  1.0  -0.1214
  C  C1407  1  0.566300  0.758900  0.781600  1.0  -0.0124
  C  C1408  1  0.548500  0.733300  0.793400  1.0  -0.0793
  C  C1409  1  0.744900  0.479600  0.041000  1.0  -0.074
  C  C1410  1  0.719900  0.483300  0.026700  1.0  -0.0105
  C  C1411  1  0.693100  0.488700  0.037500  1.0  -0.0179
  C  C1412  1  0.691500  0.492700  0.063100  1.0  -0.0291
  C  C1413  1  0.715100  0.490100  0.078000  1.0  -0.0642
  C  C1414  1  0.741200  0.482300  0.067000  1.0  -0.0077
  C  C1415  1  0.018400  0.490400  0.184400  1.0  -0.0385
  C  C1416  1  0.017300  0.504200  0.206800  1.0  -0.0346
  C  C1417  1  0.011300  0.532100  0.206900  1.0  0.02
  C  C1418  1  0.007500  0.545500  0.186700  1.0  -0.0292
  C  C1419  1  0.009200  0.530600  0.165200  1.0  0.016
  C  C1420  1  0.015400  0.504200  0.164100  1.0  0.0313
  C  C1421  1  0.911700  0.504400  0.200800  1.0  -0.058
  C  C1422  1  0.885200  0.514700  0.203300  1.0  -0.0084
  C  C1423  1  0.876100  0.539600  0.216500  1.0  -0.0132
  C  C1424  1  0.898100  0.550200  0.228900  1.0  0.0084
  C  C1425  1  0.927300  0.543800  0.225400  1.0  -0.0733
  C  C1426  1  0.933900  0.522800  0.210500  1.0  -0.0186
  C  C1427  1  0.728900  0.402900  0.058200  1.0  -0.0766
  C  C1428  1  0.706000  0.420200  0.052500  1.0  -0.0651
  C  C1429  1  0.685300  0.411300  0.035200  1.0  -0.0126
  C  C1430  1  0.686400  0.385000  0.023500  1.0  -0.0492
  C  C1431  1  0.710000  0.369100  0.029000  1.0  -0.0633
  C  C1432  1  0.731300  0.378300  0.047400  1.0  -0.0567
  C  C1433  1  0.756700  0.485400  0.137400  1.0  -0.0058
  C  C1434  1  0.759700  0.510000  0.131500  1.0  -0.0285
  C  C1435  1  0.736700  0.528000  0.141800  1.0  -0.1353
  C  C1436  1  0.714800  0.516800  0.158500  1.0  -0.0695
  C  C1437  1  0.709700  0.489300  0.158900  1.0  -0.0951
  C  C1438  1  0.731600  0.473600  0.144000  1.0  -0.0587
  C  C1439  1  0.740300  0.436600  0.198700  1.0  0.0048
  C  C1440  1  0.755600  0.455300  0.208400  1.0  0.0638
  C  C1441  1  0.744400  0.474100  0.223700  1.0  -0.0108
  C  C1442  1  0.715000  0.472100  0.232900  1.0  -0.0499
  C  C1443  1  0.696400  0.453500  0.222300  1.0  -0.0702
  C  C1444  1  0.710300  0.434500  0.204100  1.0  -0.0343
  C  C1445  1  0.794600  0.415400  0.253000  1.0  -0.0823
  C  C1446  1  0.808400  0.437900  0.258400  1.0  0.059
  C  C1447  1  0.796600  0.456400  0.273600  1.0  -0.0331
  C  C1448  1  0.769600  0.451300  0.285400  1.0  -0.0011
  C  C1449  1  0.757500  0.428100  0.280700  1.0  0.0673
  C  C1450  1  0.766900  0.414000  0.263000  1.0  0.0561
  C  C1451  1  0.844100  0.524000  0.151600  1.0  -0.0623
  C  C1452  1  0.822500  0.515800  0.167000  1.0  0.0193
  C  C1453  1  0.805600  0.533600  0.183500  1.0  -0.0924
  C  C1454  1  0.813700  0.562000  0.181100  1.0  -0.1277
  C  C1455  1  0.839400  0.568600  0.164200  1.0  -0.0289
  C  C1456  1  0.852700  0.549400  0.147500  1.0  -0.0967
  C  C1457  1  0.834700  0.547300  0.081800  1.0  -0.1177
  C  C1458  1  0.822000  0.571700  0.088300  1.0  -0.0946
  C  C1459  1  0.844000  0.589100  0.093400  1.0  -0.008
  C  C1460  1  0.871900  0.586200  0.086100  1.0  -0.0006
  C  C1461  1  0.882800  0.563600  0.082000  1.0  -0.0549
  C  C1462  1  0.862600  0.540900  0.078700  1.0  -0.0148
  C  C1463  1  0.786640  0.387170  0.003440  1.0  -0.0605
  C  C1464  1  0.780300  0.360840  0.003500  1.0  -0.0034
  C  C1465  1  0.758100  0.351330  0.988580  1.0  -0.0352
  C  C1466  1  0.742300  0.368200  0.973590  1.0  -0.0932
  C  C1467  1  0.748700  0.394500  0.973530  1.0  -0.0723
  C  C1468  1  0.770820  0.404000  0.988450  1.0  -0.0542
  C  C1469  1  0.858500  0.484690  0.990000  1.0  -0.0426
  C  C1470  1  0.841300  0.463220  0.985100  1.0  -0.0127
  C  C1471  1  0.837200  0.454910  0.960630  1.0  -0.0497
  C  C1472  1  0.850300  0.468100  0.941000  1.0  -0.088
  C  C1473  1  0.867500  0.489500  0.945800  1.0  -0.0552
  C  C1474  1  0.871700  0.497800  0.970300  1.0  -0.0019
  C  C1475  1  0.925000  0.438610  0.003900  1.0  -0.0961
  C  C1476  1  0.922300  0.448850  0.979900  1.0  -0.0683
  C  C1477  1  0.946000  0.460320  0.968400  1.0  -0.0742
  C  C1478  1  0.972300  0.461560  0.980800  1.0  -0.0485
  C  C1479  1  0.975000  0.451330  0.004700  1.0  -0.0372
  C  C1480  1  0.951300  0.439850  0.016300  1.0  -0.0137
  C  C1481  1  0.706100  0.351800  0.121700  1.0  -0.0688
  C  C1482  1  0.708600  0.373100  0.105900  1.0  -0.0013
  C  C1483  1  0.685800  0.379800  0.090300  1.0  -0.0319
  C  C1484  1  0.660700  0.365100  0.090300  1.0  -0.0273
  C  C1485  1  0.658200  0.343800  0.106100  1.0  -0.0566
  C  C1486  1  0.681000  0.337100  0.121700  1.0  -0.0589
  C  C1487  1  0.883700  0.448300  0.260400  1.0  -0.0471
  C  C1488  1  0.874400  0.470700  0.248300  1.0  -0.0707
  C  C1489  1  0.865000  0.492800  0.265400  1.0  -0.0415
  C  C1490  1  0.867100  0.491500  0.290800  1.0  -0.0252
  C  C1491  1  0.876100  0.469000  0.300500  1.0  -0.0074
  C  C1492  1  0.887000  0.447400  0.285400  1.0  -0.0636
  C  C1493  1  0.973500  0.439400  0.272400  1.0  -0.066
  C  C1494  1  0.985700  0.451000  0.292800  1.0  -0.0076
  C  C1495  1  0.985300  0.437700  0.317200  1.0  -0.0693
  C  C1496  1  0.974300  0.411400  0.319000  1.0  -0.1293
  C  C1497  1  0.965300  0.398300  0.295200  1.0  -0.0922
  C  C1498  1  0.963700  0.413500  0.273900  1.0  0.0324
  C  C1499  1  0.000200  0.471000  0.102900  1.0  -0.0477
  C  C1500  1  0.009000  0.496200  0.097700  1.0  -0.063
  C  C1501  1  0.031500  0.500600  0.081000  1.0  -0.0831
  C  C1502  1  0.045200  0.479800  0.069600  1.0  -0.0376
  C  C1503  1  0.036400  0.454600  0.074800  1.0  -0.0377
  C  C1504  1  0.014000  0.450200  0.091500  1.0  -0.0151
  C  C1505  1  0.053300  0.380300  0.216500  1.0  -0.0537
  C  C1506  1  0.075500  0.370900  0.233000  1.0  -0.0207
  C  C1507  1  0.104200  0.364500  0.224000  1.0  -0.0654
  C  C1508  1  0.108900  0.364800  0.195800  1.0  -0.1042
  C  C1509  1  0.085300  0.375500  0.178100  1.0  -0.098
  C  C1510  1  0.058500  0.382500  0.190400  1.0  0.0073
  C  C1511  1  0.838800  0.559900  0.997100  1.0  -0.1227
  C  C1512  1  0.844700  0.555500  0.970400  1.0  -0.0574
  C  C1513  1  0.872800  0.562900  0.961700  1.0  0.0029
  C  C1514  1  0.893200  0.571300  0.977400  1.0  0.0069
  C  C1515  1  0.887600  0.576600  0.003700  1.0  -0.0459
  C  C1516  1  0.859700  0.569600  0.014300  1.0  -0.0891
  C  C1517  1  0.936400  0.501600  0.056200  1.0  -0.0849
  C  C1518  1  0.954900  0.524100  0.020900  1.0  -0.1205
  C  C1519  1  0.933700  0.508900  0.031600  1.0  -0.0155
  C  C1520  1  0.951500  0.483300  0.043400  1.0  -0.0783
  C  C1521  1  0.744900  0.979600  0.541000  1.0  -0.074
  C  C1522  1  0.719900  0.983300  0.526700  1.0  -0.0105
  C  C1523  1  0.693100  0.988700  0.537500  1.0  -0.0179
  C  C1524  1  0.691500  0.992700  0.563100  1.0  -0.0291
  C  C1525  1  0.715100  0.990100  0.578000  1.0  -0.0642
  C  C1526  1  0.741200  0.982300  0.567000  1.0  -0.0077
  C  C1527  1  0.018400  0.990400  0.684400  1.0  -0.0385
  C  C1528  1  0.017300  0.004200  0.706800  1.0  -0.0346
  C  C1529  1  0.011300  0.032100  0.706900  1.0  0.02
  C  C1530  1  0.007500  0.045500  0.686700  1.0  -0.0292
  C  C1531  1  0.009200  0.030600  0.665200  1.0  0.016
  C  C1532  1  0.015400  0.004200  0.664100  1.0  0.0313
  C  C1533  1  0.911700  0.004400  0.700800  1.0  -0.058
  C  C1534  1  0.885200  0.014700  0.703300  1.0  -0.0084
  C  C1535  1  0.876100  0.039600  0.716500  1.0  -0.0132
  C  C1536  1  0.898100  0.050200  0.728900  1.0  0.0084
  C  C1537  1  0.927300  0.043800  0.725400  1.0  -0.0733
  C  C1538  1  0.933900  0.022800  0.710500  1.0  -0.0186
  C  C1539  1  0.728900  0.902900  0.558200  1.0  -0.0766
  C  C1540  1  0.706000  0.920200  0.552500  1.0  -0.0651
  C  C1541  1  0.685300  0.911300  0.535200  1.0  -0.0126
  C  C1542  1  0.686400  0.885000  0.523500  1.0  -0.0492
  C  C1543  1  0.710000  0.869100  0.529000  1.0  -0.0633
  C  C1544  1  0.731300  0.878300  0.547400  1.0  -0.0567
  C  C1545  1  0.756700  0.985400  0.637400  1.0  -0.0058
  C  C1546  1  0.759700  0.010000  0.631500  1.0  -0.0285
  C  C1547  1  0.736700  0.028000  0.641800  1.0  -0.1353
  C  C1548  1  0.714800  0.016800  0.658500  1.0  -0.0695
  C  C1549  1  0.709700  0.989300  0.658900  1.0  -0.0951
  C  C1550  1  0.731600  0.973600  0.644000  1.0  -0.0587
  C  C1551  1  0.740300  0.936600  0.698700  1.0  0.0048
  C  C1552  1  0.755600  0.955300  0.708400  1.0  0.0638
  C  C1553  1  0.744400  0.974100  0.723700  1.0  -0.0108
  C  C1554  1  0.715000  0.972100  0.732900  1.0  -0.0499
  C  C1555  1  0.696400  0.953500  0.722300  1.0  -0.0702
  C  C1556  1  0.710300  0.934500  0.704100  1.0  -0.0343
  C  C1557  1  0.794600  0.915400  0.753000  1.0  -0.0823
  C  C1558  1  0.808400  0.937900  0.758400  1.0  0.059
  C  C1559  1  0.796600  0.956400  0.773600  1.0  -0.0331
  C  C1560  1  0.769600  0.951300  0.785400  1.0  -0.0011
  C  C1561  1  0.757500  0.928100  0.780700  1.0  0.0673
  C  C1562  1  0.766900  0.914000  0.763000  1.0  0.0561
  C  C1563  1  0.844100  0.024000  0.651600  1.0  -0.0623
  C  C1564  1  0.822500  0.015800  0.667000  1.0  0.0193
  C  C1565  1  0.805600  0.033600  0.683500  1.0  -0.0924
  C  C1566  1  0.813700  0.062000  0.681100  1.0  -0.1277
  C  C1567  1  0.839400  0.068600  0.664200  1.0  -0.0289
  C  C1568  1  0.852700  0.049400  0.647500  1.0  -0.0967
  C  C1569  1  0.834700  0.047300  0.581800  1.0  -0.1177
  C  C1570  1  0.822000  0.071700  0.588300  1.0  -0.0946
  C  C1571  1  0.844000  0.089100  0.593400  1.0  -0.008
  C  C1572  1  0.871900  0.086200  0.586100  1.0  -0.0006
  C  C1573  1  0.882800  0.063600  0.582000  1.0  -0.0549
  C  C1574  1  0.862600  0.040900  0.578700  1.0  -0.0148
  C  C1575  1  0.786640  0.887170  0.503440  1.0  -0.0605
  C  C1576  1  0.780300  0.860840  0.503500  1.0  -0.0034
  C  C1577  1  0.758100  0.851330  0.488580  1.0  -0.0352
  C  C1578  1  0.742300  0.868200  0.473590  1.0  -0.0932
  C  C1579  1  0.748700  0.894500  0.473530  1.0  -0.0708
  C  C1580  1  0.770820  0.904000  0.488450  1.0  -0.0542
  C  C1581  1  0.858500  0.984690  0.490000  1.0  -0.0426
  C  C1582  1  0.841300  0.963220  0.485100  1.0  -0.0127
  C  C1583  1  0.837200  0.954910  0.460630  1.0  -0.0497
  C  C1584  1  0.850300  0.968100  0.441000  1.0  -0.088
  C  C1585  1  0.867500  0.989500  0.445800  1.0  -0.0552
  C  C1586  1  0.871700  0.997800  0.470300  1.0  -0.0019
  C  C1587  1  0.925000  0.938610  0.503900  1.0  -0.0961
  C  C1588  1  0.922300  0.948850  0.479900  1.0  -0.0683
  C  C1589  1  0.946000  0.960320  0.468400  1.0  -0.0742
  C  C1590  1  0.972300  0.961560  0.480800  1.0  -0.0485
  C  C1591  1  0.975000  0.951330  0.504700  1.0  -0.0373
  C  C1592  1  0.951300  0.939850  0.516300  1.0  -0.0137
  C  C1593  1  0.706100  0.851800  0.621700  1.0  -0.0688
  C  C1594  1  0.708600  0.873100  0.605900  1.0  -0.0013
  C  C1595  1  0.685800  0.879800  0.590300  1.0  -0.0319
  C  C1596  1  0.660700  0.865100  0.590300  1.0  -0.0273
  C  C1597  1  0.658200  0.843800  0.606100  1.0  -0.0566
  C  C1598  1  0.681000  0.837100  0.621700  1.0  -0.0589
  C  C1599  1  0.883700  0.948300  0.760400  1.0  -0.0471
  C  C1600  1  0.874400  0.970700  0.748300  1.0  -0.0707
  C  C1601  1  0.865000  0.992800  0.765400  1.0  -0.0415
  C  C1602  1  0.867100  0.991500  0.790800  1.0  -0.0252
  C  C1603  1  0.876100  0.969000  0.800500  1.0  -0.0074
  C  C1604  1  0.887000  0.947400  0.785400  1.0  -0.0636
  C  C1605  1  0.973500  0.939400  0.772400  1.0  -0.066
  C  C1606  1  0.985700  0.951000  0.792800  1.0  -0.0073
  C  C1607  1  0.985300  0.937700  0.817200  1.0  -0.0693
  C  C1608  1  0.974300  0.911400  0.819000  1.0  -0.1293
  C  C1609  1  0.965300  0.898300  0.795200  1.0  -0.0922
  C  C1610  1  0.963700  0.913500  0.773900  1.0  0.0324
  C  C1611  1  0.000200  0.971000  0.602900  1.0  -0.051
  C  C1612  1  0.009000  0.996200  0.597700  1.0  -0.063
  C  C1613  1  0.031500  0.000600  0.581000  1.0  -0.0831
  C  C1614  1  0.045200  0.979800  0.569600  1.0  -0.0376
  C  C1615  1  0.036400  0.954600  0.574800  1.0  -0.0377
  C  C1616  1  0.014000  0.950200  0.591500  1.0  -0.0151
  C  C1617  1  0.053300  0.880300  0.716500  1.0  -0.0537
  C  C1618  1  0.075500  0.870900  0.733000  1.0  -0.0207
  C  C1619  1  0.104200  0.864500  0.724000  1.0  -0.0654
  C  C1620  1  0.108900  0.864800  0.695800  1.0  -0.1042
  C  C1621  1  0.085300  0.875500  0.678100  1.0  -0.098
  C  C1622  1  0.058500  0.882500  0.690400  1.0  0.0073
  C  C1623  1  0.838800  0.059900  0.497100  1.0  -0.1227
  C  C1624  1  0.844700  0.055500  0.470400  1.0  -0.0574
  C  C1625  1  0.872800  0.062900  0.461700  1.0  0.0029
  C  C1626  1  0.893200  0.071300  0.477400  1.0  0.0069
  C  C1627  1  0.887600  0.076600  0.503700  1.0  -0.0459
  C  C1628  1  0.859700  0.069600  0.514300  1.0  -0.0891
  C  C1629  1  0.936400  0.001600  0.556200  1.0  -0.0849
  C  C1630  1  0.954900  0.024100  0.520900  1.0  -0.1205
  C  C1631  1  0.933700  0.008900  0.531600  1.0  -0.0157
  C  C1632  1  0.951500  0.983300  0.543400  1.0  -0.0783
  C  C1633  1  0.244900  0.479600  0.541000  1.0  -0.074
  C  C1634  1  0.219900  0.483300  0.526700  1.0  -0.0105
  C  C1635  1  0.193100  0.488700  0.537500  1.0  -0.0179
  C  C1636  1  0.191500  0.492700  0.563100  1.0  -0.0291
  C  C1637  1  0.215100  0.490100  0.578000  1.0  -0.0642
  C  C1638  1  0.241200  0.482300  0.567000  1.0  -0.0077
  C  C1639  1  0.518400  0.490400  0.684400  1.0  -0.0385
  C  C1640  1  0.517300  0.504200  0.706800  1.0  -0.0346
  C  C1641  1  0.511300  0.532100  0.706900  1.0  0.02
  C  C1642  1  0.507500  0.545500  0.686700  1.0  -0.0292
  C  C1643  1  0.509200  0.530600  0.665200  1.0  0.016
  C  C1644  1  0.515400  0.504200  0.664100  1.0  0.0306
  C  C1645  1  0.411700  0.504400  0.700800  1.0  -0.058
  C  C1646  1  0.385200  0.514700  0.703300  1.0  -0.0084
  C  C1647  1  0.376100  0.539600  0.716500  1.0  -0.0132
  C  C1648  1  0.398100  0.550200  0.728900  1.0  0.0084
  C  C1649  1  0.427300  0.543800  0.725400  1.0  -0.0733
  C  C1650  1  0.433900  0.522800  0.710500  1.0  -0.0186
  C  C1651  1  0.228900  0.402900  0.558200  1.0  -0.0766
  C  C1652  1  0.206000  0.420200  0.552500  1.0  -0.0651
  C  C1653  1  0.185300  0.411300  0.535200  1.0  -0.0126
  C  C1654  1  0.186400  0.385000  0.523500  1.0  -0.0492
  C  C1655  1  0.210000  0.369100  0.529000  1.0  -0.0633
  C  C1656  1  0.231300  0.378300  0.547400  1.0  -0.0567
  C  C1657  1  0.256700  0.485400  0.637400  1.0  -0.0058
  C  C1658  1  0.259700  0.510000  0.631500  1.0  -0.0285
  C  C1659  1  0.236700  0.528000  0.641800  1.0  -0.1353
  C  C1660  1  0.214800  0.516800  0.658500  1.0  -0.0695
  C  C1661  1  0.209700  0.489300  0.658900  1.0  -0.0951
  C  C1662  1  0.231600  0.473600  0.644000  1.0  -0.0587
  C  C1663  1  0.240300  0.436600  0.698700  1.0  0.0048
  C  C1664  1  0.255600  0.455300  0.708400  1.0  0.0638
  C  C1665  1  0.244400  0.474100  0.723700  1.0  -0.0108
  C  C1666  1  0.215000  0.472100  0.732900  1.0  -0.0499
  C  C1667  1  0.196400  0.453500  0.722300  1.0  -0.0702
  C  C1668  1  0.210300  0.434500  0.704100  1.0  -0.0343
  C  C1669  1  0.294600  0.415400  0.753000  1.0  -0.0823
  C  C1670  1  0.308400  0.437900  0.758400  1.0  0.059
  C  C1671  1  0.296600  0.456400  0.773600  1.0  -0.0331
  C  C1672  1  0.269600  0.451300  0.785400  1.0  -0.0011
  C  C1673  1  0.257500  0.428100  0.780700  1.0  0.0673
  C  C1674  1  0.266900  0.414000  0.763000  1.0  0.0561
  C  C1675  1  0.344100  0.524000  0.651600  1.0  -0.0623
  C  C1676  1  0.322500  0.515800  0.667000  1.0  0.0193
  C  C1677  1  0.305600  0.533600  0.683500  1.0  -0.0924
  C  C1678  1  0.313700  0.562000  0.681100  1.0  -0.1277
  C  C1679  1  0.339400  0.568600  0.664200  1.0  -0.0289
  C  C1680  1  0.352700  0.549400  0.647500  1.0  -0.0967
  C  C1681  1  0.334700  0.547300  0.581800  1.0  -0.1177
  C  C1682  1  0.322000  0.571700  0.588300  1.0  -0.0946
  C  C1683  1  0.344000  0.589100  0.593400  1.0  -0.008
  C  C1684  1  0.371900  0.586200  0.586100  1.0  -0.0006
  C  C1685  1  0.382800  0.563600  0.582000  1.0  -0.0549
  C  C1686  1  0.362600  0.540900  0.578700  1.0  -0.0148
  C  C1687  1  0.286640  0.387170  0.503440  1.0  -0.0605
  C  C1688  1  0.280300  0.360840  0.503500  1.0  -0.0034
  C  C1689  1  0.258100  0.351330  0.488580  1.0  -0.0352
  C  C1690  1  0.242300  0.368200  0.473590  1.0  -0.0932
  C  C1691  1  0.248700  0.394500  0.473530  1.0  -0.0708
  C  C1692  1  0.270820  0.404000  0.488450  1.0  -0.0542
  C  C1693  1  0.358500  0.484690  0.490000  1.0  -0.0426
  C  C1694  1  0.341300  0.463220  0.485100  1.0  -0.0127
  C  C1695  1  0.337200  0.454910  0.460630  1.0  -0.0497
  C  C1696  1  0.350300  0.468100  0.441000  1.0  -0.088
  C  C1697  1  0.367500  0.489500  0.445800  1.0  -0.0552
  C  C1698  1  0.371700  0.497800  0.470300  1.0  -0.0019
  C  C1699  1  0.425000  0.438610  0.503900  1.0  -0.0961
  C  C1700  1  0.422300  0.448850  0.479900  1.0  -0.0683
  C  C1701  1  0.446000  0.460320  0.468400  1.0  -0.0742
  C  C1702  1  0.472300  0.461560  0.480800  1.0  -0.0485
  C  C1703  1  0.475000  0.451330  0.504700  1.0  -0.0373
  C  C1704  1  0.451300  0.439850  0.516300  1.0  -0.0137
  C  C1705  1  0.206100  0.351800  0.621700  1.0  -0.0688
  C  C1706  1  0.208600  0.373100  0.605900  1.0  -0.0013
  C  C1707  1  0.185800  0.379800  0.590300  1.0  -0.0319
  C  C1708  1  0.160700  0.365100  0.590300  1.0  -0.0273
  C  C1709  1  0.158200  0.343800  0.606100  1.0  -0.0566
  C  C1710  1  0.181000  0.337100  0.621700  1.0  -0.0589
  C  C1711  1  0.383700  0.448300  0.760400  1.0  -0.0471
  C  C1712  1  0.374400  0.470700  0.748300  1.0  -0.0707
  C  C1713  1  0.365000  0.492800  0.765400  1.0  -0.0415
  C  C1714  1  0.367100  0.491500  0.790800  1.0  -0.0252
  C  C1715  1  0.376100  0.469000  0.800500  1.0  -0.0074
  C  C1716  1  0.387000  0.447400  0.785400  1.0  -0.0636
  C  C1717  1  0.473500  0.439400  0.772400  1.0  -0.066
  C  C1718  1  0.485700  0.451000  0.792800  1.0  -0.0076
  C  C1719  1  0.485300  0.437700  0.817200  1.0  -0.0693
  C  C1720  1  0.474300  0.411400  0.819000  1.0  -0.1293
  C  C1721  1  0.465300  0.398300  0.795200  1.0  -0.0922
  C  C1722  1  0.463700  0.413500  0.773900  1.0  0.0324
  C  C1723  1  0.500200  0.471000  0.602900  1.0  -0.0477
  C  C1724  1  0.509000  0.496200  0.597700  1.0  -0.063
  C  C1725  1  0.531500  0.500600  0.581000  1.0  -0.0831
  C  C1726  1  0.545200  0.479800  0.569600  1.0  -0.0376
  C  C1727  1  0.536400  0.454600  0.574800  1.0  -0.0377
  C  C1728  1  0.514000  0.450200  0.591500  1.0  -0.0151
  C  C1729  1  0.553300  0.380300  0.716500  1.0  -0.0537
  C  C1730  1  0.575500  0.370900  0.733000  1.0  -0.0207
  C  C1731  1  0.604200  0.364500  0.724000  1.0  -0.0654
  C  C1732  1  0.608900  0.364800  0.695800  1.0  -0.1042
  C  C1733  1  0.585300  0.375500  0.678100  1.0  -0.098
  C  C1734  1  0.558500  0.382500  0.690400  1.0  0.0073
  C  C1735  1  0.338800  0.559900  0.497100  1.0  -0.1227
  C  C1736  1  0.344700  0.555500  0.470400  1.0  -0.0574
  C  C1737  1  0.372800  0.562900  0.461700  1.0  0.0029
  C  C1738  1  0.393200  0.571300  0.477400  1.0  0.0069
  C  C1739  1  0.387600  0.576600  0.503700  1.0  -0.0459
  C  C1740  1  0.359700  0.569600  0.514300  1.0  -0.0891
  C  C1741  1  0.436400  0.501600  0.556200  1.0  -0.0849
  C  C1742  1  0.454900  0.524100  0.520900  1.0  -0.1205
  C  C1743  1  0.433700  0.508900  0.531600  1.0  -0.0155
  C  C1744  1  0.451500  0.483300  0.543400  1.0  -0.0783
  C  C1745  1  0.244900  0.979600  0.041000  1.0  -0.074
  C  C1746  1  0.219900  0.983300  0.026700  1.0  -0.0105
  C  C1747  1  0.193100  0.988700  0.037500  1.0  -0.0179
  C  C1748  1  0.191500  0.992700  0.063100  1.0  -0.0291
  C  C1749  1  0.215100  0.990100  0.078000  1.0  -0.0642
  C  C1750  1  0.241200  0.982300  0.067000  1.0  -0.0077
  C  C1751  1  0.518400  0.990400  0.184400  1.0  -0.0385
  C  C1752  1  0.517300  0.004200  0.206800  1.0  -0.0346
  C  C1753  1  0.511300  0.032100  0.206900  1.0  0.02
  C  C1754  1  0.507500  0.045500  0.186700  1.0  -0.0292
  C  C1755  1  0.509200  0.030600  0.165200  1.0  0.016
  C  C1756  1  0.515400  0.004200  0.164100  1.0  0.0306
  C  C1757  1  0.411700  0.004400  0.200800  1.0  -0.058
  C  C1758  1  0.385200  0.014700  0.203300  1.0  -0.0084
  C  C1759  1  0.376100  0.039600  0.216500  1.0  -0.0132
  C  C1760  1  0.398100  0.050200  0.228900  1.0  0.0084
  C  C1761  1  0.427300  0.043800  0.225400  1.0  -0.0733
  C  C1762  1  0.433900  0.022800  0.210500  1.0  -0.0186
  C  C1763  1  0.228900  0.902900  0.058200  1.0  -0.0766
  C  C1764  1  0.206000  0.920200  0.052500  1.0  -0.0651
  C  C1765  1  0.185300  0.911300  0.035200  1.0  -0.0126
  C  C1766  1  0.186400  0.885000  0.023500  1.0  -0.0492
  C  C1767  1  0.210000  0.869100  0.029000  1.0  -0.0633
  C  C1768  1  0.231300  0.878300  0.047400  1.0  -0.0567
  C  C1769  1  0.256700  0.985400  0.137400  1.0  -0.0058
  C  C1770  1  0.259700  0.010000  0.131500  1.0  -0.0285
  C  C1771  1  0.236700  0.028000  0.141800  1.0  -0.1353
  C  C1772  1  0.214800  0.016800  0.158500  1.0  -0.0695
  C  C1773  1  0.209700  0.989300  0.158900  1.0  -0.0951
  C  C1774  1  0.231600  0.973600  0.144000  1.0  -0.0587
  C  C1775  1  0.240300  0.936600  0.198700  1.0  0.0048
  C  C1776  1  0.255600  0.955300  0.208400  1.0  0.0638
  C  C1777  1  0.244400  0.974100  0.223700  1.0  -0.0108
  C  C1778  1  0.215000  0.972100  0.232900  1.0  -0.0499
  C  C1779  1  0.196400  0.953500  0.222300  1.0  -0.0702
  C  C1780  1  0.210300  0.934500  0.204100  1.0  -0.0343
  C  C1781  1  0.294600  0.915400  0.253000  1.0  -0.0823
  C  C1782  1  0.308400  0.937900  0.258400  1.0  0.059
  C  C1783  1  0.296600  0.956400  0.273600  1.0  -0.0331
  C  C1784  1  0.269600  0.951300  0.285400  1.0  -0.0011
  C  C1785  1  0.257500  0.928100  0.280700  1.0  0.0673
  C  C1786  1  0.266900  0.914000  0.263000  1.0  0.0561
  C  C1787  1  0.344100  0.024000  0.151600  1.0  -0.0623
  C  C1788  1  0.322500  0.015800  0.167000  1.0  0.0193
  C  C1789  1  0.305600  0.033600  0.183500  1.0  -0.0924
  C  C1790  1  0.313700  0.062000  0.181100  1.0  -0.1277
  C  C1791  1  0.339400  0.068600  0.164200  1.0  -0.0289
  C  C1792  1  0.352700  0.049400  0.147500  1.0  -0.0967
  C  C1793  1  0.334700  0.047300  0.081800  1.0  -0.1177
  C  C1794  1  0.322000  0.071700  0.088300  1.0  -0.0946
  C  C1795  1  0.344000  0.089100  0.093400  1.0  -0.008
  C  C1796  1  0.371900  0.086200  0.086100  1.0  -0.0006
  C  C1797  1  0.382800  0.063600  0.082000  1.0  -0.0549
  C  C1798  1  0.362600  0.040900  0.078700  1.0  -0.0148
  C  C1799  1  0.286640  0.887170  0.003440  1.0  -0.0605
  C  C1800  1  0.280300  0.860840  0.003500  1.0  -0.0034
  C  C1801  1  0.258100  0.851330  0.988580  1.0  -0.0352
  C  C1802  1  0.242300  0.868200  0.973590  1.0  -0.0932
  C  C1803  1  0.248700  0.894500  0.973530  1.0  -0.0723
  C  C1804  1  0.270820  0.904000  0.988450  1.0  -0.0542
  C  C1805  1  0.358500  0.984690  0.990000  1.0  -0.0426
  C  C1806  1  0.341300  0.963220  0.985100  1.0  -0.0127
  C  C1807  1  0.337200  0.954910  0.960630  1.0  -0.0497
  C  C1808  1  0.350300  0.968100  0.941000  1.0  -0.088
  C  C1809  1  0.367500  0.989500  0.945800  1.0  -0.0552
  C  C1810  1  0.371700  0.997800  0.970300  1.0  -0.0019
  C  C1811  1  0.425000  0.938610  0.003900  1.0  -0.0961
  C  C1812  1  0.422300  0.948850  0.979900  1.0  -0.0683
  C  C1813  1  0.446000  0.960320  0.968400  1.0  -0.0742
  C  C1814  1  0.472300  0.961560  0.980800  1.0  -0.0485
  C  C1815  1  0.475000  0.951330  0.004700  1.0  -0.0372
  C  C1816  1  0.451300  0.939850  0.016300  1.0  -0.0137
  C  C1817  1  0.206100  0.851800  0.121700  1.0  -0.0688
  C  C1818  1  0.208600  0.873100  0.105900  1.0  -0.0013
  C  C1819  1  0.185800  0.879800  0.090300  1.0  -0.0319
  C  C1820  1  0.160700  0.865100  0.090300  1.0  -0.0273
  C  C1821  1  0.158200  0.843800  0.106100  1.0  -0.0566
  C  C1822  1  0.181000  0.837100  0.121700  1.0  -0.0589
  C  C1823  1  0.383700  0.948300  0.260400  1.0  -0.0471
  C  C1824  1  0.374400  0.970700  0.248300  1.0  -0.0707
  C  C1825  1  0.365000  0.992800  0.265400  1.0  -0.0415
  C  C1826  1  0.367100  0.991500  0.290800  1.0  -0.0252
  C  C1827  1  0.376100  0.969000  0.300500  1.0  -0.0074
  C  C1828  1  0.387000  0.947400  0.285400  1.0  -0.0636
  C  C1829  1  0.473500  0.939400  0.272400  1.0  -0.066
  C  C1830  1  0.485700  0.951000  0.292800  1.0  -0.0073
  C  C1831  1  0.485300  0.937700  0.317200  1.0  -0.0693
  C  C1832  1  0.474300  0.911400  0.319000  1.0  -0.1293
  C  C1833  1  0.465300  0.898300  0.295200  1.0  -0.0922
  C  C1834  1  0.463700  0.913500  0.273900  1.0  0.0324
  C  C1835  1  0.500200  0.971000  0.102900  1.0  -0.051
  C  C1836  1  0.509000  0.996200  0.097700  1.0  -0.063
  C  C1837  1  0.531500  0.000600  0.081000  1.0  -0.0831
  C  C1838  1  0.545200  0.979800  0.069600  1.0  -0.0376
  C  C1839  1  0.536400  0.954600  0.074800  1.0  -0.0377
  C  C1840  1  0.514000  0.950200  0.091500  1.0  -0.0151
  C  C1841  1  0.553300  0.880300  0.216500  1.0  -0.0537
  C  C1842  1  0.575500  0.870900  0.233000  1.0  -0.0207
  C  C1843  1  0.604200  0.864500  0.224000  1.0  -0.0654
  C  C1844  1  0.608900  0.864800  0.195800  1.0  -0.1042
  C  C1845  1  0.585300  0.875500  0.178100  1.0  -0.098
  C  C1846  1  0.558500  0.882500  0.190400  1.0  0.0073
  C  C1847  1  0.338800  0.059900  0.997100  1.0  -0.1227
  C  C1848  1  0.344700  0.055500  0.970400  1.0  -0.0574
  C  C1849  1  0.372800  0.062900  0.961700  1.0  0.0029
  C  C1850  1  0.393200  0.071300  0.977400  1.0  0.0069
  C  C1851  1  0.387600  0.076600  0.003700  1.0  -0.0459
  C  C1852  1  0.359700  0.069600  0.014300  1.0  -0.0891
  C  C1853  1  0.436400  0.001600  0.056200  1.0  -0.0849
  C  C1854  1  0.454900  0.024100  0.020900  1.0  -0.1205
  C  C1855  1  0.433700  0.008900  0.031600  1.0  -0.0157
  C  C1856  1  0.451500  0.983300  0.043400  1.0  -0.0783
  C  C1857  1  0.505100  0.770400  0.041000  1.0  -0.0745
  C  C1858  1  0.530100  0.766700  0.026700  1.0  -0.0099
  C  C1859  1  0.556900  0.761300  0.037500  1.0  -0.0178
  C  C1860  1  0.558500  0.757300  0.063100  1.0  -0.0286
  C  C1861  1  0.534900  0.759900  0.078000  1.0  -0.064
  C  C1862  1  0.508800  0.767700  0.067000  1.0  -0.0067
  C  C1863  1  0.231600  0.759600  0.184400  1.0  -0.0396
  C  C1864  1  0.232700  0.745800  0.206800  1.0  -0.0338
  C  C1865  1  0.238700  0.717900  0.206900  1.0  0.0212
  C  C1866  1  0.242500  0.704500  0.186700  1.0  -0.0321
  C  C1867  1  0.240800  0.719400  0.165200  1.0  0.018
  C  C1868  1  0.234600  0.745800  0.164100  1.0  0.0298
  C  C1869  1  0.338300  0.745600  0.200800  1.0  -0.0568
  C  C1870  1  0.364800  0.735300  0.203300  1.0  -0.01
  C  C1871  1  0.373900  0.710400  0.216500  1.0  -0.0091
  C  C1872  1  0.351900  0.699800  0.228900  1.0  0.0083
  C  C1873  1  0.322700  0.706200  0.225400  1.0  -0.0736
  C  C1874  1  0.316100  0.727200  0.210500  1.0  -0.0183
  C  C1875  1  0.521100  0.847100  0.058200  1.0  -0.0766
  C  C1876  1  0.544000  0.829800  0.052500  1.0  -0.0657
  C  C1877  1  0.564700  0.838700  0.035200  1.0  -0.0118
  C  C1878  1  0.563600  0.865000  0.023500  1.0  -0.0492
  C  C1879  1  0.540000  0.880900  0.029000  1.0  -0.0634
  C  C1880  1  0.518700  0.871700  0.047400  1.0  -0.0548
  C  C1881  1  0.493300  0.764600  0.137400  1.0  -0.0075
  C  C1882  1  0.490300  0.740000  0.131500  1.0  -0.0285
  C  C1883  1  0.513300  0.722000  0.141800  1.0  -0.1314
  C  C1884  1  0.535200  0.733200  0.158500  1.0  -0.0665
  C  C1885  1  0.540300  0.760700  0.158900  1.0  -0.0932
  C  C1886  1  0.518400  0.776400  0.144000  1.0  -0.0585
  C  C1887  1  0.509700  0.813400  0.198700  1.0  0.0034
  C  C1888  1  0.494400  0.794700  0.208400  1.0  0.064
  C  C1889  1  0.505600  0.775900  0.223700  1.0  -0.0125
  C  C1890  1  0.535000  0.777900  0.232900  1.0  -0.0487
  C  C1891  1  0.553600  0.796500  0.222300  1.0  -0.0687
  C  C1892  1  0.539700  0.815500  0.204100  1.0  -0.0341
  C  C1893  1  0.455400  0.834600  0.253000  1.0  -0.0819
  C  C1894  1  0.441600  0.812100  0.258400  1.0  0.0609
  C  C1895  1  0.453400  0.793600  0.273600  1.0  -0.0317
  C  C1896  1  0.480400  0.798700  0.285400  1.0  1e-04
  C  C1897  1  0.492500  0.821900  0.280700  1.0  0.0642
  C  C1898  1  0.483100  0.836000  0.263000  1.0  0.0532
  C  C1899  1  0.405900  0.726000  0.151600  1.0  -0.0625
  C  C1900  1  0.427500  0.734200  0.167000  1.0  0.0198
  C  C1901  1  0.444400  0.716400  0.183500  1.0  -0.0918
  C  C1902  1  0.436300  0.688000  0.181100  1.0  -0.1269
  C  C1903  1  0.410600  0.681400  0.164200  1.0  -0.0287
  C  C1904  1  0.397300  0.700600  0.147500  1.0  -0.0981
  C  C1905  1  0.415300  0.702700  0.081800  1.0  -0.1189
  C  C1906  1  0.428000  0.678300  0.088300  1.0  -0.0907
  C  C1907  1  0.406000  0.660900  0.093400  1.0  -0.0097
  C  C1908  1  0.378100  0.663800  0.086100  1.0  0.0031
  C  C1909  1  0.367200  0.686400  0.082000  1.0  -0.0578
  C  C1910  1  0.387400  0.709100  0.078700  1.0  -0.0156
  C  C1911  1  0.463360  0.862830  0.003440  1.0  -0.0603
  C  C1912  1  0.469700  0.889160  0.003500  1.0  -0.0026
  C  C1913  1  0.491900  0.898670  0.988580  1.0  -0.0381
  C  C1914  1  0.507700  0.881800  0.973590  1.0  -0.093
  C  C1915  1  0.501300  0.855500  0.973530  1.0  -0.0664
  C  C1916  1  0.479180  0.846000  0.988450  1.0  -0.0529
  C  C1917  1  0.391500  0.765310  0.990000  1.0  -0.0456
  C  C1918  1  0.408700  0.786780  0.985100  1.0  -0.0136
  C  C1919  1  0.412800  0.795090  0.960630  1.0  -0.0477
  C  C1920  1  0.399700  0.781900  0.941000  1.0  -0.087
  C  C1921  1  0.382500  0.760500  0.945800  1.0  -0.0568
  C  C1922  1  0.378300  0.752200  0.970300  1.0  -0.0004
  C  C1923  1  0.325000  0.811390  0.003900  1.0  -0.0938
  C  C1924  1  0.327700  0.801150  0.979900  1.0  -0.0685
  C  C1925  1  0.304000  0.789680  0.968400  1.0  -0.0744
  C  C1926  1  0.277700  0.788440  0.980800  1.0  -0.0463
  C  C1927  1  0.275000  0.798670  0.004700  1.0  -0.0345
  C  C1928  1  0.298700  0.810150  0.016300  1.0  -0.0127
  C  C1929  1  0.543900  0.898200  0.121700  1.0  -0.0695
  C  C1930  1  0.541400  0.876900  0.105900  1.0  -0.0043
  C  C1931  1  0.564200  0.870200  0.090300  1.0  -0.0288
  C  C1932  1  0.589300  0.884900  0.090300  1.0  -0.028
  C  C1933  1  0.591800  0.906200  0.106100  1.0  -0.0567
  C  C1934  1  0.569000  0.912900  0.121700  1.0  -0.0604
  C  C1935  1  0.366300  0.801700  0.260400  1.0  -0.0548
  C  C1936  1  0.375600  0.779300  0.248300  1.0  -0.0705
  C  C1937  1  0.385000  0.757200  0.265400  1.0  -0.0347
  C  C1938  1  0.382900  0.758500  0.290800  1.0  -0.0251
  C  C1939  1  0.373900  0.781000  0.300500  1.0  -0.0084
  C  C1940  1  0.363000  0.802600  0.285400  1.0  -0.0626
  C  C1941  1  0.276500  0.810600  0.272400  1.0  -0.0656
  C  C1942  1  0.264300  0.799000  0.292800  1.0  -0.0045
  C  C1943  1  0.264700  0.812300  0.317200  1.0  -0.0652
  C  C1944  1  0.275700  0.838600  0.319000  1.0  -0.1237
  C  C1945  1  0.284700  0.851700  0.295200  1.0  -0.0935
  C  C1946  1  0.286300  0.836500  0.273900  1.0  0.034
  C  C1947  1  0.249800  0.779000  0.102900  1.0  -0.0509
  C  C1948  1  0.241000  0.753800  0.097700  1.0  -0.0615
  C  C1949  1  0.218500  0.749400  0.081000  1.0  -0.0809
  C  C1950  1  0.204800  0.770200  0.069600  1.0  -0.0392
  C  C1951  1  0.213600  0.795400  0.074800  1.0  -0.0347
  C  C1952  1  0.236000  0.799800  0.091500  1.0  -0.0139
  C  C1953  1  0.196700  0.869700  0.216500  1.0  -0.0531
  C  C1954  1  0.174500  0.879100  0.233000  1.0  -0.02
  C  C1955  1  0.145800  0.885500  0.224000  1.0  -0.0654
  C  C1956  1  0.141100  0.885200  0.195800  1.0  -0.1018
  C  C1957  1  0.164700  0.874500  0.178100  1.0  -0.0987
  C  C1958  1  0.191500  0.867500  0.190400  1.0  0.0073
  C  C1959  1  0.411200  0.690100  0.997100  1.0  -0.1181
  C  C1960  1  0.405300  0.694500  0.970400  1.0  -0.057
  C  C1961  1  0.377200  0.687100  0.961700  1.0  0.0036
  C  C1962  1  0.356800  0.678700  0.977400  1.0  0.0063
  C  C1963  1  0.362400  0.673400  0.003700  1.0  -0.0463
  C  C1964  1  0.390300  0.680400  0.014300  1.0  -0.0895
  C  C1965  1  0.313600  0.748400  0.056200  1.0  -0.0843
  C  C1966  1  0.295100  0.725900  0.020900  1.0  -0.1209
  C  C1967  1  0.316300  0.741100  0.031600  1.0  -0.0119
  C  C1968  1  0.298500  0.766700  0.043400  1.0  -0.08
  C  C1969  1  0.505100  0.270400  0.541000  1.0  -0.0745
  C  C1970  1  0.530100  0.266700  0.526700  1.0  -0.0099
  C  C1971  1  0.556900  0.261300  0.537500  1.0  -0.0178
  C  C1972  1  0.558500  0.257300  0.563100  1.0  -0.0286
  C  C1973  1  0.534900  0.259900  0.578000  1.0  -0.064
  C  C1974  1  0.508800  0.267700  0.567000  1.0  -0.0067
  C  C1975  1  0.231600  0.259600  0.684400  1.0  -0.0396
  C  C1976  1  0.232700  0.245800  0.706800  1.0  -0.0338
  C  C1977  1  0.238700  0.217900  0.706900  1.0  0.0212
  C  C1978  1  0.242500  0.204500  0.686700  1.0  -0.0321
  C  C1979  1  0.240800  0.219400  0.665200  1.0  0.018
  C  C1980  1  0.234600  0.245800  0.664100  1.0  0.0298
  C  C1981  1  0.338300  0.245600  0.700800  1.0  -0.0568
  C  C1982  1  0.364800  0.235300  0.703300  1.0  -0.01
  C  C1983  1  0.373900  0.210400  0.716500  1.0  -0.0091
  C  C1984  1  0.351900  0.199800  0.728900  1.0  0.0083
  C  C1985  1  0.322700  0.206200  0.725400  1.0  -0.0736
  C  C1986  1  0.316100  0.227200  0.710500  1.0  -0.0183
  C  C1987  1  0.521100  0.347100  0.558200  1.0  -0.0766
  C  C1988  1  0.544000  0.329800  0.552500  1.0  -0.0657
  C  C1989  1  0.564700  0.338700  0.535200  1.0  -0.0118
  C  C1990  1  0.563600  0.365000  0.523500  1.0  -0.0492
  C  C1991  1  0.540000  0.380900  0.529000  1.0  -0.0634
  C  C1992  1  0.518700  0.371700  0.547400  1.0  -0.0548
  C  C1993  1  0.493300  0.264600  0.637400  1.0  -0.0075
  C  C1994  1  0.490300  0.240000  0.631500  1.0  -0.0285
  C  C1995  1  0.513300  0.222000  0.641800  1.0  -0.1314
  C  C1996  1  0.535200  0.233200  0.658500  1.0  -0.0665
  C  C1997  1  0.540300  0.260700  0.658900  1.0  -0.0932
  C  C1998  1  0.518400  0.276400  0.644000  1.0  -0.0585
  C  C1999  1  0.509700  0.313400  0.698700  1.0  0.0034
  C  C2000  1  0.494400  0.294700  0.708400  1.0  0.064
  C  C2001  1  0.505600  0.275900  0.723700  1.0  -0.0125
  C  C2002  1  0.535000  0.277900  0.732900  1.0  -0.0487
  C  C2003  1  0.553600  0.296500  0.722300  1.0  -0.0687
  C  C2004  1  0.539700  0.315500  0.704100  1.0  -0.0341
  C  C2005  1  0.455400  0.334600  0.753000  1.0  -0.0819
  C  C2006  1  0.441600  0.312100  0.758400  1.0  0.0609
  C  C2007  1  0.453400  0.293600  0.773600  1.0  -0.0317
  C  C2008  1  0.480400  0.298700  0.785400  1.0  1e-04
  C  C2009  1  0.492500  0.321900  0.780700  1.0  0.0642
  C  C2010  1  0.483100  0.336000  0.763000  1.0  0.0532
  C  C2011  1  0.405900  0.226000  0.651600  1.0  -0.0625
  C  C2012  1  0.427500  0.234200  0.667000  1.0  0.0198
  C  C2013  1  0.444400  0.216400  0.683500  1.0  -0.0918
  C  C2014  1  0.436300  0.188000  0.681100  1.0  -0.1269
  C  C2015  1  0.410600  0.181400  0.664200  1.0  -0.0287
  C  C2016  1  0.397300  0.200600  0.647500  1.0  -0.0981
  C  C2017  1  0.415300  0.202700  0.581800  1.0  -0.1189
  C  C2018  1  0.428000  0.178300  0.588300  1.0  -0.0907
  C  C2019  1  0.406000  0.160900  0.593400  1.0  -0.0097
  C  C2020  1  0.378100  0.163800  0.586100  1.0  0.0031
  C  C2021  1  0.367200  0.186400  0.582000  1.0  -0.0578
  C  C2022  1  0.387400  0.209100  0.578700  1.0  -0.0156
  C  C2023  1  0.463360  0.362830  0.503440  1.0  -0.0603
  C  C2024  1  0.469700  0.389160  0.503500  1.0  -0.0026
  C  C2025  1  0.491900  0.398670  0.488580  1.0  -0.0381
  C  C2026  1  0.507700  0.381800  0.473590  1.0  -0.093
  C  C2027  1  0.501300  0.355500  0.473530  1.0  -0.0664
  C  C2028  1  0.479180  0.346000  0.488450  1.0  -0.0529
  C  C2029  1  0.391500  0.265310  0.490000  1.0  -0.0456
  C  C2030  1  0.408700  0.286780  0.485100  1.0  -0.0136
  C  C2031  1  0.412800  0.295090  0.460630  1.0  -0.0477
  C  C2032  1  0.399700  0.281900  0.441000  1.0  -0.087
  C  C2033  1  0.382500  0.260500  0.445800  1.0  -0.0568
  C  C2034  1  0.378300  0.252200  0.470300  1.0  -0.0004
  C  C2035  1  0.325000  0.311390  0.503900  1.0  -0.0938
  C  C2036  1  0.327700  0.301150  0.479900  1.0  -0.0685
  C  C2037  1  0.304000  0.289680  0.468400  1.0  -0.0744
  C  C2038  1  0.277700  0.288440  0.480800  1.0  -0.0463
  C  C2039  1  0.275000  0.298670  0.504700  1.0  -0.0356
  C  C2040  1  0.298700  0.310150  0.516300  1.0  -0.0127
  C  C2041  1  0.543900  0.398200  0.621700  1.0  -0.0695
  C  C2042  1  0.541400  0.376900  0.605900  1.0  -0.0043
  C  C2043  1  0.564200  0.370200  0.590300  1.0  -0.0288
  C  C2044  1  0.589300  0.384900  0.590300  1.0  -0.028
  C  C2045  1  0.591800  0.406200  0.606100  1.0  -0.0567
  C  C2046  1  0.569000  0.412900  0.621700  1.0  -0.0604
  C  C2047  1  0.366300  0.301700  0.760400  1.0  -0.0548
  C  C2048  1  0.375600  0.279300  0.748300  1.0  -0.0705
  C  C2049  1  0.385000  0.257200  0.765400  1.0  -0.0347
  C  C2050  1  0.382900  0.258500  0.790800  1.0  -0.0251
  C  C2051  1  0.373900  0.281000  0.800500  1.0  -0.0084
  C  C2052  1  0.363000  0.302600  0.785400  1.0  -0.0626
  C  C2053  1  0.276500  0.310600  0.772400  1.0  -0.0656
  C  C2054  1  0.264300  0.299000  0.792800  1.0  -0.0045
  C  C2055  1  0.264700  0.312300  0.817200  1.0  -0.0652
  C  C2056  1  0.275700  0.338600  0.819000  1.0  -0.1237
  C  C2057  1  0.284700  0.351700  0.795200  1.0  -0.0935
  C  C2058  1  0.286300  0.336500  0.773900  1.0  0.034
  C  C2059  1  0.249800  0.279000  0.602900  1.0  -0.0509
  C  C2060  1  0.241000  0.253800  0.597700  1.0  -0.0615
  C  C2061  1  0.218500  0.249400  0.581000  1.0  -0.0809
  C  C2062  1  0.204800  0.270200  0.569600  1.0  -0.0392
  C  C2063  1  0.213600  0.295400  0.574800  1.0  -0.0347
  C  C2064  1  0.236000  0.299800  0.591500  1.0  -0.0139
  C  C2065  1  0.196700  0.369700  0.716500  1.0  -0.0531
  C  C2066  1  0.174500  0.379100  0.733000  1.0  -0.02
  C  C2067  1  0.145800  0.385500  0.724000  1.0  -0.0654
  C  C2068  1  0.141100  0.385200  0.695800  1.0  -0.1018
  C  C2069  1  0.164700  0.374500  0.678100  1.0  -0.0987
  C  C2070  1  0.191500  0.367500  0.690400  1.0  0.0073
  C  C2071  1  0.411200  0.190100  0.497100  1.0  -0.1181
  C  C2072  1  0.405300  0.194500  0.470400  1.0  -0.057
  C  C2073  1  0.377200  0.187100  0.461700  1.0  0.0036
  C  C2074  1  0.356800  0.178700  0.477400  1.0  0.0063
  C  C2075  1  0.362400  0.173400  0.503700  1.0  -0.0463
  C  C2076  1  0.390300  0.180400  0.514300  1.0  -0.0895
  C  C2077  1  0.313600  0.248400  0.556200  1.0  -0.0843
  C  C2078  1  0.295100  0.225900  0.520900  1.0  -0.1209
  C  C2079  1  0.316300  0.241100  0.531600  1.0  -0.0119
  C  C2080  1  0.298500  0.266700  0.543400  1.0  -0.08
  C  C2081  1  0.005100  0.770400  0.541000  1.0  -0.0745
  C  C2082  1  0.030100  0.766700  0.526700  1.0  -0.0099
  C  C2083  1  0.056900  0.761300  0.537500  1.0  -0.0178
  C  C2084  1  0.058500  0.757300  0.563100  1.0  -0.0286
  C  C2085  1  0.034900  0.759900  0.578000  1.0  -0.064
  C  C2086  1  0.008800  0.767700  0.567000  1.0  -0.0067
  C  C2087  1  0.731600  0.759600  0.684400  1.0  -0.0396
  C  C2088  1  0.732700  0.745800  0.706800  1.0  -0.0338
  C  C2089  1  0.738700  0.717900  0.706900  1.0  0.0212
  C  C2090  1  0.742500  0.704500  0.686700  1.0  -0.0321
  C  C2091  1  0.740800  0.719400  0.665200  1.0  0.018
  C  C2092  1  0.734600  0.745800  0.664100  1.0  0.0298
  C  C2093  1  0.838300  0.745600  0.700800  1.0  -0.0568
  C  C2094  1  0.864800  0.735300  0.703300  1.0  -0.01
  C  C2095  1  0.873900  0.710400  0.716500  1.0  -0.0091
  C  C2096  1  0.851900  0.699800  0.728900  1.0  0.0083
  C  C2097  1  0.822700  0.706200  0.725400  1.0  -0.0736
  C  C2098  1  0.816100  0.727200  0.710500  1.0  -0.0183
  C  C2099  1  0.021100  0.847100  0.558200  1.0  -0.0766
  C  C2100  1  0.044000  0.829800  0.552500  1.0  -0.0657
  C  C2101  1  0.064700  0.838700  0.535200  1.0  -0.0118
  C  C2102  1  0.063600  0.865000  0.523500  1.0  -0.0492
  C  C2103  1  0.040000  0.880900  0.529000  1.0  -0.0634
  C  C2104  1  0.018700  0.871700  0.547400  1.0  -0.0548
  C  C2105  1  0.993300  0.764600  0.637400  1.0  -0.0075
  C  C2106  1  0.990300  0.740000  0.631500  1.0  -0.0285
  C  C2107  1  0.013300  0.722000  0.641800  1.0  -0.1314
  C  C2108  1  0.035200  0.733200  0.658500  1.0  -0.0665
  C  C2109  1  0.040300  0.760700  0.658900  1.0  -0.0932
  C  C2110  1  0.018400  0.776400  0.644000  1.0  -0.0585
  C  C2111  1  0.009700  0.813400  0.698700  1.0  0.0034
  C  C2112  1  0.994400  0.794700  0.708400  1.0  0.064
  C  C2113  1  0.005600  0.775900  0.723700  1.0  -0.0125
  C  C2114  1  0.035000  0.777900  0.732900  1.0  -0.0478
  C  C2115  1  0.053600  0.796500  0.722300  1.0  -0.0687
  C  C2116  1  0.039700  0.815500  0.704100  1.0  -0.0341
  C  C2117  1  0.955400  0.834600  0.753000  1.0  -0.0819
  C  C2118  1  0.941600  0.812100  0.758400  1.0  0.0609
  C  C2119  1  0.953400  0.793600  0.773600  1.0  -0.0316
  C  C2120  1  0.980400  0.798700  0.785400  1.0  1e-04
  C  C2121  1  0.992500  0.821900  0.780700  1.0  0.0642
  C  C2122  1  0.983100  0.836000  0.763000  1.0  0.0532
  C  C2123  1  0.905900  0.726000  0.651600  1.0  -0.0625
  C  C2124  1  0.927500  0.734200  0.667000  1.0  0.0198
  C  C2125  1  0.944400  0.716400  0.683500  1.0  -0.0918
  C  C2126  1  0.936300  0.688000  0.681100  1.0  -0.1269
  C  C2127  1  0.910600  0.681400  0.664200  1.0  -0.0287
  C  C2128  1  0.897300  0.700600  0.647500  1.0  -0.0981
  C  C2129  1  0.915300  0.702700  0.581800  1.0  -0.1189
  C  C2130  1  0.928000  0.678300  0.588300  1.0  -0.0907
  C  C2131  1  0.906000  0.660900  0.593400  1.0  -0.0097
  C  C2132  1  0.878100  0.663800  0.586100  1.0  0.0031
  C  C2133  1  0.867200  0.686400  0.582000  1.0  -0.0578
  C  C2134  1  0.887400  0.709100  0.578700  1.0  -0.0156
  C  C2135  1  0.963360  0.862830  0.503440  1.0  -0.0603
  C  C2136  1  0.969700  0.889160  0.503500  1.0  -0.0023
  C  C2137  1  0.991900  0.898670  0.488580  1.0  -0.0381
  C  C2138  1  0.007700  0.881800  0.473590  1.0  -0.093
  C  C2139  1  0.001300  0.855500  0.473530  1.0  -0.0664
  C  C2140  1  0.979180  0.846000  0.488450  1.0  -0.0529
  C  C2141  1  0.891500  0.765310  0.490000  1.0  -0.0456
  C  C2142  1  0.908700  0.786780  0.485100  1.0  -0.0136
  C  C2143  1  0.912800  0.795090  0.460630  1.0  -0.0477
  C  C2144  1  0.899700  0.781900  0.441000  1.0  -0.087
  C  C2145  1  0.882500  0.760500  0.445800  1.0  -0.0568
  C  C2146  1  0.878300  0.752200  0.470300  1.0  -0.0004
  C  C2147  1  0.825000  0.811390  0.503900  1.0  -0.0938
  C  C2148  1  0.827700  0.801150  0.479900  1.0  -0.0685
  C  C2149  1  0.804000  0.789680  0.468400  1.0  -0.0744
  C  C2150  1  0.777700  0.788440  0.480800  1.0  -0.0463
  C  C2151  1  0.775000  0.798670  0.504700  1.0  -0.0356
  C  C2152  1  0.798700  0.810150  0.516300  1.0  -0.0127
  C  C2153  1  0.043900  0.898200  0.621700  1.0  -0.0695
  C  C2154  1  0.041400  0.876900  0.605900  1.0  -0.0043
  C  C2155  1  0.064200  0.870200  0.590300  1.0  -0.0288
  C  C2156  1  0.089300  0.884900  0.590300  1.0  -0.028
  C  C2157  1  0.091800  0.906200  0.606100  1.0  -0.0567
  C  C2158  1  0.069000  0.912900  0.621700  1.0  -0.0604
  C  C2159  1  0.866300  0.801700  0.760400  1.0  -0.0548
  C  C2160  1  0.875600  0.779300  0.748300  1.0  -0.0705
  C  C2161  1  0.885000  0.757200  0.765400  1.0  -0.0347
  C  C2162  1  0.882900  0.758500  0.790800  1.0  -0.0251
  C  C2163  1  0.873900  0.781000  0.800500  1.0  -0.0084
  C  C2164  1  0.863000  0.802600  0.785400  1.0  -0.0626
  C  C2165  1  0.776500  0.810600  0.772400  1.0  -0.0656
  C  C2166  1  0.764300  0.799000  0.792800  1.0  -0.0045
  C  C2167  1  0.764700  0.812300  0.817200  1.0  -0.0652
  C  C2168  1  0.775700  0.838600  0.819000  1.0  -0.1237
  C  C2169  1  0.784700  0.851700  0.795200  1.0  -0.0935
  C  C2170  1  0.786300  0.836500  0.773900  1.0  0.034
  C  C2171  1  0.749800  0.779000  0.602900  1.0  -0.0509
  C  C2172  1  0.741000  0.753800  0.597700  1.0  -0.0615
  C  C2173  1  0.718500  0.749400  0.581000  1.0  -0.0809
  C  C2174  1  0.704800  0.770200  0.569600  1.0  -0.0392
  C  C2175  1  0.713600  0.795400  0.574800  1.0  -0.0347
  C  C2176  1  0.736000  0.799800  0.591500  1.0  -0.0139
  C  C2177  1  0.696700  0.869700  0.716500  1.0  -0.0531
  C  C2178  1  0.674500  0.879100  0.733000  1.0  -0.02
  C  C2179  1  0.645800  0.885500  0.724000  1.0  -0.0654
  C  C2180  1  0.641100  0.885200  0.695800  1.0  -0.1018
  C  C2181  1  0.664700  0.874500  0.678100  1.0  -0.0987
  C  C2182  1  0.691500  0.867500  0.690400  1.0  0.0073
  C  C2183  1  0.911200  0.690100  0.497100  1.0  -0.1181
  C  C2184  1  0.905300  0.694500  0.470400  1.0  -0.057
  C  C2185  1  0.877200  0.687100  0.461700  1.0  0.0036
  C  C2186  1  0.856800  0.678700  0.477400  1.0  0.0063
  C  C2187  1  0.862400  0.673400  0.503700  1.0  -0.0463
  C  C2188  1  0.890300  0.680400  0.514300  1.0  -0.0895
  C  C2189  1  0.813600  0.748400  0.556200  1.0  -0.0843
  C  C2190  1  0.795100  0.725900  0.520900  1.0  -0.1209
  C  C2191  1  0.816300  0.741100  0.531600  1.0  -0.0119
  C  C2192  1  0.798500  0.766700  0.543400  1.0  -0.08
  C  C2193  1  0.005100  0.270400  0.041000  1.0  -0.0745
  C  C2194  1  0.030100  0.266700  0.026700  1.0  -0.0099
  C  C2195  1  0.056900  0.261300  0.037500  1.0  -0.0178
  C  C2196  1  0.058500  0.257300  0.063100  1.0  -0.0286
  C  C2197  1  0.034900  0.259900  0.078000  1.0  -0.064
  C  C2198  1  0.008800  0.267700  0.067000  1.0  -0.0067
  C  C2199  1  0.731600  0.259600  0.184400  1.0  -0.0396
  C  C2200  1  0.732700  0.245800  0.206800  1.0  -0.0338
  C  C2201  1  0.738700  0.217900  0.206900  1.0  0.0212
  C  C2202  1  0.742500  0.204500  0.186700  1.0  -0.0321
  C  C2203  1  0.740800  0.219400  0.165200  1.0  0.018
  C  C2204  1  0.734600  0.245800  0.164100  1.0  0.0298
  C  C2205  1  0.838300  0.245600  0.200800  1.0  -0.0568
  C  C2206  1  0.864800  0.235300  0.203300  1.0  -0.01
  C  C2207  1  0.873900  0.210400  0.216500  1.0  -0.0091
  C  C2208  1  0.851900  0.199800  0.228900  1.0  0.0083
  C  C2209  1  0.822700  0.206200  0.225400  1.0  -0.0736
  C  C2210  1  0.816100  0.227200  0.210500  1.0  -0.0183
  C  C2211  1  0.021100  0.347100  0.058200  1.0  -0.0766
  C  C2212  1  0.044000  0.329800  0.052500  1.0  -0.0657
  C  C2213  1  0.064700  0.338700  0.035200  1.0  -0.0118
  C  C2214  1  0.063600  0.365000  0.023500  1.0  -0.0492
  C  C2215  1  0.040000  0.380900  0.029000  1.0  -0.0634
  C  C2216  1  0.018700  0.371700  0.047400  1.0  -0.0548
  C  C2217  1  0.993300  0.264600  0.137400  1.0  -0.0075
  C  C2218  1  0.990300  0.240000  0.131500  1.0  -0.0285
  C  C2219  1  0.013300  0.222000  0.141800  1.0  -0.1314
  C  C2220  1  0.035200  0.233200  0.158500  1.0  -0.0665
  C  C2221  1  0.040300  0.260700  0.158900  1.0  -0.0932
  C  C2222  1  0.018400  0.276400  0.144000  1.0  -0.0585
  C  C2223  1  0.009700  0.313400  0.198700  1.0  0.0034
  C  C2224  1  0.994400  0.294700  0.208400  1.0  0.064
  C  C2225  1  0.005600  0.275900  0.223700  1.0  -0.0125
  C  C2226  1  0.035000  0.277900  0.232900  1.0  -0.0478
  C  C2227  1  0.053600  0.296500  0.222300  1.0  -0.0687
  C  C2228  1  0.039700  0.315500  0.204100  1.0  -0.0341
  C  C2229  1  0.955400  0.334600  0.253000  1.0  -0.0819
  C  C2230  1  0.941600  0.312100  0.258400  1.0  0.0609
  C  C2231  1  0.953400  0.293600  0.273600  1.0  -0.0316
  C  C2232  1  0.980400  0.298700  0.285400  1.0  1e-04
  C  C2233  1  0.992500  0.321900  0.280700  1.0  0.0642
  C  C2234  1  0.983100  0.336000  0.263000  1.0  0.0532
  C  C2235  1  0.905900  0.226000  0.151600  1.0  -0.0625
  C  C2236  1  0.927500  0.234200  0.167000  1.0  0.0198
  C  C2237  1  0.944400  0.216400  0.183500  1.0  -0.0918
  C  C2238  1  0.936300  0.188000  0.181100  1.0  -0.1269
  C  C2239  1  0.910600  0.181400  0.164200  1.0  -0.0287
  C  C2240  1  0.897300  0.200600  0.147500  1.0  -0.0981
  C  C2241  1  0.915300  0.202700  0.081800  1.0  -0.1189
  C  C2242  1  0.928000  0.178300  0.088300  1.0  -0.0907
  C  C2243  1  0.906000  0.160900  0.093400  1.0  -0.0097
  C  C2244  1  0.878100  0.163800  0.086100  1.0  0.0031
  C  C2245  1  0.867200  0.186400  0.082000  1.0  -0.0578
  C  C2246  1  0.887400  0.209100  0.078700  1.0  -0.0156
  C  C2247  1  0.963360  0.362830  0.003440  1.0  -0.0603
  C  C2248  1  0.969700  0.389160  0.003500  1.0  -0.0023
  C  C2249  1  0.991900  0.398670  0.988580  1.0  -0.0381
  C  C2250  1  0.007700  0.381800  0.973590  1.0  -0.093
  C  C2251  1  0.001300  0.355500  0.973530  1.0  -0.0664
  C  C2252  1  0.979180  0.346000  0.988450  1.0  -0.0529
  C  C2253  1  0.891500  0.265310  0.990000  1.0  -0.0456
  C  C2254  1  0.908700  0.286780  0.985100  1.0  -0.0136
  C  C2255  1  0.912800  0.295090  0.960630  1.0  -0.0477
  C  C2256  1  0.899700  0.281900  0.941000  1.0  -0.087
  C  C2257  1  0.882500  0.260500  0.945800  1.0  -0.0568
  C  C2258  1  0.878300  0.252200  0.970300  1.0  -0.0004
  C  C2259  1  0.825000  0.311390  0.003900  1.0  -0.0938
  C  C2260  1  0.827700  0.301150  0.979900  1.0  -0.0685
  C  C2261  1  0.804000  0.289680  0.968400  1.0  -0.0744
  C  C2262  1  0.777700  0.288440  0.980800  1.0  -0.0463
  C  C2263  1  0.775000  0.298670  0.004700  1.0  -0.0345
  C  C2264  1  0.798700  0.310150  0.016300  1.0  -0.0127
  C  C2265  1  0.043900  0.398200  0.121700  1.0  -0.0695
  C  C2266  1  0.041400  0.376900  0.105900  1.0  -0.0043
  C  C2267  1  0.064200  0.370200  0.090300  1.0  -0.0288
  C  C2268  1  0.089300  0.384900  0.090300  1.0  -0.028
  C  C2269  1  0.091800  0.406200  0.106100  1.0  -0.0567
  C  C2270  1  0.069000  0.412900  0.121700  1.0  -0.0604
  C  C2271  1  0.866300  0.301700  0.260400  1.0  -0.0548
  C  C2272  1  0.875600  0.279300  0.248300  1.0  -0.0705
  C  C2273  1  0.885000  0.257200  0.265400  1.0  -0.0347
  C  C2274  1  0.882900  0.258500  0.290800  1.0  -0.0251
  C  C2275  1  0.873900  0.281000  0.300500  1.0  -0.0084
  C  C2276  1  0.863000  0.302600  0.285400  1.0  -0.0626
  C  C2277  1  0.776500  0.310600  0.272400  1.0  -0.0656
  C  C2278  1  0.764300  0.299000  0.292800  1.0  -0.0045
  C  C2279  1  0.764700  0.312300  0.317200  1.0  -0.0652
  C  C2280  1  0.775700  0.338600  0.319000  1.0  -0.1237
  C  C2281  1  0.784700  0.351700  0.295200  1.0  -0.0935
  C  C2282  1  0.786300  0.336500  0.273900  1.0  0.034
  C  C2283  1  0.749800  0.279000  0.102900  1.0  -0.0509
  C  C2284  1  0.741000  0.253800  0.097700  1.0  -0.0615
  C  C2285  1  0.718500  0.249400  0.081000  1.0  -0.0809
  C  C2286  1  0.704800  0.270200  0.069600  1.0  -0.0392
  C  C2287  1  0.713600  0.295400  0.074800  1.0  -0.0347
  C  C2288  1  0.736000  0.299800  0.091500  1.0  -0.0139
  C  C2289  1  0.696700  0.369700  0.216500  1.0  -0.0531
  C  C2290  1  0.674500  0.379100  0.233000  1.0  -0.02
  C  C2291  1  0.645800  0.385500  0.224000  1.0  -0.0654
  C  C2292  1  0.641100  0.385200  0.195800  1.0  -0.1018
  C  C2293  1  0.664700  0.374500  0.178100  1.0  -0.0987
  C  C2294  1  0.691500  0.367500  0.190400  1.0  0.0073
  C  C2295  1  0.911200  0.190100  0.997100  1.0  -0.1181
  C  C2296  1  0.905300  0.194500  0.970400  1.0  -0.057
  C  C2297  1  0.877200  0.187100  0.961700  1.0  0.0036
  C  C2298  1  0.856800  0.178700  0.977400  1.0  0.0063
  C  C2299  1  0.862400  0.173400  0.003700  1.0  -0.0463
  C  C2300  1  0.890300  0.180400  0.014300  1.0  -0.0895
  C  C2301  1  0.813600  0.248400  0.056200  1.0  -0.0843
  C  C2302  1  0.795100  0.225900  0.020900  1.0  -0.1209
  C  C2303  1  0.816300  0.241100  0.031600  1.0  -0.0119
  C  C2304  1  0.798500  0.266700  0.043400  1.0  -0.08
  C  C2305  1  0.255100  0.520400  0.959000  1.0  -0.0705
  C  C2306  1  0.280100  0.516700  0.973300  1.0  -0.0178
  C  C2307  1  0.306900  0.511300  0.962500  1.0  -0.0185
  C  C2308  1  0.308500  0.507300  0.936900  1.0  -0.0283
  C  C2309  1  0.284900  0.509900  0.922000  1.0  -0.0621
  C  C2310  1  0.258800  0.517700  0.933000  1.0  -0.002
  C  C2311  1  0.981600  0.509600  0.815600  1.0  -0.0399
  C  C2312  1  0.982700  0.495800  0.793200  1.0  -0.0337
  C  C2313  1  0.988700  0.467900  0.793100  1.0  0.0237
  C  C2314  1  0.992500  0.454500  0.813300  1.0  -0.0324
  C  C2315  1  0.990800  0.469400  0.834800  1.0  0.0155
  C  C2316  1  0.984600  0.495800  0.835900  1.0  0.0291
  C  C2317  1  0.088300  0.495600  0.799200  1.0  -0.0575
  C  C2318  1  0.114800  0.485300  0.796700  1.0  -0.0104
  C  C2319  1  0.123900  0.460400  0.783500  1.0  -0.0094
  C  C2320  1  0.101900  0.449800  0.771100  1.0  0.0092
  C  C2321  1  0.072700  0.456200  0.774600  1.0  -0.0728
  C  C2322  1  0.066100  0.477200  0.789500  1.0  -0.0184
  C  C2323  1  0.271100  0.597100  0.941800  1.0  -0.0772
  C  C2324  1  0.294000  0.579800  0.947500  1.0  -0.0651
  C  C2325  1  0.314700  0.588700  0.964800  1.0  -0.0132
  C  C2326  1  0.313600  0.615000  0.976500  1.0  -0.051
  C  C2327  1  0.290000  0.630900  0.971000  1.0  -0.0645
  C  C2328  1  0.268700  0.621700  0.952600  1.0  -0.0547
  C  C2329  1  0.243300  0.514600  0.862600  1.0  -0.0074
  C  C2330  1  0.240300  0.490000  0.868500  1.0  -0.0304
  C  C2331  1  0.263300  0.472000  0.858200  1.0  -0.1318
  C  C2332  1  0.285200  0.483200  0.841500  1.0  -0.0657
  C  C2333  1  0.290300  0.510700  0.841100  1.0  -0.0914
  C  C2334  1  0.268400  0.526400  0.856000  1.0  -0.0587
  C  C2335  1  0.259700  0.563400  0.801300  1.0  0.0031
  C  C2336  1  0.244400  0.544700  0.791600  1.0  0.064
  C  C2337  1  0.255600  0.525900  0.776300  1.0  -0.0117
  C  C2338  1  0.285000  0.527900  0.767100  1.0  -0.047
  C  C2339  1  0.303600  0.546500  0.777700  1.0  -0.0684
  C  C2340  1  0.289700  0.565500  0.795900  1.0  -0.0363
  C  C2341  1  0.205400  0.584600  0.747000  1.0  -0.0831
  C  C2342  1  0.191600  0.562100  0.741600  1.0  0.0606
  C  C2343  1  0.203400  0.543600  0.726400  1.0  -0.0302
  C  C2344  1  0.230400  0.548700  0.714600  1.0  -0.0007
  C  C2345  1  0.242500  0.571900  0.719300  1.0  0.0652
  C  C2346  1  0.233100  0.586000  0.737000  1.0  0.0527
  C  C2347  1  0.155900  0.476000  0.848400  1.0  -0.0619
  C  C2348  1  0.177500  0.484200  0.833000  1.0  0.0211
  C  C2349  1  0.194400  0.466400  0.816500  1.0  -0.089
  C  C2350  1  0.186300  0.438000  0.818900  1.0  -0.1259
  C  C2351  1  0.160600  0.431400  0.835800  1.0  -0.0302
  C  C2352  1  0.147300  0.450600  0.852500  1.0  -0.099
  C  C2353  1  0.165300  0.452700  0.918200  1.0  -0.119
  C  C2354  1  0.178000  0.428300  0.911700  1.0  -0.0909
  C  C2355  1  0.156000  0.410900  0.906600  1.0  -0.0077
  C  C2356  1  0.128100  0.413800  0.913900  1.0  0.0032
  C  C2357  1  0.117200  0.436400  0.918000  1.0  -0.0574
  C  C2358  1  0.137400  0.459100  0.921300  1.0  -0.0157
  C  C2359  1  0.213360  0.612830  0.996560  1.0  -0.0606
  C  C2360  1  0.219700  0.639160  0.996500  1.0  0.0002
  C  C2361  1  0.241900  0.648670  0.011420  1.0  -0.0404
  C  C2362  1  0.257700  0.631800  0.026410  1.0  -0.0944
  C  C2363  1  0.251300  0.605500  0.026470  1.0  -0.0682
  C  C2364  1  0.229180  0.596000  0.011550  1.0  -0.0528
  C  C2365  1  0.141500  0.515310  0.010000  1.0  -0.044
  C  C2366  1  0.158700  0.536780  0.014900  1.0  -0.0124
  C  C2367  1  0.162800  0.545090  0.039370  1.0  -0.0464
  C  C2368  1  0.149700  0.531900  0.059000  1.0  -0.0865
  C  C2369  1  0.132500  0.510500  0.054200  1.0  -0.0577
  C  C2370  1  0.128300  0.502200  0.029700  1.0  -0.0005
  C  C2371  1  0.075000  0.561390  0.996100  1.0  -0.0939
  C  C2372  1  0.077700  0.551150  0.020100  1.0  -0.0694
  C  C2373  1  0.054000  0.539680  0.031600  1.0  -0.0756
  C  C2374  1  0.027700  0.538440  0.019200  1.0  -0.0487
  C  C2375  1  0.025000  0.548670  0.995300  1.0  -0.0332
  C  C2376  1  0.048700  0.560150  0.983700  1.0  -0.0107
  C  C2377  1  0.293900  0.648200  0.878300  1.0  -0.0698
  C  C2378  1  0.291400  0.626900  0.894100  1.0  -0.0042
  C  C2379  1  0.314200  0.620200  0.909700  1.0  -0.0292
  C  C2380  1  0.339300  0.634900  0.909700  1.0  -0.0287
  C  C2381  1  0.341800  0.656200  0.893900  1.0  -0.0568
  C  C2382  1  0.319000  0.662900  0.878300  1.0  -0.0588
  C  C2383  1  0.116300  0.551700  0.739600  1.0  -0.0531
  C  C2384  1  0.125600  0.529300  0.751700  1.0  -0.0696
  C  C2385  1  0.135000  0.507200  0.734600  1.0  -0.0347
  C  C2386  1  0.132900  0.508500  0.709200  1.0  -0.0254
  C  C2387  1  0.123900  0.531000  0.699500  1.0  -0.0025
  C  C2388  1  0.113000  0.552600  0.714600  1.0  -0.0629
  C  C2389  1  0.026500  0.560600  0.727600  1.0  -0.0627
  C  C2390  1  0.014300  0.549000  0.707200  1.0  -0.0039
  C  C2391  1  0.014700  0.562300  0.682800  1.0  -0.0641
  C  C2392  1  0.025700  0.588600  0.681000  1.0  -0.1246
  C  C2393  1  0.034700  0.601700  0.704800  1.0  -0.0949
  C  C2394  1  0.036300  0.586500  0.726100  1.0  0.0322
  C  C2395  1  0.999800  0.529000  0.897100  1.0  -0.0509
  C  C2396  1  0.991000  0.503800  0.902300  1.0  -0.0609
  C  C2397  1  0.968500  0.499400  0.919000  1.0  -0.0808
  C  C2398  1  0.954800  0.520200  0.930400  1.0  -0.0391
  C  C2399  1  0.963600  0.545400  0.925200  1.0  -0.0367
  C  C2400  1  0.986000  0.549800  0.908500  1.0  -0.0135
  C  C2401  1  0.946700  0.619700  0.783500  1.0  -0.0531
  C  C2402  1  0.924500  0.629100  0.767000  1.0  -0.0168
  C  C2403  1  0.895800  0.635500  0.776000  1.0  -0.0652
  C  C2404  1  0.891100  0.635200  0.804200  1.0  -0.1043
  C  C2405  1  0.914700  0.624500  0.821900  1.0  -0.099
  C  C2406  1  0.941500  0.617500  0.809600  1.0  0.003
  C  C2407  1  0.161200  0.440100  0.002900  1.0  -0.1188
  C  C2408  1  0.155300  0.444500  0.029600  1.0  -0.0588
  C  C2409  1  0.127200  0.437100  0.038300  1.0  -0.0003
  C  C2410  1  0.106800  0.428700  0.022600  1.0  0.0051
  C  C2411  1  0.112400  0.423400  0.996300  1.0  -0.0465
  C  C2412  1  0.140300  0.430400  0.985700  1.0  -0.0918
  C  C2413  1  0.063600  0.498400  0.943800  1.0  -0.0831
  C  C2414  1  0.045100  0.475900  0.979100  1.0  -0.1221
  C  C2415  1  0.066300  0.491100  0.968400  1.0  -0.0115
  C  C2416  1  0.048500  0.516700  0.956600  1.0  -0.0815
  C  C2417  1  0.255100  0.020400  0.459000  1.0  -0.0705
  C  C2418  1  0.280100  0.016700  0.473300  1.0  -0.0178
  C  C2419  1  0.306900  0.011300  0.462500  1.0  -0.0185
  C  C2420  1  0.308500  0.007300  0.436900  1.0  -0.0283
  C  C2421  1  0.284900  0.009900  0.422000  1.0  -0.0621
  C  C2422  1  0.258800  0.017700  0.433000  1.0  -0.002
  C  C2423  1  0.981600  0.009600  0.315600  1.0  -0.0399
  C  C2424  1  0.982700  0.995800  0.293200  1.0  -0.0337
  C  C2425  1  0.988700  0.967900  0.293100  1.0  0.0237
  C  C2426  1  0.992500  0.954500  0.313300  1.0  -0.0324
  C  C2427  1  0.990800  0.969400  0.334800  1.0  0.0155
  C  C2428  1  0.984600  0.995800  0.335900  1.0  0.029
  C  C2429  1  0.088300  0.995600  0.299200  1.0  -0.0575
  C  C2430  1  0.114800  0.985300  0.296700  1.0  -0.0104
  C  C2431  1  0.123900  0.960400  0.283500  1.0  -0.0094
  C  C2432  1  0.101900  0.949800  0.271100  1.0  0.0092
  C  C2433  1  0.072700  0.956200  0.274600  1.0  -0.0728
  C  C2434  1  0.066100  0.977200  0.289500  1.0  -0.0184
  C  C2435  1  0.271100  0.097100  0.441800  1.0  -0.0772
  C  C2436  1  0.294000  0.079800  0.447500  1.0  -0.0651
  C  C2437  1  0.314700  0.088700  0.464800  1.0  -0.0132
  C  C2438  1  0.313600  0.115000  0.476500  1.0  -0.051
  C  C2439  1  0.290000  0.130900  0.471000  1.0  -0.0645
  C  C2440  1  0.268700  0.121700  0.452600  1.0  -0.0547
  C  C2441  1  0.243300  0.014600  0.362600  1.0  -0.0074
  C  C2442  1  0.240300  0.990000  0.368500  1.0  -0.0304
  C  C2443  1  0.263300  0.972000  0.358200  1.0  -0.1318
  C  C2444  1  0.285200  0.983200  0.341500  1.0  -0.0657
  C  C2445  1  0.290300  0.010700  0.341100  1.0  -0.0914
  C  C2446  1  0.268400  0.026400  0.356000  1.0  -0.0587
  C  C2447  1  0.259700  0.063400  0.301300  1.0  0.0031
  C  C2448  1  0.244400  0.044700  0.291600  1.0  0.064
  C  C2449  1  0.255600  0.025900  0.276300  1.0  -0.0117
  C  C2450  1  0.285000  0.027900  0.267100  1.0  -0.047
  C  C2451  1  0.303600  0.046500  0.277700  1.0  -0.0684
  C  C2452  1  0.289700  0.065500  0.295900  1.0  -0.0363
  C  C2453  1  0.205400  0.084600  0.247000  1.0  -0.0831
  C  C2454  1  0.191600  0.062100  0.241600  1.0  0.0606
  C  C2455  1  0.203400  0.043600  0.226400  1.0  -0.0302
  C  C2456  1  0.230400  0.048700  0.214600  1.0  -0.0007
  C  C2457  1  0.242500  0.071900  0.219300  1.0  0.0652
  C  C2458  1  0.233100  0.086000  0.237000  1.0  0.0527
  C  C2459  1  0.155900  0.976000  0.348400  1.0  -0.0619
  C  C2460  1  0.177500  0.984200  0.333000  1.0  0.0211
  C  C2461  1  0.194400  0.966400  0.316500  1.0  -0.089
  C  C2462  1  0.186300  0.938000  0.318900  1.0  -0.1259
  C  C2463  1  0.160600  0.931400  0.335800  1.0  -0.0302
  C  C2464  1  0.147300  0.950600  0.352500  1.0  -0.099
  C  C2465  1  0.165300  0.952700  0.418200  1.0  -0.119
  C  C2466  1  0.178000  0.928300  0.411700  1.0  -0.0909
  C  C2467  1  0.156000  0.910900  0.406600  1.0  -0.0077
  C  C2468  1  0.128100  0.913800  0.413900  1.0  0.0032
  C  C2469  1  0.117200  0.936400  0.418000  1.0  -0.0574
  C  C2470  1  0.137400  0.959100  0.421300  1.0  -0.0157
  C  C2471  1  0.213360  0.112830  0.496560  1.0  -0.0606
  C  C2472  1  0.219700  0.139160  0.496500  1.0  0.0002
  C  C2473  1  0.241900  0.148670  0.511420  1.0  -0.0404
  C  C2474  1  0.257700  0.131800  0.526410  1.0  -0.0944
  C  C2475  1  0.251300  0.105500  0.526470  1.0  -0.0682
  C  C2476  1  0.229180  0.096000  0.511550  1.0  -0.0528
  C  C2477  1  0.141500  0.015310  0.510000  1.0  -0.044
  C  C2478  1  0.158700  0.036780  0.514900  1.0  -0.0124
  C  C2479  1  0.162800  0.045090  0.539370  1.0  -0.0464
  C  C2480  1  0.149700  0.031900  0.559000  1.0  -0.0865
  C  C2481  1  0.132500  0.010500  0.554200  1.0  -0.0577
  C  C2482  1  0.128300  0.002200  0.529700  1.0  -0.0002
  C  C2483  1  0.075000  0.061390  0.496100  1.0  -0.0939
  C  C2484  1  0.077700  0.051150  0.520100  1.0  -0.0694
  C  C2485  1  0.054000  0.039680  0.531600  1.0  -0.0756
  C  C2486  1  0.027700  0.038440  0.519200  1.0  -0.0487
  C  C2487  1  0.025000  0.048670  0.495300  1.0  -0.0335
  C  C2488  1  0.048700  0.060150  0.483700  1.0  -0.0107
  C  C2489  1  0.293900  0.148200  0.378300  1.0  -0.0698
  C  C2490  1  0.291400  0.126900  0.394100  1.0  -0.0042
  C  C2491  1  0.314200  0.120200  0.409700  1.0  -0.0292
  C  C2492  1  0.339300  0.134900  0.409700  1.0  -0.0287
  C  C2493  1  0.341800  0.156200  0.393900  1.0  -0.0568
  C  C2494  1  0.319000  0.162900  0.378300  1.0  -0.0588
  C  C2495  1  0.116300  0.051700  0.239600  1.0  -0.0531
  C  C2496  1  0.125600  0.029300  0.251700  1.0  -0.0696
  C  C2497  1  0.135000  0.007200  0.234600  1.0  -0.0347
  C  C2498  1  0.132900  0.008500  0.209200  1.0  -0.0254
  C  C2499  1  0.123900  0.031000  0.199500  1.0  -0.0025
  C  C2500  1  0.113000  0.052600  0.214600  1.0  -0.0629
  C  C2501  1  0.026500  0.060600  0.227600  1.0  -0.0627
  C  C2502  1  0.014300  0.049000  0.207200  1.0  -0.0039
  C  C2503  1  0.014700  0.062300  0.182800  1.0  -0.0641
  C  C2504  1  0.025700  0.088600  0.181000  1.0  -0.1246
  C  C2505  1  0.034700  0.101700  0.204800  1.0  -0.0949
  C  C2506  1  0.036300  0.086500  0.226100  1.0  0.0322
  C  C2507  1  0.999800  0.029000  0.397100  1.0  -0.0536
  C  C2508  1  0.991000  0.003800  0.402300  1.0  -0.0609
  C  C2509  1  0.968500  0.999400  0.419000  1.0  -0.0808
  C  C2510  1  0.954800  0.020200  0.430400  1.0  -0.0384
  C  C2511  1  0.963600  0.045400  0.425200  1.0  -0.0367
  C  C2512  1  0.986000  0.049800  0.408500  1.0  -0.0135
  C  C2513  1  0.946700  0.119700  0.283500  1.0  -0.0531
  C  C2514  1  0.924500  0.129100  0.267000  1.0  -0.0168
  C  C2515  1  0.895800  0.135500  0.276000  1.0  -0.0652
  C  C2516  1  0.891100  0.135200  0.304200  1.0  -0.1043
  C  C2517  1  0.914700  0.124500  0.321900  1.0  -0.099
  C  C2518  1  0.941500  0.117500  0.309600  1.0  0.003
  C  C2519  1  0.161200  0.940100  0.502900  1.0  -0.1188
  C  C2520  1  0.155300  0.944500  0.529600  1.0  -0.0588
  C  C2521  1  0.127200  0.937100  0.538300  1.0  -0.0003
  C  C2522  1  0.106800  0.928700  0.522600  1.0  0.0051
  C  C2523  1  0.112400  0.923400  0.496300  1.0  -0.0465
  C  C2524  1  0.140300  0.930400  0.485700  1.0  -0.0918
  C  C2525  1  0.063600  0.998400  0.443800  1.0  -0.0831
  C  C2526  1  0.045100  0.975900  0.479100  1.0  -0.1221
  C  C2527  1  0.066300  0.991100  0.468400  1.0  -0.0115
  C  C2528  1  0.048500  0.016700  0.456600  1.0  -0.0802
  C  C2529  1  0.755100  0.520400  0.459000  1.0  -0.0705
  C  C2530  1  0.780100  0.516700  0.473300  1.0  -0.0178
  C  C2531  1  0.806900  0.511300  0.462500  1.0  -0.0185
  C  C2532  1  0.808500  0.507300  0.436900  1.0  -0.0283
  C  C2533  1  0.784900  0.509900  0.422000  1.0  -0.0621
  C  C2534  1  0.758800  0.517700  0.433000  1.0  -0.002
  C  C2535  1  0.481600  0.509600  0.315600  1.0  -0.0399
  C  C2536  1  0.482700  0.495800  0.293200  1.0  -0.0337
  C  C2537  1  0.488700  0.467900  0.293100  1.0  0.0237
  C  C2538  1  0.492500  0.454500  0.313300  1.0  -0.0324
  C  C2539  1  0.490800  0.469400  0.334800  1.0  0.0155
  C  C2540  1  0.484600  0.495800  0.335900  1.0  0.0291
  C  C2541  1  0.588300  0.495600  0.299200  1.0  -0.0575
  C  C2542  1  0.614800  0.485300  0.296700  1.0  -0.0104
  C  C2543  1  0.623900  0.460400  0.283500  1.0  -0.0094
  C  C2544  1  0.601900  0.449800  0.271100  1.0  0.0092
  C  C2545  1  0.572700  0.456200  0.274600  1.0  -0.0728
  C  C2546  1  0.566100  0.477200  0.289500  1.0  -0.0184
  C  C2547  1  0.771100  0.597100  0.441800  1.0  -0.0772
  C  C2548  1  0.794000  0.579800  0.447500  1.0  -0.0651
  C  C2549  1  0.814700  0.588700  0.464800  1.0  -0.0132
  C  C2550  1  0.813600  0.615000  0.476500  1.0  -0.051
  C  C2551  1  0.790000  0.630900  0.471000  1.0  -0.0645
  C  C2552  1  0.768700  0.621700  0.452600  1.0  -0.0547
  C  C2553  1  0.743300  0.514600  0.362600  1.0  -0.0074
  C  C2554  1  0.740300  0.490000  0.368500  1.0  -0.0304
  C  C2555  1  0.763300  0.472000  0.358200  1.0  -0.1318
  C  C2556  1  0.785200  0.483200  0.341500  1.0  -0.0657
  C  C2557  1  0.790300  0.510700  0.341100  1.0  -0.0914
  C  C2558  1  0.768400  0.526400  0.356000  1.0  -0.0587
  C  C2559  1  0.759700  0.563400  0.301300  1.0  0.0031
  C  C2560  1  0.744400  0.544700  0.291600  1.0  0.064
  C  C2561  1  0.755600  0.525900  0.276300  1.0  -0.0117
  C  C2562  1  0.785000  0.527900  0.267100  1.0  -0.047
  C  C2563  1  0.803600  0.546500  0.277700  1.0  -0.0684
  C  C2564  1  0.789700  0.565500  0.295900  1.0  -0.0363
  C  C2565  1  0.705400  0.584600  0.247000  1.0  -0.0831
  C  C2566  1  0.691600  0.562100  0.241600  1.0  0.0606
  C  C2567  1  0.703400  0.543600  0.226400  1.0  -0.0302
  C  C2568  1  0.730400  0.548700  0.214600  1.0  -0.0007
  C  C2569  1  0.742500  0.571900  0.219300  1.0  0.0652
  C  C2570  1  0.733100  0.586000  0.237000  1.0  0.0527
  C  C2571  1  0.655900  0.476000  0.348400  1.0  -0.0619
  C  C2572  1  0.677500  0.484200  0.333000  1.0  0.0211
  C  C2573  1  0.694400  0.466400  0.316500  1.0  -0.089
  C  C2574  1  0.686300  0.438000  0.318900  1.0  -0.1259
  C  C2575  1  0.660600  0.431400  0.335800  1.0  -0.0302
  C  C2576  1  0.647300  0.450600  0.352500  1.0  -0.099
  C  C2577  1  0.665300  0.452700  0.418200  1.0  -0.119
  C  C2578  1  0.678000  0.428300  0.411700  1.0  -0.0909
  C  C2579  1  0.656000  0.410900  0.406600  1.0  -0.0077
  C  C2580  1  0.628100  0.413800  0.413900  1.0  0.0032
  C  C2581  1  0.617200  0.436400  0.418000  1.0  -0.0574
  C  C2582  1  0.637400  0.459100  0.421300  1.0  -0.0157
  C  C2583  1  0.713360  0.612830  0.496560  1.0  -0.0606
  C  C2584  1  0.719700  0.639160  0.496500  1.0  0.0002
  C  C2585  1  0.741900  0.648670  0.511420  1.0  -0.0404
  C  C2586  1  0.757700  0.631800  0.526410  1.0  -0.0944
  C  C2587  1  0.751300  0.605500  0.526470  1.0  -0.0682
  C  C2588  1  0.729180  0.596000  0.511550  1.0  -0.0528
  C  C2589  1  0.641500  0.515310  0.510000  1.0  -0.044
  C  C2590  1  0.658700  0.536780  0.514900  1.0  -0.0124
  C  C2591  1  0.662800  0.545090  0.539370  1.0  -0.0464
  C  C2592  1  0.649700  0.531900  0.559000  1.0  -0.0865
  C  C2593  1  0.632500  0.510500  0.554200  1.0  -0.0577
  C  C2594  1  0.628300  0.502200  0.529700  1.0  -0.0002
  C  C2595  1  0.575000  0.561390  0.496100  1.0  -0.0939
  C  C2596  1  0.577700  0.551150  0.520100  1.0  -0.0694
  C  C2597  1  0.554000  0.539680  0.531600  1.0  -0.0756
  C  C2598  1  0.527700  0.538440  0.519200  1.0  -0.0487
  C  C2599  1  0.525000  0.548670  0.495300  1.0  -0.0335
  C  C2600  1  0.548700  0.560150  0.483700  1.0  -0.0107
  C  C2601  1  0.793900  0.648200  0.378300  1.0  -0.0698
  C  C2602  1  0.791400  0.626900  0.394100  1.0  -0.0042
  C  C2603  1  0.814200  0.620200  0.409700  1.0  -0.0292
  C  C2604  1  0.839300  0.634900  0.409700  1.0  -0.0287
  C  C2605  1  0.841800  0.656200  0.393900  1.0  -0.0568
  C  C2606  1  0.819000  0.662900  0.378300  1.0  -0.0588
  C  C2607  1  0.616300  0.551700  0.239600  1.0  -0.0531
  C  C2608  1  0.625600  0.529300  0.251700  1.0  -0.0696
  C  C2609  1  0.635000  0.507200  0.234600  1.0  -0.0347
  C  C2610  1  0.632900  0.508500  0.209200  1.0  -0.0254
  C  C2611  1  0.623900  0.531000  0.199500  1.0  -0.0025
  C  C2612  1  0.613000  0.552600  0.214600  1.0  -0.0629
  C  C2613  1  0.526500  0.560600  0.227600  1.0  -0.0627
  C  C2614  1  0.514300  0.549000  0.207200  1.0  -0.0039
  C  C2615  1  0.514700  0.562300  0.182800  1.0  -0.0641
  C  C2616  1  0.525700  0.588600  0.181000  1.0  -0.1246
  C  C2617  1  0.534700  0.601700  0.204800  1.0  -0.0949
  C  C2618  1  0.536300  0.586500  0.226100  1.0  0.0322
  C  C2619  1  0.499800  0.529000  0.397100  1.0  -0.0509
  C  C2620  1  0.491000  0.503800  0.402300  1.0  -0.0609
  C  C2621  1  0.468500  0.499400  0.419000  1.0  -0.0808
  C  C2622  1  0.454800  0.520200  0.430400  1.0  -0.0391
  C  C2623  1  0.463600  0.545400  0.425200  1.0  -0.0367
  C  C2624  1  0.486000  0.549800  0.408500  1.0  -0.0135
  C  C2625  1  0.446700  0.619700  0.283500  1.0  -0.0531
  C  C2626  1  0.424500  0.629100  0.267000  1.0  -0.0168
  C  C2627  1  0.395800  0.635500  0.276000  1.0  -0.0652
  C  C2628  1  0.391100  0.635200  0.304200  1.0  -0.1043
  C  C2629  1  0.414700  0.624500  0.321900  1.0  -0.099
  C  C2630  1  0.441500  0.617500  0.309600  1.0  0.003
  C  C2631  1  0.661200  0.440100  0.502900  1.0  -0.1188
  C  C2632  1  0.655300  0.444500  0.529600  1.0  -0.0588
  C  C2633  1  0.627200  0.437100  0.538300  1.0  -0.0003
  C  C2634  1  0.606800  0.428700  0.522600  1.0  0.0051
  C  C2635  1  0.612400  0.423400  0.496300  1.0  -0.0465
  C  C2636  1  0.640300  0.430400  0.485700  1.0  -0.0918
  C  C2637  1  0.563600  0.498400  0.443800  1.0  -0.0831
  C  C2638  1  0.545100  0.475900  0.479100  1.0  -0.1221
  C  C2639  1  0.566300  0.491100  0.468400  1.0  -0.0115
  C  C2640  1  0.548500  0.516700  0.456600  1.0  -0.0802
  C  C2641  1  0.755100  0.020400  0.959000  1.0  -0.0705
  C  C2642  1  0.780100  0.016700  0.973300  1.0  -0.0178
  C  C2643  1  0.806900  0.011300  0.962500  1.0  -0.0185
  C  C2644  1  0.808500  0.007300  0.936900  1.0  -0.0283
  C  C2645  1  0.784900  0.009900  0.922000  1.0  -0.0621
  C  C2646  1  0.758800  0.017700  0.933000  1.0  -0.002
  C  C2647  1  0.481600  0.009600  0.815600  1.0  -0.0399
  C  C2648  1  0.482700  0.995800  0.793200  1.0  -0.0337
  C  C2649  1  0.488700  0.967900  0.793100  1.0  0.0237
  C  C2650  1  0.492500  0.954500  0.813300  1.0  -0.0324
  C  C2651  1  0.490800  0.969400  0.834800  1.0  0.0155
  C  C2652  1  0.484600  0.995800  0.835900  1.0  0.029
  C  C2653  1  0.588300  0.995600  0.799200  1.0  -0.0575
  C  C2654  1  0.614800  0.985300  0.796700  1.0  -0.0104
  C  C2655  1  0.623900  0.960400  0.783500  1.0  -0.0094
  C  C2656  1  0.601900  0.949800  0.771100  1.0  0.0092
  C  C2657  1  0.572700  0.956200  0.774600  1.0  -0.0728
  C  C2658  1  0.566100  0.977200  0.789500  1.0  -0.0184
  C  C2659  1  0.771100  0.097100  0.941800  1.0  -0.0772
  C  C2660  1  0.794000  0.079800  0.947500  1.0  -0.0651
  C  C2661  1  0.814700  0.088700  0.964800  1.0  -0.0132
  C  C2662  1  0.813600  0.115000  0.976500  1.0  -0.051
  C  C2663  1  0.790000  0.130900  0.971000  1.0  -0.0645
  C  C2664  1  0.768700  0.121700  0.952600  1.0  -0.0547
  C  C2665  1  0.743300  0.014600  0.862600  1.0  -0.0074
  C  C2666  1  0.740300  0.990000  0.868500  1.0  -0.0304
  C  C2667  1  0.763300  0.972000  0.858200  1.0  -0.1318
  C  C2668  1  0.785200  0.983200  0.841500  1.0  -0.0657
  C  C2669  1  0.790300  0.010700  0.841100  1.0  -0.0914
  C  C2670  1  0.768400  0.026400  0.856000  1.0  -0.0587
  C  C2671  1  0.759700  0.063400  0.801300  1.0  0.0031
  C  C2672  1  0.744400  0.044700  0.791600  1.0  0.064
  C  C2673  1  0.755600  0.025900  0.776300  1.0  -0.0117
  C  C2674  1  0.785000  0.027900  0.767100  1.0  -0.047
  C  C2675  1  0.803600  0.046500  0.777700  1.0  -0.0684
  C  C2676  1  0.789700  0.065500  0.795900  1.0  -0.0363
  C  C2677  1  0.705400  0.084600  0.747000  1.0  -0.0831
  C  C2678  1  0.691600  0.062100  0.741600  1.0  0.0606
  C  C2679  1  0.703400  0.043600  0.726400  1.0  -0.0302
  C  C2680  1  0.730400  0.048700  0.714600  1.0  -0.0007
  C  C2681  1  0.742500  0.071900  0.719300  1.0  0.0652
  C  C2682  1  0.733100  0.086000  0.737000  1.0  0.0527
  C  C2683  1  0.655900  0.976000  0.848400  1.0  -0.0619
  C  C2684  1  0.677500  0.984200  0.833000  1.0  0.0211
  C  C2685  1  0.694400  0.966400  0.816500  1.0  -0.089
  C  C2686  1  0.686300  0.938000  0.818900  1.0  -0.1259
  C  C2687  1  0.660600  0.931400  0.835800  1.0  -0.0302
  C  C2688  1  0.647300  0.950600  0.852500  1.0  -0.099
  C  C2689  1  0.665300  0.952700  0.918200  1.0  -0.119
  C  C2690  1  0.678000  0.928300  0.911700  1.0  -0.0909
  C  C2691  1  0.656000  0.910900  0.906600  1.0  -0.0077
  C  C2692  1  0.628100  0.913800  0.913900  1.0  0.0032
  C  C2693  1  0.617200  0.936400  0.918000  1.0  -0.0574
  C  C2694  1  0.637400  0.959100  0.921300  1.0  -0.0157
  C  C2695  1  0.713360  0.112830  0.996560  1.0  -0.0606
  C  C2696  1  0.719700  0.139160  0.996500  1.0  0.0002
  C  C2697  1  0.741900  0.148670  0.011420  1.0  -0.0404
  C  C2698  1  0.757700  0.131800  0.026410  1.0  -0.0944
  C  C2699  1  0.751300  0.105500  0.026470  1.0  -0.0682
  C  C2700  1  0.729180  0.096000  0.011550  1.0  -0.0528
  C  C2701  1  0.641500  0.015310  0.010000  1.0  -0.044
  C  C2702  1  0.658700  0.036780  0.014900  1.0  -0.0124
  C  C2703  1  0.662800  0.045090  0.039370  1.0  -0.0464
  C  C2704  1  0.649700  0.031900  0.059000  1.0  -0.0865
  C  C2705  1  0.632500  0.010500  0.054200  1.0  -0.0577
  C  C2706  1  0.628300  0.002200  0.029700  1.0  -0.0005
  C  C2707  1  0.575000  0.061390  0.996100  1.0  -0.0939
  C  C2708  1  0.577700  0.051150  0.020100  1.0  -0.0694
  C  C2709  1  0.554000  0.039680  0.031600  1.0  -0.0756
  C  C2710  1  0.527700  0.038440  0.019200  1.0  -0.0487
  C  C2711  1  0.525000  0.048670  0.995300  1.0  -0.0332
  C  C2712  1  0.548700  0.060150  0.983700  1.0  -0.0107
  C  C2713  1  0.793900  0.148200  0.878300  1.0  -0.0698
  C  C2714  1  0.791400  0.126900  0.894100  1.0  -0.0042
  C  C2715  1  0.814200  0.120200  0.909700  1.0  -0.0292
  C  C2716  1  0.839300  0.134900  0.909700  1.0  -0.0287
  C  C2717  1  0.841800  0.156200  0.893900  1.0  -0.0568
  C  C2718  1  0.819000  0.162900  0.878300  1.0  -0.0588
  C  C2719  1  0.616300  0.051700  0.739600  1.0  -0.0531
  C  C2720  1  0.625600  0.029300  0.751700  1.0  -0.0696
  C  C2721  1  0.635000  0.007200  0.734600  1.0  -0.0347
  C  C2722  1  0.632900  0.008500  0.709200  1.0  -0.0254
  C  C2723  1  0.623900  0.031000  0.699500  1.0  -0.0025
  C  C2724  1  0.613000  0.052600  0.714600  1.0  -0.0629
  C  C2725  1  0.526500  0.060600  0.727600  1.0  -0.0627
  C  C2726  1  0.514300  0.049000  0.707200  1.0  -0.0039
  C  C2727  1  0.514700  0.062300  0.682800  1.0  -0.0641
  C  C2728  1  0.525700  0.088600  0.681000  1.0  -0.1246
  C  C2729  1  0.534700  0.101700  0.704800  1.0  -0.0949
  C  C2730  1  0.536300  0.086500  0.726100  1.0  0.0322
  C  C2731  1  0.499800  0.029000  0.897100  1.0  -0.0536
  C  C2732  1  0.491000  0.003800  0.902300  1.0  -0.0609
  C  C2733  1  0.468500  0.999400  0.919000  1.0  -0.0808
  C  C2734  1  0.454800  0.020200  0.930400  1.0  -0.0384
  C  C2735  1  0.463600  0.045400  0.925200  1.0  -0.0367
  C  C2736  1  0.486000  0.049800  0.908500  1.0  -0.0135
  C  C2737  1  0.446700  0.119700  0.783500  1.0  -0.0531
  C  C2738  1  0.424500  0.129100  0.767000  1.0  -0.0168
  C  C2739  1  0.395800  0.135500  0.776000  1.0  -0.0652
  C  C2740  1  0.391100  0.135200  0.804200  1.0  -0.1043
  C  C2741  1  0.414700  0.124500  0.821900  1.0  -0.099
  C  C2742  1  0.441500  0.117500  0.809600  1.0  0.003
  C  C2743  1  0.661200  0.940100  0.002900  1.0  -0.1188
  C  C2744  1  0.655300  0.944500  0.029600  1.0  -0.0588
  C  C2745  1  0.627200  0.937100  0.038300  1.0  -0.0003
  C  C2746  1  0.606800  0.928700  0.022600  1.0  0.0051
  C  C2747  1  0.612400  0.923400  0.996300  1.0  -0.0465
  C  C2748  1  0.640300  0.930400  0.985700  1.0  -0.0918
  C  C2749  1  0.563600  0.998400  0.943800  1.0  -0.0831
  C  C2750  1  0.545100  0.975900  0.979100  1.0  -0.1221
  C  C2751  1  0.566300  0.991100  0.968400  1.0  -0.0115
  C  C2752  1  0.548500  0.016700  0.956600  1.0  -0.0815
  C  C2753  1  0.494900  0.229600  0.959000  1.0  -0.0699
  C  C2754  1  0.469900  0.233300  0.973300  1.0  -0.0183
  C  C2755  1  0.443100  0.238700  0.962500  1.0  -0.0182
  C  C2756  1  0.441500  0.242700  0.936900  1.0  -0.0286
  C  C2757  1  0.465100  0.240100  0.922000  1.0  -0.0609
  C  C2758  1  0.491200  0.232300  0.933000  1.0  -0.0028
  C  C2759  1  0.768400  0.240400  0.815600  1.0  -0.0383
  C  C2760  1  0.767300  0.254200  0.793200  1.0  -0.0358
  C  C2761  1  0.761300  0.282100  0.793100  1.0  0.0215
  C  C2762  1  0.757500  0.295500  0.813300  1.0  -0.0292
  C  C2763  1  0.759200  0.280600  0.834800  1.0  0.0156
  C  C2764  1  0.765400  0.254200  0.835900  1.0  0.0305
  C  C2765  1  0.661700  0.254400  0.799200  1.0  -0.0576
  C  C2766  1  0.635200  0.264700  0.796700  1.0  -0.0087
  C  C2767  1  0.626100  0.289600  0.783500  1.0  -0.0132
  C  C2768  1  0.648100  0.300200  0.771100  1.0  0.0098
  C  C2769  1  0.677300  0.293800  0.774600  1.0  -0.0719
  C  C2770  1  0.683900  0.272800  0.789500  1.0  -0.0188
  C  C2771  1  0.478900  0.152900  0.941800  1.0  -0.0762
  C  C2772  1  0.456000  0.170200  0.947500  1.0  -0.0637
  C  C2773  1  0.435300  0.161300  0.964800  1.0  -0.0149
  C  C2774  1  0.436400  0.135000  0.976500  1.0  -0.0518
  C  C2775  1  0.460000  0.119100  0.971000  1.0  -0.0649
  C  C2776  1  0.481300  0.128300  0.952600  1.0  -0.0564
  C  C2777  1  0.506700  0.235400  0.862600  1.0  -0.006
  C  C2778  1  0.509700  0.260000  0.868500  1.0  -0.0298
  C  C2779  1  0.486700  0.278000  0.858200  1.0  -0.1351
  C  C2780  1  0.464800  0.266800  0.841500  1.0  -0.0678
  C  C2781  1  0.459700  0.239300  0.841100  1.0  -0.0947
  C  C2782  1  0.481600  0.223600  0.856000  1.0  -0.0585
  C  C2783  1  0.490300  0.186600  0.801300  1.0  0.0045
  C  C2784  1  0.505600  0.205300  0.791600  1.0  0.0636
  C  C2785  1  0.494400  0.224100  0.776300  1.0  -0.0093
  C  C2786  1  0.465000  0.222100  0.767100  1.0  -0.0478
  C  C2787  1  0.446400  0.203500  0.777700  1.0  -0.0702
  C  C2788  1  0.460300  0.184500  0.795900  1.0  -0.0358
  C  C2789  1  0.544600  0.165400  0.747000  1.0  -0.0827
  C  C2790  1  0.558400  0.187900  0.741600  1.0  0.0585
  C  C2791  1  0.546600  0.206400  0.726400  1.0  -0.032
  C  C2792  1  0.519600  0.201300  0.714600  1.0  -0.0012
  C  C2793  1  0.507500  0.178100  0.719300  1.0  0.0689
  C  C2794  1  0.516900  0.164000  0.737000  1.0  0.0545
  C  C2795  1  0.594100  0.274000  0.848400  1.0  -0.0622
  C  C2796  1  0.572500  0.265800  0.833000  1.0  0.0191
  C  C2797  1  0.555600  0.283600  0.816500  1.0  -0.0891
  C  C2798  1  0.563700  0.312000  0.818900  1.0  -0.1248
  C  C2799  1  0.589400  0.318600  0.835800  1.0  -0.0289
  C  C2800  1  0.602700  0.299400  0.852500  1.0  -0.0984
  C  C2801  1  0.584700  0.297300  0.918200  1.0  -0.118
  C  C2802  1  0.572000  0.321700  0.911700  1.0  -0.0945
  C  C2803  1  0.594000  0.339100  0.906600  1.0  -0.0065
  C  C2804  1  0.621900  0.336200  0.913900  1.0  -0.0007
  C  C2805  1  0.632800  0.313600  0.918000  1.0  -0.0547
  C  C2806  1  0.612600  0.290900  0.921300  1.0  -0.0149
  C  C2807  1  0.536640  0.137170  0.996560  1.0  -0.0602
  C  C2808  1  0.530300  0.110840  0.996500  1.0  -0.0031
  C  C2809  1  0.508100  0.101330  0.011420  1.0  -0.0357
  C  C2810  1  0.492300  0.118200  0.026410  1.0  -0.0961
  C  C2811  1  0.498700  0.144500  0.026470  1.0  -0.0728
  C  C2812  1  0.520820  0.154000  0.011550  1.0  -0.0537
  C  C2813  1  0.608500  0.234690  0.010000  1.0  -0.0414
  C  C2814  1  0.591300  0.213220  0.014900  1.0  -0.0116
  C  C2815  1  0.587200  0.204910  0.039370  1.0  -0.0478
  C  C2816  1  0.600300  0.218100  0.059000  1.0  -0.0876
  C  C2817  1  0.617500  0.239500  0.054200  1.0  -0.0537
  C  C2818  1  0.621700  0.247800  0.029700  1.0  -0.0026
  C  C2819  1  0.675000  0.188610  0.996100  1.0  -0.096
  C  C2820  1  0.672300  0.198850  0.020100  1.0  -0.0697
  C  C2821  1  0.696000  0.210320  0.031600  1.0  -0.0759
  C  C2822  1  0.722300  0.211560  0.019200  1.0  -0.0504
  C  C2823  1  0.725000  0.201330  0.995300  1.0  -0.0371
  C  C2824  1  0.701300  0.189850  0.983700  1.0  -0.0113
  C  C2825  1  0.456100  0.101800  0.878300  1.0  -0.0684
  C  C2826  1  0.458600  0.123100  0.894100  1.0  -0.0011
  C  C2827  1  0.435800  0.129800  0.909700  1.0  -0.0313
  C  C2828  1  0.410700  0.115100  0.909700  1.0  -0.0292
  C  C2829  1  0.408200  0.093800  0.893900  1.0  -0.0568
  C  C2830  1  0.431000  0.087100  0.878300  1.0  -0.0568
  C  C2831  1  0.633700  0.198300  0.739600  1.0  -0.0575
  C  C2832  1  0.624400  0.220700  0.751700  1.0  -0.0701
  C  C2833  1  0.615000  0.242800  0.734600  1.0  -0.0426
  C  C2834  1  0.617100  0.241500  0.709200  1.0  -0.0277
  C  C2835  1  0.626100  0.219000  0.699500  1.0  -0.0013
  C  C2836  1  0.637000  0.197400  0.714600  1.0  -0.0637
  C  C2837  1  0.723500  0.189400  0.727600  1.0  -0.0633
  C  C2838  1  0.735700  0.201000  0.707200  1.0  -0.0076
  C  C2839  1  0.735300  0.187700  0.682800  1.0  -0.0676
  C  C2840  1  0.724300  0.161400  0.681000  1.0  -0.123
  C  C2841  1  0.715300  0.148300  0.704800  1.0  -0.0923
  C  C2842  1  0.713700  0.163500  0.726100  1.0  0.0301
  C  C2843  1  0.750200  0.221000  0.897100  1.0  -0.0503
  C  C2844  1  0.759000  0.246200  0.902300  1.0  -0.0623
  C  C2845  1  0.781500  0.250600  0.919000  1.0  -0.083
  C  C2846  1  0.795200  0.229800  0.930400  1.0  -0.0401
  C  C2847  1  0.786400  0.204600  0.925200  1.0  -0.037
  C  C2848  1  0.764000  0.200200  0.908500  1.0  -0.015
  C  C2849  1  0.803300  0.130300  0.783500  1.0  -0.0536
  C  C2850  1  0.825500  0.120900  0.767000  1.0  -0.0169
  C  C2851  1  0.854200  0.114500  0.776000  1.0  -0.0649
  C  C2852  1  0.858900  0.114800  0.804200  1.0  -0.1049
  C  C2853  1  0.835300  0.125500  0.821900  1.0  -0.0977
  C  C2854  1  0.808500  0.132500  0.809600  1.0  0.003
  C  C2855  1  0.588800  0.309900  0.002900  1.0  -0.1228
  C  C2856  1  0.594700  0.305500  0.029600  1.0  -0.0604
  C  C2857  1  0.622800  0.312900  0.038300  1.0  0.0002
  C  C2858  1  0.643200  0.321300  0.022600  1.0  0.0055
  C  C2859  1  0.637600  0.326600  0.996300  1.0  -0.0459
  C  C2860  1  0.609700  0.319600  0.985700  1.0  -0.0913
  C  C2861  1  0.686400  0.251600  0.943800  1.0  -0.0829
  C  C2862  1  0.704900  0.274100  0.979100  1.0  -0.1209
  C  C2863  1  0.683700  0.258900  0.968400  1.0  -0.0124
  C  C2864  1  0.701500  0.233300  0.956600  1.0  -0.0783
  C  C2865  1  0.494900  0.729600  0.459000  1.0  -0.0699
  C  C2866  1  0.469900  0.733300  0.473300  1.0  -0.0183
  C  C2867  1  0.443100  0.738700  0.462500  1.0  -0.0182
  C  C2868  1  0.441500  0.742700  0.436900  1.0  -0.0286
  C  C2869  1  0.465100  0.740100  0.422000  1.0  -0.0609
  C  C2870  1  0.491200  0.732300  0.433000  1.0  -0.0028
  C  C2871  1  0.768400  0.740400  0.315600  1.0  -0.0383
  C  C2872  1  0.767300  0.754200  0.293200  1.0  -0.0358
  C  C2873  1  0.761300  0.782100  0.293100  1.0  0.0215
  C  C2874  1  0.757500  0.795500  0.313300  1.0  -0.0292
  C  C2875  1  0.759200  0.780600  0.334800  1.0  0.0156
  C  C2876  1  0.765400  0.754200  0.335900  1.0  0.0305
  C  C2877  1  0.661700  0.754400  0.299200  1.0  -0.0576
  C  C2878  1  0.635200  0.764700  0.296700  1.0  -0.0087
  C  C2879  1  0.626100  0.789600  0.283500  1.0  -0.0132
  C  C2880  1  0.648100  0.800200  0.271100  1.0  0.0098
  C  C2881  1  0.677300  0.793800  0.274600  1.0  -0.0719
  C  C2882  1  0.683900  0.772800  0.289500  1.0  -0.0188
  C  C2883  1  0.478900  0.652900  0.441800  1.0  -0.0762
  C  C2884  1  0.456000  0.670200  0.447500  1.0  -0.0637
  C  C2885  1  0.435300  0.661300  0.464800  1.0  -0.0149
  C  C2886  1  0.436400  0.635000  0.476500  1.0  -0.0518
  C  C2887  1  0.460000  0.619100  0.471000  1.0  -0.0649
  C  C2888  1  0.481300  0.628300  0.452600  1.0  -0.0564
  C  C2889  1  0.506700  0.735400  0.362600  1.0  -0.006
  C  C2890  1  0.509700  0.760000  0.368500  1.0  -0.0298
  C  C2891  1  0.486700  0.778000  0.358200  1.0  -0.1351
  C  C2892  1  0.464800  0.766800  0.341500  1.0  -0.0678
  C  C2893  1  0.459700  0.739300  0.341100  1.0  -0.0947
  C  C2894  1  0.481600  0.723600  0.356000  1.0  -0.0585
  C  C2895  1  0.490300  0.686600  0.301300  1.0  0.0045
  C  C2896  1  0.505600  0.705300  0.291600  1.0  0.0636
  C  C2897  1  0.494400  0.724100  0.276300  1.0  -0.0093
  C  C2898  1  0.465000  0.722100  0.267100  1.0  -0.0478
  C  C2899  1  0.446400  0.703500  0.277700  1.0  -0.0702
  C  C2900  1  0.460300  0.684500  0.295900  1.0  -0.0358
  C  C2901  1  0.544600  0.665400  0.247000  1.0  -0.0827
  C  C2902  1  0.558400  0.687900  0.241600  1.0  0.0585
  C  C2903  1  0.546600  0.706400  0.226400  1.0  -0.032
  C  C2904  1  0.519600  0.701300  0.214600  1.0  -0.0012
  C  C2905  1  0.507500  0.678100  0.219300  1.0  0.0689
  C  C2906  1  0.516900  0.664000  0.237000  1.0  0.0545
  C  C2907  1  0.594100  0.774000  0.348400  1.0  -0.0622
  C  C2908  1  0.572500  0.765800  0.333000  1.0  0.0191
  C  C2909  1  0.555600  0.783600  0.316500  1.0  -0.0891
  C  C2910  1  0.563700  0.812000  0.318900  1.0  -0.1248
  C  C2911  1  0.589400  0.818600  0.335800  1.0  -0.0289
  C  C2912  1  0.602700  0.799400  0.352500  1.0  -0.0984
  C  C2913  1  0.584700  0.797300  0.418200  1.0  -0.118
  C  C2914  1  0.572000  0.821700  0.411700  1.0  -0.0945
  C  C2915  1  0.594000  0.839100  0.406600  1.0  -0.0065
  C  C2916  1  0.621900  0.836200  0.413900  1.0  -0.0007
  C  C2917  1  0.632800  0.813600  0.418000  1.0  -0.0547
  C  C2918  1  0.612600  0.790900  0.421300  1.0  -0.0149
  C  C2919  1  0.536640  0.637170  0.496560  1.0  -0.0602
  C  C2920  1  0.530300  0.610840  0.496500  1.0  -0.0031
  C  C2921  1  0.508100  0.601330  0.511420  1.0  -0.0357
  C  C2922  1  0.492300  0.618200  0.526410  1.0  -0.0961
  C  C2923  1  0.498700  0.644500  0.526470  1.0  -0.0728
  C  C2924  1  0.520820  0.654000  0.511550  1.0  -0.0537
  C  C2925  1  0.608500  0.734690  0.510000  1.0  -0.0414
  C  C2926  1  0.591300  0.713220  0.514900  1.0  -0.0116
  C  C2927  1  0.587200  0.704910  0.539370  1.0  -0.0478
  C  C2928  1  0.600300  0.718100  0.559000  1.0  -0.0876
  C  C2929  1  0.617500  0.739500  0.554200  1.0  -0.0537
  C  C2930  1  0.621700  0.747800  0.529700  1.0  -0.0026
  C  C2931  1  0.675000  0.688610  0.496100  1.0  -0.096
  C  C2932  1  0.672300  0.698850  0.520100  1.0  -0.0697
  C  C2933  1  0.696000  0.710320  0.531600  1.0  -0.0759
  C  C2934  1  0.722300  0.711560  0.519200  1.0  -0.051
  C  C2935  1  0.725000  0.701330  0.495300  1.0  -0.0371
  C  C2936  1  0.701300  0.689850  0.483700  1.0  -0.0113
  C  C2937  1  0.456100  0.601800  0.378300  1.0  -0.0684
  C  C2938  1  0.458600  0.623100  0.394100  1.0  -0.0011
  C  C2939  1  0.435800  0.629800  0.409700  1.0  -0.0313
  C  C2940  1  0.410700  0.615100  0.409700  1.0  -0.0292
  C  C2941  1  0.408200  0.593800  0.393900  1.0  -0.0568
  C  C2942  1  0.431000  0.587100  0.378300  1.0  -0.0568
  C  C2943  1  0.633700  0.698300  0.239600  1.0  -0.0575
  C  C2944  1  0.624400  0.720700  0.251700  1.0  -0.0701
  C  C2945  1  0.615000  0.742800  0.234600  1.0  -0.0426
  C  C2946  1  0.617100  0.741500  0.209200  1.0  -0.0277
  C  C2947  1  0.626100  0.719000  0.199500  1.0  -0.0013
  C  C2948  1  0.637000  0.697400  0.214600  1.0  -0.0637
  C  C2949  1  0.723500  0.689400  0.227600  1.0  -0.0633
  C  C2950  1  0.735700  0.701000  0.207200  1.0  -0.0076
  C  C2951  1  0.735300  0.687700  0.182800  1.0  -0.0676
  C  C2952  1  0.724300  0.661400  0.181000  1.0  -0.123
  C  C2953  1  0.715300  0.648300  0.204800  1.0  -0.0923
  C  C2954  1  0.713700  0.663500  0.226100  1.0  0.0301
  C  C2955  1  0.750200  0.721000  0.397100  1.0  -0.0503
  C  C2956  1  0.759000  0.746200  0.402300  1.0  -0.0623
  C  C2957  1  0.781500  0.750600  0.419000  1.0  -0.083
  C  C2958  1  0.795200  0.729800  0.430400  1.0  -0.0401
  C  C2959  1  0.786400  0.704600  0.425200  1.0  -0.037
  C  C2960  1  0.764000  0.700200  0.408500  1.0  -0.015
  C  C2961  1  0.803300  0.630300  0.283500  1.0  -0.0536
  C  C2962  1  0.825500  0.620900  0.267000  1.0  -0.0169
  C  C2963  1  0.854200  0.614500  0.276000  1.0  -0.0649
  C  C2964  1  0.858900  0.614800  0.304200  1.0  -0.1049
  C  C2965  1  0.835300  0.625500  0.321900  1.0  -0.0977
  C  C2966  1  0.808500  0.632500  0.309600  1.0  0.003
  C  C2967  1  0.588800  0.809900  0.502900  1.0  -0.1228
  C  C2968  1  0.594700  0.805500  0.529600  1.0  -0.0604
  C  C2969  1  0.622800  0.812900  0.538300  1.0  0.0002
  C  C2970  1  0.643200  0.821300  0.522600  1.0  0.0055
  C  C2971  1  0.637600  0.826600  0.496300  1.0  -0.0459
  C  C2972  1  0.609700  0.819600  0.485700  1.0  -0.0913
  C  C2973  1  0.686400  0.751600  0.443800  1.0  -0.0829
  C  C2974  1  0.704900  0.774100  0.479100  1.0  -0.1209
  C  C2975  1  0.683700  0.758900  0.468400  1.0  -0.0124
  C  C2976  1  0.701500  0.733300  0.456600  1.0  -0.0783
  C  C2977  1  0.994900  0.229600  0.459000  1.0  -0.0699
  C  C2978  1  0.969900  0.233300  0.473300  1.0  -0.0183
  C  C2979  1  0.943100  0.238700  0.462500  1.0  -0.0182
  C  C2980  1  0.941500  0.242700  0.436900  1.0  -0.0286
  C  C2981  1  0.965100  0.240100  0.422000  1.0  -0.0609
  C  C2982  1  0.991200  0.232300  0.433000  1.0  -0.0028
  C  C2983  1  0.268400  0.240400  0.315600  1.0  -0.0383
  C  C2984  1  0.267300  0.254200  0.293200  1.0  -0.0358
  C  C2985  1  0.261300  0.282100  0.293100  1.0  0.0215
  C  C2986  1  0.257500  0.295500  0.313300  1.0  -0.0292
  C  C2987  1  0.259200  0.280600  0.334800  1.0  0.0156
  C  C2988  1  0.265400  0.254200  0.335900  1.0  0.0305
  C  C2989  1  0.161700  0.254400  0.299200  1.0  -0.0576
  C  C2990  1  0.135200  0.264700  0.296700  1.0  -0.0087
  C  C2991  1  0.126100  0.289600  0.283500  1.0  -0.0132
  C  C2992  1  0.148100  0.300200  0.271100  1.0  0.0098
  C  C2993  1  0.177300  0.293800  0.274600  1.0  -0.0719
  C  C2994  1  0.183900  0.272800  0.289500  1.0  -0.0188
  C  C2995  1  0.978900  0.152900  0.441800  1.0  -0.0762
  C  C2996  1  0.956000  0.170200  0.447500  1.0  -0.0637
  C  C2997  1  0.935300  0.161300  0.464800  1.0  -0.0149
  C  C2998  1  0.936400  0.135000  0.476500  1.0  -0.0518
  C  C2999  1  0.960000  0.119100  0.471000  1.0  -0.0649
  C  C3000  1  0.981300  0.128300  0.452600  1.0  -0.0564
  C  C3001  1  0.006700  0.235400  0.362600  1.0  -0.006
  C  C3002  1  0.009700  0.260000  0.368500  1.0  -0.0298
  C  C3003  1  0.986700  0.278000  0.358200  1.0  -0.1351
  C  C3004  1  0.964800  0.266800  0.341500  1.0  -0.0678
  C  C3005  1  0.959700  0.239300  0.341100  1.0  -0.0947
  C  C3006  1  0.981600  0.223600  0.356000  1.0  -0.0585
  C  C3007  1  0.990300  0.186600  0.301300  1.0  0.0045
  C  C3008  1  0.005600  0.205300  0.291600  1.0  0.0636
  C  C3009  1  0.994400  0.224100  0.276300  1.0  -0.0093
  C  C3010  1  0.965000  0.222100  0.267100  1.0  -0.0478
  C  C3011  1  0.946400  0.203500  0.277700  1.0  -0.0702
  C  C3012  1  0.960300  0.184500  0.295900  1.0  -0.0358
  C  C3013  1  0.044600  0.165400  0.247000  1.0  -0.0827
  C  C3014  1  0.058400  0.187900  0.241600  1.0  0.0585
  C  C3015  1  0.046600  0.206400  0.226400  1.0  -0.0323
  C  C3016  1  0.019600  0.201300  0.214600  1.0  -0.0012
  C  C3017  1  0.007500  0.178100  0.219300  1.0  0.0689
  C  C3018  1  0.016900  0.164000  0.237000  1.0  0.0545
  C  C3019  1  0.094100  0.274000  0.348400  1.0  -0.0622
  C  C3020  1  0.072500  0.265800  0.333000  1.0  0.0191
  C  C3021  1  0.055600  0.283600  0.316500  1.0  -0.0891
  C  C3022  1  0.063700  0.312000  0.318900  1.0  -0.1248
  C  C3023  1  0.089400  0.318600  0.335800  1.0  -0.0289
  C  C3024  1  0.102700  0.299400  0.352500  1.0  -0.0984
  C  C3025  1  0.084700  0.297300  0.418200  1.0  -0.118
  C  C3026  1  0.072000  0.321700  0.411700  1.0  -0.0945
  C  C3027  1  0.094000  0.339100  0.406600  1.0  -0.0065
  C  C3028  1  0.121900  0.336200  0.413900  1.0  -0.0007
  C  C3029  1  0.132800  0.313600  0.418000  1.0  -0.0547
  C  C3030  1  0.112600  0.290900  0.421300  1.0  -0.0149
  C  C3031  1  0.036640  0.137170  0.496560  1.0  -0.0602
  C  C3032  1  0.030300  0.110840  0.496500  1.0  -0.0031
  C  C3033  1  0.008100  0.101330  0.511420  1.0  -0.0357
  C  C3034  1  0.992300  0.118200  0.526410  1.0  -0.0961
  C  C3035  1  0.998700  0.144500  0.526470  1.0  -0.0728
  C  C3036  1  0.020820  0.154000  0.511550  1.0  -0.0537
  C  C3037  1  0.108500  0.234690  0.510000  1.0  -0.0414
  C  C3038  1  0.091300  0.213220  0.514900  1.0  -0.0116
  C  C3039  1  0.087200  0.204910  0.539370  1.0  -0.0478
  C  C3040  1  0.100300  0.218100  0.559000  1.0  -0.0876
  C  C3041  1  0.117500  0.239500  0.554200  1.0  -0.0537
  C  C3042  1  0.121700  0.247800  0.529700  1.0  -0.0026
  C  C3043  1  0.175000  0.188610  0.496100  1.0  -0.096
  C  C3044  1  0.172300  0.198850  0.520100  1.0  -0.0697
  C  C3045  1  0.196000  0.210320  0.531600  1.0  -0.0759
  C  C3046  1  0.222300  0.211560  0.519200  1.0  -0.051
  C  C3047  1  0.225000  0.201330  0.495300  1.0  -0.0371
  C  C3048  1  0.201300  0.189850  0.483700  1.0  -0.0113
  C  C3049  1  0.956100  0.101800  0.378300  1.0  -0.0684
  C  C3050  1  0.958600  0.123100  0.394100  1.0  -0.0011
  C  C3051  1  0.935800  0.129800  0.409700  1.0  -0.0313
  C  C3052  1  0.910700  0.115100  0.409700  1.0  -0.0292
  C  C3053  1  0.908200  0.093800  0.393900  1.0  -0.0568
  C  C3054  1  0.931000  0.087100  0.378300  1.0  -0.0568
  C  C3055  1  0.133700  0.198300  0.239600  1.0  -0.0575
  C  C3056  1  0.124400  0.220700  0.251700  1.0  -0.0701
  C  C3057  1  0.115000  0.242800  0.234600  1.0  -0.0426
  C  C3058  1  0.117100  0.241500  0.209200  1.0  -0.0277
  C  C3059  1  0.126100  0.219000  0.199500  1.0  -0.0013
  C  C3060  1  0.137000  0.197400  0.214600  1.0  -0.0637
  C  C3061  1  0.223500  0.189400  0.227600  1.0  -0.0633
  C  C3062  1  0.235700  0.201000  0.207200  1.0  -0.0076
  C  C3063  1  0.235300  0.187700  0.182800  1.0  -0.0676
  C  C3064  1  0.224300  0.161400  0.181000  1.0  -0.123
  C  C3065  1  0.215300  0.148300  0.204800  1.0  -0.0923
  C  C3066  1  0.213700  0.163500  0.226100  1.0  0.0301
  C  C3067  1  0.250200  0.221000  0.397100  1.0  -0.0503
  C  C3068  1  0.259000  0.246200  0.402300  1.0  -0.0623
  C  C3069  1  0.281500  0.250600  0.419000  1.0  -0.083
  C  C3070  1  0.295200  0.229800  0.430400  1.0  -0.0401
  C  C3071  1  0.286400  0.204600  0.425200  1.0  -0.037
  C  C3072  1  0.264000  0.200200  0.408500  1.0  -0.015
  C  C3073  1  0.303300  0.130300  0.283500  1.0  -0.0536
  C  C3074  1  0.325500  0.120900  0.267000  1.0  -0.0169
  C  C3075  1  0.354200  0.114500  0.276000  1.0  -0.0649
  C  C3076  1  0.358900  0.114800  0.304200  1.0  -0.1049
  C  C3077  1  0.335300  0.125500  0.321900  1.0  -0.0977
  C  C3078  1  0.308500  0.132500  0.309600  1.0  0.003
  C  C3079  1  0.088800  0.309900  0.502900  1.0  -0.1228
  C  C3080  1  0.094700  0.305500  0.529600  1.0  -0.0604
  C  C3081  1  0.122800  0.312900  0.538300  1.0  0.0002
  C  C3082  1  0.143200  0.321300  0.522600  1.0  0.0055
  C  C3083  1  0.137600  0.326600  0.496300  1.0  -0.0459
  C  C3084  1  0.109700  0.319600  0.485700  1.0  -0.0913
  C  C3085  1  0.186400  0.251600  0.443800  1.0  -0.0829
  C  C3086  1  0.204900  0.274100  0.479100  1.0  -0.1209
  C  C3087  1  0.183700  0.258900  0.468400  1.0  -0.0124
  C  C3088  1  0.201500  0.233300  0.456600  1.0  -0.0783
  C  C3089  1  0.994900  0.729600  0.959000  1.0  -0.0699
  C  C3090  1  0.969900  0.733300  0.973300  1.0  -0.0183
  C  C3091  1  0.943100  0.738700  0.962500  1.0  -0.0182
  C  C3092  1  0.941500  0.742700  0.936900  1.0  -0.0286
  C  C3093  1  0.965100  0.740100  0.922000  1.0  -0.0609
  C  C3094  1  0.991200  0.732300  0.933000  1.0  -0.0028
  C  C3095  1  0.268400  0.740400  0.815600  1.0  -0.0383
  C  C3096  1  0.267300  0.754200  0.793200  1.0  -0.0358
  C  C3097  1  0.261300  0.782100  0.793100  1.0  0.0215
  C  C3098  1  0.257500  0.795500  0.813300  1.0  -0.0292
  C  C3099  1  0.259200  0.780600  0.834800  1.0  0.0156
  C  C3100  1  0.265400  0.754200  0.835900  1.0  0.0305
  C  C3101  1  0.161700  0.754400  0.799200  1.0  -0.0576
  C  C3102  1  0.135200  0.764700  0.796700  1.0  -0.0087
  C  C3103  1  0.126100  0.789600  0.783500  1.0  -0.0132
  C  C3104  1  0.148100  0.800200  0.771100  1.0  0.0098
  C  C3105  1  0.177300  0.793800  0.774600  1.0  -0.0719
  C  C3106  1  0.183900  0.772800  0.789500  1.0  -0.0188
  C  C3107  1  0.978900  0.652900  0.941800  1.0  -0.0762
  C  C3108  1  0.956000  0.670200  0.947500  1.0  -0.0637
  C  C3109  1  0.935300  0.661300  0.964800  1.0  -0.0149
  C  C3110  1  0.936400  0.635000  0.976500  1.0  -0.0518
  C  C3111  1  0.960000  0.619100  0.971000  1.0  -0.0649
  C  C3112  1  0.981300  0.628300  0.952600  1.0  -0.0564
  C  C3113  1  0.006700  0.735400  0.862600  1.0  -0.006
  C  C3114  1  0.009700  0.760000  0.868500  1.0  -0.0298
  C  C3115  1  0.986700  0.778000  0.858200  1.0  -0.1351
  C  C3116  1  0.964800  0.766800  0.841500  1.0  -0.0678
  C  C3117  1  0.959700  0.739300  0.841100  1.0  -0.0947
  C  C3118  1  0.981600  0.723600  0.856000  1.0  -0.0585
  C  C3119  1  0.990300  0.686600  0.801300  1.0  0.0045
  C  C3120  1  0.005600  0.705300  0.791600  1.0  0.0636
  C  C3121  1  0.994400  0.724100  0.776300  1.0  -0.0093
  C  C3122  1  0.965000  0.722100  0.767100  1.0  -0.0478
  C  C3123  1  0.946400  0.703500  0.777700  1.0  -0.0702
  C  C3124  1  0.960300  0.684500  0.795900  1.0  -0.0358
  C  C3125  1  0.044600  0.665400  0.747000  1.0  -0.0827
  C  C3126  1  0.058400  0.687900  0.741600  1.0  0.0585
  C  C3127  1  0.046600  0.706400  0.726400  1.0  -0.0323
  C  C3128  1  0.019600  0.701300  0.714600  1.0  -0.0012
  C  C3129  1  0.007500  0.678100  0.719300  1.0  0.0689
  C  C3130  1  0.016900  0.664000  0.737000  1.0  0.0545
  C  C3131  1  0.094100  0.774000  0.848400  1.0  -0.0622
  C  C3132  1  0.072500  0.765800  0.833000  1.0  0.0191
  C  C3133  1  0.055600  0.783600  0.816500  1.0  -0.0891
  C  C3134  1  0.063700  0.812000  0.818900  1.0  -0.1248
  C  C3135  1  0.089400  0.818600  0.835800  1.0  -0.0289
  C  C3136  1  0.102700  0.799400  0.852500  1.0  -0.0984
  C  C3137  1  0.084700  0.797300  0.918200  1.0  -0.118
  C  C3138  1  0.072000  0.821700  0.911700  1.0  -0.0945
  C  C3139  1  0.094000  0.839100  0.906600  1.0  -0.0065
  C  C3140  1  0.121900  0.836200  0.913900  1.0  -0.0007
  C  C3141  1  0.132800  0.813600  0.918000  1.0  -0.0547
  C  C3142  1  0.112600  0.790900  0.921300  1.0  -0.0149
  C  C3143  1  0.036640  0.637170  0.996560  1.0  -0.0602
  C  C3144  1  0.030300  0.610840  0.996500  1.0  -0.0031
  C  C3145  1  0.008100  0.601330  0.011420  1.0  -0.0357
  C  C3146  1  0.992300  0.618200  0.026410  1.0  -0.0961
  C  C3147  1  0.998700  0.644500  0.026470  1.0  -0.0728
  C  C3148  1  0.020820  0.654000  0.011550  1.0  -0.0537
  C  C3149  1  0.108500  0.734690  0.010000  1.0  -0.0414
  C  C3150  1  0.091300  0.713220  0.014900  1.0  -0.0116
  C  C3151  1  0.087200  0.704910  0.039370  1.0  -0.0478
  C  C3152  1  0.100300  0.718100  0.059000  1.0  -0.0876
  C  C3153  1  0.117500  0.739500  0.054200  1.0  -0.0537
  C  C3154  1  0.121700  0.747800  0.029700  1.0  -0.0026
  C  C3155  1  0.175000  0.688610  0.996100  1.0  -0.096
  C  C3156  1  0.172300  0.698850  0.020100  1.0  -0.0697
  C  C3157  1  0.196000  0.710320  0.031600  1.0  -0.0759
  C  C3158  1  0.222300  0.711560  0.019200  1.0  -0.0504
  C  C3159  1  0.225000  0.701330  0.995300  1.0  -0.0371
  C  C3160  1  0.201300  0.689850  0.983700  1.0  -0.0113
  C  C3161  1  0.956100  0.601800  0.878300  1.0  -0.0684
  C  C3162  1  0.958600  0.623100  0.894100  1.0  -0.0011
  C  C3163  1  0.935800  0.629800  0.909700  1.0  -0.0313
  C  C3164  1  0.910700  0.615100  0.909700  1.0  -0.0292
  C  C3165  1  0.908200  0.593800  0.893900  1.0  -0.0568
  C  C3166  1  0.931000  0.587100  0.878300  1.0  -0.0568
  C  C3167  1  0.133700  0.698300  0.739600  1.0  -0.0575
  C  C3168  1  0.124400  0.720700  0.751700  1.0  -0.0701
  C  C3169  1  0.115000  0.742800  0.734600  1.0  -0.0426
  C  C3170  1  0.117100  0.741500  0.709200  1.0  -0.0277
  C  C3171  1  0.126100  0.719000  0.699500  1.0  -0.0013
  C  C3172  1  0.137000  0.697400  0.714600  1.0  -0.0637
  C  C3173  1  0.223500  0.689400  0.727600  1.0  -0.0633
  C  C3174  1  0.235700  0.701000  0.707200  1.0  -0.0076
  C  C3175  1  0.235300  0.687700  0.682800  1.0  -0.0676
  C  C3176  1  0.224300  0.661400  0.681000  1.0  -0.123
  C  C3177  1  0.215300  0.648300  0.704800  1.0  -0.0923
  C  C3178  1  0.213700  0.663500  0.726100  1.0  0.0301
  C  C3179  1  0.250200  0.721000  0.897100  1.0  -0.0503
  C  C3180  1  0.259000  0.746200  0.902300  1.0  -0.0623
  C  C3181  1  0.281500  0.750600  0.919000  1.0  -0.083
  C  C3182  1  0.295200  0.729800  0.930400  1.0  -0.0401
  C  C3183  1  0.286400  0.704600  0.925200  1.0  -0.037
  C  C3184  1  0.264000  0.700200  0.908500  1.0  -0.015
  C  C3185  1  0.303300  0.630300  0.783500  1.0  -0.0536
  C  C3186  1  0.325500  0.620900  0.767000  1.0  -0.0169
  C  C3187  1  0.354200  0.614500  0.776000  1.0  -0.0649
  C  C3188  1  0.358900  0.614800  0.804200  1.0  -0.1049
  C  C3189  1  0.335300  0.625500  0.821900  1.0  -0.0977
  C  C3190  1  0.308500  0.632500  0.809600  1.0  0.003
  C  C3191  1  0.088800  0.809900  0.002900  1.0  -0.1228
  C  C3192  1  0.094700  0.805500  0.029600  1.0  -0.0604
  C  C3193  1  0.122800  0.812900  0.038300  1.0  0.0002
  C  C3194  1  0.143200  0.821300  0.022600  1.0  0.0055
  C  C3195  1  0.137600  0.826600  0.996300  1.0  -0.0459
  C  C3196  1  0.109700  0.819600  0.985700  1.0  -0.0913
  C  C3197  1  0.186400  0.751600  0.943800  1.0  -0.0829
  C  C3198  1  0.204900  0.774100  0.979100  1.0  -0.1209
  C  C3199  1  0.183700  0.758900  0.968400  1.0  -0.0124
  C  C3200  1  0.201500  0.733300  0.956600  1.0  -0.0783
  C  C3201  1  0.505100  0.479600  0.209000  1.0  -0.0722
  C  C3202  1  0.530100  0.483300  0.223300  1.0  -0.0182
  C  C3203  1  0.556900  0.488700  0.212500  1.0  -0.0184
  C  C3204  1  0.558500  0.492700  0.186900  1.0  -0.0277
  C  C3205  1  0.534900  0.490100  0.172000  1.0  -0.0615
  C  C3206  1  0.508800  0.482300  0.183000  1.0  -0.0024
  C  C3207  1  0.231600  0.490400  0.065600  1.0  -0.0398
  C  C3208  1  0.232700  0.504200  0.043200  1.0  -0.0342
  C  C3209  1  0.238700  0.532100  0.043100  1.0  0.0209
  C  C3210  1  0.242500  0.545500  0.063300  1.0  -0.0293
  C  C3211  1  0.240800  0.530600  0.084800  1.0  0.0163
  C  C3212  1  0.234600  0.504200  0.085900  1.0  0.0294
  C  C3213  1  0.338300  0.504400  0.049200  1.0  -0.0575
  C  C3214  1  0.364800  0.514700  0.046700  1.0  -0.0105
  C  C3215  1  0.373900  0.539600  0.033500  1.0  -0.0111
  C  C3216  1  0.351900  0.550200  0.021100  1.0  0.011
  C  C3217  1  0.322700  0.543800  0.024600  1.0  -0.0718
  C  C3218  1  0.316100  0.522800  0.039500  1.0  -0.0182
  C  C3219  1  0.521100  0.402900  0.191800  1.0  -0.0764
  C  C3220  1  0.544000  0.420200  0.197500  1.0  -0.0651
  C  C3221  1  0.564700  0.411300  0.214800  1.0  -0.0147
  C  C3222  1  0.563600  0.385000  0.226500  1.0  -0.0506
  C  C3223  1  0.540000  0.369100  0.221000  1.0  -0.0652
  C  C3224  1  0.518700  0.378300  0.202600  1.0  -0.0558
  C  C3225  1  0.493300  0.485400  0.112600  1.0  -0.0079
  C  C3226  1  0.490300  0.510000  0.118500  1.0  -0.0294
  C  C3227  1  0.513300  0.528000  0.108200  1.0  -0.133
  C  C3228  1  0.535200  0.516800  0.091500  1.0  -0.0671
  C  C3229  1  0.540300  0.489300  0.091100  1.0  -0.0912
  C  C3230  1  0.518400  0.473600  0.106000  1.0  -0.0575
  C  C3231  1  0.509700  0.436600  0.051300  1.0  0.0033
  C  C3232  1  0.494400  0.455300  0.041600  1.0  0.0639
  C  C3233  1  0.505600  0.474100  0.026300  1.0  -0.0095
  C  C3234  1  0.535000  0.472100  0.017100  1.0  -0.045
  C  C3235  1  0.553600  0.453500  0.027700  1.0  -0.0687
  C  C3236  1  0.539700  0.434500  0.045900  1.0  -0.0359
  C  C3237  1  0.455400  0.415400  0.997000  1.0  -0.0826
  C  C3238  1  0.441600  0.437900  0.991600  1.0  0.0607
  C  C3239  1  0.453400  0.456400  0.976400  1.0  -0.0322
  C  C3240  1  0.480400  0.451300  0.964600  1.0  -0.0003
  C  C3241  1  0.492500  0.428100  0.969300  1.0  0.0653
  C  C3242  1  0.483100  0.414000  0.987000  1.0  0.0556
  C  C3243  1  0.405900  0.524000  0.098400  1.0  -0.0626
  C  C3244  1  0.427500  0.515800  0.083000  1.0  0.0218
  C  C3245  1  0.444400  0.533600  0.066500  1.0  -0.0901
  C  C3246  1  0.436300  0.562000  0.068900  1.0  -0.1257
  C  C3247  1  0.410600  0.568600  0.085800  1.0  -0.0272
  C  C3248  1  0.397300  0.549400  0.102500  1.0  -0.0993
  C  C3249  1  0.415300  0.547300  0.168200  1.0  -0.1191
  C  C3250  1  0.428000  0.571700  0.161700  1.0  -0.091
  C  C3251  1  0.406000  0.589100  0.156600  1.0  -0.0065
  C  C3252  1  0.378100  0.586200  0.163900  1.0  0.0
  C  C3253  1  0.367200  0.563600  0.168000  1.0  -0.0574
  C  C3254  1  0.387400  0.540900  0.171300  1.0  -0.0164
  C  C3255  1  0.463360  0.387170  0.246560  1.0  -0.0592
  C  C3256  1  0.469700  0.360840  0.246500  1.0  -0.0026
  C  C3257  1  0.491900  0.351330  0.261420  1.0  -0.0366
  C  C3258  1  0.507700  0.368200  0.276410  1.0  -0.0935
  C  C3259  1  0.501300  0.394500  0.276470  1.0  -0.0701
  C  C3260  1  0.479180  0.404000  0.261550  1.0  -0.0545
  C  C3261  1  0.391500  0.484690  0.260000  1.0  -0.044
  C  C3262  1  0.408700  0.463220  0.264900  1.0  -0.0117
  C  C3263  1  0.412800  0.454910  0.289370  1.0  -0.0444
  C  C3264  1  0.399700  0.468100  0.309000  1.0  -0.087
  C  C3265  1  0.382500  0.489500  0.304200  1.0  -0.0578
  C  C3266  1  0.378300  0.497800  0.279700  1.0  -0.0008
  C  C3267  1  0.325000  0.438610  0.246100  1.0  -0.0943
  C  C3268  1  0.327700  0.448850  0.270100  1.0  -0.0696
  C  C3269  1  0.304000  0.460320  0.281600  1.0  -0.0759
  C  C3270  1  0.277700  0.461560  0.269200  1.0  -0.0492
  C  C3271  1  0.275000  0.451330  0.245300  1.0  -0.0341
  C  C3272  1  0.298700  0.439850  0.233700  1.0  -0.0109
  C  C3273  1  0.543900  0.351800  0.128300  1.0  -0.0704
  C  C3274  1  0.541400  0.373100  0.144100  1.0  -0.0025
  C  C3275  1  0.564200  0.379800  0.159700  1.0  -0.0288
  C  C3276  1  0.589300  0.365100  0.159700  1.0  -0.0292
  C  C3277  1  0.591800  0.343800  0.143900  1.0  -0.0565
  C  C3278  1  0.569000  0.337100  0.128300  1.0  -0.0579
  C  C3279  1  0.366300  0.448300  0.989600  1.0  -0.0522
  C  C3280  1  0.375600  0.470700  0.001700  1.0  -0.0695
  C  C3281  1  0.385000  0.492800  0.984600  1.0  -0.0358
  C  C3282  1  0.382900  0.491500  0.959200  1.0  -0.0274
  C  C3283  1  0.373900  0.469000  0.949500  1.0  -0.0026
  C  C3284  1  0.363000  0.447400  0.964600  1.0  -0.0632
  C  C3285  1  0.276500  0.439400  0.977600  1.0  -0.0652
  C  C3286  1  0.264300  0.451000  0.957200  1.0  -0.0037
  C  C3287  1  0.264700  0.437700  0.932800  1.0  -0.0675
  C  C3288  1  0.275700  0.411400  0.931000  1.0  -0.123
  C  C3289  1  0.284700  0.398300  0.954800  1.0  -0.0925
  C  C3290  1  0.286300  0.413500  0.976100  1.0  0.0321
  C  C3291  1  0.249800  0.471000  0.147100  1.0  -0.048
  C  C3292  1  0.241000  0.496200  0.152300  1.0  -0.0617
  C  C3293  1  0.218500  0.500600  0.169000  1.0  -0.0824
  C  C3294  1  0.204800  0.479800  0.180400  1.0  -0.0387
  C  C3295  1  0.213600  0.454600  0.175200  1.0  -0.0365
  C  C3296  1  0.236000  0.450200  0.158500  1.0  -0.0138
  C  C3297  1  0.196700  0.380300  0.033500  1.0  -0.053
  C  C3298  1  0.174500  0.370900  0.017000  1.0  -0.0161
  C  C3299  1  0.145800  0.364500  0.026000  1.0  -0.0662
  C  C3300  1  0.141100  0.364800  0.054200  1.0  -0.1039
  C  C3301  1  0.164700  0.375500  0.071900  1.0  -0.096
  C  C3302  1  0.191500  0.382500  0.059600  1.0  0.0021
  C  C3303  1  0.411200  0.559900  0.252900  1.0  -0.1205
  C  C3304  1  0.405300  0.555500  0.279600  1.0  -0.0589
  C  C3305  1  0.377200  0.562900  0.288300  1.0  1e-04
  C  C3306  1  0.356800  0.571300  0.272600  1.0  0.0051
  C  C3307  1  0.362400  0.576600  0.246300  1.0  -0.045
  C  C3308  1  0.390300  0.569600  0.235700  1.0  -0.0913
  C  C3309  1  0.313600  0.501600  0.193800  1.0  -0.0828
  C  C3310  1  0.295100  0.524100  0.229100  1.0  -0.1211
  C  C3311  1  0.316300  0.508900  0.218400  1.0  -0.0112
  C  C3312  1  0.298500  0.483300  0.206600  1.0  -0.0791
  C  C3313  1  0.505100  0.979600  0.709000  1.0  -0.0722
  C  C3314  1  0.530100  0.983300  0.723300  1.0  -0.0182
  C  C3315  1  0.556900  0.988700  0.712500  1.0  -0.0184
  C  C3316  1  0.558500  0.992700  0.686900  1.0  -0.0277
  C  C3317  1  0.534900  0.990100  0.672000  1.0  -0.0615
  C  C3318  1  0.508800  0.982300  0.683000  1.0  -0.0024
  C  C3319  1  0.231600  0.990400  0.565600  1.0  -0.0398
  C  C3320  1  0.232700  0.004200  0.543200  1.0  -0.0342
  C  C3321  1  0.238700  0.032100  0.543100  1.0  0.0209
  C  C3322  1  0.242500  0.045500  0.563300  1.0  -0.0293
  C  C3323  1  0.240800  0.030600  0.584800  1.0  0.0163
  C  C3324  1  0.234600  0.004200  0.585900  1.0  0.0294
  C  C3325  1  0.338300  0.004400  0.549200  1.0  -0.0575
  C  C3326  1  0.364800  0.014700  0.546700  1.0  -0.0105
  C  C3327  1  0.373900  0.039600  0.533500  1.0  -0.0111
  C  C3328  1  0.351900  0.050200  0.521100  1.0  0.011
  C  C3329  1  0.322700  0.043800  0.524600  1.0  -0.0718
  C  C3330  1  0.316100  0.022800  0.539500  1.0  -0.0182
  C  C3331  1  0.521100  0.902900  0.691800  1.0  -0.0764
  C  C3332  1  0.544000  0.920200  0.697500  1.0  -0.0651
  C  C3333  1  0.564700  0.911300  0.714800  1.0  -0.0147
  C  C3334  1  0.563600  0.885000  0.726500  1.0  -0.0506
  C  C3335  1  0.540000  0.869100  0.721000  1.0  -0.0652
  C  C3336  1  0.518700  0.878300  0.702600  1.0  -0.0558
  C  C3337  1  0.493300  0.985400  0.612600  1.0  -0.0079
  C  C3338  1  0.490300  0.010000  0.618500  1.0  -0.0294
  C  C3339  1  0.513300  0.028000  0.608200  1.0  -0.133
  C  C3340  1  0.535200  0.016800  0.591500  1.0  -0.0671
  C  C3341  1  0.540300  0.989300  0.591100  1.0  -0.0912
  C  C3342  1  0.518400  0.973600  0.606000  1.0  -0.0575
  C  C3343  1  0.509700  0.936600  0.551300  1.0  0.0033
  C  C3344  1  0.494400  0.955300  0.541600  1.0  0.0639
  C  C3345  1  0.505600  0.974100  0.526300  1.0  -0.0095
  C  C3346  1  0.535000  0.972100  0.517100  1.0  -0.045
  C  C3347  1  0.553600  0.953500  0.527700  1.0  -0.0687
  C  C3348  1  0.539700  0.934500  0.545900  1.0  -0.0359
  C  C3349  1  0.455400  0.915400  0.497000  1.0  -0.0826
  C  C3350  1  0.441600  0.937900  0.491600  1.0  0.0607
  C  C3351  1  0.453400  0.956400  0.476400  1.0  -0.0321
  C  C3352  1  0.480400  0.951300  0.464600  1.0  -0.0003
  C  C3353  1  0.492500  0.928100  0.469300  1.0  0.0653
  C  C3354  1  0.483100  0.914000  0.487000  1.0  0.0556
  C  C3355  1  0.405900  0.024000  0.598400  1.0  -0.0626
  C  C3356  1  0.427500  0.015800  0.583000  1.0  0.0218
  C  C3357  1  0.444400  0.033600  0.566500  1.0  -0.0901
  C  C3358  1  0.436300  0.062000  0.568900  1.0  -0.1257
  C  C3359  1  0.410600  0.068600  0.585800  1.0  -0.0272
  C  C3360  1  0.397300  0.049400  0.602500  1.0  -0.0993
  C  C3361  1  0.415300  0.047300  0.668200  1.0  -0.1191
  C  C3362  1  0.428000  0.071700  0.661700  1.0  -0.091
  C  C3363  1  0.406000  0.089100  0.656600  1.0  -0.0065
  C  C3364  1  0.378100  0.086200  0.663900  1.0  0.0
  C  C3365  1  0.367200  0.063600  0.668000  1.0  -0.0574
  C  C3366  1  0.387400  0.040900  0.671300  1.0  -0.0164
  C  C3367  1  0.463360  0.887170  0.746560  1.0  -0.0592
  C  C3368  1  0.469700  0.860840  0.746500  1.0  -0.0026
  C  C3369  1  0.491900  0.851330  0.761420  1.0  -0.0366
  C  C3370  1  0.507700  0.868200  0.776410  1.0  -0.0935
  C  C3371  1  0.501300  0.894500  0.776470  1.0  -0.0701
  C  C3372  1  0.479180  0.904000  0.761550  1.0  -0.0545
  C  C3373  1  0.391500  0.984690  0.760000  1.0  -0.044
  C  C3374  1  0.408700  0.963220  0.764900  1.0  -0.0117
  C  C3375  1  0.412800  0.954910  0.789370  1.0  -0.0444
  C  C3376  1  0.399700  0.968100  0.809000  1.0  -0.087
  C  C3377  1  0.382500  0.989500  0.804200  1.0  -0.0578
  C  C3378  1  0.378300  0.997800  0.779700  1.0  -0.0008
  C  C3379  1  0.325000  0.938610  0.746100  1.0  -0.0943
  C  C3380  1  0.327700  0.948850  0.770100  1.0  -0.0696
  C  C3381  1  0.304000  0.960320  0.781600  1.0  -0.0759
  C  C3382  1  0.277700  0.961560  0.769200  1.0  -0.0492
  C  C3383  1  0.275000  0.951330  0.745300  1.0  -0.0341
  C  C3384  1  0.298700  0.939850  0.733700  1.0  -0.0109
  C  C3385  1  0.543900  0.851800  0.628300  1.0  -0.0704
  C  C3386  1  0.541400  0.873100  0.644100  1.0  -0.0025
  C  C3387  1  0.564200  0.879800  0.659700  1.0  -0.0288
  C  C3388  1  0.589300  0.865100  0.659700  1.0  -0.0292
  C  C3389  1  0.591800  0.843800  0.643900  1.0  -0.0565
  C  C3390  1  0.569000  0.837100  0.628300  1.0  -0.0579
  C  C3391  1  0.366300  0.948300  0.489600  1.0  -0.0522
  C  C3392  1  0.375600  0.970700  0.501700  1.0  -0.0695
  C  C3393  1  0.385000  0.992800  0.484600  1.0  -0.0358
  C  C3394  1  0.382900  0.991500  0.459200  1.0  -0.0265
  C  C3395  1  0.373900  0.969000  0.449500  1.0  -0.0026
  C  C3396  1  0.363000  0.947400  0.464600  1.0  -0.0632
  C  C3397  1  0.276500  0.939400  0.477600  1.0  -0.0652
  C  C3398  1  0.264300  0.951000  0.457200  1.0  -0.0038
  C  C3399  1  0.264700  0.937700  0.432800  1.0  -0.0675
  C  C3400  1  0.275700  0.911400  0.431000  1.0  -0.123
  C  C3401  1  0.284700  0.898300  0.454800  1.0  -0.0925
  C  C3402  1  0.286300  0.913500  0.476100  1.0  0.0321
  C  C3403  1  0.249800  0.971000  0.647100  1.0  -0.049
  C  C3404  1  0.241000  0.996200  0.652300  1.0  -0.0617
  C  C3405  1  0.218500  0.000600  0.669000  1.0  -0.0824
  C  C3406  1  0.204800  0.979800  0.680400  1.0  -0.0387
  C  C3407  1  0.213600  0.954600  0.675200  1.0  -0.0365
  C  C3408  1  0.236000  0.950200  0.658500  1.0  -0.0138
  C  C3409  1  0.196700  0.880300  0.533500  1.0  -0.053
  C  C3410  1  0.174500  0.870900  0.517000  1.0  -0.0161
  C  C3411  1  0.145800  0.864500  0.526000  1.0  -0.0662
  C  C3412  1  0.141100  0.864800  0.554200  1.0  -0.1039
  C  C3413  1  0.164700  0.875500  0.571900  1.0  -0.096
  C  C3414  1  0.191500  0.882500  0.559600  1.0  0.0021
  C  C3415  1  0.411200  0.059900  0.752900  1.0  -0.1205
  C  C3416  1  0.405300  0.055500  0.779600  1.0  -0.0589
  C  C3417  1  0.377200  0.062900  0.788300  1.0  1e-04
  C  C3418  1  0.356800  0.071300  0.772600  1.0  0.0051
  C  C3419  1  0.362400  0.076600  0.746300  1.0  -0.045
  C  C3420  1  0.390300  0.069600  0.735700  1.0  -0.0913
  C  C3421  1  0.313600  0.001600  0.693800  1.0  -0.0828
  C  C3422  1  0.295100  0.024100  0.729100  1.0  -0.1211
  C  C3423  1  0.316300  0.008900  0.718400  1.0  -0.0112
  C  C3424  1  0.298500  0.983300  0.706600  1.0  -0.0791
  C  C3425  1  0.005100  0.479600  0.709000  1.0  -0.0722
  C  C3426  1  0.030100  0.483300  0.723300  1.0  -0.0182
  C  C3427  1  0.056900  0.488700  0.712500  1.0  -0.0184
  C  C3428  1  0.058500  0.492700  0.686900  1.0  -0.0277
  C  C3429  1  0.034900  0.490100  0.672000  1.0  -0.0615
  C  C3430  1  0.008800  0.482300  0.683000  1.0  -0.0024
  C  C3431  1  0.731600  0.490400  0.565600  1.0  -0.0398
  C  C3432  1  0.732700  0.504200  0.543200  1.0  -0.0342
  C  C3433  1  0.738700  0.532100  0.543100  1.0  0.0209
  C  C3434  1  0.742500  0.545500  0.563300  1.0  -0.0293
  C  C3435  1  0.740800  0.530600  0.584800  1.0  0.0163
  C  C3436  1  0.734600  0.504200  0.585900  1.0  0.0294
  C  C3437  1  0.838300  0.504400  0.549200  1.0  -0.0575
  C  C3438  1  0.864800  0.514700  0.546700  1.0  -0.0105
  C  C3439  1  0.873900  0.539600  0.533500  1.0  -0.0111
  C  C3440  1  0.851900  0.550200  0.521100  1.0  0.011
  C  C3441  1  0.822700  0.543800  0.524600  1.0  -0.0718
  C  C3442  1  0.816100  0.522800  0.539500  1.0  -0.0182
  C  C3443  1  0.021100  0.402900  0.691800  1.0  -0.0764
  C  C3444  1  0.044000  0.420200  0.697500  1.0  -0.0651
  C  C3445  1  0.064700  0.411300  0.714800  1.0  -0.0147
  C  C3446  1  0.063600  0.385000  0.726500  1.0  -0.0506
  C  C3447  1  0.040000  0.369100  0.721000  1.0  -0.0652
  C  C3448  1  0.018700  0.378300  0.702600  1.0  -0.0558
  C  C3449  1  0.993300  0.485400  0.612600  1.0  -0.0079
  C  C3450  1  0.990300  0.510000  0.618500  1.0  -0.0294
  C  C3451  1  0.013300  0.528000  0.608200  1.0  -0.133
  C  C3452  1  0.035200  0.516800  0.591500  1.0  -0.0671
  C  C3453  1  0.040300  0.489300  0.591100  1.0  -0.0912
  C  C3454  1  0.018400  0.473600  0.606000  1.0  -0.0575
  C  C3455  1  0.009700  0.436600  0.551300  1.0  0.0033
  C  C3456  1  0.994400  0.455300  0.541600  1.0  0.0639
  C  C3457  1  0.005600  0.474100  0.526300  1.0  -0.0095
  C  C3458  1  0.035000  0.472100  0.517100  1.0  -0.0427
  C  C3459  1  0.053600  0.453500  0.527700  1.0  -0.0687
  C  C3460  1  0.039700  0.434500  0.545900  1.0  -0.0359
  C  C3461  1  0.955400  0.415400  0.497000  1.0  -0.0826
  C  C3462  1  0.941600  0.437900  0.491600  1.0  0.0607
  C  C3463  1  0.953400  0.456400  0.476400  1.0  -0.0322
  C  C3464  1  0.980400  0.451300  0.464600  1.0  -0.0003
  C  C3465  1  0.992500  0.428100  0.469300  1.0  0.0653
  C  C3466  1  0.983100  0.414000  0.487000  1.0  0.0556
  C  C3467  1  0.905900  0.524000  0.598400  1.0  -0.0626
  C  C3468  1  0.927500  0.515800  0.583000  1.0  0.0218
  C  C3469  1  0.944400  0.533600  0.566500  1.0  -0.0901
  C  C3470  1  0.936300  0.562000  0.568900  1.0  -0.1257
  C  C3471  1  0.910600  0.568600  0.585800  1.0  -0.0272
  C  C3472  1  0.897300  0.549400  0.602500  1.0  -0.0993
  C  C3473  1  0.915300  0.547300  0.668200  1.0  -0.1191
  C  C3474  1  0.928000  0.571700  0.661700  1.0  -0.091
  C  C3475  1  0.906000  0.589100  0.656600  1.0  -0.0065
  C  C3476  1  0.878100  0.586200  0.663900  1.0  0.0
  C  C3477  1  0.867200  0.563600  0.668000  1.0  -0.0574
  C  C3478  1  0.887400  0.540900  0.671300  1.0  -0.0164
  C  C3479  1  0.963360  0.387170  0.746560  1.0  -0.0592
  C  C3480  1  0.969700  0.360840  0.746500  1.0  -0.0022
  C  C3481  1  0.991900  0.351330  0.761420  1.0  -0.0366
  C  C3482  1  0.007700  0.368200  0.776410  1.0  -0.0935
  C  C3483  1  0.001300  0.394500  0.776470  1.0  -0.0701
  C  C3484  1  0.979180  0.404000  0.761550  1.0  -0.0545
  C  C3485  1  0.891500  0.484690  0.760000  1.0  -0.044
  C  C3486  1  0.908700  0.463220  0.764900  1.0  -0.0117
  C  C3487  1  0.912800  0.454910  0.789370  1.0  -0.0444
  C  C3488  1  0.899700  0.468100  0.809000  1.0  -0.087
  C  C3489  1  0.882500  0.489500  0.804200  1.0  -0.0578
  C  C3490  1  0.878300  0.497800  0.779700  1.0  -0.0008
  C  C3491  1  0.825000  0.438610  0.746100  1.0  -0.0943
  C  C3492  1  0.827700  0.448850  0.770100  1.0  -0.0696
  C  C3493  1  0.804000  0.460320  0.781600  1.0  -0.0759
  C  C3494  1  0.777700  0.461560  0.769200  1.0  -0.0492
  C  C3495  1  0.775000  0.451330  0.745300  1.0  -0.0341
  C  C3496  1  0.798700  0.439850  0.733700  1.0  -0.0109
  C  C3497  1  0.043900  0.351800  0.628300  1.0  -0.0704
  C  C3498  1  0.041400  0.373100  0.644100  1.0  -0.0025
  C  C3499  1  0.064200  0.379800  0.659700  1.0  -0.0288
  C  C3500  1  0.089300  0.365100  0.659700  1.0  -0.0292
  C  C3501  1  0.091800  0.343800  0.643900  1.0  -0.0565
  C  C3502  1  0.069000  0.337100  0.628300  1.0  -0.0579
  C  C3503  1  0.866300  0.448300  0.489600  1.0  -0.0522
  C  C3504  1  0.875600  0.470700  0.501700  1.0  -0.0695
  C  C3505  1  0.885000  0.492800  0.484600  1.0  -0.0358
  C  C3506  1  0.882900  0.491500  0.459200  1.0  -0.0265
  C  C3507  1  0.873900  0.469000  0.449500  1.0  -0.0026
  C  C3508  1  0.863000  0.447400  0.464600  1.0  -0.0632
  C  C3509  1  0.776500  0.439400  0.477600  1.0  -0.0652
  C  C3510  1  0.764300  0.451000  0.457200  1.0  -0.0037
  C  C3511  1  0.764700  0.437700  0.432800  1.0  -0.0675
  C  C3512  1  0.775700  0.411400  0.431000  1.0  -0.123
  C  C3513  1  0.784700  0.398300  0.454800  1.0  -0.0925
  C  C3514  1  0.786300  0.413500  0.476100  1.0  0.0321
  C  C3515  1  0.749800  0.471000  0.647100  1.0  -0.048
  C  C3516  1  0.741000  0.496200  0.652300  1.0  -0.0617
  C  C3517  1  0.718500  0.500600  0.669000  1.0  -0.0824
  C  C3518  1  0.704800  0.479800  0.680400  1.0  -0.0387
  C  C3519  1  0.713600  0.454600  0.675200  1.0  -0.0365
  C  C3520  1  0.736000  0.450200  0.658500  1.0  -0.0138
  C  C3521  1  0.696700  0.380300  0.533500  1.0  -0.053
  C  C3522  1  0.674500  0.370900  0.517000  1.0  -0.0161
  C  C3523  1  0.645800  0.364500  0.526000  1.0  -0.0662
  C  C3524  1  0.641100  0.364800  0.554200  1.0  -0.1039
  C  C3525  1  0.664700  0.375500  0.571900  1.0  -0.096
  C  C3526  1  0.691500  0.382500  0.559600  1.0  0.0021
  C  C3527  1  0.911200  0.559900  0.752900  1.0  -0.1205
  C  C3528  1  0.905300  0.555500  0.779600  1.0  -0.0589
  C  C3529  1  0.877200  0.562900  0.788300  1.0  1e-04
  C  C3530  1  0.856800  0.571300  0.772600  1.0  0.0051
  C  C3531  1  0.862400  0.576600  0.746300  1.0  -0.045
  C  C3532  1  0.890300  0.569600  0.735700  1.0  -0.0913
  C  C3533  1  0.813600  0.501600  0.693800  1.0  -0.0828
  C  C3534  1  0.795100  0.524100  0.729100  1.0  -0.1211
  C  C3535  1  0.816300  0.508900  0.718400  1.0  -0.0112
  C  C3536  1  0.798500  0.483300  0.706600  1.0  -0.0791
  C  C3537  1  0.005100  0.979600  0.209000  1.0  -0.0722
  C  C3538  1  0.030100  0.983300  0.223300  1.0  -0.0182
  C  C3539  1  0.056900  0.988700  0.212500  1.0  -0.0184
  C  C3540  1  0.058500  0.992700  0.186900  1.0  -0.0277
  C  C3541  1  0.034900  0.990100  0.172000  1.0  -0.0615
  C  C3542  1  0.008800  0.982300  0.183000  1.0  -0.0024
  C  C3543  1  0.731600  0.990400  0.065600  1.0  -0.0398
  C  C3544  1  0.732700  0.004200  0.043200  1.0  -0.0342
  C  C3545  1  0.738700  0.032100  0.043100  1.0  0.0209
  C  C3546  1  0.742500  0.045500  0.063300  1.0  -0.0293
  C  C3547  1  0.740800  0.030600  0.084800  1.0  0.0163
  C  C3548  1  0.734600  0.004200  0.085900  1.0  0.0294
  C  C3549  1  0.838300  0.004400  0.049200  1.0  -0.0575
  C  C3550  1  0.864800  0.014700  0.046700  1.0  -0.0105
  C  C3551  1  0.873900  0.039600  0.033500  1.0  -0.0111
  C  C3552  1  0.851900  0.050200  0.021100  1.0  0.011
  C  C3553  1  0.822700  0.043800  0.024600  1.0  -0.0718
  C  C3554  1  0.816100  0.022800  0.039500  1.0  -0.0182
  C  C3555  1  0.021100  0.902900  0.191800  1.0  -0.0764
  C  C3556  1  0.044000  0.920200  0.197500  1.0  -0.0651
  C  C3557  1  0.064700  0.911300  0.214800  1.0  -0.0147
  C  C3558  1  0.063600  0.885000  0.226500  1.0  -0.0506
  C  C3559  1  0.040000  0.869100  0.221000  1.0  -0.0652
  C  C3560  1  0.018700  0.878300  0.202600  1.0  -0.0558
  C  C3561  1  0.993300  0.985400  0.112600  1.0  -0.0079
  C  C3562  1  0.990300  0.010000  0.118500  1.0  -0.0294
  C  C3563  1  0.013300  0.028000  0.108200  1.0  -0.133
  C  C3564  1  0.035200  0.016800  0.091500  1.0  -0.0671
  C  C3565  1  0.040300  0.989300  0.091100  1.0  -0.0912
  C  C3566  1  0.018400  0.973600  0.106000  1.0  -0.0575
  C  C3567  1  0.009700  0.936600  0.051300  1.0  0.0033
  C  C3568  1  0.994400  0.955300  0.041600  1.0  0.0639
  C  C3569  1  0.005600  0.974100  0.026300  1.0  -0.0095
  C  C3570  1  0.035000  0.972100  0.017100  1.0  -0.0427
  C  C3571  1  0.053600  0.953500  0.027700  1.0  -0.0687
  C  C3572  1  0.039700  0.934500  0.045900  1.0  -0.0359
  C  C3573  1  0.955400  0.915400  0.997000  1.0  -0.0826
  C  C3574  1  0.941600  0.937900  0.991600  1.0  0.0607
  C  C3575  1  0.953400  0.956400  0.976400  1.0  -0.0322
  C  C3576  1  0.980400  0.951300  0.964600  1.0  -0.0003
  C  C3577  1  0.992500  0.928100  0.969300  1.0  0.0653
  C  C3578  1  0.983100  0.914000  0.987000  1.0  0.0556
  C  C3579  1  0.905900  0.024000  0.098400  1.0  -0.0626
  C  C3580  1  0.927500  0.015800  0.083000  1.0  0.0218
  C  C3581  1  0.944400  0.033600  0.066500  1.0  -0.0901
  C  C3582  1  0.936300  0.062000  0.068900  1.0  -0.1257
  C  C3583  1  0.910600  0.068600  0.085800  1.0  -0.0272
  C  C3584  1  0.897300  0.049400  0.102500  1.0  -0.0993
  C  C3585  1  0.915300  0.047300  0.168200  1.0  -0.1191
  C  C3586  1  0.928000  0.071700  0.161700  1.0  -0.091
  C  C3587  1  0.906000  0.089100  0.156600  1.0  -0.0065
  C  C3588  1  0.878100  0.086200  0.163900  1.0  0.0
  C  C3589  1  0.867200  0.063600  0.168000  1.0  -0.0574
  C  C3590  1  0.887400  0.040900  0.171300  1.0  -0.0164
  C  C3591  1  0.963360  0.887170  0.246560  1.0  -0.0592
  C  C3592  1  0.969700  0.860840  0.246500  1.0  -0.0022
  C  C3593  1  0.991900  0.851330  0.261420  1.0  -0.0366
  C  C3594  1  0.007700  0.868200  0.276410  1.0  -0.0935
  C  C3595  1  0.001300  0.894500  0.276470  1.0  -0.0701
  C  C3596  1  0.979180  0.904000  0.261550  1.0  -0.0545
  C  C3597  1  0.891500  0.984690  0.260000  1.0  -0.044
  C  C3598  1  0.908700  0.963220  0.264900  1.0  -0.0117
  C  C3599  1  0.912800  0.954910  0.289370  1.0  -0.0444
  C  C3600  1  0.899700  0.968100  0.309000  1.0  -0.087
  C  C3601  1  0.882500  0.989500  0.304200  1.0  -0.0578
  C  C3602  1  0.878300  0.997800  0.279700  1.0  -0.0008
  C  C3603  1  0.825000  0.938610  0.246100  1.0  -0.0943
  C  C3604  1  0.827700  0.948850  0.270100  1.0  -0.0696
  C  C3605  1  0.804000  0.960320  0.281600  1.0  -0.0759
  C  C3606  1  0.777700  0.961560  0.269200  1.0  -0.0492
  C  C3607  1  0.775000  0.951330  0.245300  1.0  -0.0341
  C  C3608  1  0.798700  0.939850  0.233700  1.0  -0.0109
  C  C3609  1  0.043900  0.851800  0.128300  1.0  -0.0704
  C  C3610  1  0.041400  0.873100  0.144100  1.0  -0.0025
  C  C3611  1  0.064200  0.879800  0.159700  1.0  -0.0288
  C  C3612  1  0.089300  0.865100  0.159700  1.0  -0.0292
  C  C3613  1  0.091800  0.843800  0.143900  1.0  -0.0565
  C  C3614  1  0.069000  0.837100  0.128300  1.0  -0.0579
  C  C3615  1  0.866300  0.948300  0.989600  1.0  -0.0522
  C  C3616  1  0.875600  0.970700  0.001700  1.0  -0.0695
  C  C3617  1  0.885000  0.992800  0.984600  1.0  -0.0358
  C  C3618  1  0.882900  0.991500  0.959200  1.0  -0.0274
  C  C3619  1  0.873900  0.969000  0.949500  1.0  -0.0026
  C  C3620  1  0.863000  0.947400  0.964600  1.0  -0.0632
  C  C3621  1  0.776500  0.939400  0.977600  1.0  -0.0652
  C  C3622  1  0.764300  0.951000  0.957200  1.0  -0.0038
  C  C3623  1  0.764700  0.937700  0.932800  1.0  -0.0675
  C  C3624  1  0.775700  0.911400  0.931000  1.0  -0.123
  C  C3625  1  0.784700  0.898300  0.954800  1.0  -0.0925
  C  C3626  1  0.786300  0.913500  0.976100  1.0  0.0321
  C  C3627  1  0.749800  0.971000  0.147100  1.0  -0.049
  C  C3628  1  0.741000  0.996200  0.152300  1.0  -0.0617
  C  C3629  1  0.718500  0.000600  0.169000  1.0  -0.0824
  C  C3630  1  0.704800  0.979800  0.180400  1.0  -0.0387
  C  C3631  1  0.713600  0.954600  0.175200  1.0  -0.0365
  C  C3632  1  0.736000  0.950200  0.158500  1.0  -0.0138
  C  C3633  1  0.696700  0.880300  0.033500  1.0  -0.053
  C  C3634  1  0.674500  0.870900  0.017000  1.0  -0.0161
  C  C3635  1  0.645800  0.864500  0.026000  1.0  -0.0662
  C  C3636  1  0.641100  0.864800  0.054200  1.0  -0.1039
  C  C3637  1  0.664700  0.875500  0.071900  1.0  -0.096
  C  C3638  1  0.691500  0.882500  0.059600  1.0  0.0021
  C  C3639  1  0.911200  0.059900  0.252900  1.0  -0.1205
  C  C3640  1  0.905300  0.055500  0.279600  1.0  -0.0589
  C  C3641  1  0.877200  0.062900  0.288300  1.0  1e-04
  C  C3642  1  0.856800  0.071300  0.272600  1.0  0.0051
  C  C3643  1  0.862400  0.076600  0.246300  1.0  -0.045
  C  C3644  1  0.890300  0.069600  0.235700  1.0  -0.0913
  C  C3645  1  0.813600  0.001600  0.193800  1.0  -0.0828
  C  C3646  1  0.795100  0.024100  0.229100  1.0  -0.1211
  C  C3647  1  0.816300  0.008900  0.218400  1.0  -0.0112
  C  C3648  1  0.798500  0.983300  0.206600  1.0  -0.0791
  C  C3649  1  0.744900  0.770400  0.209000  1.0  -0.0688
  C  C3650  1  0.719900  0.766700  0.223300  1.0  -0.018
  C  C3651  1  0.693100  0.761300  0.212500  1.0  -0.0182
  C  C3652  1  0.691500  0.757300  0.186900  1.0  -0.0293
  C  C3653  1  0.715100  0.759900  0.172000  1.0  -0.0615
  C  C3654  1  0.741200  0.767700  0.183000  1.0  -0.0024
  C  C3655  1  0.018400  0.759600  0.065600  1.0  -0.0396
  C  C3656  1  0.017300  0.745800  0.043200  1.0  -0.0356
  C  C3657  1  0.011300  0.717900  0.043100  1.0  0.0241
  C  C3658  1  0.007500  0.704500  0.063300  1.0  -0.0315
  C  C3659  1  0.009200  0.719400  0.084800  1.0  0.0151
  C  C3660  1  0.015400  0.745800  0.085900  1.0  0.0301
  C  C3661  1  0.911700  0.745600  0.049200  1.0  -0.0576
  C  C3662  1  0.885200  0.735300  0.046700  1.0  -0.0086
  C  C3663  1  0.876100  0.710400  0.033500  1.0  -0.0134
  C  C3664  1  0.898100  0.699800  0.021100  1.0  0.0122
  C  C3665  1  0.927300  0.706200  0.024600  1.0  -0.0715
  C  C3666  1  0.933900  0.727200  0.039500  1.0  -0.0186
  C  C3667  1  0.728900  0.847100  0.191800  1.0  -0.0764
  C  C3668  1  0.706000  0.829800  0.197500  1.0  -0.0642
  C  C3669  1  0.685300  0.838700  0.214800  1.0  -0.0143
  C  C3670  1  0.686400  0.865000  0.226500  1.0  -0.0513
  C  C3671  1  0.710000  0.880900  0.221000  1.0  -0.0648
  C  C3672  1  0.731300  0.871700  0.202600  1.0  -0.0565
  C  C3673  1  0.756700  0.764600  0.112600  1.0  -0.0064
  C  C3674  1  0.759700  0.740000  0.118500  1.0  -0.0295
  C  C3675  1  0.736700  0.722000  0.108200  1.0  -0.1328
  C  C3676  1  0.714800  0.733200  0.091500  1.0  -0.067
  C  C3677  1  0.709700  0.760700  0.091100  1.0  -0.0941
  C  C3678  1  0.731600  0.776400  0.106000  1.0  -0.06
  C  C3679  1  0.740300  0.813400  0.051300  1.0  0.004
  C  C3680  1  0.755600  0.794700  0.041600  1.0  0.0642
  C  C3681  1  0.744400  0.775900  0.026300  1.0  -0.0106
  C  C3682  1  0.715000  0.777900  0.017100  1.0  -0.0488
  C  C3683  1  0.696400  0.796500  0.027700  1.0  -0.0702
  C  C3684  1  0.710300  0.815500  0.045900  1.0  -0.0355
  C  C3685  1  0.794600  0.834600  0.997000  1.0  -0.0826
  C  C3686  1  0.808400  0.812100  0.991600  1.0  0.0591
  C  C3687  1  0.796600  0.793600  0.976400  1.0  -0.03
  C  C3688  1  0.769600  0.798700  0.964600  1.0  -0.0011
  C  C3689  1  0.757500  0.821900  0.969300  1.0  0.0658
  C  C3690  1  0.766900  0.836000  0.987000  1.0  0.0511
  C  C3691  1  0.844100  0.726000  0.098400  1.0  -0.0623
  C  C3692  1  0.822500  0.734200  0.083000  1.0  0.0216
  C  C3693  1  0.805600  0.716400  0.066500  1.0  -0.0883
  C  C3694  1  0.813700  0.688000  0.068900  1.0  -0.1254
  C  C3695  1  0.839400  0.681400  0.085800  1.0  -0.0288
  C  C3696  1  0.852700  0.700600  0.102500  1.0  -0.0975
  C  C3697  1  0.834700  0.702700  0.168200  1.0  -0.1176
  C  C3698  1  0.822000  0.678300  0.161700  1.0  -0.0945
  C  C3699  1  0.844000  0.660900  0.156600  1.0  -0.0086
  C  C3700  1  0.871900  0.663800  0.163900  1.0  0.0024
  C  C3701  1  0.882800  0.686400  0.168000  1.0  -0.0544
  C  C3702  1  0.862600  0.709100  0.171300  1.0  -0.0146
  C  C3703  1  0.786640  0.862830  0.246560  1.0  -0.0603
  C  C3704  1  0.780300  0.889160  0.246500  1.0  -0.0028
  C  C3705  1  0.758100  0.898670  0.261420  1.0  -0.0369
  C  C3706  1  0.742300  0.881800  0.276410  1.0  -0.0962
  C  C3707  1  0.748700  0.855500  0.276470  1.0  -0.0714
  C  C3708  1  0.770820  0.846000  0.261550  1.0  -0.0525
  C  C3709  1  0.858500  0.765310  0.260000  1.0  -0.0413
  C  C3710  1  0.841300  0.786780  0.264900  1.0  -0.0117
  C  C3711  1  0.837200  0.795090  0.289370  1.0  -0.0486
  C  C3712  1  0.850300  0.781900  0.309000  1.0  -0.0872
  C  C3713  1  0.867500  0.760500  0.304200  1.0  -0.0532
  C  C3714  1  0.871700  0.752200  0.279700  1.0  -0.0017
  C  C3715  1  0.925000  0.811390  0.246100  1.0  -0.0944
  C  C3716  1  0.922300  0.801150  0.270100  1.0  -0.0691
  C  C3717  1  0.946000  0.789680  0.281600  1.0  -0.0757
  C  C3718  1  0.972300  0.788440  0.269200  1.0  -0.0489
  C  C3719  1  0.975000  0.798670  0.245300  1.0  -0.0375
  C  C3720  1  0.951300  0.810150  0.233700  1.0  -0.0112
  C  C3721  1  0.706100  0.898200  0.128300  1.0  -0.0684
  C  C3722  1  0.708600  0.876900  0.144100  1.0  -0.0009
  C  C3723  1  0.685800  0.870200  0.159700  1.0  -0.0309
  C  C3724  1  0.660700  0.884900  0.159700  1.0  -0.0296
  C  C3725  1  0.658200  0.906200  0.143900  1.0  -0.0557
  C  C3726  1  0.681000  0.912900  0.128300  1.0  -0.0578
  C  C3727  1  0.883700  0.801700  0.989600  1.0  -0.0503
  C  C3728  1  0.874400  0.779300  0.001700  1.0  -0.0702
  C  C3729  1  0.865000  0.757200  0.984600  1.0  -0.037
  C  C3730  1  0.867100  0.758500  0.959200  1.0  -0.0247
  C  C3731  1  0.876100  0.781000  0.949500  1.0  -0.0012
  C  C3732  1  0.887000  0.802600  0.964600  1.0  -0.0636
  C  C3733  1  0.973500  0.810600  0.977600  1.0  -0.0588
  C  C3734  1  0.985700  0.799000  0.957200  1.0  -0.0063
  C  C3735  1  0.985300  0.812300  0.932800  1.0  -0.0667
  C  C3736  1  0.974300  0.838600  0.931000  1.0  -0.1248
  C  C3737  1  0.965300  0.851700  0.954800  1.0  -0.095
  C  C3738  1  0.963700  0.836500  0.976100  1.0  0.0305
  C  C3739  1  0.000200  0.779000  0.147100  1.0  -0.0545
  C  C3740  1  0.009000  0.753800  0.152300  1.0  -0.0618
  C  C3741  1  0.031500  0.749400  0.169000  1.0  -0.0802
  C  C3742  1  0.045200  0.770200  0.180400  1.0  -0.0381
  C  C3743  1  0.036400  0.795400  0.175200  1.0  -0.037
  C  C3744  1  0.014000  0.799800  0.158500  1.0  -0.0145
  C  C3745  1  0.053300  0.869700  0.033500  1.0  -0.0536
  C  C3746  1  0.075500  0.879100  0.017000  1.0  -0.0175
  C  C3747  1  0.104200  0.885500  0.026000  1.0  -0.0646
  C  C3748  1  0.108900  0.885200  0.054200  1.0  -0.1061
  C  C3749  1  0.085300  0.874500  0.071900  1.0  -0.1004
  C  C3750  1  0.058500  0.867500  0.059600  1.0  0.0034
  C  C3751  1  0.838800  0.690100  0.252900  1.0  -0.1203
  C  C3752  1  0.844700  0.694500  0.279600  1.0  -0.0602
  C  C3753  1  0.872800  0.687100  0.288300  1.0  -0.0003
  C  C3754  1  0.893200  0.678700  0.272600  1.0  0.0055
  C  C3755  1  0.887600  0.673400  0.246300  1.0  -0.0463
  C  C3756  1  0.859700  0.680400  0.235700  1.0  -0.0921
  C  C3757  1  0.936400  0.748400  0.193800  1.0  -0.0832
  C  C3758  1  0.954900  0.725900  0.229100  1.0  -0.1219
  C  C3759  1  0.933700  0.741100  0.218400  1.0  -0.0135
  C  C3760  1  0.951500  0.766700  0.206600  1.0  -0.079
  C  C3761  1  0.744900  0.270400  0.709000  1.0  -0.0688
  C  C3762  1  0.719900  0.266700  0.723300  1.0  -0.018
  C  C3763  1  0.693100  0.261300  0.712500  1.0  -0.0182
  C  C3764  1  0.691500  0.257300  0.686900  1.0  -0.0293
  C  C3765  1  0.715100  0.259900  0.672000  1.0  -0.0615
  C  C3766  1  0.741200  0.267700  0.683000  1.0  -0.0024
  C  C3767  1  0.018400  0.259600  0.565600  1.0  -0.0396
  C  C3768  1  0.017300  0.245800  0.543200  1.0  -0.0356
  C  C3769  1  0.011300  0.217900  0.543100  1.0  0.0241
  C  C3770  1  0.007500  0.204500  0.563300  1.0  -0.0315
  C  C3771  1  0.009200  0.219400  0.584800  1.0  0.0151
  C  C3772  1  0.015400  0.245800  0.585900  1.0  0.0301
  C  C3773  1  0.911700  0.245600  0.549200  1.0  -0.0576
  C  C3774  1  0.885200  0.235300  0.546700  1.0  -0.0086
  C  C3775  1  0.876100  0.210400  0.533500  1.0  -0.0134
  C  C3776  1  0.898100  0.199800  0.521100  1.0  0.0122
  C  C3777  1  0.927300  0.206200  0.524600  1.0  -0.0715
  C  C3778  1  0.933900  0.227200  0.539500  1.0  -0.0186
  C  C3779  1  0.728900  0.347100  0.691800  1.0  -0.0764
  C  C3780  1  0.706000  0.329800  0.697500  1.0  -0.0642
  C  C3781  1  0.685300  0.338700  0.714800  1.0  -0.0143
  C  C3782  1  0.686400  0.365000  0.726500  1.0  -0.0513
  C  C3783  1  0.710000  0.380900  0.721000  1.0  -0.0648
  C  C3784  1  0.731300  0.371700  0.702600  1.0  -0.0565
  C  C3785  1  0.756700  0.264600  0.612600  1.0  -0.0064
  C  C3786  1  0.759700  0.240000  0.618500  1.0  -0.0295
  C  C3787  1  0.736700  0.222000  0.608200  1.0  -0.1328
  C  C3788  1  0.714800  0.233200  0.591500  1.0  -0.067
  C  C3789  1  0.709700  0.260700  0.591100  1.0  -0.0941
  C  C3790  1  0.731600  0.276400  0.606000  1.0  -0.06
  C  C3791  1  0.740300  0.313400  0.551300  1.0  0.004
  C  C3792  1  0.755600  0.294700  0.541600  1.0  0.0642
  C  C3793  1  0.744400  0.275900  0.526300  1.0  -0.0106
  C  C3794  1  0.715000  0.277900  0.517100  1.0  -0.0488
  C  C3795  1  0.696400  0.296500  0.527700  1.0  -0.0702
  C  C3796  1  0.710300  0.315500  0.545900  1.0  -0.0355
  C  C3797  1  0.794600  0.334600  0.497000  1.0  -0.0826
  C  C3798  1  0.808400  0.312100  0.491600  1.0  0.0591
  C  C3799  1  0.796600  0.293600  0.476400  1.0  -0.03
  C  C3800  1  0.769600  0.298700  0.464600  1.0  -0.0011
  C  C3801  1  0.757500  0.321900  0.469300  1.0  0.0658
  C  C3802  1  0.766900  0.336000  0.487000  1.0  0.0511
  C  C3803  1  0.844100  0.226000  0.598400  1.0  -0.0623
  C  C3804  1  0.822500  0.234200  0.583000  1.0  0.0216
  C  C3805  1  0.805600  0.216400  0.566500  1.0  -0.0883
  C  C3806  1  0.813700  0.188000  0.568900  1.0  -0.1254
  C  C3807  1  0.839400  0.181400  0.585800  1.0  -0.0288
  C  C3808  1  0.852700  0.200600  0.602500  1.0  -0.0975
  C  C3809  1  0.834700  0.202700  0.668200  1.0  -0.1176
  C  C3810  1  0.822000  0.178300  0.661700  1.0  -0.0945
  C  C3811  1  0.844000  0.160900  0.656600  1.0  -0.0086
  C  C3812  1  0.871900  0.163800  0.663900  1.0  0.0024
  C  C3813  1  0.882800  0.186400  0.668000  1.0  -0.0544
  C  C3814  1  0.862600  0.209100  0.671300  1.0  -0.0146
  C  C3815  1  0.786640  0.362830  0.746560  1.0  -0.0603
  C  C3816  1  0.780300  0.389160  0.746500  1.0  -0.0028
  C  C3817  1  0.758100  0.398670  0.761420  1.0  -0.0369
  C  C3818  1  0.742300  0.381800  0.776410  1.0  -0.0962
  C  C3819  1  0.748700  0.355500  0.776470  1.0  -0.0714
  C  C3820  1  0.770820  0.346000  0.761550  1.0  -0.0525
  C  C3821  1  0.858500  0.265310  0.760000  1.0  -0.0413
  C  C3822  1  0.841300  0.286780  0.764900  1.0  -0.0117
  C  C3823  1  0.837200  0.295090  0.789370  1.0  -0.0486
  C  C3824  1  0.850300  0.281900  0.809000  1.0  -0.0872
  C  C3825  1  0.867500  0.260500  0.804200  1.0  -0.0532
  C  C3826  1  0.871700  0.252200  0.779700  1.0  -0.0017
  C  C3827  1  0.925000  0.311390  0.746100  1.0  -0.0944
  C  C3828  1  0.922300  0.301150  0.770100  1.0  -0.0691
  C  C3829  1  0.946000  0.289680  0.781600  1.0  -0.0757
  C  C3830  1  0.972300  0.288440  0.769200  1.0  -0.0489
  C  C3831  1  0.975000  0.298670  0.745300  1.0  -0.0375
  C  C3832  1  0.951300  0.310150  0.733700  1.0  -0.0112
  C  C3833  1  0.706100  0.398200  0.628300  1.0  -0.0684
  C  C3834  1  0.708600  0.376900  0.644100  1.0  -0.0009
  C  C3835  1  0.685800  0.370200  0.659700  1.0  -0.0309
  C  C3836  1  0.660700  0.384900  0.659700  1.0  -0.0296
  C  C3837  1  0.658200  0.406200  0.643900  1.0  -0.0557
  C  C3838  1  0.681000  0.412900  0.628300  1.0  -0.0578
  C  C3839  1  0.883700  0.301700  0.489600  1.0  -0.0503
  C  C3840  1  0.874400  0.279300  0.501700  1.0  -0.0702
  C  C3841  1  0.865000  0.257200  0.484600  1.0  -0.037
  C  C3842  1  0.867100  0.258500  0.459200  1.0  -0.0247
  C  C3843  1  0.876100  0.281000  0.449500  1.0  -0.0012
  C  C3844  1  0.887000  0.302600  0.464600  1.0  -0.0636
  C  C3845  1  0.973500  0.310600  0.477600  1.0  -0.0588
  C  C3846  1  0.985700  0.299000  0.457200  1.0  -0.0063
  C  C3847  1  0.985300  0.312300  0.432800  1.0  -0.0667
  C  C3848  1  0.974300  0.338600  0.431000  1.0  -0.1248
  C  C3849  1  0.965300  0.351700  0.454800  1.0  -0.095
  C  C3850  1  0.963700  0.336500  0.476100  1.0  0.0305
  C  C3851  1  0.000200  0.279000  0.647100  1.0  -0.0545
  C  C3852  1  0.009000  0.253800  0.652300  1.0  -0.0618
  C  C3853  1  0.031500  0.249400  0.669000  1.0  -0.0802
  C  C3854  1  0.045200  0.270200  0.680400  1.0  -0.0381
  C  C3855  1  0.036400  0.295400  0.675200  1.0  -0.037
  C  C3856  1  0.014000  0.299800  0.658500  1.0  -0.0145
  C  C3857  1  0.053300  0.369700  0.533500  1.0  -0.0536
  C  C3858  1  0.075500  0.379100  0.517000  1.0  -0.0175
  C  C3859  1  0.104200  0.385500  0.526000  1.0  -0.0646
  C  C3860  1  0.108900  0.385200  0.554200  1.0  -0.1061
  C  C3861  1  0.085300  0.374500  0.571900  1.0  -0.1004
  C  C3862  1  0.058500  0.367500  0.559600  1.0  0.0034
  C  C3863  1  0.838800  0.190100  0.752900  1.0  -0.1203
  C  C3864  1  0.844700  0.194500  0.779600  1.0  -0.0602
  C  C3865  1  0.872800  0.187100  0.788300  1.0  -0.0003
  C  C3866  1  0.893200  0.178700  0.772600  1.0  0.0055
  C  C3867  1  0.887600  0.173400  0.746300  1.0  -0.0463
  C  C3868  1  0.859700  0.180400  0.735700  1.0  -0.0921
  C  C3869  1  0.936400  0.248400  0.693800  1.0  -0.0832
  C  C3870  1  0.954900  0.225900  0.729100  1.0  -0.1219
  C  C3871  1  0.933700  0.241100  0.718400  1.0  -0.0135
  C  C3872  1  0.951500  0.266700  0.706600  1.0  -0.079
  C  C3873  1  0.244900  0.770400  0.709000  1.0  -0.0688
  C  C3874  1  0.219900  0.766700  0.723300  1.0  -0.018
  C  C3875  1  0.193100  0.761300  0.712500  1.0  -0.0182
  C  C3876  1  0.191500  0.757300  0.686900  1.0  -0.0293
  C  C3877  1  0.215100  0.759900  0.672000  1.0  -0.0615
  C  C3878  1  0.241200  0.767700  0.683000  1.0  -0.0024
  C  C3879  1  0.518400  0.759600  0.565600  1.0  -0.0396
  C  C3880  1  0.517300  0.745800  0.543200  1.0  -0.0356
  C  C3881  1  0.511300  0.717900  0.543100  1.0  0.0241
  C  C3882  1  0.507500  0.704500  0.563300  1.0  -0.0315
  C  C3883  1  0.509200  0.719400  0.584800  1.0  0.0151
  C  C3884  1  0.515400  0.745800  0.585900  1.0  0.0301
  C  C3885  1  0.411700  0.745600  0.549200  1.0  -0.0576
  C  C3886  1  0.385200  0.735300  0.546700  1.0  -0.0086
  C  C3887  1  0.376100  0.710400  0.533500  1.0  -0.0134
  C  C3888  1  0.398100  0.699800  0.521100  1.0  0.0122
  C  C3889  1  0.427300  0.706200  0.524600  1.0  -0.0715
  C  C3890  1  0.433900  0.727200  0.539500  1.0  -0.0186
  C  C3891  1  0.228900  0.847100  0.691800  1.0  -0.0764
  C  C3892  1  0.206000  0.829800  0.697500  1.0  -0.0642
  C  C3893  1  0.185300  0.838700  0.714800  1.0  -0.0143
  C  C3894  1  0.186400  0.865000  0.726500  1.0  -0.0513
  C  C3895  1  0.210000  0.880900  0.721000  1.0  -0.0648
  C  C3896  1  0.231300  0.871700  0.702600  1.0  -0.0565
  C  C3897  1  0.256700  0.764600  0.612600  1.0  -0.0064
  C  C3898  1  0.259700  0.740000  0.618500  1.0  -0.0295
  C  C3899  1  0.236700  0.722000  0.608200  1.0  -0.1328
  C  C3900  1  0.214800  0.733200  0.591500  1.0  -0.067
  C  C3901  1  0.209700  0.760700  0.591100  1.0  -0.0941
  C  C3902  1  0.231600  0.776400  0.606000  1.0  -0.06
  C  C3903  1  0.240300  0.813400  0.551300  1.0  0.004
  C  C3904  1  0.255600  0.794700  0.541600  1.0  0.0642
  C  C3905  1  0.244400  0.775900  0.526300  1.0  -0.0106
  C  C3906  1  0.215000  0.777900  0.517100  1.0  -0.0488
  C  C3907  1  0.196400  0.796500  0.527700  1.0  -0.0702
  C  C3908  1  0.210300  0.815500  0.545900  1.0  -0.0355
  C  C3909  1  0.294600  0.834600  0.497000  1.0  -0.0826
  C  C3910  1  0.308400  0.812100  0.491600  1.0  0.0591
  C  C3911  1  0.296600  0.793600  0.476400  1.0  -0.03
  C  C3912  1  0.269600  0.798700  0.464600  1.0  -0.0011
  C  C3913  1  0.257500  0.821900  0.469300  1.0  0.0658
  C  C3914  1  0.266900  0.836000  0.487000  1.0  0.0511
  C  C3915  1  0.344100  0.726000  0.598400  1.0  -0.0623
  C  C3916  1  0.322500  0.734200  0.583000  1.0  0.0216
  C  C3917  1  0.305600  0.716400  0.566500  1.0  -0.0883
  C  C3918  1  0.313700  0.688000  0.568900  1.0  -0.1254
  C  C3919  1  0.339400  0.681400  0.585800  1.0  -0.0288
  C  C3920  1  0.352700  0.700600  0.602500  1.0  -0.0975
  C  C3921  1  0.334700  0.702700  0.668200  1.0  -0.1176
  C  C3922  1  0.322000  0.678300  0.661700  1.0  -0.0945
  C  C3923  1  0.344000  0.660900  0.656600  1.0  -0.0086
  C  C3924  1  0.371900  0.663800  0.663900  1.0  0.0024
  C  C3925  1  0.382800  0.686400  0.668000  1.0  -0.0544
  C  C3926  1  0.362600  0.709100  0.671300  1.0  -0.0146
  C  C3927  1  0.286640  0.862830  0.746560  1.0  -0.0603
  C  C3928  1  0.280300  0.889160  0.746500  1.0  -0.0028
  C  C3929  1  0.258100  0.898670  0.761420  1.0  -0.0369
  C  C3930  1  0.242300  0.881800  0.776410  1.0  -0.0962
  C  C3931  1  0.248700  0.855500  0.776470  1.0  -0.0714
  C  C3932  1  0.270820  0.846000  0.761550  1.0  -0.0525
  C  C3933  1  0.358500  0.765310  0.760000  1.0  -0.0413
  C  C3934  1  0.341300  0.786780  0.764900  1.0  -0.0117
  C  C3935  1  0.337200  0.795090  0.789370  1.0  -0.0486
  C  C3936  1  0.350300  0.781900  0.809000  1.0  -0.0872
  C  C3937  1  0.367500  0.760500  0.804200  1.0  -0.0532
  C  C3938  1  0.371700  0.752200  0.779700  1.0  -0.0017
  C  C3939  1  0.425000  0.811390  0.746100  1.0  -0.0944
  C  C3940  1  0.422300  0.801150  0.770100  1.0  -0.0691
  C  C3941  1  0.446000  0.789680  0.781600  1.0  -0.0757
  C  C3942  1  0.472300  0.788440  0.769200  1.0  -0.0489
  C  C3943  1  0.475000  0.798670  0.745300  1.0  -0.0375
  C  C3944  1  0.451300  0.810150  0.733700  1.0  -0.0112
  C  C3945  1  0.206100  0.898200  0.628300  1.0  -0.0684
  C  C3946  1  0.208600  0.876900  0.644100  1.0  -0.0009
  C  C3947  1  0.185800  0.870200  0.659700  1.0  -0.0309
  C  C3948  1  0.160700  0.884900  0.659700  1.0  -0.0296
  C  C3949  1  0.158200  0.906200  0.643900  1.0  -0.0557
  C  C3950  1  0.181000  0.912900  0.628300  1.0  -0.0578
  C  C3951  1  0.383700  0.801700  0.489600  1.0  -0.0503
  C  C3952  1  0.374400  0.779300  0.501700  1.0  -0.0702
  C  C3953  1  0.365000  0.757200  0.484600  1.0  -0.037
  C  C3954  1  0.367100  0.758500  0.459200  1.0  -0.0247
  C  C3955  1  0.376100  0.781000  0.449500  1.0  -0.0012
  C  C3956  1  0.387000  0.802600  0.464600  1.0  -0.0636
  C  C3957  1  0.473500  0.810600  0.477600  1.0  -0.0588
  C  C3958  1  0.485700  0.799000  0.457200  1.0  -0.0063
  C  C3959  1  0.485300  0.812300  0.432800  1.0  -0.0667
  C  C3960  1  0.474300  0.838600  0.431000  1.0  -0.1248
  C  C3961  1  0.465300  0.851700  0.454800  1.0  -0.095
  C  C3962  1  0.463700  0.836500  0.476100  1.0  0.0305
  C  C3963  1  0.500200  0.779000  0.647100  1.0  -0.0545
  C  C3964  1  0.509000  0.753800  0.652300  1.0  -0.0618
  C  C3965  1  0.531500  0.749400  0.669000  1.0  -0.0812
  C  C3966  1  0.545200  0.770200  0.680400  1.0  -0.0381
  C  C3967  1  0.536400  0.795400  0.675200  1.0  -0.037
  C  C3968  1  0.514000  0.799800  0.658500  1.0  -0.0145
  C  C3969  1  0.553300  0.869700  0.533500  1.0  -0.0536
  C  C3970  1  0.575500  0.879100  0.517000  1.0  -0.0175
  C  C3971  1  0.604200  0.885500  0.526000  1.0  -0.0646
  C  C3972  1  0.608900  0.885200  0.554200  1.0  -0.1061
  C  C3973  1  0.585300  0.874500  0.571900  1.0  -0.1004
  C  C3974  1  0.558500  0.867500  0.559600  1.0  0.0034
  C  C3975  1  0.338800  0.690100  0.752900  1.0  -0.1203
  C  C3976  1  0.344700  0.694500  0.779600  1.0  -0.0602
  C  C3977  1  0.372800  0.687100  0.788300  1.0  -0.0003
  C  C3978  1  0.393200  0.678700  0.772600  1.0  0.0055
  C  C3979  1  0.387600  0.673400  0.746300  1.0  -0.0463
  C  C3980  1  0.359700  0.680400  0.735700  1.0  -0.0921
  C  C3981  1  0.436400  0.748400  0.693800  1.0  -0.0832
  C  C3982  1  0.454900  0.725900  0.729100  1.0  -0.1219
  C  C3983  1  0.433700  0.741100  0.718400  1.0  -0.0135
  C  C3984  1  0.451500  0.766700  0.706600  1.0  -0.079
  C  C3985  1  0.244900  0.270400  0.209000  1.0  -0.0688
  C  C3986  1  0.219900  0.266700  0.223300  1.0  -0.018
  C  C3987  1  0.193100  0.261300  0.212500  1.0  -0.0182
  C  C3988  1  0.191500  0.257300  0.186900  1.0  -0.0293
  C  C3989  1  0.215100  0.259900  0.172000  1.0  -0.0615
  C  C3990  1  0.241200  0.267700  0.183000  1.0  -0.0024
  C  C3991  1  0.518400  0.259600  0.065600  1.0  -0.0396
  C  C3992  1  0.517300  0.245800  0.043200  1.0  -0.0356
  C  C3993  1  0.511300  0.217900  0.043100  1.0  0.0241
  C  C3994  1  0.507500  0.204500  0.063300  1.0  -0.0315
  C  C3995  1  0.509200  0.219400  0.084800  1.0  0.0151
  C  C3996  1  0.515400  0.245800  0.085900  1.0  0.0301
  C  C3997  1  0.411700  0.245600  0.049200  1.0  -0.0576
  C  C3998  1  0.385200  0.235300  0.046700  1.0  -0.0086
  C  C3999  1  0.376100  0.210400  0.033500  1.0  -0.0134
  C  C4000  1  0.398100  0.199800  0.021100  1.0  0.0122
  C  C4001  1  0.427300  0.206200  0.024600  1.0  -0.0715
  C  C4002  1  0.433900  0.227200  0.039500  1.0  -0.0186
  C  C4003  1  0.228900  0.347100  0.191800  1.0  -0.0764
  C  C4004  1  0.206000  0.329800  0.197500  1.0  -0.0642
  C  C4005  1  0.185300  0.338700  0.214800  1.0  -0.0143
  C  C4006  1  0.186400  0.365000  0.226500  1.0  -0.0513
  C  C4007  1  0.210000  0.380900  0.221000  1.0  -0.0648
  C  C4008  1  0.231300  0.371700  0.202600  1.0  -0.0565
  C  C4009  1  0.256700  0.264600  0.112600  1.0  -0.0064
  C  C4010  1  0.259700  0.240000  0.118500  1.0  -0.0295
  C  C4011  1  0.236700  0.222000  0.108200  1.0  -0.1328
  C  C4012  1  0.214800  0.233200  0.091500  1.0  -0.067
  C  C4013  1  0.209700  0.260700  0.091100  1.0  -0.0941
  C  C4014  1  0.231600  0.276400  0.106000  1.0  -0.06
  C  C4015  1  0.240300  0.313400  0.051300  1.0  0.004
  C  C4016  1  0.255600  0.294700  0.041600  1.0  0.0642
  C  C4017  1  0.244400  0.275900  0.026300  1.0  -0.0106
  C  C4018  1  0.215000  0.277900  0.017100  1.0  -0.0488
  C  C4019  1  0.196400  0.296500  0.027700  1.0  -0.0702
  C  C4020  1  0.210300  0.315500  0.045900  1.0  -0.0355
  C  C4021  1  0.294600  0.334600  0.997000  1.0  -0.0826
  C  C4022  1  0.308400  0.312100  0.991600  1.0  0.0591
  C  C4023  1  0.296600  0.293600  0.976400  1.0  -0.03
  C  C4024  1  0.269600  0.298700  0.964600  1.0  -0.0011
  C  C4025  1  0.257500  0.321900  0.969300  1.0  0.0658
  C  C4026  1  0.266900  0.336000  0.987000  1.0  0.0511
  C  C4027  1  0.344100  0.226000  0.098400  1.0  -0.0623
  C  C4028  1  0.322500  0.234200  0.083000  1.0  0.0216
  C  C4029  1  0.305600  0.216400  0.066500  1.0  -0.0883
  C  C4030  1  0.313700  0.188000  0.068900  1.0  -0.1254
  C  C4031  1  0.339400  0.181400  0.085800  1.0  -0.0288
  C  C4032  1  0.352700  0.200600  0.102500  1.0  -0.0975
  C  C4033  1  0.334700  0.202700  0.168200  1.0  -0.1176
  C  C4034  1  0.322000  0.178300  0.161700  1.0  -0.0945
  C  C4035  1  0.344000  0.160900  0.156600  1.0  -0.0086
  C  C4036  1  0.371900  0.163800  0.163900  1.0  0.0024
  C  C4037  1  0.382800  0.186400  0.168000  1.0  -0.0544
  C  C4038  1  0.362600  0.209100  0.171300  1.0  -0.0146
  C  C4039  1  0.286640  0.362830  0.246560  1.0  -0.0603
  C  C4040  1  0.280300  0.389160  0.246500  1.0  -0.0028
  C  C4041  1  0.258100  0.398670  0.261420  1.0  -0.0369
  C  C4042  1  0.242300  0.381800  0.276410  1.0  -0.0962
  C  C4043  1  0.248700  0.355500  0.276470  1.0  -0.0714
  C  C4044  1  0.270820  0.346000  0.261550  1.0  -0.0525
  C  C4045  1  0.358500  0.265310  0.260000  1.0  -0.0413
  C  C4046  1  0.341300  0.286780  0.264900  1.0  -0.0117
  C  C4047  1  0.337200  0.295090  0.289370  1.0  -0.0486
  C  C4048  1  0.350300  0.281900  0.309000  1.0  -0.0872
  C  C4049  1  0.367500  0.260500  0.304200  1.0  -0.0532
  C  C4050  1  0.371700  0.252200  0.279700  1.0  -0.0017
  C  C4051  1  0.425000  0.311390  0.246100  1.0  -0.0944
  C  C4052  1  0.422300  0.301150  0.270100  1.0  -0.0691
  C  C4053  1  0.446000  0.289680  0.281600  1.0  -0.0757
  C  C4054  1  0.472300  0.288440  0.269200  1.0  -0.0489
  C  C4055  1  0.475000  0.298670  0.245300  1.0  -0.0375
  C  C4056  1  0.451300  0.310150  0.233700  1.0  -0.0112
  C  C4057  1  0.206100  0.398200  0.128300  1.0  -0.0684
  C  C4058  1  0.208600  0.376900  0.144100  1.0  -0.0009
  C  C4059  1  0.185800  0.370200  0.159700  1.0  -0.0309
  C  C4060  1  0.160700  0.384900  0.159700  1.0  -0.0296
  C  C4061  1  0.158200  0.406200  0.143900  1.0  -0.0557
  C  C4062  1  0.181000  0.412900  0.128300  1.0  -0.0578
  C  C4063  1  0.383700  0.301700  0.989600  1.0  -0.0503
  C  C4064  1  0.374400  0.279300  0.001700  1.0  -0.0702
  C  C4065  1  0.365000  0.257200  0.984600  1.0  -0.037
  C  C4066  1  0.367100  0.258500  0.959200  1.0  -0.0247
  C  C4067  1  0.376100  0.281000  0.949500  1.0  -0.0012
  C  C4068  1  0.387000  0.302600  0.964600  1.0  -0.0636
  C  C4069  1  0.473500  0.310600  0.977600  1.0  -0.0588
  C  C4070  1  0.485700  0.299000  0.957200  1.0  -0.0063
  C  C4071  1  0.485300  0.312300  0.932800  1.0  -0.0667
  C  C4072  1  0.474300  0.338600  0.931000  1.0  -0.1248
  C  C4073  1  0.465300  0.351700  0.954800  1.0  -0.095
  C  C4074  1  0.463700  0.336500  0.976100  1.0  0.0305
  C  C4075  1  0.500200  0.279000  0.147100  1.0  -0.0545
  C  C4076  1  0.509000  0.253800  0.152300  1.0  -0.0618
  C  C4077  1  0.531500  0.249400  0.169000  1.0  -0.0812
  C  C4078  1  0.545200  0.270200  0.180400  1.0  -0.0381
  C  C4079  1  0.536400  0.295400  0.175200  1.0  -0.037
  C  C4080  1  0.514000  0.299800  0.158500  1.0  -0.0145
  C  C4081  1  0.553300  0.369700  0.033500  1.0  -0.0536
  C  C4082  1  0.575500  0.379100  0.017000  1.0  -0.0175
  C  C4083  1  0.604200  0.385500  0.026000  1.0  -0.0646
  C  C4084  1  0.608900  0.385200  0.054200  1.0  -0.1061
  C  C4085  1  0.585300  0.374500  0.071900  1.0  -0.1004
  C  C4086  1  0.558500  0.367500  0.059600  1.0  0.0034
  C  C4087  1  0.338800  0.190100  0.252900  1.0  -0.1203
  C  C4088  1  0.344700  0.194500  0.279600  1.0  -0.0602
  C  C4089  1  0.372800  0.187100  0.288300  1.0  -0.0003
  C  C4090  1  0.393200  0.178700  0.272600  1.0  0.0055
  C  C4091  1  0.387600  0.173400  0.246300  1.0  -0.0463
  C  C4092  1  0.359700  0.180400  0.235700  1.0  -0.0921
  C  C4093  1  0.436400  0.248400  0.193800  1.0  -0.0832
  C  C4094  1  0.454900  0.225900  0.229100  1.0  -0.1219
  C  C4095  1  0.433700  0.241100  0.218400  1.0  -0.0135
  C  C4096  1  0.451500  0.266700  0.206600  1.0  -0.079
  S  S4097  1  0.645990  0.571060  0.880300  1.0  0.1287
  S  S4098  1  0.587840  0.553450  0.826620  1.0  0.1501
  S  S4099  1  0.565710  0.605810  0.880700  1.0  0.1484
  S  S4100  1  0.585470  0.549800  0.937160  1.0  -0.2424
  S  S4101  1  0.704460  0.589430  0.933150  1.0  0.213
  S  S4102  1  0.614390  0.498230  0.882510  1.0  -0.2758
  S  S4103  1  0.707610  0.591030  0.823580  1.0  -0.2324
  S  S4104  1  0.559870  0.609140  0.982790  1.0  -0.343
  S  S4105  1  0.642970  0.579060  0.991660  1.0  -0.3254
  S  S4106  1  0.671570  0.523540  0.935240  1.0  -0.355
  S  S4107  1  0.502280  0.585330  0.926690  1.0  -0.3034
  S  S4108  1  0.532320  0.536380  0.873860  1.0  -0.334
  S  S4109  1  0.722360  0.542370  0.994630  1.0  -0.3623
  S  S4110  1  0.526410  0.529760  0.776310  1.0  -0.2826
  S  S4111  1  0.659980  0.520630  0.825420  1.0  -0.2907
  S  S4112  1  0.503590  0.585950  0.830510  1.0  -0.2908
  S  S4113  1  0.492240  0.642710  0.886320  1.0  -0.2559
  S  S4114  1  0.770420  0.610070  0.978490  1.0  -0.3003
  S  S4115  1  0.611260  0.504790  0.768250  1.0  -0.2196
  S  S4116  1  0.722110  0.532360  0.875000  1.0  -0.3244
  S  S4117  1  0.557270  0.477710  0.827620  1.0  -0.2649
  S  S4118  1  0.643100  0.580500  0.768380  1.0  -0.3578
  S  S4119  1  0.777900  0.543210  0.932870  1.0  -0.3632
  S  S4120  1  0.566300  0.600110  0.773710  1.0  -0.3692
  S  S4121  1  0.555120  0.449150  0.759820  1.0  -0.376
  S  S4122  1  0.645990  0.071060  0.380300  1.0  0.1287
  S  S4123  1  0.587840  0.053450  0.326620  1.0  0.1501
  S  S4124  1  0.565710  0.105810  0.380700  1.0  0.1484
  S  S4125  1  0.585470  0.049800  0.437160  1.0  -0.2424
  S  S4126  1  0.704460  0.089430  0.433150  1.0  0.213
  S  S4127  1  0.614390  0.998230  0.382510  1.0  -0.2758
  S  S4128  1  0.707610  0.091030  0.323580  1.0  -0.2324
  S  S4129  1  0.559870  0.109140  0.482790  1.0  -0.343
  S  S4130  1  0.642970  0.079060  0.491660  1.0  -0.3254
  S  S4131  1  0.671570  0.023540  0.435240  1.0  -0.355
  S  S4132  1  0.502280  0.085330  0.426690  1.0  -0.3034
  S  S4133  1  0.532320  0.036380  0.373860  1.0  -0.3331
  S  S4134  1  0.722360  0.042370  0.494630  1.0  -0.3623
  S  S4135  1  0.526410  0.029760  0.276310  1.0  -0.2826
  S  S4136  1  0.659980  0.020630  0.325420  1.0  -0.2907
  S  S4137  1  0.503590  0.085950  0.330510  1.0  -0.2908
  S  S4138  1  0.492240  0.142710  0.386320  1.0  -0.2559
  S  S4139  1  0.770420  0.110070  0.478490  1.0  -0.3003
  S  S4140  1  0.611260  0.004790  0.268250  1.0  -0.2196
  S  S4141  1  0.722110  0.032360  0.375000  1.0  -0.3244
  S  S4142  1  0.557270  0.977710  0.327620  1.0  -0.2649
  S  S4143  1  0.643100  0.080500  0.268380  1.0  -0.3578
  S  S4144  1  0.777900  0.043210  0.432870  1.0  -0.3632
  S  S4145  1  0.566300  0.100110  0.273710  1.0  -0.3692
  S  S4146  1  0.555120  0.949150  0.259820  1.0  -0.376
  S  S4147  1  0.145990  0.571060  0.380300  1.0  0.1287
  S  S4148  1  0.087840  0.553450  0.326620  1.0  0.1501
  S  S4149  1  0.065710  0.605810  0.380700  1.0  0.1484
  S  S4150  1  0.085470  0.549800  0.437160  1.0  -0.2424
  S  S4151  1  0.204460  0.589430  0.433150  1.0  0.213
  S  S4152  1  0.114390  0.498230  0.382510  1.0  -0.2758
  S  S4153  1  0.207610  0.591030  0.323580  1.0  -0.2324
  S  S4154  1  0.059870  0.609140  0.482790  1.0  -0.343
  S  S4155  1  0.142970  0.579060  0.491660  1.0  -0.3254
  S  S4156  1  0.171570  0.523540  0.435240  1.0  -0.355
  S  S4157  1  0.002280  0.585330  0.426690  1.0  -0.3034
  S  S4158  1  0.032320  0.536380  0.373860  1.0  -0.3386
  S  S4159  1  0.222360  0.542370  0.494630  1.0  -0.3623
  S  S4160  1  0.026410  0.529760  0.276310  1.0  -0.2826
  S  S4161  1  0.159980  0.520630  0.325420  1.0  -0.2907
  S  S4162  1  0.003590  0.585950  0.330510  1.0  -0.2908
  S  S4163  1  0.992240  0.642710  0.386320  1.0  -0.2559
  S  S4164  1  0.270420  0.610070  0.478490  1.0  -0.3003
  S  S4165  1  0.111260  0.504790  0.268250  1.0  -0.2196
  S  S4166  1  0.222110  0.532360  0.375000  1.0  -0.3244
  S  S4167  1  0.057270  0.477710  0.327620  1.0  -0.2649
  S  S4168  1  0.143100  0.580500  0.268380  1.0  -0.3578
  S  S4169  1  0.277900  0.543210  0.432870  1.0  -0.3632
  S  S4170  1  0.066300  0.600110  0.273710  1.0  -0.3692
  S  S4171  1  0.055120  0.449150  0.259820  1.0  -0.376
  S  S4172  1  0.145990  0.071060  0.880300  1.0  0.1287
  S  S4173  1  0.087840  0.053450  0.826620  1.0  0.1501
  S  S4174  1  0.065710  0.105810  0.880700  1.0  0.1484
  S  S4175  1  0.085470  0.049800  0.937160  1.0  -0.2424
  S  S4176  1  0.204460  0.089430  0.933150  1.0  0.213
  S  S4177  1  0.114390  0.998230  0.882510  1.0  -0.2758
  S  S4178  1  0.207610  0.091030  0.823580  1.0  -0.2324
  S  S4179  1  0.059870  0.109140  0.982790  1.0  -0.343
  S  S4180  1  0.142970  0.079060  0.991660  1.0  -0.3254
  S  S4181  1  0.171570  0.023540  0.935240  1.0  -0.355
  S  S4182  1  0.002280  0.085330  0.926690  1.0  -0.3034
  S  S4183  1  0.032320  0.036380  0.873860  1.0  -0.3339
  S  S4184  1  0.222360  0.042370  0.994630  1.0  -0.3623
  S  S4185  1  0.026410  0.029760  0.776310  1.0  -0.2826
  S  S4186  1  0.159980  0.020630  0.825420  1.0  -0.2907
  S  S4187  1  0.003590  0.085950  0.830510  1.0  -0.2908
  S  S4188  1  0.992240  0.142710  0.886320  1.0  -0.2559
  S  S4189  1  0.270420  0.110070  0.978490  1.0  -0.3003
  S  S4190  1  0.111260  0.004790  0.768250  1.0  -0.2196
  S  S4191  1  0.222110  0.032360  0.875000  1.0  -0.3244
  S  S4192  1  0.057270  0.977710  0.827620  1.0  -0.2649
  S  S4193  1  0.143100  0.080500  0.768380  1.0  -0.3578
  S  S4194  1  0.277900  0.043210  0.932870  1.0  -0.3632
  S  S4195  1  0.066300  0.100110  0.773710  1.0  -0.3692
  S  S4196  1  0.055120  0.949150  0.759820  1.0  -0.376
  S  S4197  1  0.104010  0.178940  0.880300  1.0  0.1287
  S  S4198  1  0.162160  0.196550  0.826620  1.0  0.1504
  S  S4199  1  0.184290  0.144190  0.880700  1.0  0.1461
  S  S4200  1  0.164530  0.200200  0.937160  1.0  -0.2414
  S  S4201  1  0.045540  0.160570  0.933150  1.0  0.2113
  S  S4202  1  0.135610  0.251770  0.882510  1.0  -0.2774
  S  S4203  1  0.042390  0.158970  0.823580  1.0  -0.2319
  S  S4204  1  0.190130  0.140860  0.982790  1.0  -0.3426
  S  S4205  1  0.107030  0.170940  0.991660  1.0  -0.3281
  S  S4206  1  0.078430  0.226460  0.935240  1.0  -0.3551
  S  S4207  1  0.247720  0.164670  0.926690  1.0  -0.3019
  S  S4208  1  0.217680  0.213620  0.873860  1.0  -0.3356
  S  S4209  1  0.027640  0.207630  0.994630  1.0  -0.3614
  S  S4210  1  0.223590  0.220240  0.776310  1.0  -0.2845
  S  S4211  1  0.090020  0.229370  0.825420  1.0  -0.289
  S  S4212  1  0.246410  0.164050  0.830510  1.0  -0.2915
  S  S4213  1  0.257760  0.107290  0.886320  1.0  -0.2565
  S  S4214  1  0.979580  0.139930  0.978490  1.0  -0.2999
  S  S4215  1  0.138740  0.245210  0.768250  1.0  -0.22
  S  S4216  1  0.027890  0.217640  0.875000  1.0  -0.3244
  S  S4217  1  0.192730  0.272290  0.827620  1.0  -0.2711
  S  S4218  1  0.106900  0.169500  0.768380  1.0  -0.3576
  S  S4219  1  0.972100  0.206790  0.932870  1.0  -0.3629
  S  S4220  1  0.183700  0.149890  0.773710  1.0  -0.3683
  S  S4221  1  0.194880  0.300850  0.759820  1.0  -0.3762
  S  S4222  1  0.104010  0.678940  0.380300  1.0  0.1287
  S  S4223  1  0.162160  0.696550  0.326620  1.0  0.1504
  S  S4224  1  0.184290  0.644190  0.380700  1.0  0.1461
  S  S4225  1  0.164530  0.700200  0.437160  1.0  -0.2414
  S  S4226  1  0.045540  0.660570  0.433150  1.0  0.2113
  S  S4227  1  0.135610  0.751770  0.382510  1.0  -0.2774
  S  S4228  1  0.042390  0.658970  0.323580  1.0  -0.2319
  S  S4229  1  0.190130  0.640860  0.482790  1.0  -0.3426
  S  S4230  1  0.107030  0.670940  0.491660  1.0  -0.328
  S  S4231  1  0.078430  0.726460  0.435240  1.0  -0.3551
  S  S4232  1  0.247720  0.664670  0.426690  1.0  -0.3019
  S  S4233  1  0.217680  0.713620  0.373860  1.0  -0.3356
  S  S4234  1  0.027640  0.707630  0.494630  1.0  -0.3614
  S  S4235  1  0.223590  0.720240  0.276310  1.0  -0.2845
  S  S4236  1  0.090020  0.729370  0.325420  1.0  -0.289
  S  S4237  1  0.246410  0.664050  0.330510  1.0  -0.2915
  S  S4238  1  0.257760  0.607290  0.386320  1.0  -0.2565
  S  S4239  1  0.979580  0.639930  0.478490  1.0  -0.2999
  S  S4240  1  0.138740  0.745210  0.268250  1.0  -0.22
  S  S4241  1  0.027890  0.717640  0.375000  1.0  -0.3244
  S  S4242  1  0.192730  0.772290  0.327620  1.0  -0.2711
  S  S4243  1  0.106900  0.669500  0.268380  1.0  -0.3576
  S  S4244  1  0.972100  0.706790  0.432870  1.0  -0.3629
  S  S4245  1  0.183700  0.649890  0.273710  1.0  -0.3683
  S  S4246  1  0.194880  0.800850  0.259820  1.0  -0.3762
  S  S4247  1  0.604010  0.178940  0.380300  1.0  0.1287
  S  S4248  1  0.662160  0.196550  0.326620  1.0  0.1504
  S  S4249  1  0.684290  0.144190  0.380700  1.0  0.1461
  S  S4250  1  0.664530  0.200200  0.437160  1.0  -0.2414
  S  S4251  1  0.545540  0.160570  0.433150  1.0  0.2113
  S  S4252  1  0.635610  0.251770  0.382510  1.0  -0.2774
  S  S4253  1  0.542390  0.158970  0.323580  1.0  -0.2319
  S  S4254  1  0.690130  0.140860  0.482790  1.0  -0.3426
  S  S4255  1  0.607030  0.170940  0.491660  1.0  -0.328
  S  S4256  1  0.578430  0.226460  0.435240  1.0  -0.3551
  S  S4257  1  0.747720  0.164670  0.426690  1.0  -0.3019
  S  S4258  1  0.717680  0.213620  0.373860  1.0  -0.3356
  S  S4259  1  0.527640  0.207630  0.494630  1.0  -0.3614
  S  S4260  1  0.723590  0.220240  0.276310  1.0  -0.2845
  S  S4261  1  0.590020  0.229370  0.325420  1.0  -0.289
  S  S4262  1  0.746410  0.164050  0.330510  1.0  -0.2915
  S  S4263  1  0.757760  0.107290  0.386320  1.0  -0.2565
  S  S4264  1  0.479580  0.139930  0.478490  1.0  -0.2999
  S  S4265  1  0.638740  0.245210  0.268250  1.0  -0.22
  S  S4266  1  0.527890  0.217640  0.375000  1.0  -0.3244
  S  S4267  1  0.692730  0.272290  0.327620  1.0  -0.2711
  S  S4268  1  0.606900  0.169500  0.268380  1.0  -0.3576
  S  S4269  1  0.472100  0.206790  0.432870  1.0  -0.3629
  S  S4270  1  0.683700  0.149890  0.273710  1.0  -0.3683
  S  S4271  1  0.694880  0.300850  0.259820  1.0  -0.3762
  S  S4272  1  0.604010  0.678940  0.880300  1.0  0.1287
  S  S4273  1  0.662160  0.696550  0.826620  1.0  0.1504
  S  S4274  1  0.684290  0.644190  0.880700  1.0  0.1461
  S  S4275  1  0.664530  0.700200  0.937160  1.0  -0.2414
  S  S4276  1  0.545540  0.660570  0.933150  1.0  0.2113
  S  S4277  1  0.635610  0.751770  0.882510  1.0  -0.2774
  S  S4278  1  0.542390  0.658970  0.823580  1.0  -0.2319
  S  S4279  1  0.690130  0.640860  0.982790  1.0  -0.3426
  S  S4280  1  0.607030  0.670940  0.991660  1.0  -0.3281
  S  S4281  1  0.578430  0.726460  0.935240  1.0  -0.3551
  S  S4282  1  0.747720  0.664670  0.926690  1.0  -0.3019
  S  S4283  1  0.717680  0.713620  0.873860  1.0  -0.3356
  S  S4284  1  0.527640  0.707630  0.994630  1.0  -0.3614
  S  S4285  1  0.723590  0.720240  0.776310  1.0  -0.2845
  S  S4286  1  0.590020  0.729370  0.825420  1.0  -0.289
  S  S4287  1  0.746410  0.664050  0.830510  1.0  -0.2915
  S  S4288  1  0.757760  0.607290  0.886320  1.0  -0.2565
  S  S4289  1  0.479580  0.639930  0.978490  1.0  -0.2999
  S  S4290  1  0.638740  0.745210  0.768250  1.0  -0.22
  S  S4291  1  0.527890  0.717640  0.875000  1.0  -0.3244
  S  S4292  1  0.692730  0.772290  0.827620  1.0  -0.2711
  S  S4293  1  0.606900  0.669500  0.768380  1.0  -0.3576
  S  S4294  1  0.472100  0.706790  0.932870  1.0  -0.3629
  S  S4295  1  0.683700  0.649890  0.773710  1.0  -0.3683
  S  S4296  1  0.694880  0.800850  0.759820  1.0  -0.3762
  S  S4297  1  0.895990  0.428940  0.130300  1.0  0.1287
  S  S4298  1  0.837840  0.446550  0.076620  1.0  0.1503
  S  S4299  1  0.815710  0.394190  0.130700  1.0  0.1484
  S  S4300  1  0.835470  0.450200  0.187160  1.0  -0.2419
  S  S4301  1  0.954460  0.410570  0.183150  1.0  0.2128
  S  S4302  1  0.864390  0.501770  0.132510  1.0  -0.2764
  S  S4303  1  0.957610  0.408970  0.073580  1.0  -0.2323
  S  S4304  1  0.809870  0.390860  0.232790  1.0  -0.3422
  S  S4305  1  0.892970  0.420940  0.241660  1.0  -0.3252
  S  S4306  1  0.921570  0.476460  0.185240  1.0  -0.3556
  S  S4307  1  0.752280  0.414670  0.176690  1.0  -0.3047
  S  S4308  1  0.782320  0.463620  0.123860  1.0  -0.337
  S  S4309  1  0.972360  0.457630  0.244630  1.0  -0.3609
  S  S4310  1  0.776410  0.470240  0.026310  1.0  -0.2829
  S  S4311  1  0.909980  0.479370  0.075420  1.0  -0.2909
  S  S4312  1  0.753590  0.414050  0.080510  1.0  -0.2908
  S  S4313  1  0.742240  0.357290  0.136320  1.0  -0.256
  S  S4314  1  0.020420  0.389930  0.228490  1.0  -0.3021
  S  S4315  1  0.861260  0.495210  0.018250  1.0  -0.2197
  S  S4316  1  0.972110  0.467640  0.125000  1.0  -0.3249
  S  S4317  1  0.807270  0.522290  0.077620  1.0  -0.2717
  S  S4318  1  0.893100  0.419500  0.018380  1.0  -0.357
  S  S4319  1  0.027900  0.456790  0.182870  1.0  -0.3624
  S  S4320  1  0.816300  0.399890  0.023710  1.0  -0.3683
  S  S4321  1  0.805120  0.550850  0.009820  1.0  -0.3765
  S  S4322  1  0.895990  0.928940  0.630300  1.0  0.1287
  S  S4323  1  0.837840  0.946550  0.576620  1.0  0.1503
  S  S4324  1  0.815710  0.894190  0.630700  1.0  0.1484
  S  S4325  1  0.835470  0.950200  0.687160  1.0  -0.2419
  S  S4326  1  0.954460  0.910570  0.683150  1.0  0.2128
  S  S4327  1  0.864390  0.001770  0.632510  1.0  -0.2764
  S  S4328  1  0.957610  0.908970  0.573580  1.0  -0.2323
  S  S4329  1  0.809870  0.890860  0.732790  1.0  -0.3422
  S  S4330  1  0.892970  0.920940  0.741660  1.0  -0.3252
  S  S4331  1  0.921570  0.976460  0.685240  1.0  -0.3556
  S  S4332  1  0.752280  0.914670  0.676690  1.0  -0.3047
  S  S4333  1  0.782320  0.963620  0.623860  1.0  -0.3366
  S  S4334  1  0.972360  0.957630  0.744630  1.0  -0.3609
  S  S4335  1  0.776410  0.970240  0.526310  1.0  -0.2829
  S  S4336  1  0.909980  0.979370  0.575420  1.0  -0.2909
  S  S4337  1  0.753590  0.914050  0.580510  1.0  -0.2908
  S  S4338  1  0.742240  0.857290  0.636320  1.0  -0.256
  S  S4339  1  0.020420  0.889930  0.728490  1.0  -0.3021
  S  S4340  1  0.861260  0.995210  0.518250  1.0  -0.2197
  S  S4341  1  0.972110  0.967640  0.625000  1.0  -0.3249
  S  S4342  1  0.807270  0.022290  0.577620  1.0  -0.2717
  S  S4343  1  0.893100  0.919500  0.518380  1.0  -0.3571
  S  S4344  1  0.027900  0.956790  0.682870  1.0  -0.3624
  S  S4345  1  0.816300  0.899890  0.523710  1.0  -0.3683
  S  S4346  1  0.805120  0.050850  0.509820  1.0  -0.3765
  S  S4347  1  0.395990  0.428940  0.630300  1.0  0.1287
  S  S4348  1  0.337840  0.446550  0.576620  1.0  0.1503
  S  S4349  1  0.315710  0.394190  0.630700  1.0  0.1484
  S  S4350  1  0.335470  0.450200  0.687160  1.0  -0.2419
  S  S4351  1  0.454460  0.410570  0.683150  1.0  0.2128
  S  S4352  1  0.364390  0.501770  0.632510  1.0  -0.2764
  S  S4353  1  0.457610  0.408970  0.573580  1.0  -0.2323
  S  S4354  1  0.309870  0.390860  0.732790  1.0  -0.3422
  S  S4355  1  0.392970  0.420940  0.741660  1.0  -0.3252
  S  S4356  1  0.421570  0.476460  0.685240  1.0  -0.3556
  S  S4357  1  0.252280  0.414670  0.676690  1.0  -0.3047
  S  S4358  1  0.282320  0.463620  0.623860  1.0  -0.337
  S  S4359  1  0.472360  0.457630  0.744630  1.0  -0.3609
  S  S4360  1  0.276410  0.470240  0.526310  1.0  -0.2829
  S  S4361  1  0.409980  0.479370  0.575420  1.0  -0.2909
  S  S4362  1  0.253590  0.414050  0.580510  1.0  -0.2908
  S  S4363  1  0.242240  0.357290  0.636320  1.0  -0.256
  S  S4364  1  0.520420  0.389930  0.728490  1.0  -0.3021
  S  S4365  1  0.361260  0.495210  0.518250  1.0  -0.2197
  S  S4366  1  0.472110  0.467640  0.625000  1.0  -0.3249
  S  S4367  1  0.307270  0.522290  0.577620  1.0  -0.2717
  S  S4368  1  0.393100  0.419500  0.518380  1.0  -0.3571
  S  S4369  1  0.527900  0.456790  0.682870  1.0  -0.3624
  S  S4370  1  0.316300  0.399890  0.523710  1.0  -0.3683
  S  S4371  1  0.305120  0.550850  0.509820  1.0  -0.3765
  S  S4372  1  0.395990  0.928940  0.130300  1.0  0.1287
  S  S4373  1  0.337840  0.946550  0.076620  1.0  0.1503
  S  S4374  1  0.315710  0.894190  0.130700  1.0  0.1484
  S  S4375  1  0.335470  0.950200  0.187160  1.0  -0.2419
  S  S4376  1  0.454460  0.910570  0.183150  1.0  0.2128
  S  S4377  1  0.364390  0.001770  0.132510  1.0  -0.2764
  S  S4378  1  0.457610  0.908970  0.073580  1.0  -0.2323
  S  S4379  1  0.309870  0.890860  0.232790  1.0  -0.3422
  S  S4380  1  0.392970  0.920940  0.241660  1.0  -0.3252
  S  S4381  1  0.421570  0.976460  0.185240  1.0  -0.3556
  S  S4382  1  0.252280  0.914670  0.176690  1.0  -0.3047
  S  S4383  1  0.282320  0.963620  0.123860  1.0  -0.3366
  S  S4384  1  0.472360  0.957630  0.244630  1.0  -0.3609
  S  S4385  1  0.276410  0.970240  0.026310  1.0  -0.2829
  S  S4386  1  0.409980  0.979370  0.075420  1.0  -0.2909
  S  S4387  1  0.253590  0.914050  0.080510  1.0  -0.2908
  S  S4388  1  0.242240  0.857290  0.136320  1.0  -0.256
  S  S4389  1  0.520420  0.889930  0.228490  1.0  -0.3021
  S  S4390  1  0.361260  0.995210  0.018250  1.0  -0.2197
  S  S4391  1  0.472110  0.967640  0.125000  1.0  -0.3249
  S  S4392  1  0.307270  0.022290  0.077620  1.0  -0.2717
  S  S4393  1  0.393100  0.919500  0.018380  1.0  -0.357
  S  S4394  1  0.527900  0.956790  0.182870  1.0  -0.3624
  S  S4395  1  0.316300  0.899890  0.023710  1.0  -0.3683
  S  S4396  1  0.305120  0.050850  0.009820  1.0  -0.3765
  S  S4397  1  0.354010  0.821060  0.130300  1.0  0.1287
  S  S4398  1  0.412160  0.803450  0.076620  1.0  0.1501
  S  S4399  1  0.434290  0.855810  0.130700  1.0  0.1461
  S  S4400  1  0.414530  0.799800  0.187160  1.0  -0.2419
  S  S4401  1  0.295540  0.839430  0.183150  1.0  0.2114
  S  S4402  1  0.385610  0.748230  0.132510  1.0  -0.2766
  S  S4403  1  0.292390  0.841030  0.073580  1.0  -0.232
  S  S4404  1  0.440130  0.859140  0.232790  1.0  -0.3436
  S  S4405  1  0.357030  0.829060  0.241660  1.0  -0.3251
  S  S4406  1  0.328430  0.773540  0.185240  1.0  -0.3544
  S  S4407  1  0.497720  0.835330  0.176690  1.0  -0.3004
  S  S4408  1  0.467680  0.786380  0.123860  1.0  -0.3347
  S  S4409  1  0.277640  0.792370  0.244630  1.0  -0.3628
  S  S4410  1  0.473590  0.779760  0.026310  1.0  -0.2843
  S  S4411  1  0.340020  0.770630  0.075420  1.0  -0.2887
  S  S4412  1  0.496410  0.835950  0.080510  1.0  -0.2916
  S  S4413  1  0.507760  0.892710  0.136320  1.0  -0.2564
  S  S4414  1  0.229580  0.860070  0.228490  1.0  -0.2997
  S  S4415  1  0.388740  0.754790  0.018250  1.0  -0.2198
  S  S4416  1  0.277890  0.782360  0.125000  1.0  -0.3238
  S  S4417  1  0.442730  0.727710  0.077620  1.0  -0.2684
  S  S4418  1  0.356900  0.830500  0.018380  1.0  -0.3565
  S  S4419  1  0.222100  0.793210  0.182870  1.0  -0.3638
  S  S4420  1  0.433700  0.850110  0.023710  1.0  -0.3692
  S  S4421  1  0.444880  0.699150  0.009820  1.0  -0.3757
  S  S4422  1  0.354010  0.321060  0.630300  1.0  0.1287
  S  S4423  1  0.412160  0.303450  0.576620  1.0  0.1501
  S  S4424  1  0.434290  0.355810  0.630700  1.0  0.1461
  S  S4425  1  0.414530  0.299800  0.687160  1.0  -0.2419
  S  S4426  1  0.295540  0.339430  0.683150  1.0  0.2114
  S  S4427  1  0.385610  0.248230  0.632510  1.0  -0.2766
  S  S4428  1  0.292390  0.341030  0.573580  1.0  -0.232
  S  S4429  1  0.440130  0.359140  0.732790  1.0  -0.3436
  S  S4430  1  0.357030  0.329060  0.741660  1.0  -0.3251
  S  S4431  1  0.328430  0.273540  0.685240  1.0  -0.3544
  S  S4432  1  0.497720  0.335330  0.676690  1.0  -0.3004
  S  S4433  1  0.467680  0.286380  0.623860  1.0  -0.3347
  S  S4434  1  0.277640  0.292370  0.744630  1.0  -0.3628
  S  S4435  1  0.473590  0.279760  0.526310  1.0  -0.2843
  S  S4436  1  0.340020  0.270630  0.575420  1.0  -0.2887
  S  S4437  1  0.496410  0.335950  0.580510  1.0  -0.2916
  S  S4438  1  0.507760  0.392710  0.636320  1.0  -0.2564
  S  S4439  1  0.229580  0.360070  0.728490  1.0  -0.2997
  S  S4440  1  0.388740  0.254790  0.518250  1.0  -0.2198
  S  S4441  1  0.277890  0.282360  0.625000  1.0  -0.3238
  S  S4442  1  0.442730  0.227710  0.577620  1.0  -0.2684
  S  S4443  1  0.356900  0.330500  0.518380  1.0  -0.3567
  S  S4444  1  0.222100  0.293210  0.682870  1.0  -0.3638
  S  S4445  1  0.433700  0.350110  0.523710  1.0  -0.3692
  S  S4446  1  0.444880  0.199150  0.509820  1.0  -0.3757
  S  S4447  1  0.854010  0.821060  0.630300  1.0  0.1287
  S  S4448  1  0.912160  0.803450  0.576620  1.0  0.1501
  S  S4449  1  0.934290  0.855810  0.630700  1.0  0.1461
  S  S4450  1  0.914530  0.799800  0.687160  1.0  -0.2419
  S  S4451  1  0.795540  0.839430  0.683150  1.0  0.2114
  S  S4452  1  0.885610  0.748230  0.632510  1.0  -0.2766
  S  S4453  1  0.792390  0.841030  0.573580  1.0  -0.232
  S  S4454  1  0.940130  0.859140  0.732790  1.0  -0.3436
  S  S4455  1  0.857030  0.829060  0.741660  1.0  -0.3251
  S  S4456  1  0.828430  0.773540  0.685240  1.0  -0.3544
  S  S4457  1  0.997720  0.835330  0.676690  1.0  -0.3004
  S  S4458  1  0.967680  0.786380  0.623860  1.0  -0.3347
  S  S4459  1  0.777640  0.792370  0.744630  1.0  -0.3628
  S  S4460  1  0.973590  0.779760  0.526310  1.0  -0.2843
  S  S4461  1  0.840020  0.770630  0.575420  1.0  -0.2887
  S  S4462  1  0.996410  0.835950  0.580510  1.0  -0.2916
  S  S4463  1  0.007760  0.892710  0.636320  1.0  -0.2564
  S  S4464  1  0.729580  0.860070  0.728490  1.0  -0.2997
  S  S4465  1  0.888740  0.754790  0.518250  1.0  -0.2198
  S  S4466  1  0.777890  0.782360  0.625000  1.0  -0.3238
  S  S4467  1  0.942730  0.727710  0.577620  1.0  -0.2684
  S  S4468  1  0.856900  0.830500  0.518380  1.0  -0.3567
  S  S4469  1  0.722100  0.793210  0.682870  1.0  -0.3638
  S  S4470  1  0.933700  0.850110  0.523710  1.0  -0.3692
  S  S4471  1  0.944880  0.699150  0.509820  1.0  -0.3757
  S  S4472  1  0.854010  0.321060  0.130300  1.0  0.1287
  S  S4473  1  0.912160  0.303450  0.076620  1.0  0.1501
  S  S4474  1  0.934290  0.355810  0.130700  1.0  0.1461
  S  S4475  1  0.914530  0.299800  0.187160  1.0  -0.2419
  S  S4476  1  0.795540  0.339430  0.183150  1.0  0.2114
  S  S4477  1  0.885610  0.248230  0.132510  1.0  -0.2766
  S  S4478  1  0.792390  0.341030  0.073580  1.0  -0.232
  S  S4479  1  0.940130  0.359140  0.232790  1.0  -0.3436
  S  S4480  1  0.857030  0.329060  0.241660  1.0  -0.3251
  S  S4481  1  0.828430  0.273540  0.185240  1.0  -0.3544
  S  S4482  1  0.997720  0.335330  0.176690  1.0  -0.3004
  S  S4483  1  0.967680  0.286380  0.123860  1.0  -0.3347
  S  S4484  1  0.777640  0.292370  0.244630  1.0  -0.3628
  S  S4485  1  0.973590  0.279760  0.026310  1.0  -0.2843
  S  S4486  1  0.840020  0.270630  0.075420  1.0  -0.2887
  S  S4487  1  0.996410  0.335950  0.080510  1.0  -0.2916
  S  S4488  1  0.007760  0.392710  0.136320  1.0  -0.2564
  S  S4489  1  0.729580  0.360070  0.228490  1.0  -0.2997
  S  S4490  1  0.888740  0.254790  0.018250  1.0  -0.2198
  S  S4491  1  0.777890  0.282360  0.125000  1.0  -0.3238
  S  S4492  1  0.942730  0.227710  0.077620  1.0  -0.2684
  S  S4493  1  0.856900  0.330500  0.018380  1.0  -0.3565
  S  S4494  1  0.722100  0.293210  0.182870  1.0  -0.3638
  S  S4495  1  0.933700  0.350110  0.023710  1.0  -0.3692
  S  S4496  1  0.944880  0.199150  0.009820  1.0  -0.3757
  S  S4497  1  0.625000  0.625000  0.935060  1.0  0.1439
  S  S4498  1  0.625000  0.625000  0.825620  1.0  0.1721
  S  S4499  1  0.625000  0.125000  0.435060  1.0  0.1439
  S  S4500  1  0.625000  0.125000  0.325620  1.0  0.1721
  S  S4501  1  0.125000  0.125000  0.935060  1.0  0.1439
  S  S4502  1  0.125000  0.125000  0.825620  1.0  0.1721
  S  S4503  1  0.125000  0.625000  0.435060  1.0  0.1439
  S  S4504  1  0.125000  0.625000  0.325620  1.0  0.1721
  S  S4505  1  0.875000  0.375000  0.185060  1.0  0.1439
  S  S4506  1  0.875000  0.375000  0.075620  1.0  0.1721
  S  S4507  1  0.875000  0.875000  0.685060  1.0  0.1439
  S  S4508  1  0.875000  0.875000  0.575620  1.0  0.1721
  S  S4509  1  0.375000  0.875000  0.185060  1.0  0.1439
  S  S4510  1  0.375000  0.875000  0.075620  1.0  0.1721
  S  S4511  1  0.375000  0.375000  0.685060  1.0  0.1439
  S  S4512  1  0.375000  0.375000  0.575620  1.0  0.1721
  S  S4513  1  0.104010  0.571060  0.869700  1.0  0.1287
  S  S4514  1  0.162160  0.553450  0.923380  1.0  0.1501
  S  S4515  1  0.184290  0.605810  0.869300  1.0  0.1461
  S  S4516  1  0.164530  0.549800  0.812840  1.0  -0.2415
  S  S4517  1  0.045540  0.589430  0.816850  1.0  0.2116
  S  S4518  1  0.135610  0.498230  0.867490  1.0  -0.277
  S  S4519  1  0.042390  0.591030  0.926420  1.0  -0.232
  S  S4520  1  0.190130  0.609140  0.767210  1.0  -0.3447
  S  S4521  1  0.107030  0.579060  0.758340  1.0  -0.3287
  S  S4522  1  0.078430  0.523540  0.814760  1.0  -0.3548
  S  S4523  1  0.247720  0.585330  0.823310  1.0  -0.3041
  S  S4524  1  0.217680  0.536380  0.876140  1.0  -0.3362
  S  S4525  1  0.027640  0.542370  0.755370  1.0  -0.3642
  S  S4526  1  0.223590  0.529760  0.973690  1.0  -0.2848
  S  S4527  1  0.090020  0.520630  0.924580  1.0  -0.2895
  S  S4528  1  0.246410  0.585950  0.919490  1.0  -0.2922
  S  S4529  1  0.257760  0.642710  0.863680  1.0  -0.2569
  S  S4530  1  0.979580  0.610070  0.771510  1.0  -0.3003
  S  S4531  1  0.138740  0.504790  0.981750  1.0  -0.2186
  S  S4532  1  0.027890  0.532360  0.875000  1.0  -0.3224
  S  S4533  1  0.192730  0.477710  0.922380  1.0  -0.2695
  S  S4534  1  0.106900  0.580500  0.981620  1.0  -0.3566
  S  S4535  1  0.972100  0.543210  0.817130  1.0  -0.3629
  S  S4536  1  0.183700  0.600110  0.976290  1.0  -0.3686
  S  S4537  1  0.194880  0.449150  0.990180  1.0  -0.375
  S  S4538  1  0.104010  0.071060  0.369700  1.0  0.1287
  S  S4539  1  0.162160  0.053450  0.423380  1.0  0.1501
  S  S4540  1  0.184290  0.105810  0.369300  1.0  0.1461
  S  S4541  1  0.164530  0.049800  0.312840  1.0  -0.2415
  S  S4542  1  0.045540  0.089430  0.316850  1.0  0.2116
  S  S4543  1  0.135610  0.998230  0.367490  1.0  -0.277
  S  S4544  1  0.042390  0.091030  0.426420  1.0  -0.232
  S  S4545  1  0.190130  0.109140  0.267210  1.0  -0.3447
  S  S4546  1  0.107030  0.079060  0.258340  1.0  -0.3287
  S  S4547  1  0.078430  0.023540  0.314760  1.0  -0.3548
  S  S4548  1  0.247720  0.085330  0.323310  1.0  -0.3041
  S  S4549  1  0.217680  0.036380  0.376140  1.0  -0.3356
  S  S4550  1  0.027640  0.042370  0.255370  1.0  -0.3642
  S  S4551  1  0.223590  0.029760  0.473690  1.0  -0.2848
  S  S4552  1  0.090020  0.020630  0.424580  1.0  -0.2895
  S  S4553  1  0.246410  0.085950  0.419490  1.0  -0.2922
  S  S4554  1  0.257760  0.142710  0.363680  1.0  -0.2569
  S  S4555  1  0.979580  0.110070  0.271510  1.0  -0.3003
  S  S4556  1  0.138740  0.004790  0.481750  1.0  -0.2186
  S  S4557  1  0.027890  0.032360  0.375000  1.0  -0.3224
  S  S4558  1  0.192730  0.977710  0.422380  1.0  -0.2695
  S  S4559  1  0.106900  0.080500  0.481620  1.0  -0.3566
  S  S4560  1  0.972100  0.043210  0.317130  1.0  -0.3629
  S  S4561  1  0.183700  0.100110  0.476290  1.0  -0.3686
  S  S4562  1  0.194880  0.949150  0.490180  1.0  -0.375
  S  S4563  1  0.604010  0.571060  0.369700  1.0  0.1287
  S  S4564  1  0.662160  0.553450  0.423380  1.0  0.1501
  S  S4565  1  0.684290  0.605810  0.369300  1.0  0.1461
  S  S4566  1  0.664530  0.549800  0.312840  1.0  -0.2415
  S  S4567  1  0.545540  0.589430  0.316850  1.0  0.2116
  S  S4568  1  0.635610  0.498230  0.367490  1.0  -0.277
  S  S4569  1  0.542390  0.591030  0.426420  1.0  -0.232
  S  S4570  1  0.690130  0.609140  0.267210  1.0  -0.3447
  S  S4571  1  0.607030  0.579060  0.258340  1.0  -0.3287
  S  S4572  1  0.578430  0.523540  0.314760  1.0  -0.3548
  S  S4573  1  0.747720  0.585330  0.323310  1.0  -0.3041
  S  S4574  1  0.717680  0.536380  0.376140  1.0  -0.3362
  S  S4575  1  0.527640  0.542370  0.255370  1.0  -0.3642
  S  S4576  1  0.723590  0.529760  0.473690  1.0  -0.2848
  S  S4577  1  0.590020  0.520630  0.424580  1.0  -0.2895
  S  S4578  1  0.746410  0.585950  0.419490  1.0  -0.2922
  S  S4579  1  0.757760  0.642710  0.363680  1.0  -0.2569
  S  S4580  1  0.479580  0.610070  0.271510  1.0  -0.3003
  S  S4581  1  0.638740  0.504790  0.481750  1.0  -0.2186
  S  S4582  1  0.527890  0.532360  0.375000  1.0  -0.3224
  S  S4583  1  0.692730  0.477710  0.422380  1.0  -0.2695
  S  S4584  1  0.606900  0.580500  0.481620  1.0  -0.3566
  S  S4585  1  0.472100  0.543210  0.317130  1.0  -0.3629
  S  S4586  1  0.683700  0.600110  0.476290  1.0  -0.3686
  S  S4587  1  0.694880  0.449150  0.490180  1.0  -0.375
  S  S4588  1  0.604010  0.071060  0.869700  1.0  0.1287
  S  S4589  1  0.662160  0.053450  0.923380  1.0  0.1501
  S  S4590  1  0.684290  0.105810  0.869300  1.0  0.1461
  S  S4591  1  0.664530  0.049800  0.812840  1.0  -0.2415
  S  S4592  1  0.545540  0.089430  0.816850  1.0  0.2116
  S  S4593  1  0.635610  0.998230  0.867490  1.0  -0.277
  S  S4594  1  0.542390  0.091030  0.926420  1.0  -0.232
  S  S4595  1  0.690130  0.109140  0.767210  1.0  -0.3447
  S  S4596  1  0.607030  0.079060  0.758340  1.0  -0.3287
  S  S4597  1  0.578430  0.023540  0.814760  1.0  -0.3548
  S  S4598  1  0.747720  0.085330  0.823310  1.0  -0.3041
  S  S4599  1  0.717680  0.036380  0.876140  1.0  -0.3356
  S  S4600  1  0.527640  0.042370  0.755370  1.0  -0.3642
  S  S4601  1  0.723590  0.029760  0.973690  1.0  -0.2848
  S  S4602  1  0.590020  0.020630  0.924580  1.0  -0.2895
  S  S4603  1  0.746410  0.085950  0.919490  1.0  -0.2922
  S  S4604  1  0.757760  0.142710  0.863680  1.0  -0.2569
  S  S4605  1  0.479580  0.110070  0.771510  1.0  -0.3003
  S  S4606  1  0.638740  0.004790  0.981750  1.0  -0.2186
  S  S4607  1  0.527890  0.032360  0.875000  1.0  -0.3224
  S  S4608  1  0.692730  0.977710  0.922380  1.0  -0.2695
  S  S4609  1  0.606900  0.080500  0.981620  1.0  -0.3566
  S  S4610  1  0.472100  0.043210  0.817130  1.0  -0.3629
  S  S4611  1  0.683700  0.100110  0.976290  1.0  -0.3686
  S  S4612  1  0.694880  0.949150  0.990180  1.0  -0.375
  S  S4613  1  0.645990  0.178940  0.869700  1.0  0.1287
  S  S4614  1  0.587840  0.196550  0.923380  1.0  0.1501
  S  S4615  1  0.565710  0.144190  0.869300  1.0  0.1484
  S  S4616  1  0.585470  0.200200  0.812840  1.0  -0.2416
  S  S4617  1  0.704460  0.160570  0.816850  1.0  0.2131
  S  S4618  1  0.614390  0.251770  0.867490  1.0  -0.277
  S  S4619  1  0.707610  0.158970  0.926420  1.0  -0.2323
  S  S4620  1  0.559870  0.140860  0.767210  1.0  -0.3429
  S  S4621  1  0.642970  0.170940  0.758340  1.0  -0.3263
  S  S4622  1  0.671570  0.226460  0.814760  1.0  -0.3558
  S  S4623  1  0.502280  0.164670  0.823310  1.0  -0.3056
  S  S4624  1  0.532320  0.213620  0.876140  1.0  -0.3377
  S  S4625  1  0.722360  0.207630  0.755370  1.0  -0.3631
  S  S4626  1  0.526410  0.220240  0.973690  1.0  -0.2827
  S  S4627  1  0.659980  0.229370  0.924580  1.0  -0.291
  S  S4628  1  0.503590  0.164050  0.919490  1.0  -0.2915
  S  S4629  1  0.492240  0.107290  0.863680  1.0  -0.2563
  S  S4630  1  0.770420  0.139930  0.771510  1.0  -0.3007
  S  S4631  1  0.611260  0.245210  0.981750  1.0  -0.2182
  S  S4632  1  0.722110  0.217640  0.875000  1.0  -0.3228
  S  S4633  1  0.557270  0.272290  0.922380  1.0  -0.2726
  S  S4634  1  0.643100  0.169500  0.981620  1.0  -0.3569
  S  S4635  1  0.777900  0.206790  0.817130  1.0  -0.3619
  S  S4636  1  0.566300  0.149890  0.976290  1.0  -0.368
  S  S4637  1  0.555120  0.300850  0.990180  1.0  -0.3755
  S  S4638  1  0.645990  0.678940  0.369700  1.0  0.1287
  S  S4639  1  0.587840  0.696550  0.423380  1.0  0.1501
  S  S4640  1  0.565710  0.644190  0.369300  1.0  0.1484
  S  S4641  1  0.585470  0.700200  0.312840  1.0  -0.2416
  S  S4642  1  0.704460  0.660570  0.316850  1.0  0.2131
  S  S4643  1  0.614390  0.751770  0.367490  1.0  -0.277
  S  S4644  1  0.707610  0.658970  0.426420  1.0  -0.2323
  S  S4645  1  0.559870  0.640860  0.267210  1.0  -0.3429
  S  S4646  1  0.642970  0.670940  0.258340  1.0  -0.3263
  S  S4647  1  0.671570  0.726460  0.314760  1.0  -0.3558
  S  S4648  1  0.502280  0.664670  0.323310  1.0  -0.3056
  S  S4649  1  0.532320  0.713620  0.376140  1.0  -0.3377
  S  S4650  1  0.722360  0.707630  0.255370  1.0  -0.3631
  S  S4651  1  0.526410  0.720240  0.473690  1.0  -0.2827
  S  S4652  1  0.659980  0.729370  0.424580  1.0  -0.291
  S  S4653  1  0.503590  0.664050  0.419490  1.0  -0.2915
  S  S4654  1  0.492240  0.607290  0.363680  1.0  -0.2563
  S  S4655  1  0.770420  0.639930  0.271510  1.0  -0.3007
  S  S4656  1  0.611260  0.745210  0.481750  1.0  -0.2182
  S  S4657  1  0.722110  0.717640  0.375000  1.0  -0.3228
  S  S4658  1  0.557270  0.772290  0.422380  1.0  -0.2726
  S  S4659  1  0.643100  0.669500  0.481620  1.0  -0.3569
  S  S4660  1  0.777900  0.706790  0.317130  1.0  -0.3619
  S  S4661  1  0.566300  0.649890  0.476290  1.0  -0.368
  S  S4662  1  0.555120  0.800850  0.490180  1.0  -0.3755
  S  S4663  1  0.145990  0.178940  0.369700  1.0  0.1287
  S  S4664  1  0.087840  0.196550  0.423380  1.0  0.1501
  S  S4665  1  0.065710  0.144190  0.369300  1.0  0.1484
  S  S4666  1  0.085470  0.200200  0.312840  1.0  -0.2416
  S  S4667  1  0.204460  0.160570  0.316850  1.0  0.2131
  S  S4668  1  0.114390  0.251770  0.367490  1.0  -0.277
  S  S4669  1  0.207610  0.158970  0.426420  1.0  -0.2323
  S  S4670  1  0.059870  0.140860  0.267210  1.0  -0.3429
  S  S4671  1  0.142970  0.170940  0.258340  1.0  -0.3263
  S  S4672  1  0.171570  0.226460  0.314760  1.0  -0.3558
  S  S4673  1  0.002280  0.164670  0.323310  1.0  -0.3056
  S  S4674  1  0.032320  0.213620  0.376140  1.0  -0.3397
  S  S4675  1  0.222360  0.207630  0.255370  1.0  -0.3631
  S  S4676  1  0.026410  0.220240  0.473690  1.0  -0.2827
  S  S4677  1  0.159980  0.229370  0.424580  1.0  -0.291
  S  S4678  1  0.003590  0.164050  0.419490  1.0  -0.2915
  S  S4679  1  0.992240  0.107290  0.363680  1.0  -0.2563
  S  S4680  1  0.270420  0.139930  0.271510  1.0  -0.3007
  S  S4681  1  0.111260  0.245210  0.481750  1.0  -0.2182
  S  S4682  1  0.222110  0.217640  0.375000  1.0  -0.3228
  S  S4683  1  0.057270  0.272290  0.422380  1.0  -0.2726
  S  S4684  1  0.143100  0.169500  0.481620  1.0  -0.3569
  S  S4685  1  0.277900  0.206790  0.317130  1.0  -0.3619
  S  S4686  1  0.066300  0.149890  0.476290  1.0  -0.368
  S  S4687  1  0.055120  0.300850  0.490180  1.0  -0.3755
  S  S4688  1  0.145990  0.678940  0.869700  1.0  0.1287
  S  S4689  1  0.087840  0.696550  0.923380  1.0  0.1501
  S  S4690  1  0.065710  0.644190  0.869300  1.0  0.1484
  S  S4691  1  0.085470  0.700200  0.812840  1.0  -0.2416
  S  S4692  1  0.204460  0.660570  0.816850  1.0  0.2131
  S  S4693  1  0.114390  0.751770  0.867490  1.0  -0.277
  S  S4694  1  0.207610  0.658970  0.926420  1.0  -0.2323
  S  S4695  1  0.059870  0.640860  0.767210  1.0  -0.3429
  S  S4696  1  0.142970  0.670940  0.758340  1.0  -0.3263
  S  S4697  1  0.171570  0.726460  0.814760  1.0  -0.3558
  S  S4698  1  0.002280  0.664670  0.823310  1.0  -0.3056
  S  S4699  1  0.032320  0.713620  0.876140  1.0  -0.3397
  S  S4700  1  0.222360  0.707630  0.755370  1.0  -0.3631
  S  S4701  1  0.026410  0.720240  0.973690  1.0  -0.2827
  S  S4702  1  0.159980  0.729370  0.924580  1.0  -0.291
  S  S4703  1  0.003590  0.664050  0.919490  1.0  -0.2915
  S  S4704  1  0.992240  0.607290  0.863680  1.0  -0.2563
  S  S4705  1  0.270420  0.639930  0.771510  1.0  -0.3007
  S  S4706  1  0.111260  0.745210  0.981750  1.0  -0.2182
  S  S4707  1  0.222110  0.717640  0.875000  1.0  -0.3228
  S  S4708  1  0.057270  0.772290  0.922380  1.0  -0.2726
  S  S4709  1  0.143100  0.669500  0.981620  1.0  -0.3569
  S  S4710  1  0.277900  0.706790  0.817130  1.0  -0.3619
  S  S4711  1  0.066300  0.649890  0.976290  1.0  -0.368
  S  S4712  1  0.055120  0.800850  0.990180  1.0  -0.3755
  S  S4713  1  0.354010  0.428940  0.119700  1.0  0.1287
  S  S4714  1  0.412160  0.446550  0.173380  1.0  0.1502
  S  S4715  1  0.434290  0.394190  0.119300  1.0  0.1461
  S  S4716  1  0.414530  0.450200  0.062840  1.0  -0.241
  S  S4717  1  0.295540  0.410570  0.066850  1.0  0.2115
  S  S4718  1  0.385610  0.501770  0.117490  1.0  -0.2777
  S  S4719  1  0.292390  0.408970  0.176420  1.0  -0.2318
  S  S4720  1  0.440130  0.390860  0.017210  1.0  -0.3436
  S  S4721  1  0.357030  0.420940  0.008340  1.0  -0.3291
  S  S4722  1  0.328430  0.476460  0.064760  1.0  -0.3558
  S  S4723  1  0.497720  0.414670  0.073310  1.0  -0.3045
  S  S4724  1  0.467680  0.463620  0.126140  1.0  -0.3366
  S  S4725  1  0.277640  0.457630  0.005370  1.0  -0.3635
  S  S4726  1  0.473590  0.470240  0.223690  1.0  -0.2848
  S  S4727  1  0.340020  0.479370  0.174580  1.0  -0.2896
  S  S4728  1  0.496410  0.414050  0.169490  1.0  -0.292
  S  S4729  1  0.507760  0.357290  0.113680  1.0  -0.2569
  S  S4730  1  0.229580  0.389930  0.021510  1.0  -0.3004
  S  S4731  1  0.388740  0.495210  0.231750  1.0  -0.2185
  S  S4732  1  0.277890  0.467640  0.125000  1.0  -0.3228
  S  S4733  1  0.442730  0.522290  0.172380  1.0  -0.2731
  S  S4734  1  0.356900  0.419500  0.231620  1.0  -0.3575
  S  S4735  1  0.222100  0.456790  0.067130  1.0  -0.3623
  S  S4736  1  0.433700  0.399890  0.226290  1.0  -0.3677
  S  S4737  1  0.444880  0.550850  0.240180  1.0  -0.3756
  S  S4738  1  0.354010  0.928940  0.619700  1.0  0.1287
  S  S4739  1  0.412160  0.946550  0.673380  1.0  0.1502
  S  S4740  1  0.434290  0.894190  0.619300  1.0  0.1461
  S  S4741  1  0.414530  0.950200  0.562840  1.0  -0.241
  S  S4742  1  0.295540  0.910570  0.566850  1.0  0.2115
  S  S4743  1  0.385610  0.001770  0.617490  1.0  -0.2777
  S  S4744  1  0.292390  0.908970  0.676420  1.0  -0.2318
  S  S4745  1  0.440130  0.890860  0.517210  1.0  -0.3436
  S  S4746  1  0.357030  0.920940  0.508340  1.0  -0.3291
  S  S4747  1  0.328430  0.976460  0.564760  1.0  -0.3558
  S  S4748  1  0.497720  0.914670  0.573310  1.0  -0.3045
  S  S4749  1  0.467680  0.963620  0.626140  1.0  -0.3391
  S  S4750  1  0.277640  0.957630  0.505370  1.0  -0.3635
  S  S4751  1  0.473590  0.970240  0.723690  1.0  -0.2848
  S  S4752  1  0.340020  0.979370  0.674580  1.0  -0.2896
  S  S4753  1  0.496410  0.914050  0.669490  1.0  -0.292
  S  S4754  1  0.507760  0.857290  0.613680  1.0  -0.2569
  S  S4755  1  0.229580  0.889930  0.521510  1.0  -0.3004
  S  S4756  1  0.388740  0.995210  0.731750  1.0  -0.2185
  S  S4757  1  0.277890  0.967640  0.625000  1.0  -0.3228
  S  S4758  1  0.442730  0.022290  0.672380  1.0  -0.2731
  S  S4759  1  0.356900  0.919500  0.731620  1.0  -0.3575
  S  S4760  1  0.222100  0.956790  0.567130  1.0  -0.3623
  S  S4761  1  0.433700  0.899890  0.726290  1.0  -0.3677
  S  S4762  1  0.444880  0.050850  0.740180  1.0  -0.3756
  S  S4763  1  0.854010  0.428940  0.619700  1.0  0.1287
  S  S4764  1  0.912160  0.446550  0.673380  1.0  0.1502
  S  S4765  1  0.934290  0.394190  0.619300  1.0  0.1461
  S  S4766  1  0.914530  0.450200  0.562840  1.0  -0.241
  S  S4767  1  0.795540  0.410570  0.566850  1.0  0.2115
  S  S4768  1  0.885610  0.501770  0.617490  1.0  -0.2777
  S  S4769  1  0.792390  0.408970  0.676420  1.0  -0.2318
  S  S4770  1  0.940130  0.390860  0.517210  1.0  -0.3436
  S  S4771  1  0.857030  0.420940  0.508340  1.0  -0.3291
  S  S4772  1  0.828430  0.476460  0.564760  1.0  -0.3558
  S  S4773  1  0.997720  0.414670  0.573310  1.0  -0.3045
  S  S4774  1  0.967680  0.463620  0.626140  1.0  -0.3366
  S  S4775  1  0.777640  0.457630  0.505370  1.0  -0.3635
  S  S4776  1  0.973590  0.470240  0.723690  1.0  -0.2848
  S  S4777  1  0.840020  0.479370  0.674580  1.0  -0.2896
  S  S4778  1  0.996410  0.414050  0.669490  1.0  -0.292
  S  S4779  1  0.007760  0.357290  0.613680  1.0  -0.2569
  S  S4780  1  0.729580  0.389930  0.521510  1.0  -0.3004
  S  S4781  1  0.888740  0.495210  0.731750  1.0  -0.2185
  S  S4782  1  0.777890  0.467640  0.625000  1.0  -0.3228
  S  S4783  1  0.942730  0.522290  0.672380  1.0  -0.2731
  S  S4784  1  0.856900  0.419500  0.731620  1.0  -0.3575
  S  S4785  1  0.722100  0.456790  0.567130  1.0  -0.3623
  S  S4786  1  0.933700  0.399890  0.726290  1.0  -0.3677
  S  S4787  1  0.944880  0.550850  0.740180  1.0  -0.3756
  S  S4788  1  0.854010  0.928940  0.119700  1.0  0.1287
  S  S4789  1  0.912160  0.946550  0.173380  1.0  0.1502
  S  S4790  1  0.934290  0.894190  0.119300  1.0  0.1461
  S  S4791  1  0.914530  0.950200  0.062840  1.0  -0.241
  S  S4792  1  0.795540  0.910570  0.066850  1.0  0.2115
  S  S4793  1  0.885610  0.001770  0.117490  1.0  -0.2777
  S  S4794  1  0.792390  0.908970  0.176420  1.0  -0.2318
  S  S4795  1  0.940130  0.890860  0.017210  1.0  -0.3436
  S  S4796  1  0.857030  0.920940  0.008340  1.0  -0.3291
  S  S4797  1  0.828430  0.976460  0.064760  1.0  -0.3558
  S  S4798  1  0.997720  0.914670  0.073310  1.0  -0.3045
  S  S4799  1  0.967680  0.963620  0.126140  1.0  -0.3366
  S  S4800  1  0.777640  0.957630  0.005370  1.0  -0.3635
  S  S4801  1  0.973590  0.970240  0.223690  1.0  -0.2848
  S  S4802  1  0.840020  0.979370  0.174580  1.0  -0.2896
  S  S4803  1  0.996410  0.914050  0.169490  1.0  -0.292
  S  S4804  1  0.007760  0.857290  0.113680  1.0  -0.2569
  S  S4805  1  0.729580  0.889930  0.021510  1.0  -0.3004
  S  S4806  1  0.888740  0.995210  0.231750  1.0  -0.2185
  S  S4807  1  0.777890  0.967640  0.125000  1.0  -0.3228
  S  S4808  1  0.942730  0.022290  0.172380  1.0  -0.2731
  S  S4809  1  0.856900  0.919500  0.231620  1.0  -0.3575
  S  S4810  1  0.722100  0.956790  0.067130  1.0  -0.3623
  S  S4811  1  0.933700  0.899890  0.226290  1.0  -0.3677
  S  S4812  1  0.944880  0.050850  0.240180  1.0  -0.3756
  S  S4813  1  0.895990  0.821060  0.119700  1.0  0.1287
  S  S4814  1  0.837840  0.803450  0.173380  1.0  0.1501
  S  S4815  1  0.815710  0.855810  0.119300  1.0  0.1484
  S  S4816  1  0.835470  0.799800  0.062840  1.0  -0.242
  S  S4817  1  0.954460  0.839430  0.066850  1.0  0.2131
  S  S4818  1  0.864390  0.748230  0.117490  1.0  -0.2764
  S  S4819  1  0.957610  0.841030  0.176420  1.0  -0.2324
  S  S4820  1  0.809870  0.859140  0.017210  1.0  -0.344
  S  S4821  1  0.892970  0.829060  0.008340  1.0  -0.3258
  S  S4822  1  0.921570  0.773540  0.064760  1.0  -0.3551
  S  S4823  1  0.752280  0.835330  0.073310  1.0  -0.3053
  S  S4824  1  0.782320  0.786380  0.126140  1.0  -0.3376
  S  S4825  1  0.972360  0.792370  0.005370  1.0  -0.3637
  S  S4826  1  0.776410  0.779760  0.223690  1.0  -0.2824
  S  S4827  1  0.909980  0.770630  0.174580  1.0  -0.291
  S  S4828  1  0.753590  0.835950  0.169490  1.0  -0.2915
  S  S4829  1  0.742240  0.892710  0.113680  1.0  -0.2564
  S  S4830  1  0.020420  0.860070  0.021510  1.0  -0.3021
  S  S4831  1  0.861260  0.754790  0.231750  1.0  -0.2182
  S  S4832  1  0.972110  0.782360  0.125000  1.0  -0.3225
  S  S4833  1  0.807270  0.727710  0.172380  1.0  -0.2672
  S  S4834  1  0.893100  0.830500  0.231620  1.0  -0.3549
  S  S4835  1  0.027900  0.793210  0.067130  1.0  -0.3625
  S  S4836  1  0.816300  0.850110  0.226290  1.0  -0.3689
  S  S4837  1  0.805120  0.699150  0.240180  1.0  -0.3749
  S  S4838  1  0.895990  0.321060  0.619700  1.0  0.1287
  S  S4839  1  0.837840  0.303450  0.673380  1.0  0.1501
  S  S4840  1  0.815710  0.355810  0.619300  1.0  0.1484
  S  S4841  1  0.835470  0.299800  0.562840  1.0  -0.242
  S  S4842  1  0.954460  0.339430  0.566850  1.0  0.2131
  S  S4843  1  0.864390  0.248230  0.617490  1.0  -0.2764
  S  S4844  1  0.957610  0.341030  0.676420  1.0  -0.2324
  S  S4845  1  0.809870  0.359140  0.517210  1.0  -0.344
  S  S4846  1  0.892970  0.329060  0.508340  1.0  -0.3258
  S  S4847  1  0.921570  0.273540  0.564760  1.0  -0.3551
  S  S4848  1  0.752280  0.335330  0.573310  1.0  -0.3053
  S  S4849  1  0.782320  0.286380  0.626140  1.0  -0.3376
  S  S4850  1  0.972360  0.292370  0.505370  1.0  -0.3637
  S  S4851  1  0.776410  0.279760  0.723690  1.0  -0.2824
  S  S4852  1  0.909980  0.270630  0.674580  1.0  -0.291
  S  S4853  1  0.753590  0.335950  0.669490  1.0  -0.2915
  S  S4854  1  0.742240  0.392710  0.613680  1.0  -0.2564
  S  S4855  1  0.020420  0.360070  0.521510  1.0  -0.3021
  S  S4856  1  0.861260  0.254790  0.731750  1.0  -0.2182
  S  S4857  1  0.972110  0.282360  0.625000  1.0  -0.3225
  S  S4858  1  0.807270  0.227710  0.672380  1.0  -0.2672
  S  S4859  1  0.893100  0.330500  0.731620  1.0  -0.3549
  S  S4860  1  0.027900  0.293210  0.567130  1.0  -0.3625
  S  S4861  1  0.816300  0.350110  0.726290  1.0  -0.3689
  S  S4862  1  0.805120  0.199150  0.740180  1.0  -0.3749
  S  S4863  1  0.395990  0.821060  0.619700  1.0  0.1287
  S  S4864  1  0.337840  0.803450  0.673380  1.0  0.1501
  S  S4865  1  0.315710  0.855810  0.619300  1.0  0.1484
  S  S4866  1  0.335470  0.799800  0.562840  1.0  -0.242
  S  S4867  1  0.454460  0.839430  0.566850  1.0  0.2131
  S  S4868  1  0.364390  0.748230  0.617490  1.0  -0.2764
  S  S4869  1  0.457610  0.841030  0.676420  1.0  -0.2324
  S  S4870  1  0.309870  0.859140  0.517210  1.0  -0.344
  S  S4871  1  0.392970  0.829060  0.508340  1.0  -0.3258
  S  S4872  1  0.421570  0.773540  0.564760  1.0  -0.3551
  S  S4873  1  0.252280  0.835330  0.573310  1.0  -0.3053
  S  S4874  1  0.282320  0.786380  0.626140  1.0  -0.3376
  S  S4875  1  0.472360  0.792370  0.505370  1.0  -0.3637
  S  S4876  1  0.276410  0.779760  0.723690  1.0  -0.2824
  S  S4877  1  0.409980  0.770630  0.674580  1.0  -0.291
  S  S4878  1  0.253590  0.835950  0.669490  1.0  -0.2915
  S  S4879  1  0.242240  0.892710  0.613680  1.0  -0.2564
  S  S4880  1  0.520420  0.860070  0.521510  1.0  -0.3021
  S  S4881  1  0.361260  0.754790  0.731750  1.0  -0.2182
  S  S4882  1  0.472110  0.782360  0.625000  1.0  -0.3225
  S  S4883  1  0.307270  0.727710  0.672380  1.0  -0.2672
  S  S4884  1  0.393100  0.830500  0.731620  1.0  -0.3549
  S  S4885  1  0.527900  0.793210  0.567130  1.0  -0.3625
  S  S4886  1  0.316300  0.850110  0.726290  1.0  -0.3689
  S  S4887  1  0.305120  0.699150  0.740180  1.0  -0.3749
  S  S4888  1  0.395990  0.321060  0.119700  1.0  0.1287
  S  S4889  1  0.337840  0.303450  0.173380  1.0  0.1501
  S  S4890  1  0.315710  0.355810  0.119300  1.0  0.1484
  S  S4891  1  0.335470  0.299800  0.062840  1.0  -0.242
  S  S4892  1  0.454460  0.339430  0.066850  1.0  0.2131
  S  S4893  1  0.364390  0.248230  0.117490  1.0  -0.2764
  S  S4894  1  0.457610  0.341030  0.176420  1.0  -0.2324
  S  S4895  1  0.309870  0.359140  0.017210  1.0  -0.344
  S  S4896  1  0.392970  0.329060  0.008340  1.0  -0.3258
  S  S4897  1  0.421570  0.273540  0.064760  1.0  -0.3551
  S  S4898  1  0.252280  0.335330  0.073310  1.0  -0.3053
  S  S4899  1  0.282320  0.286380  0.126140  1.0  -0.3376
  S  S4900  1  0.472360  0.292370  0.005370  1.0  -0.3637
  S  S4901  1  0.276410  0.279760  0.223690  1.0  -0.2824
  S  S4902  1  0.409980  0.270630  0.174580  1.0  -0.291
  S  S4903  1  0.253590  0.335950  0.169490  1.0  -0.2915
  S  S4904  1  0.242240  0.392710  0.113680  1.0  -0.2564
  S  S4905  1  0.520420  0.360070  0.021510  1.0  -0.3021
  S  S4906  1  0.361260  0.254790  0.231750  1.0  -0.2182
  S  S4907  1  0.472110  0.282360  0.125000  1.0  -0.3225
  S  S4908  1  0.307270  0.227710  0.172380  1.0  -0.2672
  S  S4909  1  0.393100  0.330500  0.231620  1.0  -0.3549
  S  S4910  1  0.527900  0.293210  0.067130  1.0  -0.3625
  S  S4911  1  0.316300  0.350110  0.226290  1.0  -0.3689
  S  S4912  1  0.305120  0.199150  0.240180  1.0  -0.3749
  S  S4913  1  0.125000  0.625000  0.814940  1.0  0.1441
  S  S4914  1  0.125000  0.625000  0.924380  1.0  0.1721
  S  S4915  1  0.125000  0.125000  0.314940  1.0  0.1441
  S  S4916  1  0.125000  0.125000  0.424380  1.0  0.1721
  S  S4917  1  0.625000  0.625000  0.314940  1.0  0.1441
  S  S4918  1  0.625000  0.625000  0.424380  1.0  0.1721
  S  S4919  1  0.625000  0.125000  0.814940  1.0  0.1441
  S  S4920  1  0.625000  0.125000  0.924380  1.0  0.1721
  S  S4921  1  0.375000  0.375000  0.064940  1.0  0.1441
  S  S4922  1  0.375000  0.375000  0.174380  1.0  0.1721
  S  S4923  1  0.375000  0.875000  0.564940  1.0  0.1441
  S  S4924  1  0.375000  0.875000  0.674380  1.0  0.1721
  S  S4925  1  0.875000  0.875000  0.064940  1.0  0.1441
  S  S4926  1  0.875000  0.875000  0.174380  1.0  0.1721
  S  S4927  1  0.875000  0.375000  0.564940  1.0  0.1441
  S  S4928  1  0.875000  0.375000  0.674380  1.0  0.1721
