# generated using pymatgen
data_ZnH8C18(NO2)4
_symmetry_space_group_name_H-M   'P 1'
_cell_length_a   31.21500000
_cell_length_b   31.21500000
_cell_length_c   31.21500000
_cell_angle_alpha   109.47100000
_cell_angle_beta   109.47100000
_cell_angle_gamma   109.47100000
_symmetry_Int_Tables_number   1
_chemical_formula_structural   ZnH8C18(NO2)4
_chemical_formula_sum   'Zn24 H192 C432 N96 O192'
_cell_volume   23413.78761911
_cell_formula_units_Z   24
loop_
 _symmetry_equiv_pos_site_id
 _symmetry_equiv_pos_as_xyz
  1  'x, y, z'
loop_
 _atom_site_type_symbol
 _atom_site_label
 _atom_site_symmetry_multiplicity
 _atom_site_fract_x
 _atom_site_fract_y
 _atom_site_fract_z
 _atom_site_occupancy
 _atom_site_charge
  Zn  Zn1  1  0.250000  0.859280  0.609280  1.0  1.0571
  Zn  Zn2  1  0.750000  0.640720  0.890720  1.0  1.0563
  Zn  Zn3  1  0.390720  0.750000  0.140720  1.0  1.0561
  Zn  Zn4  1  0.109280  0.250000  0.359280  1.0  1.055
  Zn  Zn5  1  0.640720  0.390720  0.250000  1.0  1.0571
  Zn  Zn6  1  0.859280  0.109280  0.750000  1.0  1.0564
  Zn  Zn7  1  0.640720  0.250000  0.890720  1.0  1.056
  Zn  Zn8  1  0.859280  0.750000  0.609280  1.0  1.0549
  Zn  Zn9  1  0.750000  0.109280  0.359280  1.0  1.0571
  Zn  Zn10  1  0.250000  0.390720  0.140720  1.0  1.0563
  Zn  Zn11  1  0.109280  0.859280  0.250000  1.0  1.0564
  Zn  Zn12  1  0.390720  0.640720  0.750000  1.0  1.0571
  Zn  Zn13  1  0.001310  0.751310  0.502620  1.0  1.0913
  Zn  Zn14  1  0.748690  0.498690  0.997380  1.0  1.0941
  Zn  Zn15  1  0.751310  0.748690  0.750000  1.0  1.0904
  Zn  Zn16  1  0.498690  0.001310  0.750000  1.0  1.0892
  Zn  Zn17  1  0.250000  0.751310  0.248690  1.0  1.0931
  Zn  Zn18  1  0.250000  0.498690  0.501310  1.0  1.0916
  Zn  Zn19  1  0.002620  0.001310  0.251310  1.0  1.0895
  Zn  Zn20  1  0.497380  0.748690  0.998690  1.0  1.0899
  Zn  Zn21  1  0.498690  0.497380  0.248690  1.0  1.0913
  Zn  Zn22  1  0.751310  0.002620  0.501310  1.0  1.0909
  Zn  Zn23  1  0.001310  0.250000  0.998690  1.0  1.0933
  Zn  Zn24  1  0.748690  0.250000  0.251310  1.0  1.0914
  H  H25  1  0.113800  0.996200  0.525800  1.0  0.3027
  H  H26  1  0.355500  0.848300  0.412800  1.0  0.1319
  H  H27  1  0.356600  0.894800  0.550200  1.0  0.1267
  H  H28  1  0.021800  0.923000  0.546600  1.0  0.1177
  H  H29  1  0.431600  0.926100  0.550700  1.0  0.3059
  H  H30  1  0.168500  0.970700  0.572400  1.0  0.1314
  H  H31  1  0.095800  0.848400  0.585000  1.0  0.0979
  H  H32  1  0.219900  0.800300  0.413800  1.0  0.1261
  H  H33  1  0.970400  0.588000  0.974200  1.0  0.3031
  H  H34  1  0.935500  0.942700  0.087200  1.0  0.1303
  H  H35  1  0.844600  0.806400  0.949800  1.0  0.1244
  H  H36  1  0.876400  0.475200  0.953400  1.0  0.1162
  H  H37  1  0.875400  0.880900  0.949300  1.0  0.3069
  H  H38  1  0.898300  0.596100  0.927600  1.0  0.1324
  H  H39  1  0.763400  0.510800  0.915000  1.0  0.0984
  H  H40  1  0.886500  0.806100  0.086200  1.0  0.1255
  H  H41  1  0.529600  0.503800  0.617600  1.0  0.2942
  H  H42  1  0.564500  0.651700  0.007200  1.0  0.1315
  H  H43  1  0.655400  0.605200  0.961800  1.0  0.1237
  H  H44  1  0.623600  0.577000  0.598800  1.0  0.119
  H  H45  1  0.624600  0.573900  0.005500  1.0  0.3067
  H  H46  1  0.601700  0.529300  0.697800  1.0  0.132
  H  H47  1  0.736600  0.651600  0.747400  1.0  0.0975
  H  H48  1  0.613500  0.699700  0.919600  1.0  0.1275
  H  H49  1  0.386200  0.912000  0.882400  1.0  0.2953
  H  H50  1  0.144500  0.557300  0.492800  1.0  0.1314
  H  H51  1  0.143400  0.693600  0.538200  1.0  0.1242
  H  H52  1  0.478200  0.024800  0.901200  1.0  0.1162
  H  H53  1  0.068400  0.619100  0.494500  1.0  0.3078
  H  H54  1  0.331500  0.903900  0.802200  1.0  0.1295
  H  H55  1  0.404200  0.989200  0.752600  1.0  0.0991
  H  H56  1  0.280100  0.693900  0.580400  1.0  0.1273
  H  H57  1  0.117600  0.529600  0.003800  1.0  0.303
  H  H58  1  0.507200  0.564500  0.151700  1.0  0.13
  H  H59  1  0.461800  0.655400  0.105200  1.0  0.1246
  H  H60  1  0.098800  0.623600  0.077000  1.0  0.1155
  H  H61  1  0.505500  0.624600  0.073900  1.0  0.3074
  H  H62  1  0.197800  0.601700  0.029300  1.0  0.1333
  H  H63  1  0.247400  0.736600  0.151600  1.0  0.1002
  H  H64  1  0.419600  0.613500  0.199700  1.0  0.1264
  H  H65  1  0.382400  0.386200  0.412000  1.0  0.2955
  H  H66  1  0.992800  0.144500  0.057300  1.0  0.1311
  H  H67  1  0.038200  0.143400  0.193600  1.0  0.1268
  H  H68  1  0.401200  0.478200  0.524800  1.0  0.1173
  H  H69  1  0.994500  0.068400  0.119100  1.0  0.3046
  H  H70  1  0.302200  0.331500  0.403900  1.0  0.1295
  H  H71  1  0.252600  0.404200  0.489200  1.0  0.0986
  H  H72  1  0.080400  0.280100  0.193900  1.0  0.125
  H  H73  1  0.025800  0.113800  0.496200  1.0  0.2979
  H  H74  1  0.912800  0.355500  0.348300  1.0  0.1309
  H  H75  1  0.050200  0.356600  0.394800  1.0  0.124
  H  H76  1  0.046600  0.021800  0.423000  1.0  0.1171
  H  H77  1  0.050700  0.431600  0.426100  1.0  0.3078
  H  H78  1  0.072400  0.168500  0.470700  1.0  0.132
  H  H79  1  0.085000  0.095800  0.348400  1.0  0.0996
  H  H80  1  0.913800  0.219900  0.300300  1.0  0.1274
  H  H81  1  0.474200  0.970400  0.088000  1.0  0.3018
  H  H82  1  0.587200  0.935500  0.442700  1.0  0.131
  H  H83  1  0.449800  0.844600  0.306400  1.0  0.1239
  H  H84  1  0.453400  0.876400  0.975200  1.0  0.1178
  H  H85  1  0.449300  0.875400  0.380900  1.0  0.3093
  H  H86  1  0.427600  0.898300  0.096100  1.0  0.1313
  H  H87  1  0.415000  0.763400  0.010800  1.0  0.0971
  H  H88  1  0.586200  0.886500  0.306100  1.0  0.1266
  H  H89  1  0.588000  0.474200  0.470400  1.0  0.294
  H  H90  1  0.942700  0.587200  0.435500  1.0  0.1317
  H  H91  1  0.806400  0.449800  0.344600  1.0  0.1235
  H  H92  1  0.475200  0.453400  0.376400  1.0  0.1154
  H  H93  1  0.880900  0.449300  0.375400  1.0  0.3061
  H  H94  1  0.596100  0.427600  0.398300  1.0  0.1296
  H  H95  1  0.510800  0.415000  0.263400  1.0  0.1001
  H  H96  1  0.806100  0.586200  0.386500  1.0  0.1264
  H  H97  1  0.996200  0.025800  0.613800  1.0  0.3015
  H  H98  1  0.848300  0.912800  0.855500  1.0  0.1307
  H  H99  1  0.894800  0.050200  0.856600  1.0  0.1239
  H  H100  1  0.923000  0.046600  0.521800  1.0  0.1161
  H  H101  1  0.926100  0.050700  0.931600  1.0  0.3044
  H  H102  1  0.970700  0.072400  0.668500  1.0  0.1323
  H  H103  1  0.848400  0.085000  0.595800  1.0  0.0975
  H  H104  1  0.800300  0.913800  0.719900  1.0  0.1259
  H  H105  1  0.912000  0.382400  0.886200  1.0  0.2973
  H  H106  1  0.557300  0.992800  0.644500  1.0  0.1299
  H  H107  1  0.693600  0.038200  0.643400  1.0  0.1236
  H  H108  1  0.024800  0.401200  0.978200  1.0  0.1176
  H  H109  1  0.619100  0.994500  0.568400  1.0  0.3056
  H  H110  1  0.903900  0.302200  0.831500  1.0  0.1315
  H  H111  1  0.989200  0.252600  0.904200  1.0  0.0981
  H  H112  1  0.693900  0.080400  0.780100  1.0  0.1264
  H  H113  1  0.503800  0.117600  0.029600  1.0  0.3051
  H  H114  1  0.651700  0.507200  0.064500  1.0  0.1302
  H  H115  1  0.605200  0.461800  0.155400  1.0  0.127
  H  H116  1  0.577000  0.098800  0.123600  1.0  0.1178
  H  H117  1  0.573900  0.505500  0.124600  1.0  0.3058
  H  H118  1  0.529300  0.197800  0.101700  1.0  0.1292
  H  H119  1  0.651600  0.247400  0.236600  1.0  0.0985
  H  H120  1  0.699700  0.419600  0.113500  1.0  0.1262
  H  H121  1  0.503800  0.386200  0.974200  1.0  0.2959
  H  H122  1  0.651700  0.144500  0.087200  1.0  0.1303
  H  H123  1  0.605200  0.143400  0.949800  1.0  0.1265
  H  H124  1  0.577000  0.478200  0.953400  1.0  0.1168
  H  H125  1  0.573900  0.068400  0.949300  1.0  0.3059
  H  H126  1  0.529300  0.331500  0.927600  1.0  0.1304
  H  H127  1  0.651600  0.404200  0.915000  1.0  0.0983
  H  H128  1  0.699700  0.280100  0.086200  1.0  0.1256
  H  H129  1  0.912000  0.529600  0.525800  1.0  0.2973
  H  H130  1  0.557300  0.564500  0.412800  1.0  0.1302
  H  H131  1  0.693600  0.655400  0.550200  1.0  0.1243
  H  H132  1  0.024800  0.623600  0.546600  1.0  0.1159
  H  H133  1  0.619100  0.624600  0.550700  1.0  0.3072
  H  H134  1  0.903900  0.601700  0.572400  1.0  0.1325
  H  H135  1  0.989200  0.736600  0.585000  1.0  0.1
  H  H136  1  0.693900  0.613500  0.413800  1.0  0.1267
  H  H137  1  0.996200  0.970400  0.882400  1.0  0.3001
  H  H138  1  0.848300  0.935500  0.492800  1.0  0.1308
  H  H139  1  0.894800  0.844600  0.538200  1.0  0.1235
  H  H140  1  0.923000  0.876400  0.901200  1.0  0.1184
  H  H141  1  0.926100  0.875400  0.494500  1.0  0.3079
  H  H142  1  0.970700  0.898300  0.802200  1.0  0.1331
  H  H143  1  0.848400  0.763400  0.752600  1.0  0.0983
  H  H144  1  0.800300  0.886500  0.580400  1.0  0.1266
  H  H145  1  0.588000  0.113800  0.617600  1.0  0.2964
  H  H146  1  0.942700  0.355500  0.007200  1.0  0.131
  H  H147  1  0.806400  0.356600  0.961800  1.0  0.1241
  H  H148  1  0.475200  0.021800  0.598800  1.0  0.1181
  H  H149  1  0.880900  0.431600  0.005500  1.0  0.3093
  H  H150  1  0.596100  0.168500  0.697800  1.0  0.1327
  H  H151  1  0.510800  0.095800  0.747400  1.0  0.0996
  H  H152  1  0.806100  0.219900  0.919600  1.0  0.1272
  H  H153  1  0.970400  0.382400  0.496200  1.0  0.3015
  H  H154  1  0.935500  0.992800  0.348300  1.0  0.1299
  H  H155  1  0.844600  0.038200  0.394800  1.0  0.1236
  H  H156  1  0.876400  0.401200  0.423000  1.0  0.1183
  H  H157  1  0.875400  0.994500  0.426100  1.0  0.3051
  H  H158  1  0.898300  0.302200  0.470700  1.0  0.1316
  H  H159  1  0.763400  0.252600  0.348400  1.0  0.0992
  H  H160  1  0.886500  0.080400  0.300300  1.0  0.1262
  H  H161  1  0.113800  0.117600  0.088000  1.0  0.2957
  H  H162  1  0.355500  0.507200  0.442700  1.0  0.1289
  H  H163  1  0.356600  0.461800  0.306400  1.0  0.1266
  H  H164  1  0.021800  0.098800  0.975200  1.0  0.1173
  H  H165  1  0.431600  0.505500  0.380900  1.0  0.3056
  H  H166  1  0.168500  0.197800  0.096100  1.0  0.1294
  H  H167  1  0.095800  0.247400  0.010800  1.0  0.0984
  H  H168  1  0.219900  0.419600  0.306100  1.0  0.1257
  H  H169  1  0.386200  0.474200  0.003800  1.0  0.3019
  H  H170  1  0.144500  0.587200  0.151700  1.0  0.1314
  H  H171  1  0.143400  0.449800  0.105200  1.0  0.1237
  H  H172  1  0.478200  0.453400  0.077000  1.0  0.1156
  H  H173  1  0.068400  0.449300  0.073900  1.0  0.3071
  H  H174  1  0.331500  0.427600  0.029300  1.0  0.1314
  H  H175  1  0.404200  0.415000  0.151600  1.0  0.1001
  H  H176  1  0.280100  0.586200  0.199700  1.0  0.1269
  H  H177  1  0.529600  0.025800  0.412000  1.0  0.2959
  H  H178  1  0.564500  0.912800  0.057300  1.0  0.1306
  H  H179  1  0.655400  0.050200  0.193600  1.0  0.1237
  H  H180  1  0.623600  0.046600  0.524800  1.0  0.1167
  H  H181  1  0.624600  0.050700  0.119100  1.0  0.3038
  H  H182  1  0.601700  0.072400  0.403900  1.0  0.1306
  H  H183  1  0.736600  0.085000  0.489200  1.0  0.0983
  H  H184  1  0.613500  0.913800  0.193900  1.0  0.1256
  H  H185  1  0.025800  0.912000  0.029600  1.0  0.3015
  H  H186  1  0.912800  0.557300  0.064500  1.0  0.131
  H  H187  1  0.050200  0.693600  0.155400  1.0  0.1236
  H  H188  1  0.046600  0.024800  0.123600  1.0  0.1166
  H  H189  1  0.050700  0.619100  0.124600  1.0  0.3083
  H  H190  1  0.072400  0.903900  0.101700  1.0  0.1292
  H  H191  1  0.085000  0.989200  0.236600  1.0  0.099
  H  H192  1  0.913800  0.693900  0.113500  1.0  0.1267
  H  H193  1  0.474200  0.503800  0.886200  1.0  0.2954
  H  H194  1  0.587200  0.651700  0.644500  1.0  0.1311
  H  H195  1  0.449800  0.605200  0.643400  1.0  0.1238
  H  H196  1  0.453400  0.577000  0.978200  1.0  0.1192
  H  H197  1  0.449300  0.573900  0.568400  1.0  0.3076
  H  H198  1  0.427600  0.529300  0.831500  1.0  0.132
  H  H199  1  0.415000  0.651600  0.904200  1.0  0.0976
  H  H200  1  0.586200  0.699700  0.780100  1.0  0.1276
  H  H201  1  0.117600  0.588000  0.613800  1.0  0.2937
  H  H202  1  0.507200  0.942700  0.855500  1.0  0.1309
  H  H203  1  0.461800  0.806400  0.856600  1.0  0.1243
  H  H204  1  0.098800  0.475200  0.521800  1.0  0.1165
  H  H205  1  0.505500  0.880900  0.931600  1.0  0.3061
  H  H206  1  0.197800  0.596100  0.668500  1.0  0.1322
  H  H207  1  0.247400  0.510800  0.595800  1.0  0.099
  H  H208  1  0.419600  0.806100  0.719900  1.0  0.1264
  H  H209  1  0.382400  0.996200  0.470400  1.0  0.3043
  H  H210  1  0.992800  0.848300  0.435500  1.0  0.1305
  H  H211  1  0.038200  0.894800  0.344600  1.0  0.1267
  H  H212  1  0.401200  0.923000  0.376400  1.0  0.1176
  H  H213  1  0.994500  0.926100  0.375400  1.0  0.3062
  H  H214  1  0.302200  0.970700  0.398300  1.0  0.1314
  H  H215  1  0.252600  0.848400  0.263400  1.0  0.0979
  H  H216  1  0.080400  0.800300  0.386500  1.0  0.126
  C  C217  1  0.138600  0.907450  0.580390  1.0  -0.0875
  C  C218  1  0.066100  0.014230  0.539170  1.0  0.5113
  C  C219  1  0.459230  0.917580  0.506270  1.0  0.325
  C  C220  1  0.282910  0.845490  0.486540  1.0  -0.111
  C  C221  1  0.283350  0.821430  0.405460  1.0  -0.121
  C  C222  1  0.365580  0.877500  0.486700  1.0  0.2235
  C  C223  1  0.337710  0.848810  0.431500  1.0  0.0252
  C  C224  1  0.338330  0.875840  0.513770  1.0  -0.1137
  C  C225  1  0.051500  0.919410  0.554770  1.0  -0.0877
  C  C226  1  0.053010  0.881960  0.568030  1.0  -0.0661
  C  C227  1  0.186120  0.903000  0.593680  1.0  0.6939
  C  C228  1  0.138350  0.947100  0.569290  1.0  -0.0923
  C  C229  1  0.096120  0.875560  0.578740  1.0  -0.0333
  C  C230  1  0.093080  0.951900  0.553360  1.0  0.2638
  C  C231  1  0.256350  0.819410  0.432280  1.0  0.0516
  C  C232  1  0.255700  0.841860  0.518880  1.0  0.7397
  C  C233  1  0.253900  0.791400  0.345100  1.0  0.7595
  C  C234  1  0.003700  0.845500  0.566800  1.0  0.6973
  C  C235  1  0.827060  0.558210  0.919610  1.0  -0.0879
  C  C236  1  0.975060  0.526930  0.960830  1.0  0.5066
  C  C237  1  0.911310  0.952960  0.993730  1.0  0.3193
  C  C238  1  0.858950  0.796370  0.013460  1.0  -0.1054
  C  C239  1  0.915970  0.877890  0.094540  1.0  -0.1201
  C  C240  1  0.890800  0.878880  0.013300  1.0  0.223
  C  C241  1  0.917310  0.906210  0.068500  1.0  0.0257
  C  C242  1  0.862070  0.824560  0.986230  1.0  -0.1163
  C  C243  1  0.864640  0.496730  0.945230  1.0  -0.0867
  C  C244  1  0.813930  0.484980  0.931970  1.0  -0.0719
  C  C245  1  0.809320  0.592440  0.906320  1.0  0.6936
  C  C246  1  0.877810  0.569060  0.930710  1.0  -0.0953
  C  C247  1  0.796820  0.517380  0.921260  1.0  -0.0355
  C  C248  1  0.898540  0.539720  0.946640  1.0  0.2632
  C  C249  1  0.887130  0.824070  0.067720  1.0  0.0511
  C  C250  1  0.822980  0.736820  0.981120  1.0  0.7387
  C  C251  1  0.946300  0.908800  0.154900  1.0  0.7664
  C  C252  1  0.778700  0.436900  0.933200  1.0  0.697
  C  C253  1  0.672940  0.592550  0.731150  1.0  -0.088
  C  C254  1  0.524940  0.485770  0.551870  1.0  0.5095
  C  C255  1  0.588690  0.582420  0.041650  1.0  0.3301
  C  C256  1  0.641050  0.654510  0.937420  1.0  -0.1091
  C  C257  1  0.584030  0.678570  0.961920  1.0  -0.1186
  C  C258  1  0.609200  0.622500  0.988080  1.0  0.2184
  C  C259  1  0.582690  0.651190  0.988900  1.0  0.0199
  C  C260  1  0.637930  0.624160  0.962490  1.0  -0.1146
  C  C261  1  0.635360  0.580590  0.632090  1.0  -0.0836
  C  C262  1  0.686070  0.618040  0.671050  1.0  -0.0757
  C  C263  1  0.690680  0.597000  0.783120  1.0  0.6995
  C  C264  1  0.622190  0.552900  0.691250  1.0  -0.0976
  C  C265  1  0.703180  0.624440  0.720560  1.0  -0.0314
  C  C266  1  0.601460  0.548100  0.641180  1.0  0.2635
  C  C267  1  0.612870  0.680590  0.936940  1.0  0.052
  C  C268  1  0.677020  0.658140  0.913840  1.0  0.7383
  C  C269  1  0.553700  0.708600  0.962500  1.0  0.7594
  C  C270  1  0.721300  0.654500  0.658200  1.0  0.7009
  C  C271  1  0.361400  0.941790  0.768850  1.0  -0.0819
  C  C272  1  0.433900  0.973070  0.948130  1.0  0.5118
  C  C273  1  0.040770  0.547040  0.458350  1.0  0.3323
  C  C274  1  0.217090  0.703630  0.562580  1.0  -0.107
  C  C275  1  0.216650  0.622110  0.538080  1.0  -0.1189
  C  C276  1  0.134420  0.621120  0.511920  1.0  0.2187
  C  C277  1  0.162290  0.593790  0.511100  1.0  0.0264
  C  C278  1  0.161670  0.675440  0.537510  1.0  -0.1125
  C  C279  1  0.448500  0.003270  0.867910  1.0  -0.0859
  C  C280  1  0.446990  0.015020  0.828950  1.0  -0.0724
  C  C281  1  0.313880  0.907560  0.716880  1.0  0.6924
  C  C282  1  0.361650  0.930940  0.808750  1.0  -0.0906
  C  C283  1  0.403880  0.982620  0.779440  1.0  -0.0323
  C  C284  1  0.406920  0.960280  0.858820  1.0  0.262
  C  C285  1  0.243650  0.675930  0.563060  1.0  0.0522
  C  C286  1  0.244300  0.763180  0.586160  1.0  0.7399
  C  C287  1  0.246100  0.591200  0.537500  1.0  0.761
  C  C288  1  0.496300  0.063100  0.841800  1.0  0.6959
  C  C289  1  0.231150  0.672940  0.092550  1.0  -0.0891
  C  C290  1  0.051870  0.524940  0.985770  1.0  0.5047
  C  C291  1  0.541650  0.588690  0.082420  1.0  0.3326
  C  C292  1  0.437420  0.641050  0.154510  1.0  -0.1081
  C  C293  1  0.461920  0.584030  0.178570  1.0  -0.1171
  C  C294  1  0.488080  0.609200  0.122500  1.0  0.2208
  C  C295  1  0.488900  0.582690  0.151190  1.0  0.024
  C  C296  1  0.462490  0.637930  0.124160  1.0  -0.1158
  C  C297  1  0.132090  0.635360  0.080590  1.0  -0.0886
  C  C298  1  0.171050  0.686070  0.118040  1.0  -0.0748
  C  C299  1  0.283120  0.690680  0.097000  1.0  0.694
  C  C300  1  0.191250  0.622190  0.052900  1.0  -0.0952
  C  C301  1  0.220560  0.703180  0.124440  1.0  -0.0365
  C  C302  1  0.141180  0.601460  0.048100  1.0  0.2624
  C  C303  1  0.436940  0.612870  0.180590  1.0  0.0491
  C  C304  1  0.413840  0.677020  0.158140  1.0  0.7375
  C  C305  1  0.462500  0.553700  0.208600  1.0  0.7654
  C  C306  1  0.158200  0.721300  0.154500  1.0  0.6948
  C  C307  1  0.268850  0.361400  0.441790  1.0  -0.0886
  C  C308  1  0.448130  0.433900  0.473070  1.0  0.513
  C  C309  1  0.958350  0.040770  0.047040  1.0  0.3287
  C  C310  1  0.062580  0.217090  0.203630  1.0  -0.1101
  C  C311  1  0.038080  0.216650  0.122110  1.0  -0.1203
  C  C312  1  0.011920  0.134420  0.121120  1.0  0.2207
  C  C313  1  0.011100  0.162290  0.093790  1.0  0.0224
  C  C314  1  0.037510  0.161670  0.175440  1.0  -0.115
  C  C315  1  0.367910  0.448500  0.503270  1.0  -0.0874
  C  C316  1  0.328950  0.446990  0.515020  1.0  -0.0668
  C  C317  1  0.216880  0.313880  0.407560  1.0  0.6913
  C  C318  1  0.308750  0.361650  0.430940  1.0  -0.0956
  C  C319  1  0.279440  0.403880  0.482620  1.0  -0.0329
  C  C320  1  0.358820  0.406920  0.460280  1.0  0.2647
  C  C321  1  0.063060  0.243650  0.175930  1.0  0.0547
  C  C322  1  0.086160  0.244300  0.263180  1.0  0.7387
  C  C323  1  0.037500  0.246100  0.091200  1.0  0.761
  C  C324  1  0.341800  0.496300  0.563100  1.0  0.6967
  C  C325  1  0.080390  0.138600  0.407450  1.0  -0.0882
  C  C326  1  0.039170  0.066100  0.514230  1.0  0.5115
  C  C327  1  0.006270  0.459230  0.417580  1.0  0.3304
  C  C328  1  0.986540  0.282910  0.345490  1.0  -0.1083
  C  C329  1  0.905460  0.283350  0.321430  1.0  -0.1187
  C  C330  1  0.986700  0.365580  0.377500  1.0  0.2187
  C  C331  1  0.931500  0.337710  0.348810  1.0  0.023
  C  C332  1  0.013770  0.338330  0.375840  1.0  -0.1148
  C  C333  1  0.054770  0.051500  0.419410  1.0  -0.086
  C  C334  1  0.068030  0.053010  0.381960  1.0  -0.0768
  C  C335  1  0.093680  0.186120  0.403000  1.0  0.691
  C  C336  1  0.069290  0.138350  0.447100  1.0  -0.0935
  C  C337  1  0.078740  0.096120  0.375560  1.0  -0.0317
  C  C338  1  0.053360  0.093080  0.451900  1.0  0.2634
  C  C339  1  0.932280  0.256350  0.319410  1.0  0.0547
  C  C340  1  0.018880  0.255700  0.341860  1.0  0.7374
  C  C341  1  0.845100  0.253900  0.291400  1.0  0.7571
  C  C342  1  0.066800  0.003700  0.345500  1.0  0.6941
  C  C343  1  0.419610  0.827060  0.058210  1.0  -0.078
  C  C344  1  0.460830  0.975060  0.026930  1.0  0.5093
  C  C345  1  0.493730  0.911310  0.452960  1.0  0.3208
  C  C346  1  0.513460  0.858950  0.296370  1.0  -0.1094
  C  C347  1  0.594540  0.915970  0.377890  1.0  -0.1185
  C  C348  1  0.513300  0.890800  0.378880  1.0  0.2215
  C  C349  1  0.568500  0.917310  0.406210  1.0  0.0258
  C  C350  1  0.486230  0.862070  0.324560  1.0  -0.1157
  C  C351  1  0.445230  0.864640  0.996730  1.0  -0.0832
  C  C352  1  0.431970  0.813930  0.984980  1.0  -0.0749
  C  C353  1  0.406320  0.809320  0.092440  1.0  0.6988
  C  C354  1  0.430710  0.877810  0.069060  1.0  -0.0923
  C  C355  1  0.421260  0.796820  0.017380  1.0  -0.0351
  C  C356  1  0.446640  0.898540  0.039720  1.0  0.2616
  C  C357  1  0.567720  0.887130  0.324070  1.0  0.0511
  C  C358  1  0.481120  0.822980  0.236820  1.0  0.7384
  C  C359  1  0.654900  0.946300  0.408800  1.0  0.7608
  C  C360  1  0.433200  0.778700  0.936900  1.0  0.6994
  C  C361  1  0.558210  0.419610  0.327060  1.0  -0.0885
  C  C362  1  0.526930  0.460830  0.475060  1.0  0.5114
  C  C363  1  0.952960  0.493730  0.411310  1.0  0.3228
  C  C364  1  0.796370  0.513460  0.358950  1.0  -0.1067
  C  C365  1  0.877890  0.594540  0.415970  1.0  -0.117
  C  C366  1  0.878880  0.513300  0.390800  1.0  0.2193
  C  C367  1  0.906210  0.568500  0.417310  1.0  0.0237
  C  C368  1  0.824560  0.486230  0.362070  1.0  -0.1138
  C  C369  1  0.496730  0.445230  0.364640  1.0  -0.0862
  C  C370  1  0.484980  0.431970  0.313930  1.0  -0.0743
  C  C371  1  0.592440  0.406320  0.309320  1.0  0.6946
  C  C372  1  0.569060  0.430710  0.377810  1.0  -0.0951
  C  C373  1  0.517380  0.421260  0.296820  1.0  -0.0341
  C  C374  1  0.539720  0.446640  0.398540  1.0  0.2652
  C  C375  1  0.824070  0.567720  0.387130  1.0  0.0506
  C  C376  1  0.736820  0.481120  0.322980  1.0  0.739
  C  C377  1  0.908800  0.654900  0.446300  1.0  0.7622
  C  C378  1  0.436900  0.433200  0.278700  1.0  0.6963
  C  C379  1  0.907450  0.080390  0.638600  1.0  -0.0864
  C  C380  1  0.014230  0.039170  0.566100  1.0  0.5092
  C  C381  1  0.917580  0.006270  0.959230  1.0  0.3238
  C  C382  1  0.845490  0.986540  0.782910  1.0  -0.1089
  C  C383  1  0.821430  0.905460  0.783350  1.0  -0.1175
  C  C384  1  0.877500  0.986700  0.865580  1.0  0.2221
  C  C385  1  0.848810  0.931500  0.837710  1.0  0.0267
  C  C386  1  0.875840  0.013770  0.838330  1.0  -0.1167
  C  C387  1  0.919410  0.054770  0.551500  1.0  -0.0859
  C  C388  1  0.881960  0.068030  0.553010  1.0  -0.0745
  C  C389  1  0.903000  0.093680  0.686120  1.0  0.6992
  C  C390  1  0.947100  0.069290  0.638350  1.0  -0.0928
  C  C391  1  0.875560  0.078740  0.596120  1.0  -0.0363
  C  C392  1  0.951900  0.053360  0.593080  1.0  0.2634
  C  C393  1  0.819410  0.932280  0.756350  1.0  0.0533
  C  C394  1  0.841860  0.018880  0.755700  1.0  0.7391
  C  C395  1  0.791400  0.845100  0.753900  1.0  0.7574
  C  C396  1  0.845500  0.066800  0.503700  1.0  0.6993
  C  C397  1  0.941790  0.268850  0.861400  1.0  -0.0837
  C  C398  1  0.973070  0.448130  0.933900  1.0  0.5098
  C  C399  1  0.547040  0.958350  0.540770  1.0  0.3289
  C  C400  1  0.703630  0.062580  0.717090  1.0  -0.1082
  C  C401  1  0.622110  0.038080  0.716650  1.0  -0.1193
  C  C402  1  0.621120  0.011920  0.634420  1.0  0.2225
  C  C403  1  0.593790  0.011100  0.662290  1.0  0.0201
  C  C404  1  0.675440  0.037510  0.661670  1.0  -0.1153
  C  C405  1  0.003270  0.367910  0.948500  1.0  -0.0888
  C  C406  1  0.015020  0.328950  0.946990  1.0  -0.0771
  C  C407  1  0.907560  0.216880  0.813880  1.0  0.6931
  C  C408  1  0.930940  0.308750  0.861650  1.0  -0.0896
  C  C409  1  0.982620  0.279440  0.903880  1.0  -0.033
  C  C410  1  0.960280  0.358820  0.906920  1.0  0.2642
  C  C411  1  0.675930  0.063060  0.743650  1.0  0.0508
  C  C412  1  0.763180  0.086160  0.744300  1.0  0.7378
  C  C413  1  0.591200  0.037500  0.746100  1.0  0.7708
  C  C414  1  0.063100  0.341800  0.996300  1.0  0.694
  C  C415  1  0.592550  0.231150  0.172940  1.0  -0.0838
  C  C416  1  0.485770  0.051870  0.024940  1.0  0.5068
  C  C417  1  0.582420  0.541650  0.088690  1.0  0.3283
  C  C418  1  0.654510  0.437420  0.141050  1.0  -0.1103
  C  C419  1  0.678570  0.461920  0.084030  1.0  -0.1196
  C  C420  1  0.622500  0.488080  0.109200  1.0  0.222
  C  C421  1  0.651190  0.488900  0.082690  1.0  0.0259
  C  C422  1  0.624160  0.462490  0.137930  1.0  -0.1138
  C  C423  1  0.580590  0.132090  0.135360  1.0  -0.0876
  C  C424  1  0.618040  0.171050  0.186070  1.0  -0.0713
  C  C425  1  0.597000  0.283120  0.190680  1.0  0.6926
  C  C426  1  0.552900  0.191250  0.122190  1.0  -0.0905
  C  C427  1  0.624440  0.220560  0.203180  1.0  -0.0311
  C  C428  1  0.548100  0.141180  0.101460  1.0  0.2624
  C  C429  1  0.680590  0.436940  0.112870  1.0  0.0506
  C  C430  1  0.658140  0.413840  0.177020  1.0  0.741
  C  C431  1  0.708600  0.462500  0.053700  1.0  0.7598
  C  C432  1  0.654500  0.158200  0.221300  1.0  0.6992
  C  C433  1  0.592550  0.361400  0.919610  1.0  -0.0892
  C  C434  1  0.485770  0.433900  0.960830  1.0  0.5092
  C  C435  1  0.582420  0.040770  0.993730  1.0  0.3243
  C  C436  1  0.654510  0.217090  0.013460  1.0  -0.1099
  C  C437  1  0.678570  0.216650  0.094540  1.0  -0.1215
  C  C438  1  0.622500  0.134420  0.013300  1.0  0.2199
  C  C439  1  0.651190  0.162290  0.068500  1.0  0.0285
  C  C440  1  0.624160  0.161670  0.986230  1.0  -0.1143
  C  C441  1  0.580590  0.448500  0.945230  1.0  -0.0876
  C  C442  1  0.618040  0.446990  0.931970  1.0  -0.0675
  C  C443  1  0.597000  0.313880  0.906320  1.0  0.6903
  C  C444  1  0.552900  0.361650  0.930710  1.0  -0.0947
  C  C445  1  0.624440  0.403880  0.921260  1.0  -0.0313
  C  C446  1  0.548100  0.406920  0.946640  1.0  0.2634
  C  C447  1  0.680590  0.243650  0.067720  1.0  0.0545
  C  C448  1  0.658140  0.244300  0.981120  1.0  0.7391
  C  C449  1  0.708600  0.246100  0.154900  1.0  0.7595
  C  C450  1  0.654500  0.496300  0.933200  1.0  0.6973
  C  C451  1  0.941790  0.672940  0.580390  1.0  -0.0804
  C  C452  1  0.973070  0.524940  0.539170  1.0  0.5107
  C  C453  1  0.547040  0.588690  0.506270  1.0  0.3212
  C  C454  1  0.703630  0.641050  0.486540  1.0  -0.1081
  C  C455  1  0.622110  0.584030  0.405460  1.0  -0.1186
  C  C456  1  0.621120  0.609200  0.486700  1.0  0.2199
  C  C457  1  0.593790  0.582690  0.431500  1.0  0.0223
  C  C458  1  0.675440  0.637930  0.513770  1.0  -0.1149
  C  C459  1  0.003270  0.635360  0.554770  1.0  -0.0889
  C  C460  1  0.015020  0.686070  0.568030  1.0  -0.075
  C  C461  1  0.907560  0.690680  0.593680  1.0  0.6925
  C  C462  1  0.930940  0.622190  0.569290  1.0  -0.0911
  C  C463  1  0.982620  0.703180  0.578740  1.0  -0.0378
  C  C464  1  0.960280  0.601460  0.553360  1.0  0.264
  C  C465  1  0.675930  0.612870  0.432280  1.0  0.0506
  C  C466  1  0.763180  0.677020  0.518880  1.0  0.7375
  C  C467  1  0.591200  0.553700  0.345100  1.0  0.7643
  C  C468  1  0.063100  0.721300  0.566800  1.0  0.6932
  C  C469  1  0.907450  0.827060  0.768850  1.0  -0.0831
  C  C470  1  0.014230  0.975060  0.948130  1.0  0.5073
  C  C471  1  0.917580  0.911310  0.458350  1.0  0.3315
  C  C472  1  0.845490  0.858950  0.562580  1.0  -0.109
  C  C473  1  0.821430  0.915970  0.538080  1.0  -0.1188
  C  C474  1  0.877500  0.890800  0.511920  1.0  0.2221
  C  C475  1  0.848810  0.917310  0.511100  1.0  0.0267
  C  C476  1  0.875840  0.862070  0.537510  1.0  -0.1154
  C  C477  1  0.919410  0.864640  0.867910  1.0  -0.0847
  C  C478  1  0.881960  0.813930  0.828950  1.0  -0.0765
  C  C479  1  0.903000  0.809320  0.716880  1.0  0.6995
  C  C480  1  0.947100  0.877810  0.808750  1.0  -0.0951
  C  C481  1  0.875560  0.796820  0.779440  1.0  -0.0352
  C  C482  1  0.951900  0.898540  0.858820  1.0  0.2631
  C  C483  1  0.819410  0.887130  0.563060  1.0  0.0522
  C  C484  1  0.841860  0.822980  0.586160  1.0  0.74
  C  C485  1  0.791400  0.946300  0.537500  1.0  0.7611
  C  C486  1  0.845500  0.778700  0.841800  1.0  0.6994
  C  C487  1  0.558210  0.138600  0.731150  1.0  -0.0879
  C  C488  1  0.526930  0.066100  0.551870  1.0  0.5126
  C  C489  1  0.952960  0.459230  0.041650  1.0  0.3364
  C  C490  1  0.796370  0.282910  0.937420  1.0  -0.1091
  C  C491  1  0.877890  0.283350  0.961920  1.0  -0.1168
  C  C492  1  0.878880  0.365580  0.988080  1.0  0.2203
  C  C493  1  0.906210  0.337710  0.988900  1.0  0.0194
  C  C494  1  0.824560  0.338330  0.962490  1.0  -0.115
  C  C495  1  0.496730  0.051500  0.632090  1.0  -0.0864
  C  C496  1  0.484980  0.053010  0.671050  1.0  -0.0764
  C  C497  1  0.592440  0.186120  0.783120  1.0  0.6903
  C  C498  1  0.569060  0.138350  0.691250  1.0  -0.0922
  C  C499  1  0.517380  0.096120  0.720560  1.0  -0.0335
  C  C500  1  0.539720  0.093080  0.641180  1.0  0.2614
  C  C501  1  0.824070  0.256350  0.936940  1.0  0.0528
  C  C502  1  0.736820  0.255700  0.913840  1.0  0.7377
  C  C503  1  0.908800  0.253900  0.962500  1.0  0.7594
  C  C504  1  0.436900  0.003700  0.658200  1.0  0.6943
  C  C505  1  0.827060  0.268850  0.407450  1.0  -0.0822
  C  C506  1  0.975060  0.448130  0.514230  1.0  0.51
  C  C507  1  0.911310  0.958350  0.417580  1.0  0.3352
  C  C508  1  0.858950  0.062580  0.345490  1.0  -0.1072
  C  C509  1  0.915970  0.038080  0.321430  1.0  -0.1187
  C  C510  1  0.890800  0.011920  0.377500  1.0  0.2215
  C  C511  1  0.917310  0.011100  0.348810  1.0  0.0207
  C  C512  1  0.862070  0.037510  0.375840  1.0  -0.1137
  C  C513  1  0.864640  0.367910  0.419410  1.0  -0.0894
  C  C514  1  0.813930  0.328950  0.381960  1.0  -0.0763
  C  C515  1  0.809320  0.216880  0.403000  1.0  0.6932
  C  C516  1  0.877810  0.308750  0.447100  1.0  -0.0959
  C  C517  1  0.796820  0.279440  0.375560  1.0  -0.0339
  C  C518  1  0.898540  0.358820  0.451900  1.0  0.2658
  C  C519  1  0.887130  0.063060  0.319410  1.0  0.0529
  C  C520  1  0.822980  0.086160  0.341860  1.0  0.7372
  C  C521  1  0.946300  0.037500  0.291400  1.0  0.7686
  C  C522  1  0.778700  0.341800  0.345500  1.0  0.6944
  C  C523  1  0.138600  0.231150  0.058210  1.0  -0.08
  C  C524  1  0.066100  0.051870  0.026930  1.0  0.5114
  C  C525  1  0.459230  0.541650  0.452960  1.0  0.3331
  C  C526  1  0.282910  0.437420  0.296370  1.0  -0.111
  C  C527  1  0.283350  0.461920  0.377890  1.0  -0.1186
  C  C528  1  0.365580  0.488080  0.378880  1.0  0.2201
  C  C529  1  0.337710  0.488900  0.406210  1.0  0.0265
  C  C530  1  0.338330  0.462490  0.324560  1.0  -0.1134
  C  C531  1  0.051500  0.132090  0.996730  1.0  -0.0863
  C  C532  1  0.053010  0.171050  0.984980  1.0  -0.0713
  C  C533  1  0.186120  0.283120  0.092440  1.0  0.6919
  C  C534  1  0.138350  0.191250  0.069060  1.0  -0.0878
  C  C535  1  0.096120  0.220560  0.017380  1.0  -0.0299
  C  C536  1  0.093080  0.141180  0.039720  1.0  0.2635
  C  C537  1  0.256350  0.436940  0.324070  1.0  0.0517
  C  C538  1  0.255700  0.413840  0.236820  1.0  0.7405
  C  C539  1  0.253900  0.462500  0.408800  1.0  0.7584
  C  C540  1  0.003700  0.158200  0.936900  1.0  0.6991
  C  C541  1  0.361400  0.419610  0.092550  1.0  -0.0896
  C  C542  1  0.433900  0.460830  0.985770  1.0  0.5093
  C  C543  1  0.040770  0.493730  0.082420  1.0  0.3339
  C  C544  1  0.217090  0.513460  0.154510  1.0  -0.1069
  C  C545  1  0.216650  0.594540  0.178570  1.0  -0.1181
  C  C546  1  0.134420  0.513300  0.122500  1.0  0.2199
  C  C547  1  0.162290  0.568500  0.151190  1.0  0.023
  C  C548  1  0.161670  0.486230  0.124160  1.0  -0.1141
  C  C549  1  0.448500  0.445230  0.080590  1.0  -0.0869
  C  C550  1  0.446990  0.431970  0.118040  1.0  -0.0743
  C  C551  1  0.313880  0.406320  0.097000  1.0  0.6933
  C  C552  1  0.361650  0.430710  0.052900  1.0  -0.0938
  C  C553  1  0.403880  0.421260  0.124440  1.0  -0.0369
  C  C554  1  0.406920  0.446640  0.048100  1.0  0.2626
  C  C555  1  0.243650  0.567720  0.180590  1.0  0.0507
  C  C556  1  0.244300  0.481120  0.158140  1.0  0.739
  C  C557  1  0.246100  0.654900  0.208600  1.0  0.7621
  C  C558  1  0.496300  0.433200  0.154500  1.0  0.6956
  C  C559  1  0.672940  0.080390  0.441790  1.0  -0.0866
  C  C560  1  0.524940  0.039170  0.473070  1.0  0.512
  C  C561  1  0.588690  0.006270  0.047040  1.0  0.321
  C  C562  1  0.641050  0.986540  0.203630  1.0  -0.1093
  C  C563  1  0.584030  0.905460  0.122110  1.0  -0.1179
  C  C564  1  0.609200  0.986700  0.121120  1.0  0.2213
  C  C565  1  0.582690  0.931500  0.093790  1.0  0.0284
  C  C566  1  0.637930  0.013770  0.175440  1.0  -0.1159
  C  C567  1  0.635360  0.054770  0.503270  1.0  -0.0871
  C  C568  1  0.686070  0.068030  0.515020  1.0  -0.0759
  C  C569  1  0.690680  0.093680  0.407560  1.0  0.6996
  C  C570  1  0.622190  0.069290  0.430940  1.0  -0.0924
  C  C571  1  0.703180  0.078740  0.482620  1.0  -0.0317
  C  C572  1  0.601460  0.053360  0.460280  1.0  0.2613
  C  C573  1  0.612870  0.932280  0.175930  1.0  0.0529
  C  C574  1  0.677020  0.018880  0.263180  1.0  0.7408
  C  C575  1  0.553700  0.845100  0.091200  1.0  0.7608
  C  C576  1  0.721300  0.066800  0.563100  1.0  0.697
  C  C577  1  0.080390  0.941790  0.172940  1.0  -0.0806
  C  C578  1  0.039170  0.973070  0.024940  1.0  0.5114
  C  C579  1  0.006270  0.547040  0.088690  1.0  0.3286
  C  C580  1  0.986540  0.703630  0.141050  1.0  -0.1066
  C  C581  1  0.905460  0.622110  0.084030  1.0  -0.1182
  C  C582  1  0.986700  0.621120  0.109200  1.0  0.2193
  C  C583  1  0.931500  0.593790  0.082690  1.0  0.0258
  C  C584  1  0.013770  0.675440  0.137930  1.0  -0.1123
  C  C585  1  0.054770  0.003270  0.135360  1.0  -0.0855
  C  C586  1  0.068030  0.015020  0.186070  1.0  -0.074
  C  C587  1  0.093680  0.907560  0.190680  1.0  0.6925
  C  C588  1  0.069290  0.930940  0.122190  1.0  -0.0903
  C  C589  1  0.078740  0.982620  0.203180  1.0  -0.035
  C  C590  1  0.053360  0.960280  0.101460  1.0  0.2631
  C  C591  1  0.932280  0.675930  0.112870  1.0  0.0501
  C  C592  1  0.018880  0.763180  0.177020  1.0  0.7398
  C  C593  1  0.845100  0.591200  0.053700  1.0  0.7612
  C  C594  1  0.066800  0.063100  0.221300  1.0  0.6958
  C  C595  1  0.419610  0.592550  0.861400  1.0  -0.0881
  C  C596  1  0.460830  0.485770  0.933900  1.0  0.5081
  C  C597  1  0.493730  0.582420  0.540770  1.0  0.3271
  C  C598  1  0.513460  0.654510  0.717090  1.0  -0.1093
  C  C599  1  0.594540  0.678570  0.716650  1.0  -0.1164
  C  C600  1  0.513300  0.622500  0.634420  1.0  0.2189
  C  C601  1  0.568500  0.651190  0.662290  1.0  0.0252
  C  C602  1  0.486230  0.624160  0.661670  1.0  -0.1146
  C  C603  1  0.445230  0.580590  0.948500  1.0  -0.0839
  C  C604  1  0.431970  0.618040  0.946990  1.0  -0.0774
  C  C605  1  0.406320  0.597000  0.813880  1.0  0.6996
  C  C606  1  0.430710  0.552900  0.861650  1.0  -0.0934
  C  C607  1  0.421260  0.624440  0.903880  1.0  -0.0317
  C  C608  1  0.446640  0.548100  0.906920  1.0  0.2618
  C  C609  1  0.567720  0.680590  0.743650  1.0  0.0513
  C  C610  1  0.481120  0.658140  0.744300  1.0  0.7402
  C  C611  1  0.654900  0.708600  0.746100  1.0  0.7602
  C  C612  1  0.433200  0.654500  0.996300  1.0  0.7003
  C  C613  1  0.231150  0.558210  0.638600  1.0  -0.0842
  C  C614  1  0.051870  0.526930  0.566100  1.0  0.5116
  C  C615  1  0.541650  0.952960  0.959230  1.0  0.3285
  C  C616  1  0.437420  0.796370  0.782910  1.0  -0.1057
  C  C617  1  0.461920  0.877890  0.783350  1.0  -0.1211
  C  C618  1  0.488080  0.878880  0.865580  1.0  0.2219
  C  C619  1  0.488900  0.906210  0.837710  1.0  0.0267
  C  C620  1  0.462490  0.824560  0.838330  1.0  -0.1154
  C  C621  1  0.132090  0.496730  0.551500  1.0  -0.0862
  C  C622  1  0.171050  0.484980  0.553010  1.0  -0.0718
  C  C623  1  0.283120  0.592440  0.686120  1.0  0.6925
  C  C624  1  0.191250  0.569060  0.638350  1.0  -0.0936
  C  C625  1  0.220560  0.517380  0.596120  1.0  -0.0318
  C  C626  1  0.141180  0.539720  0.593080  1.0  0.2654
  C  C627  1  0.436940  0.824070  0.756350  1.0  0.0523
  C  C628  1  0.413840  0.736820  0.755700  1.0  0.7376
  C  C629  1  0.462500  0.908800  0.753900  1.0  0.766
  C  C630  1  0.158200  0.436900  0.503700  1.0  0.6954
  C  C631  1  0.268850  0.907450  0.327060  1.0  -0.0872
  C  C632  1  0.448130  0.014230  0.475060  1.0  0.509
  C  C633  1  0.958350  0.917580  0.411310  1.0  0.3316
  C  C634  1  0.062580  0.845490  0.358950  1.0  -0.1109
  C  C635  1  0.038080  0.821430  0.415970  1.0  -0.122
  C  C636  1  0.011920  0.877500  0.390800  1.0  0.2221
  C  C637  1  0.011100  0.848810  0.417310  1.0  0.0191
  C  C638  1  0.037510  0.875840  0.362070  1.0  -0.1137
  C  C639  1  0.367910  0.919410  0.364640  1.0  -0.0881
  C  C640  1  0.328950  0.881960  0.313930  1.0  -0.0711
  C  C641  1  0.216880  0.903000  0.309320  1.0  0.694
  C  C642  1  0.308750  0.947100  0.377810  1.0  -0.0925
  C  C643  1  0.279440  0.875560  0.296820  1.0  -0.0327
  C  C644  1  0.358820  0.951900  0.398540  1.0  0.2613
  C  C645  1  0.063060  0.819410  0.387130  1.0  0.051
  C  C646  1  0.086160  0.841860  0.322980  1.0  0.7392
  C  C647  1  0.037500  0.791400  0.446300  1.0  0.7598
  C  C648  1  0.341800  0.845500  0.278700  1.0  0.6967
  N  N649  1  0.066790  0.040350  0.512500  1.0  -0.5448
  N  N650  1  0.449480  0.899150  0.457870  1.0  -0.5108
  N  N651  1  0.093150  0.988510  0.538020  1.0  -0.3872
  N  N652  1  0.420570  0.908940  0.517710  1.0  -0.3589
  N  N653  1  0.027850  0.554290  0.987500  1.0  -0.5445
  N  N654  1  0.941280  0.991610  0.042130  1.0  -0.5109
  N  N655  1  0.950490  0.555130  0.961980  1.0  -0.3896
  N  N656  1  0.891230  0.902860  0.982290  1.0  -0.3598
  N  N657  1  0.472150  0.459650  0.526440  1.0  -0.5489
  N  N658  1  0.558720  0.600850  0.050330  1.0  -0.5134
  N  N659  1  0.549510  0.511490  0.604640  1.0  -0.3853
  N  N660  1  0.608770  0.591060  0.011630  1.0  -0.3554
  N  N661  1  0.433210  0.945710  0.973560  1.0  -0.5443
  N  N662  1  0.050520  0.508390  0.449670  1.0  -0.5142
  N  N663  1  0.406850  0.944870  0.895360  1.0  -0.3908
  N  N664  1  0.079430  0.597140  0.488370  1.0  -0.3614
  N  N665  1  0.026440  0.472150  0.959650  1.0  -0.5451
  N  N666  1  0.550330  0.558720  0.100850  1.0  -0.5143
  N  N667  1  0.104640  0.549510  0.011490  1.0  -0.3891
  N  N668  1  0.511630  0.608770  0.091060  1.0  -0.3621
  N  N669  1  0.473560  0.433210  0.445710  1.0  -0.5441
  N  N670  1  0.949670  0.050520  0.008390  1.0  -0.5111
  N  N671  1  0.395360  0.406850  0.444870  1.0  -0.3875
  N  N672  1  0.988370  0.079430  0.097140  1.0  -0.3589
  N  N673  1  0.012500  0.066790  0.540350  1.0  -0.5429
  N  N674  1  0.957870  0.449480  0.399150  1.0  -0.5111
  N  N675  1  0.038020  0.093150  0.488510  1.0  -0.3864
  N  N676  1  0.017710  0.420570  0.408940  1.0  -0.3604
  N  N677  1  0.487500  0.027850  0.054290  1.0  -0.5471
  N  N678  1  0.542130  0.941280  0.491610  1.0  -0.5116
  N  N679  1  0.461980  0.950490  0.055130  1.0  -0.3837
  N  N680  1  0.482290  0.891230  0.402860  1.0  -0.3588
  N  N681  1  0.554290  0.487500  0.527850  1.0  -0.5427
  N  N682  1  0.991610  0.542130  0.441280  1.0  -0.5114
  N  N683  1  0.555130  0.461980  0.450490  1.0  -0.3865
  N  N684  1  0.902860  0.482290  0.391230  1.0  -0.3626
  N  N685  1  0.040350  0.012500  0.566790  1.0  -0.5464
  N  N686  1  0.899150  0.957870  0.949480  1.0  -0.5103
  N  N687  1  0.988510  0.038020  0.593150  1.0  -0.3849
  N  N688  1  0.908940  0.017710  0.920570  1.0  -0.3601
  N  N689  1  0.945710  0.473560  0.933210  1.0  -0.5434
  N  N690  1  0.508390  0.949670  0.550520  1.0  -0.5136
  N  N691  1  0.944870  0.395360  0.906850  1.0  -0.3878
  N  N692  1  0.597140  0.988370  0.579430  1.0  -0.3572
  N  N693  1  0.459650  0.026440  0.972150  1.0  -0.5437
  N  N694  1  0.600850  0.550330  0.058720  1.0  -0.5144
  N  N695  1  0.511490  0.104640  0.049510  1.0  -0.39
  N  N696  1  0.591060  0.511630  0.108770  1.0  -0.3592
  N  N697  1  0.459650  0.433210  0.987500  1.0  -0.5464
  N  N698  1  0.600850  0.050520  0.042130  1.0  -0.5165
  N  N699  1  0.511490  0.406850  0.961980  1.0  -0.3879
  N  N700  1  0.591060  0.079430  0.982290  1.0  -0.3584
  N  N701  1  0.945710  0.472150  0.512500  1.0  -0.5429
  N  N702  1  0.508390  0.558720  0.457870  1.0  -0.5138
  N  N703  1  0.944870  0.549510  0.538020  1.0  -0.3868
  N  N704  1  0.597140  0.608770  0.517710  1.0  -0.361
  N  N705  1  0.040350  0.027850  0.973560  1.0  -0.5452
  N  N706  1  0.899150  0.941280  0.449670  1.0  -0.5123
  N  N707  1  0.988510  0.950490  0.895360  1.0  -0.3847
  N  N708  1  0.908940  0.891230  0.488370  1.0  -0.3585
  N  N709  1  0.554290  0.066790  0.526440  1.0  -0.5449
  N  N710  1  0.991610  0.449480  0.050330  1.0  -0.5116
  N  N711  1  0.555130  0.093150  0.604640  1.0  -0.3878
  N  N712  1  0.902860  0.420570  0.011630  1.0  -0.3622
  N  N713  1  0.027850  0.473560  0.540350  1.0  -0.5442
  N  N714  1  0.941280  0.949670  0.399150  1.0  -0.5106
  N  N715  1  0.950490  0.395360  0.488510  1.0  -0.3878
  N  N716  1  0.891230  0.988370  0.408940  1.0  -0.3577
  N  N717  1  0.066790  0.026440  0.054290  1.0  -0.5452
  N  N718  1  0.449480  0.550330  0.491610  1.0  -0.5122
  N  N719  1  0.093150  0.104640  0.055130  1.0  -0.3913
  N  N720  1  0.420570  0.511630  0.402860  1.0  -0.3597
  N  N721  1  0.433210  0.487500  0.959650  1.0  -0.5427
  N  N722  1  0.050520  0.542130  0.100850  1.0  -0.5116
  N  N723  1  0.406850  0.461980  0.011490  1.0  -0.3879
  N  N724  1  0.079430  0.482290  0.091060  1.0  -0.3628
  N  N725  1  0.472150  0.012500  0.445710  1.0  -0.5468
  N  N726  1  0.558720  0.957870  0.008390  1.0  -0.5125
  N  N727  1  0.549510  0.038020  0.444870  1.0  -0.3851
  N  N728  1  0.608770  0.017710  0.097140  1.0  -0.3592
  N  N729  1  0.012500  0.945710  0.972150  1.0  -0.5441
  N  N730  1  0.957870  0.508390  0.058720  1.0  -0.5115
  N  N731  1  0.038020  0.944870  0.049510  1.0  -0.3915
  N  N732  1  0.017710  0.597140  0.108770  1.0  -0.3609
  N  N733  1  0.487500  0.459650  0.933210  1.0  -0.548
  N  N734  1  0.542130  0.600850  0.550520  1.0  -0.5139
  N  N735  1  0.461980  0.511490  0.906850  1.0  -0.3846
  N  N736  1  0.482290  0.591060  0.579430  1.0  -0.3587
  N  N737  1  0.026440  0.554290  0.566790  1.0  -0.5441
  N  N738  1  0.550330  0.991610  0.949480  1.0  -0.5116
  N  N739  1  0.104640  0.555130  0.593150  1.0  -0.3893
  N  N740  1  0.511630  0.902860  0.920570  1.0  -0.3584
  N  N741  1  0.473560  0.040350  0.527850  1.0  -0.5452
  N  N742  1  0.949670  0.899150  0.441280  1.0  -0.5108
  N  N743  1  0.395360  0.988510  0.450490  1.0  -0.3878
  N  N744  1  0.988370  0.908940  0.391230  1.0  -0.3618
  O  O745  1  0.183270  0.860410  0.593520  1.0  -0.5597
  O  O746  1  0.991140  0.798970  0.552890  1.0  -0.5793
  O  O747  1  0.283790  0.870010  0.567780  1.0  -0.5676
  O  O748  1  0.208010  0.813850  0.495320  1.0  -0.4741
  O  O749  1  0.278840  0.780520  0.323540  1.0  -0.594
  O  O750  1  0.229840  0.940630  0.606930  1.0  -0.4293
  O  O751  1  0.209080  0.781570  0.323270  1.0  -0.4636
  O  O752  1  0.986270  0.871170  0.591100  1.0  -0.5012
  O  O753  1  0.766890  0.589750  0.906480  1.0  -0.5621
  O  O754  1  0.746080  0.438250  0.947110  1.0  -0.5787
  O  O755  1  0.802230  0.716010  0.932220  1.0  -0.5703
  O  O756  1  0.818530  0.712690  0.004680  1.0  -0.4737
  O  O757  1  0.956980  0.955300  0.176460  1.0  -0.6
  O  O758  1  0.833700  0.622910  0.893070  1.0  -0.4391
  O  O759  1  0.958300  0.885810  0.176730  1.0  -0.4607
  O  O760  1  0.780070  0.395170  0.908900  1.0  -0.5028
  O  O761  1  0.733110  0.639590  0.822860  1.0  -0.56
  O  O762  1  0.753920  0.701030  0.692170  1.0  -0.5774
  O  O763  1  0.697770  0.629990  0.913780  1.0  -0.5684
  O  O764  1  0.681470  0.686150  0.894160  1.0  -0.4748
  O  O765  1  0.543020  0.719480  0.998320  1.0  -0.6019
  O  O766  1  0.666300  0.559370  0.789210  1.0  -0.4398
  O  O767  1  0.541700  0.718430  0.927510  1.0  -0.4575
  O  O768  1  0.719930  0.628830  0.615100  1.0  -0.5068
  O  O769  1  0.316730  0.910250  0.677140  1.0  -0.562
  O  O770  1  0.508860  0.061750  0.807830  1.0  -0.5789
  O  O771  1  0.216210  0.783990  0.586220  1.0  -0.569
  O  O772  1  0.291990  0.787310  0.605840  1.0  -0.4748
  O  O773  1  0.221160  0.544700  0.501680  1.0  -0.5928
  O  O774  1  0.270160  0.877090  0.710790  1.0  -0.4371
  O  O775  1  0.290920  0.614190  0.572490  1.0  -0.4595
  O  O776  1  0.513730  0.104830  0.884900  1.0  -0.5049
  O  O777  1  0.322860  0.733110  0.139590  1.0  -0.5604
  O  O778  1  0.192170  0.753920  0.201030  1.0  -0.578
  O  O779  1  0.413780  0.697770  0.129990  1.0  -0.5695
  O  O780  1  0.394160  0.681470  0.186150  1.0  -0.4733
  O  O781  1  0.498320  0.543020  0.219480  1.0  -0.5931
  O  O782  1  0.289210  0.666300  0.059370  1.0  -0.4287
  O  O783  1  0.427510  0.541700  0.218430  1.0  -0.4605
  O  O784  1  0.115100  0.719930  0.128830  1.0  -0.5067
  O  O785  1  0.177140  0.316730  0.410250  1.0  -0.559
  O  O786  1  0.307830  0.508860  0.561750  1.0  -0.5792
  O  O787  1  0.086220  0.216210  0.283990  1.0  -0.5686
  O  O788  1  0.105840  0.291990  0.287310  1.0  -0.467
  O  O789  1  0.001680  0.221160  0.044700  1.0  -0.5986
  O  O790  1  0.210790  0.270160  0.377090  1.0  -0.438
  O  O791  1  0.072490  0.290920  0.114190  1.0  -0.4562
  O  O792  1  0.384900  0.513730  0.604830  1.0  -0.5054
  O  O793  1  0.093520  0.183270  0.360410  1.0  -0.5607
  O  O794  1  0.052890  0.991140  0.298970  1.0  -0.5772
  O  O795  1  0.067780  0.283790  0.370010  1.0  -0.5691
  O  O796  1  0.995320  0.208010  0.313850  1.0  -0.4702
  O  O797  1  0.823540  0.278840  0.280520  1.0  -0.5907
  O  O798  1  0.106930  0.229840  0.440630  1.0  -0.437
  O  O799  1  0.823270  0.209080  0.281570  1.0  -0.456
  O  O800  1  0.091100  0.986270  0.371170  1.0  -0.5032
  O  O801  1  0.406480  0.766890  0.089750  1.0  -0.5616
  O  O802  1  0.447110  0.746080  0.938250  1.0  -0.5768
  O  O803  1  0.432220  0.802230  0.216010  1.0  -0.5702
  O  O804  1  0.504680  0.818530  0.212690  1.0  -0.4759
  O  O805  1  0.676460  0.956980  0.455300  1.0  -0.5988
  O  O806  1  0.393070  0.833700  0.122910  1.0  -0.4392
  O  O807  1  0.676730  0.958300  0.385810  1.0  -0.4574
  O  O808  1  0.408900  0.780070  0.895170  1.0  -0.5089
  O  O809  1  0.589750  0.406480  0.266890  1.0  -0.5612
  O  O810  1  0.438250  0.447110  0.246080  1.0  -0.5775
  O  O811  1  0.716010  0.432220  0.302230  1.0  -0.5677
  O  O812  1  0.712690  0.504680  0.318530  1.0  -0.4738
  O  O813  1  0.955300  0.676460  0.456980  1.0  -0.5925
  O  O814  1  0.622910  0.393070  0.333700  1.0  -0.4399
  O  O815  1  0.885810  0.676730  0.458300  1.0  -0.463
  O  O816  1  0.395170  0.408900  0.280070  1.0  -0.5031
  O  O817  1  0.860410  0.093520  0.683270  1.0  -0.5609
  O  O818  1  0.798970  0.052890  0.491140  1.0  -0.5761
  O  O819  1  0.870010  0.067780  0.783790  1.0  -0.5706
  O  O820  1  0.813850  0.995320  0.708010  1.0  -0.4766
  O  O821  1  0.780520  0.823540  0.778840  1.0  -0.6005
  O  O822  1  0.940630  0.106930  0.729840  1.0  -0.434
  O  O823  1  0.781570  0.823270  0.709080  1.0  -0.4607
  O  O824  1  0.871170  0.091100  0.486270  1.0  -0.5073
  O  O825  1  0.910250  0.177140  0.816730  1.0  -0.5612
  O  O826  1  0.061750  0.307830  0.008860  1.0  -0.5777
  O  O827  1  0.783990  0.086220  0.716210  1.0  -0.5698
  O  O828  1  0.787310  0.105840  0.791990  1.0  -0.4749
  O  O829  1  0.544700  0.001680  0.721160  1.0  -0.5967
  O  O830  1  0.877090  0.210790  0.770160  1.0  -0.4403
  O  O831  1  0.614190  0.072490  0.790920  1.0  -0.4642
  O  O832  1  0.104830  0.384900  0.013730  1.0  -0.5057
  O  O833  1  0.639590  0.322860  0.233110  1.0  -0.5594
  O  O834  1  0.701030  0.192170  0.253920  1.0  -0.5769
  O  O835  1  0.629990  0.413780  0.197770  1.0  -0.5693
  O  O836  1  0.686150  0.394160  0.181470  1.0  -0.4755
  O  O837  1  0.719480  0.498320  0.043020  1.0  -0.5973
  O  O838  1  0.559370  0.289210  0.166300  1.0  -0.4419
  O  O839  1  0.718430  0.427510  0.041700  1.0  -0.459
  O  O840  1  0.628830  0.115100  0.219930  1.0  -0.5056
  O  O841  1  0.639590  0.316730  0.906480  1.0  -0.5586
  O  O842  1  0.701030  0.508860  0.947110  1.0  -0.5789
  O  O843  1  0.629990  0.216210  0.932220  1.0  -0.5693
  O  O844  1  0.686150  0.291990  0.004680  1.0  -0.4668
  O  O845  1  0.719480  0.221160  0.176460  1.0  -0.5941
  O  O846  1  0.559370  0.270160  0.893070  1.0  -0.4386
  O  O847  1  0.718430  0.290920  0.176730  1.0  -0.4564
  O  O848  1  0.628830  0.513730  0.908900  1.0  -0.5064
  O  O849  1  0.910250  0.733110  0.593520  1.0  -0.5602
  O  O850  1  0.061750  0.753920  0.552890  1.0  -0.5783
  O  O851  1  0.783990  0.697770  0.567780  1.0  -0.5693
  O  O852  1  0.787310  0.681470  0.495320  1.0  -0.4733
  O  O853  1  0.544700  0.543020  0.323540  1.0  -0.594
  O  O854  1  0.877090  0.666300  0.606930  1.0  -0.4392
  O  O855  1  0.614190  0.541700  0.323270  1.0  -0.4609
  O  O856  1  0.104830  0.719930  0.591100  1.0  -0.5042
  O  O857  1  0.860410  0.766890  0.677140  1.0  -0.5611
  O  O858  1  0.798970  0.746080  0.807830  1.0  -0.5768
  O  O859  1  0.870010  0.802230  0.586220  1.0  -0.5705
  O  O860  1  0.813850  0.818530  0.605840  1.0  -0.4776
  O  O861  1  0.780520  0.956980  0.501680  1.0  -0.5966
  O  O862  1  0.940630  0.833700  0.710790  1.0  -0.431
  O  O863  1  0.781570  0.958300  0.572490  1.0  -0.4594
  O  O864  1  0.871170  0.780070  0.884900  1.0  -0.5119
  O  O865  1  0.589750  0.183270  0.822860  1.0  -0.5608
  O  O866  1  0.438250  0.991140  0.692170  1.0  -0.5765
  O  O867  1  0.716010  0.283790  0.913780  1.0  -0.57
  O  O868  1  0.712690  0.208010  0.894160  1.0  -0.4697
  O  O869  1  0.955300  0.278840  0.998320  1.0  -0.5908
  O  O870  1  0.622910  0.229840  0.789210  1.0  -0.438
  O  O871  1  0.885810  0.209080  0.927510  1.0  -0.4567
  O  O872  1  0.395170  0.986270  0.615100  1.0  -0.5035
  O  O873  1  0.766890  0.177140  0.360410  1.0  -0.5623
  O  O874  1  0.746080  0.307830  0.298970  1.0  -0.5768
  O  O875  1  0.802230  0.086220  0.370010  1.0  -0.5684
  O  O876  1  0.818530  0.105840  0.313850  1.0  -0.4754
  O  O877  1  0.956980  0.001680  0.280520  1.0  -0.5963
  O  O878  1  0.833700  0.210790  0.440630  1.0  -0.4401
  O  O879  1  0.958300  0.072490  0.281570  1.0  -0.4631
  O  O880  1  0.780070  0.384900  0.371170  1.0  -0.5025
  O  O881  1  0.183270  0.322860  0.089750  1.0  -0.5587
  O  O882  1  0.991140  0.192170  0.938250  1.0  -0.5777
  O  O883  1  0.283790  0.413780  0.216010  1.0  -0.57
  O  O884  1  0.208010  0.394160  0.212690  1.0  -0.4764
  O  O885  1  0.278840  0.498320  0.455300  1.0  -0.598
  O  O886  1  0.229840  0.289210  0.122910  1.0  -0.4417
  O  O887  1  0.209080  0.427510  0.385810  1.0  -0.4614
  O  O888  1  0.986270  0.115100  0.895170  1.0  -0.5056
  O  O889  1  0.316730  0.406480  0.139590  1.0  -0.56
  O  O890  1  0.508860  0.447110  0.201030  1.0  -0.5775
  O  O891  1  0.216210  0.432220  0.129990  1.0  -0.57
  O  O892  1  0.291990  0.504680  0.186150  1.0  -0.4734
  O  O893  1  0.221160  0.676460  0.219480  1.0  -0.5921
  O  O894  1  0.270160  0.393070  0.059370  1.0  -0.4319
  O  O895  1  0.290920  0.676730  0.218430  1.0  -0.4598
  O  O896  1  0.513730  0.408900  0.128830  1.0  -0.5032
  O  O897  1  0.733110  0.093520  0.410250  1.0  -0.5604
  O  O898  1  0.753920  0.052890  0.561750  1.0  -0.5764
  O  O899  1  0.697770  0.067780  0.283990  1.0  -0.5725
  O  O900  1  0.681470  0.995320  0.287310  1.0  -0.4768
  O  O901  1  0.543020  0.823540  0.044700  1.0  -0.5965
  O  O902  1  0.666300  0.106930  0.377090  1.0  -0.4415
  O  O903  1  0.541700  0.823270  0.114190  1.0  -0.4625
  O  O904  1  0.719930  0.091100  0.604830  1.0  -0.5071
  O  O905  1  0.093520  0.910250  0.233110  1.0  -0.5605
  O  O906  1  0.052890  0.061750  0.253920  1.0  -0.5788
  O  O907  1  0.067780  0.783990  0.197770  1.0  -0.5693
  O  O908  1  0.995320  0.787310  0.181470  1.0  -0.4753
  O  O909  1  0.823540  0.544700  0.043020  1.0  -0.5946
  O  O910  1  0.106930  0.877090  0.166300  1.0  -0.4388
  O  O911  1  0.823270  0.614190  0.041700  1.0  -0.4549
  O  O912  1  0.091100  0.104830  0.219930  1.0  -0.5038
  O  O913  1  0.406480  0.639590  0.816730  1.0  -0.5609
  O  O914  1  0.447110  0.701030  0.008860  1.0  -0.5777
  O  O915  1  0.432220  0.629990  0.716210  1.0  -0.5675
  O  O916  1  0.504680  0.686150  0.791990  1.0  -0.4762
  O  O917  1  0.676460  0.719480  0.721160  1.0  -0.5989
  O  O918  1  0.393070  0.559370  0.770160  1.0  -0.4409
  O  O919  1  0.676730  0.718430  0.790920  1.0  -0.4545
  O  O920  1  0.408900  0.628830  0.013730  1.0  -0.5085
  O  O921  1  0.322860  0.589750  0.683270  1.0  -0.561
  O  O922  1  0.192170  0.438250  0.491140  1.0  -0.5779
  O  O923  1  0.413780  0.716010  0.783790  1.0  -0.5696
  O  O924  1  0.394160  0.712690  0.708010  1.0  -0.4743
  O  O925  1  0.498320  0.955300  0.778840  1.0  -0.5971
  O  O926  1  0.289210  0.622910  0.729840  1.0  -0.4402
  O  O927  1  0.427510  0.885810  0.709080  1.0  -0.4549
  O  O928  1  0.115100  0.395170  0.486270  1.0  -0.5024
  O  O929  1  0.177140  0.860410  0.266890  1.0  -0.5607
  O  O930  1  0.307830  0.798970  0.246080  1.0  -0.5782
  O  O931  1  0.086220  0.870010  0.302230  1.0  -0.5688
  O  O932  1  0.105840  0.813850  0.318530  1.0  -0.474
  O  O933  1  0.001680  0.780520  0.456980  1.0  -0.5971
  O  O934  1  0.210790  0.940630  0.333700  1.0  -0.4289
  O  O935  1  0.072490  0.781570  0.458300  1.0  -0.4565
  O  O936  1  0.384900  0.871170  0.280070  1.0  -0.5038
