# generated using pymatgen
data_ZnH8C18(NO2)4
_symmetry_space_group_name_H-M   'P 1'
_cell_length_a   31.11620000
_cell_length_b   31.11620000
_cell_length_c   31.11620000
_cell_angle_alpha   109.47100000
_cell_angle_beta   109.47100000
_cell_angle_gamma   109.47100000
_symmetry_Int_Tables_number   1
_chemical_formula_structural   ZnH8C18(NO2)4
_chemical_formula_sum   'Zn24 H192 C432 N96 O192'
_cell_volume   23192.16646888
_cell_formula_units_Z   24
loop_
 _symmetry_equiv_pos_site_id
 _symmetry_equiv_pos_as_xyz
  1  'x, y, z'
loop_
 _atom_site_type_symbol
 _atom_site_label
 _atom_site_symmetry_multiplicity
 _atom_site_fract_x
 _atom_site_fract_y
 _atom_site_fract_z
 _atom_site_occupancy
 _atom_site_charge
  Zn  Zn1  1  0.890390  0.750000  0.640390  1.0  1.0741
  Zn  Zn2  1  0.609610  0.250000  0.859610  1.0  1.0736
  Zn  Zn3  1  0.140390  0.890390  0.250000  1.0  1.0756
  Zn  Zn4  1  0.359610  0.609610  0.750000  1.0  1.0747
  Zn  Zn5  1  0.250000  0.359610  0.109610  1.0  1.0753
  Zn  Zn6  1  0.750000  0.140390  0.390390  1.0  1.075
  Zn  Zn7  1  0.750000  0.609610  0.859610  1.0  1.0753
  Zn  Zn8  1  0.250000  0.890390  0.640390  1.0  1.075
  Zn  Zn9  1  0.609610  0.359610  0.250000  1.0  1.0747
  Zn  Zn10  1  0.890390  0.140390  0.750000  1.0  1.0756
  Zn  Zn11  1  0.140390  0.250000  0.390390  1.0  1.0742
  Zn  Zn12  1  0.359610  0.750000  0.109610  1.0  1.0736
  Zn  Zn13  1  0.750000  0.500640  0.499360  1.0  1.0989
  Zn  Zn14  1  0.501280  0.250640  0.000640  1.0  1.0964
  Zn  Zn15  1  0.998720  0.999360  0.749360  1.0  1.0954
  Zn  Zn16  1  0.750000  0.249360  0.750640  1.0  1.0982
  Zn  Zn17  1  0.249360  0.998720  0.499360  1.0  1.0962
  Zn  Zn18  1  0.250640  0.750000  0.749360  1.0  1.0996
  Zn  Zn19  1  0.999360  0.750000  0.000640  1.0  1.0975
  Zn  Zn20  1  0.500640  0.501280  0.750640  1.0  1.0974
  Zn  Zn21  1  0.250640  0.500640  0.001280  1.0  1.0984
  Zn  Zn22  1  0.500640  0.999360  0.250000  1.0  1.0962
  Zn  Zn23  1  0.249360  0.250640  0.250000  1.0  1.0958
  Zn  Zn24  1  0.999360  0.249360  0.498720  1.0  1.099
  H  H25  1  0.617900  0.615300  0.587400  1.0  0.3054
  H  H26  1  0.921500  0.720500  0.807600  1.0  0.1125
  H  H27  1  0.005700  0.931200  0.880300  1.0  0.2964
  H  H28  1  0.004500  0.855600  0.941900  1.0  0.1107
  H  H29  1  0.599600  0.522400  0.476400  1.0  0.0836
  H  H30  1  0.697000  0.667900  0.596100  1.0  0.1283
  H  H31  1  0.963200  0.856300  0.807300  1.0  0.1077
  H  H32  1  0.749000  0.595200  0.514400  1.0  0.0983
  H  H33  1  0.527900  0.030500  0.912600  1.0  0.2954
  H  H34  1  0.412900  0.113900  0.692400  1.0  0.1122
  H  H35  1  0.550900  0.125400  0.619700  1.0  0.2973
  H  H36  1  0.413700  0.062600  0.558100  1.0  0.1098
  H  H37  1  0.546000  0.123200  0.023600  1.0  0.0848
  H  H38  1  0.571800  0.100900  0.903900  1.0  0.1285
  H  H39  1  0.549000  0.155900  0.692700  1.0  0.1045
  H  H40  1  0.580800  0.234600  0.985600  1.0  0.0995
  H  H41  1  0.972100  0.884700  0.502600  1.0  0.3039
  H  H42  1  0.087100  0.779500  0.701000  1.0  0.1118
  H  H43  1  0.949100  0.568800  0.574500  1.0  0.2991
  H  H44  1  0.086300  0.644400  0.648900  1.0  0.1114
  H  H45  1  0.954000  0.977600  0.577200  1.0  0.0844
  H  H46  1  0.928200  0.832100  0.529100  1.0  0.1293
  H  H47  1  0.951000  0.643700  0.606900  1.0  0.1048
  H  H48  1  0.919200  0.904800  0.653800  1.0  0.1008
  H  H49  1  0.882100  0.469500  0.997400  1.0  0.3026
  H  H50  1  0.578500  0.386100  0.799000  1.0  0.1112
  H  H51  1  0.494300  0.374600  0.925500  1.0  0.2969
  H  H52  1  0.495500  0.437400  0.851100  1.0  0.109
  H  H53  1  0.900400  0.376800  0.922800  1.0  0.0826
  H  H54  1  0.803000  0.399100  0.970900  1.0  0.1295
  H  H55  1  0.536800  0.344100  0.893100  1.0  0.1053
  H  H56  1  0.751000  0.265400  0.846200  1.0  0.1017
  H  H57  1  0.002600  0.972100  0.384700  1.0  0.2923
  H  H58  1  0.201000  0.087100  0.279500  1.0  0.1114
  H  H59  1  0.074500  0.949100  0.068800  1.0  0.2967
  H  H60  1  0.148900  0.086300  0.144400  1.0  0.1108
  H  H61  1  0.077200  0.954000  0.477600  1.0  0.0832
  H  H62  1  0.029100  0.928200  0.332100  1.0  0.1288
  H  H63  1  0.106900  0.951000  0.143700  1.0  0.1043
  H  H64  1  0.153800  0.919200  0.404800  1.0  0.0982
  H  H65  1  0.497400  0.882100  0.969500  1.0  0.2952
  H  H66  1  0.299000  0.578500  0.886100  1.0  0.112
  H  H67  1  0.425500  0.494300  0.874600  1.0  0.297
  H  H68  1  0.351100  0.495500  0.937400  1.0  0.1104
  H  H69  1  0.422800  0.900400  0.876800  1.0  0.0835
  H  H70  1  0.470900  0.803000  0.899100  1.0  0.129
  H  H71  1  0.393100  0.536800  0.844100  1.0  0.1079
  H  H72  1  0.346200  0.751000  0.765400  1.0  0.0991
  H  H73  1  0.087400  0.617900  0.115300  1.0  0.302
  H  H74  1  0.307600  0.921500  0.220500  1.0  0.1118
  H  H75  1  0.380300  0.005700  0.431200  1.0  0.2949
  H  H76  1  0.441900  0.004500  0.355600  1.0  0.1094
  H  H77  1  0.976400  0.599600  0.022400  1.0  0.0843
  H  H78  1  0.096100  0.697000  0.167900  1.0  0.1294
  H  H79  1  0.307300  0.963200  0.356300  1.0  0.1046
  H  H80  1  0.014400  0.749000  0.095200  1.0  0.1
  H  H81  1  0.412600  0.527900  0.530500  1.0  0.3015
  H  H82  1  0.192400  0.412900  0.613900  1.0  0.1118
  H  H83  1  0.119700  0.550900  0.625400  1.0  0.298
  H  H84  1  0.058100  0.413700  0.562600  1.0  0.1107
  H  H85  1  0.523600  0.546000  0.623200  1.0  0.0819
  H  H86  1  0.403900  0.571800  0.600900  1.0  0.1296
  H  H87  1  0.192700  0.549000  0.655900  1.0  0.1049
  H  H88  1  0.485600  0.580800  0.734600  1.0  0.101
  H  H89  1  0.030500  0.412600  0.027900  1.0  0.2953
  H  H90  1  0.113900  0.192400  0.912900  1.0  0.1111
  H  H91  1  0.125400  0.119700  0.050900  1.0  0.2962
  H  H92  1  0.062600  0.058100  0.913700  1.0  0.1111
  H  H93  1  0.123200  0.523600  0.046000  1.0  0.0818
  H  H94  1  0.100900  0.403900  0.071800  1.0  0.1291
  H  H95  1  0.155900  0.192700  0.049000  1.0  0.1051
  H  H96  1  0.234600  0.485600  0.080800  1.0  0.0995
  H  H97  1  0.615300  0.087400  0.117900  1.0  0.3038
  H  H98  1  0.720500  0.307600  0.421500  1.0  0.1129
  H  H99  1  0.931200  0.380300  0.505700  1.0  0.2989
  H  H100  1  0.855600  0.441900  0.504500  1.0  0.1111
  H  H101  1  0.522400  0.976400  0.099600  1.0  0.083
  H  H102  1  0.667900  0.096100  0.197000  1.0  0.1289
  H  H103  1  0.856300  0.307300  0.463200  1.0  0.1044
  H  H104  1  0.595200  0.014400  0.249000  1.0  0.0995
  H  H105  1  0.469500  0.497400  0.382100  1.0  0.3032
  H  H106  1  0.386100  0.299000  0.078500  1.0  0.112
  H  H107  1  0.374600  0.425500  0.994300  1.0  0.2973
  H  H108  1  0.437400  0.351100  0.995500  1.0  0.1115
  H  H109  1  0.376800  0.422800  0.400400  1.0  0.0862
  H  H110  1  0.399100  0.470900  0.303000  1.0  0.129
  H  H111  1  0.344100  0.393100  0.036800  1.0  0.1048
  H  H112  1  0.265400  0.346200  0.251000  1.0  0.0985
  H  H113  1  0.884700  0.002600  0.472100  1.0  0.3011
  H  H114  1  0.779500  0.201000  0.587100  1.0  0.1126
  H  H115  1  0.568800  0.074500  0.449100  1.0  0.2973
  H  H116  1  0.644400  0.148900  0.586300  1.0  0.1113
  H  H117  1  0.977600  0.077200  0.454000  1.0  0.0839
  H  H118  1  0.832100  0.029100  0.428200  1.0  0.1281
  H  H119  1  0.643700  0.106900  0.451000  1.0  0.1086
  H  H120  1  0.904800  0.153800  0.419200  1.0  0.0989
  H  H121  1  0.884700  0.882100  0.912600  1.0  0.3033
  H  H122  1  0.779500  0.578500  0.692400  1.0  0.113
  H  H123  1  0.568800  0.494300  0.619700  1.0  0.2966
  H  H124  1  0.644400  0.495500  0.558100  1.0  0.1109
  H  H125  1  0.977600  0.900400  0.023600  1.0  0.0841
  H  H126  1  0.832100  0.803000  0.903900  1.0  0.1287
  H  H127  1  0.643700  0.536800  0.692700  1.0  0.1077
  H  H128  1  0.904800  0.751000  0.985600  1.0  0.099
  H  H129  1  0.469500  0.972100  0.587400  1.0  0.305
  H  H130  1  0.386100  0.087100  0.807600  1.0  0.1111
  H  H131  1  0.374600  0.949100  0.880300  1.0  0.2951
  H  H132  1  0.437400  0.086300  0.941900  1.0  0.1104
  H  H133  1  0.376800  0.954000  0.476400  1.0  0.0833
  H  H134  1  0.399100  0.928200  0.596100  1.0  0.1295
  H  H135  1  0.344100  0.951000  0.807300  1.0  0.1039
  H  H136  1  0.265400  0.919200  0.514400  1.0  0.0979
  H  H137  1  0.615300  0.527900  0.997400  1.0  0.2994
  H  H138  1  0.720500  0.412900  0.799000  1.0  0.1129
  H  H139  1  0.931200  0.550900  0.925500  1.0  0.2975
  H  H140  1  0.855600  0.413700  0.851100  1.0  0.111
  H  H141  1  0.522400  0.546000  0.922800  1.0  0.0821
  H  H142  1  0.667900  0.571800  0.970900  1.0  0.1302
  H  H143  1  0.856300  0.549000  0.893100  1.0  0.1058
  H  H144  1  0.595200  0.580800  0.846200  1.0  0.102
  H  H145  1  0.030500  0.617900  0.502600  1.0  0.2938
  H  H146  1  0.113900  0.921500  0.701000  1.0  0.1111
  H  H147  1  0.125400  0.005700  0.574500  1.0  0.2972
  H  H148  1  0.062600  0.004500  0.648900  1.0  0.1096
  H  H149  1  0.123200  0.599600  0.577200  1.0  0.0837
  H  H150  1  0.100900  0.697000  0.529100  1.0  0.1283
  H  H151  1  0.155900  0.963200  0.606900  1.0  0.1054
  H  H152  1  0.234600  0.749000  0.653800  1.0  0.0997
  H  H153  1  0.527900  0.497400  0.115300  1.0  0.3029
  H  H154  1  0.412900  0.299000  0.220500  1.0  0.1129
  H  H155  1  0.550900  0.425500  0.431200  1.0  0.2982
  H  H156  1  0.413700  0.351100  0.355600  1.0  0.1111
  H  H157  1  0.546000  0.422800  0.022400  1.0  0.0863
  H  H158  1  0.571800  0.470900  0.167900  1.0  0.1303
  H  H159  1  0.549000  0.393100  0.356300  1.0  0.1054
  H  H160  1  0.580800  0.346200  0.095200  1.0  0.0978
  H  H161  1  0.617900  0.002600  0.530500  1.0  0.3034
  H  H162  1  0.921500  0.201000  0.613900  1.0  0.1113
  H  H163  1  0.005700  0.074500  0.625400  1.0  0.297
  H  H164  1  0.004500  0.148900  0.562600  1.0  0.112
  H  H165  1  0.599600  0.077200  0.623200  1.0  0.0846
  H  H166  1  0.697000  0.029100  0.600900  1.0  0.1289
  H  H167  1  0.963200  0.106900  0.655900  1.0  0.1078
  H  H168  1  0.749000  0.153800  0.734600  1.0  0.0985
  H  H169  1  0.882100  0.412600  0.384700  1.0  0.3043
  H  H170  1  0.578500  0.192400  0.279500  1.0  0.1117
  H  H171  1  0.494300  0.119700  0.068800  1.0  0.2975
  H  H172  1  0.495500  0.058100  0.144400  1.0  0.1101
  H  H173  1  0.900400  0.523600  0.477600  1.0  0.0816
  H  H174  1  0.803000  0.403900  0.332100  1.0  0.1278
  H  H175  1  0.536800  0.192700  0.143700  1.0  0.1066
  H  H176  1  0.751000  0.485600  0.404800  1.0  0.0993
  H  H177  1  0.972100  0.087400  0.969500  1.0  0.2967
  H  H178  1  0.087100  0.307600  0.886100  1.0  0.1123
  H  H179  1  0.949100  0.380300  0.874600  1.0  0.2981
  H  H180  1  0.086300  0.441900  0.937400  1.0  0.1107
  H  H181  1  0.954000  0.976400  0.876800  1.0  0.0828
  H  H182  1  0.928200  0.096100  0.899100  1.0  0.1294
  H  H183  1  0.951000  0.307300  0.844100  1.0  0.1049
  H  H184  1  0.919200  0.014400  0.765400  1.0  0.1014
  H  H185  1  0.087400  0.469500  0.472100  1.0  0.3047
  H  H186  1  0.307600  0.386100  0.587100  1.0  0.1114
  H  H187  1  0.380300  0.374600  0.449100  1.0  0.298
  H  H188  1  0.441900  0.437400  0.586300  1.0  0.1089
  H  H189  1  0.976400  0.376800  0.454000  1.0  0.0821
  H  H190  1  0.096100  0.399100  0.428200  1.0  0.1284
  H  H191  1  0.307300  0.344100  0.451000  1.0  0.1064
  H  H192  1  0.014400  0.265400  0.419200  1.0  0.1017
  H  H193  1  0.412600  0.884700  0.382100  1.0  0.3057
  H  H194  1  0.192400  0.779500  0.078500  1.0  0.1122
  H  H195  1  0.119700  0.568800  0.994300  1.0  0.2982
  H  H196  1  0.058100  0.644400  0.995500  1.0  0.1107
  H  H197  1  0.523600  0.977600  0.400400  1.0  0.0828
  H  H198  1  0.403900  0.832100  0.303000  1.0  0.1297
  H  H199  1  0.192700  0.643700  0.036800  1.0  0.1055
  H  H200  1  0.485600  0.904800  0.251000  1.0  0.101
  H  H201  1  0.002600  0.030500  0.117900  1.0  0.2917
  H  H202  1  0.201000  0.113900  0.421500  1.0  0.1117
  H  H203  1  0.074500  0.125400  0.505700  1.0  0.2992
  H  H204  1  0.148900  0.062600  0.504500  1.0  0.1106
  H  H205  1  0.077200  0.123200  0.099600  1.0  0.0848
  H  H206  1  0.029100  0.100900  0.197000  1.0  0.1302
  H  H207  1  0.106900  0.155900  0.463200  1.0  0.1044
  H  H208  1  0.153800  0.234600  0.249000  1.0  0.0985
  H  H209  1  0.497400  0.615300  0.027900  1.0  0.3044
  H  H210  1  0.299000  0.720500  0.912900  1.0  0.1123
  H  H211  1  0.425500  0.931200  0.050900  1.0  0.295
  H  H212  1  0.351100  0.855600  0.913700  1.0  0.1116
  H  H213  1  0.422800  0.522400  0.046000  1.0  0.0837
  H  H214  1  0.470900  0.667900  0.071800  1.0  0.129
  H  H215  1  0.393100  0.856300  0.049000  1.0  0.1072
  H  H216  1  0.346200  0.595200  0.080800  1.0  0.0983
  C  C217  1  0.987690  0.866350  0.878920  1.0  0.2032
  C  C218  1  0.938010  0.757000  0.825290  1.0  0.0332
  C  C219  1  0.914470  0.756990  0.737940  1.0  0.7283
  C  C220  1  0.551920  0.565960  0.526740  1.0  0.5193
  C  C221  1  0.987310  0.837930  0.905320  1.0  -0.0267
  C  C222  1  0.632940  0.552170  0.497390  1.0  -0.09
  C  C223  1  0.641100  0.593770  0.539270  1.0  0.2561
  C  C224  1  0.961070  0.782900  0.876990  1.0  -0.0926
  C  C225  1  0.690680  0.638160  0.568620  1.0  -0.1321
  C  C226  1  0.963080  0.837900  0.825540  1.0  -0.1208
  C  C227  1  0.670080  0.551690  0.484830  1.0  0.0103
  C  C228  1  0.721450  0.596350  0.519320  1.0  -0.01
  C  C229  1  0.731490  0.639990  0.558580  1.0  -0.09
  C  C230  1  0.041790  0.959360  0.952830  1.0  0.5443
  C  C231  1  0.783190  0.686880  0.592190  1.0  0.692
  C  C232  1  0.937640  0.783050  0.796130  1.0  -0.1595
  C  C233  1  0.660090  0.503920  0.439430  1.0  0.6865
  C  C234  1  0.960760  0.752760  0.907800  1.0  0.7389
  C  C235  1  0.487430  0.108770  0.621080  1.0  0.2025
  C  C236  1  0.431710  0.112720  0.674710  1.0  0.03
  C  C237  1  0.519050  0.176530  0.762060  1.0  0.7264
  C  C238  1  0.539220  0.025180  0.973260  1.0  0.5125
  C  C239  1  0.432610  0.081990  0.594680  1.0  -0.0322
  C  C240  1  0.554780  0.135550  0.002610  1.0  -0.0867
  C  C241  1  0.554500  0.101830  0.960730  1.0  0.2583
  C  C242  1  0.405910  0.084080  0.623010  1.0  -0.0905
  C  C243  1  0.569540  0.122060  0.931380  1.0  -0.1327
  C  C244  1  0.512360  0.137540  0.674460  1.0  -0.1208
  C  C245  1  0.566860  0.185250  0.015170  1.0  0.0057
  C  C246  1  0.577030  0.202130  0.980680  1.0  -0.0162
  C  C247  1  0.581410  0.172910  0.941420  1.0  -0.0841
  C  C248  1  0.506530  0.088960  0.547170  1.0  0.5424
  C  C249  1  0.594690  0.191000  0.907810  1.0  0.7033
  C  C250  1  0.486920  0.141510  0.703870  1.0  -0.1597
  C  C251  1  0.564490  0.220660  0.060570  1.0  0.6852
  C  C252  1  0.344960  0.052960  0.592200  1.0  0.7407
  C  C253  1  0.012570  0.633650  0.621340  1.0  0.2015
  C  C254  1  0.068290  0.743000  0.681010  1.0  0.0318
  C  C255  1  0.980950  0.743010  0.657480  1.0  0.7245
  C  C256  1  0.960780  0.934040  0.485960  1.0  0.5158
  C  C257  1  0.067390  0.662070  0.649380  1.0  -0.0304
  C  C258  1  0.945220  0.947830  0.580770  1.0  -0.0879
  C  C259  1  0.945500  0.906230  0.547330  1.0  0.259
  C  C260  1  0.094090  0.717100  0.678170  1.0  -0.0949
  C  C261  1  0.930460  0.861840  0.552520  1.0  -0.1314
  C  C262  1  0.987640  0.662100  0.625180  1.0  -0.1199
  C  C263  1  0.933140  0.948310  0.618390  1.0  0.0065
  C  C264  1  0.922970  0.903650  0.625100  1.0  -0.0161
  C  C265  1  0.918590  0.860010  0.591500  1.0  -0.0935
  C  C266  1  0.993470  0.540640  0.582430  1.0  0.5529
  C  C267  1  0.905310  0.813120  0.596310  1.0  0.6923
  C  C268  1  0.013080  0.716950  0.654590  1.0  -0.1566
  C  C269  1  0.935510  0.996080  0.656170  1.0  0.6832
  C  C270  1  0.155040  0.747240  0.708000  1.0  0.7372
  C  C271  1  0.512310  0.391230  0.878660  1.0  0.2067
  C  C272  1  0.561990  0.387280  0.818990  1.0  0.0309
  C  C273  1  0.585530  0.323470  0.842520  1.0  0.7231
  C  C274  1  0.948080  0.474820  0.014040  1.0  0.5161
  C  C275  1  0.512690  0.418010  0.850620  1.0  -0.0333
  C  C276  1  0.867060  0.364450  0.919230  1.0  -0.0887
  C  C277  1  0.858900  0.398170  0.952670  1.0  0.2613
  C  C278  1  0.538930  0.415920  0.821830  1.0  -0.0913
  C  C279  1  0.809320  0.377940  0.947480  1.0  -0.1372
  C  C280  1  0.536920  0.362460  0.874820  1.0  -0.122
  C  C281  1  0.829920  0.314750  0.881610  1.0  0.0076
  C  C282  1  0.778550  0.297870  0.874900  1.0  -0.019
  C  C283  1  0.768510  0.327090  0.908500  1.0  -0.0862
  C  C284  1  0.458210  0.411040  0.917570  1.0  0.5379
  C  C285  1  0.716810  0.309000  0.903690  1.0  0.6941
  C  C286  1  0.562360  0.358490  0.845410  1.0  -0.1575
  C  C287  1  0.839910  0.279340  0.843830  1.0  0.6798
  C  C288  1  0.539240  0.447040  0.792000  1.0  0.7437
  C  C289  1  0.121340  0.012570  0.133650  1.0  0.2028
  C  C290  1  0.181010  0.068290  0.243000  1.0  0.0311
  C  C291  1  0.157480  0.980950  0.243010  1.0  0.7276
  C  C292  1  0.985960  0.960780  0.434040  1.0  0.5126
  C  C293  1  0.149380  0.067390  0.162070  1.0  -0.031
  C  C294  1  0.080770  0.945220  0.447830  1.0  -0.0883
  C  C295  1  0.047330  0.945500  0.406230  1.0  0.2585
  C  C296  1  0.178170  0.094090  0.217100  1.0  -0.091
  C  C297  1  0.052520  0.930460  0.361840  1.0  -0.1305
  C  C298  1  0.125180  0.987640  0.162100  1.0  -0.1235
  C  C299  1  0.118390  0.933140  0.448310  1.0  0.0056
  C  C300  1  0.125100  0.922970  0.403650  1.0  -0.0156
  C  C301  1  0.091500  0.918590  0.360010  1.0  -0.0925
  C  C302  1  0.082430  0.993470  0.040640  1.0  0.524
  C  C303  1  0.096310  0.905310  0.313120  1.0  0.7005
  C  C304  1  0.154590  0.013080  0.216950  1.0  -0.1594
  C  C305  1  0.156170  0.935510  0.496080  1.0  0.6879
  C  C306  1  0.208000  0.155040  0.247240  1.0  0.74
  C  C307  1  0.378660  0.512310  0.891230  1.0  0.2036
  C  C308  1  0.318990  0.561990  0.887280  1.0  0.032
  C  C309  1  0.342520  0.585530  0.823470  1.0  0.7255
  C  C310  1  0.514040  0.948080  0.974820  1.0  0.5144
  C  C311  1  0.350620  0.512690  0.918010  1.0  -0.0292
  C  C312  1  0.419230  0.867060  0.864450  1.0  -0.0876
  C  C313  1  0.452670  0.858900  0.898170  1.0  0.2588
  C  C314  1  0.321830  0.538930  0.915920  1.0  -0.0908
  C  C315  1  0.447480  0.809320  0.877940  1.0  -0.1282
  C  C316  1  0.374820  0.536920  0.862460  1.0  -0.1179
  C  C317  1  0.381610  0.829920  0.814750  1.0  0.0104
  C  C318  1  0.374900  0.778550  0.797870  1.0  -0.0121
  C  C319  1  0.408500  0.768510  0.827090  1.0  -0.0879
  C  C320  1  0.417570  0.458210  0.911040  1.0  0.5145
  C  C321  1  0.403690  0.716810  0.809000  1.0  0.6938
  C  C322  1  0.345410  0.562360  0.858490  1.0  -0.1587
  C  C323  1  0.343830  0.839910  0.779340  1.0  0.6886
  C  C324  1  0.292000  0.539240  0.947040  1.0  0.7382
  C  C325  1  0.378920  0.987690  0.366350  1.0  0.2033
  C  C326  1  0.325290  0.938010  0.257000  1.0  0.0317
  C  C327  1  0.237940  0.914470  0.256990  1.0  0.7244
  C  C328  1  0.026740  0.551920  0.065960  1.0  0.5194
  C  C329  1  0.405320  0.987310  0.337930  1.0  -0.0304
  C  C330  1  0.997390  0.632940  0.052170  1.0  -0.0891
  C  C331  1  0.039270  0.641100  0.093770  1.0  0.2609
  C  C332  1  0.376990  0.961070  0.282900  1.0  -0.0918
  C  C333  1  0.068620  0.690680  0.138160  1.0  -0.1352
  C  C334  1  0.325540  0.963080  0.337900  1.0  -0.1195
  C  C335  1  0.984830  0.670080  0.051690  1.0  0.0081
  C  C336  1  0.019320  0.721450  0.096350  1.0  -0.0138
  C  C337  1  0.058580  0.731490  0.139990  1.0  -0.0836
  C  C338  1  0.452830  0.041790  0.459360  1.0  0.5257
  C  C339  1  0.092190  0.783190  0.186880  1.0  0.6942
  C  C340  1  0.296130  0.937640  0.283050  1.0  -0.1562
  C  C341  1  0.939430  0.660090  0.003920  1.0  0.6837
  C  C342  1  0.407800  0.960760  0.252760  1.0  0.7481
  C  C343  1  0.121080  0.487430  0.608770  1.0  0.202
  C  C344  1  0.174710  0.431710  0.612720  1.0  0.0314
  C  C345  1  0.262060  0.519050  0.676530  1.0  0.7236
  C  C346  1  0.473260  0.539220  0.525180  1.0  0.5163
  C  C347  1  0.094680  0.432610  0.581990  1.0  -0.0331
  C  C348  1  0.502610  0.554780  0.635550  1.0  -0.088
  C  C349  1  0.460730  0.554500  0.601830  1.0  0.2577
  C  C350  1  0.123010  0.405910  0.584080  1.0  -0.0906
  C  C351  1  0.431380  0.569540  0.622060  1.0  -0.1286
  C  C352  1  0.174460  0.512360  0.637540  1.0  -0.1242
  C  C353  1  0.515170  0.566860  0.685250  1.0  0.0069
  C  C354  1  0.480680  0.577030  0.702130  1.0  -0.0175
  C  C355  1  0.441420  0.581410  0.672910  1.0  -0.0907
  C  C356  1  0.047170  0.506530  0.588960  1.0  0.5241
  C  C357  1  0.407810  0.594690  0.691000  1.0  0.6954
  C  C358  1  0.203870  0.486920  0.641510  1.0  -0.1561
  C  C359  1  0.560570  0.564490  0.720660  1.0  0.6825
  C  C360  1  0.092200  0.344960  0.552960  1.0  0.7421
  C  C361  1  0.108770  0.121080  0.987430  1.0  0.2025
  C  C362  1  0.112720  0.174710  0.931710  1.0  0.0293
  C  C363  1  0.176530  0.262060  0.019050  1.0  0.726
  C  C364  1  0.025180  0.473260  0.039220  1.0  0.5149
  C  C365  1  0.081990  0.094680  0.932610  1.0  -0.0264
  C  C366  1  0.135550  0.502610  0.054780  1.0  -0.0874
  C  C367  1  0.101830  0.460730  0.054500  1.0  0.2614
  C  C368  1  0.084080  0.123010  0.905910  1.0  -0.0919
  C  C369  1  0.122060  0.431380  0.069540  1.0  -0.136
  C  C370  1  0.137540  0.174460  0.012360  1.0  -0.1213
  C  C371  1  0.185250  0.515170  0.066860  1.0  0.011
  C  C372  1  0.202130  0.480680  0.077030  1.0  -0.0137
  C  C373  1  0.172910  0.441420  0.081410  1.0  -0.0843
  C  C374  1  0.088960  0.047170  0.006530  1.0  0.5428
  C  C375  1  0.191000  0.407810  0.094690  1.0  0.6946
  C  C376  1  0.141510  0.203870  0.986920  1.0  -0.1533
  C  C377  1  0.220660  0.560570  0.064490  1.0  0.6809
  C  C378  1  0.052960  0.092200  0.844960  1.0  0.7453
  C  C379  1  0.866350  0.378920  0.487690  1.0  0.2029
  C  C380  1  0.757000  0.325290  0.438010  1.0  0.0317
  C  C381  1  0.756990  0.237940  0.414470  1.0  0.7259
  C  C382  1  0.565960  0.026740  0.051920  1.0  0.5186
  C  C383  1  0.837930  0.405320  0.487310  1.0  -0.0318
  C  C384  1  0.552170  0.997390  0.132940  1.0  -0.0846
  C  C385  1  0.593770  0.039270  0.141100  1.0  0.2556
  C  C386  1  0.782900  0.376990  0.461070  1.0  -0.093
  C  C387  1  0.638160  0.068620  0.190680  1.0  -0.1313
  C  C388  1  0.837900  0.325540  0.463080  1.0  -0.1192
  C  C389  1  0.551690  0.984830  0.170080  1.0  0.0079
  C  C390  1  0.596350  0.019320  0.221450  1.0  -0.0167
  C  C391  1  0.639990  0.058580  0.231490  1.0  -0.0871
  C  C392  1  0.959360  0.452830  0.541790  1.0  0.5521
  C  C393  1  0.686880  0.092190  0.283190  1.0  0.6936
  C  C394  1  0.783050  0.296130  0.437640  1.0  -0.1554
  C  C395  1  0.503920  0.939430  0.160090  1.0  0.6822
  C  C396  1  0.752760  0.407800  0.460760  1.0  0.7383
  C  C397  1  0.391230  0.378660  0.012310  1.0  0.2028
  C  C398  1  0.387280  0.318990  0.061990  1.0  0.0296
  C  C399  1  0.323470  0.342520  0.085530  1.0  0.7261
  C  C400  1  0.474820  0.514040  0.448080  1.0  0.5152
  C  C401  1  0.418010  0.350620  0.012690  1.0  -0.0322
  C  C402  1  0.364450  0.419230  0.367060  1.0  -0.0874
  C  C403  1  0.398170  0.452670  0.358900  1.0  0.2568
  C  C404  1  0.415920  0.321830  0.038930  1.0  -0.0899
  C  C405  1  0.377940  0.447480  0.309320  1.0  -0.1331
  C  C406  1  0.362460  0.374820  0.036920  1.0  -0.1199
  C  C407  1  0.314750  0.381610  0.329920  1.0  0.004
  C  C408  1  0.297870  0.374900  0.278550  1.0  -0.0111
  C  C409  1  0.327090  0.408500  0.268510  1.0  -0.09
  C  C410  1  0.411040  0.417570  0.958210  1.0  0.5385
  C  C411  1  0.309000  0.403690  0.216810  1.0  0.7031
  C  C412  1  0.358490  0.345410  0.062360  1.0  -0.16
  C  C413  1  0.279340  0.343830  0.339910  1.0  0.6878
  C  C414  1  0.447040  0.292000  0.039240  1.0  0.739
  C  C415  1  0.633650  0.121340  0.512570  1.0  0.2038
  C  C416  1  0.743000  0.181010  0.568290  1.0  0.0317
  C  C417  1  0.743010  0.157480  0.480950  1.0  0.724
  C  C418  1  0.934040  0.985960  0.460780  1.0  0.5141
  C  C419  1  0.662070  0.149380  0.567390  1.0  -0.0302
  C  C420  1  0.947830  0.080770  0.445220  1.0  -0.0918
  C  C421  1  0.906230  0.047330  0.445500  1.0  0.2587
  C  C422  1  0.717100  0.178170  0.594090  1.0  -0.0926
  C  C423  1  0.861840  0.052520  0.430460  1.0  -0.131
  C  C424  1  0.662100  0.125180  0.487640  1.0  -0.1201
  C  C425  1  0.948310  0.118390  0.433140  1.0  0.01
  C  C426  1  0.903650  0.125100  0.422970  1.0  -0.013
  C  C427  1  0.860010  0.091500  0.418590  1.0  -0.0932
  C  C428  1  0.540640  0.082430  0.493470  1.0  0.5489
  C  C429  1  0.813120  0.096310  0.405310  1.0  0.6957
  C  C430  1  0.716950  0.154590  0.513080  1.0  -0.1608
  C  C431  1  0.996080  0.156170  0.435510  1.0  0.6872
  C  C432  1  0.747240  0.208000  0.655040  1.0  0.738
  C  C433  1  0.633650  0.512310  0.621080  1.0  0.2033
  C  C434  1  0.743000  0.561990  0.674710  1.0  0.0318
  C  C435  1  0.743010  0.585530  0.762060  1.0  0.7265
  C  C436  1  0.934040  0.948080  0.973260  1.0  0.5171
  C  C437  1  0.662070  0.512690  0.594680  1.0  -0.0293
  C  C438  1  0.947830  0.867060  0.002610  1.0  -0.0907
  C  C439  1  0.906230  0.858900  0.960730  1.0  0.2574
  C  C440  1  0.717100  0.538930  0.623010  1.0  -0.0925
  C  C441  1  0.861840  0.809320  0.931380  1.0  -0.1297
  C  C442  1  0.662100  0.536920  0.674460  1.0  -0.1195
  C  C443  1  0.948310  0.829920  0.015170  1.0  0.0146
  C  C444  1  0.903650  0.778550  0.980680  1.0  -0.0117
  C  C445  1  0.860010  0.768510  0.941420  1.0  -0.0865
  C  C446  1  0.540640  0.458210  0.547170  1.0  0.5431
  C  C447  1  0.813120  0.716810  0.907810  1.0  0.6959
  C  C448  1  0.716950  0.562360  0.703870  1.0  -0.1601
  C  C449  1  0.996080  0.839910  0.060570  1.0  0.6885
  C  C450  1  0.747240  0.539240  0.592200  1.0  0.7392
  C  C451  1  0.391230  0.012570  0.878920  1.0  0.2051
  C  C452  1  0.387280  0.068290  0.825290  1.0  0.0331
  C  C453  1  0.323470  0.980950  0.737940  1.0  0.7262
  C  C454  1  0.474820  0.960780  0.526740  1.0  0.5142
  C  C455  1  0.418010  0.067390  0.905320  1.0  -0.03
  C  C456  1  0.364450  0.945220  0.497390  1.0  -0.0843
  C  C457  1  0.398170  0.945500  0.539270  1.0  0.2598
  C  C458  1  0.415920  0.094090  0.876990  1.0  -0.0905
  C  C459  1  0.377940  0.930460  0.568620  1.0  -0.1309
  C  C460  1  0.362460  0.987640  0.825540  1.0  -0.1227
  C  C461  1  0.314750  0.933140  0.484830  1.0  0.0042
  C  C462  1  0.297870  0.922970  0.519320  1.0  -0.0164
  C  C463  1  0.327090  0.918590  0.558580  1.0  -0.0908
  C  C464  1  0.411040  0.993470  0.952830  1.0  0.5407
  C  C465  1  0.309000  0.905310  0.592190  1.0  0.7017
  C  C466  1  0.358490  0.013080  0.796130  1.0  -0.16
  C  C467  1  0.279340  0.935510  0.439430  1.0  0.6902
  C  C468  1  0.447040  0.155040  0.907800  1.0  0.7398
  C  C469  1  0.866350  0.487430  0.878660  1.0  0.2016
  C  C470  1  0.757000  0.431710  0.818990  1.0  0.0321
  C  C471  1  0.756990  0.519050  0.842520  1.0  0.7232
  C  C472  1  0.565960  0.539220  0.014040  1.0  0.5132
  C  C473  1  0.837930  0.432610  0.850620  1.0  -0.0327
  C  C474  1  0.552170  0.554780  0.919230  1.0  -0.0868
  C  C475  1  0.593770  0.554500  0.952670  1.0  0.2575
  C  C476  1  0.782900  0.405910  0.821830  1.0  -0.0926
  C  C477  1  0.638160  0.569540  0.947480  1.0  -0.1306
  C  C478  1  0.837900  0.512360  0.874820  1.0  -0.122
  C  C479  1  0.551690  0.566860  0.881610  1.0  0.0054
  C  C480  1  0.596350  0.577030  0.874900  1.0  -0.0165
  C  C481  1  0.639990  0.581410  0.908500  1.0  -0.0903
  C  C482  1  0.959360  0.506530  0.917570  1.0  0.5471
  C  C483  1  0.686880  0.594690  0.903690  1.0  0.6948
  C  C484  1  0.783050  0.486920  0.845410  1.0  -0.1554
  C  C485  1  0.503920  0.564490  0.843830  1.0  0.6855
  C  C486  1  0.752760  0.344960  0.792000  1.0  0.7426
  C  C487  1  0.108770  0.987690  0.621340  1.0  0.2035
  C  C488  1  0.112720  0.938010  0.681010  1.0  0.0294
  C  C489  1  0.176530  0.914470  0.657480  1.0  0.7252
  C  C490  1  0.025180  0.551920  0.485960  1.0  0.5119
  C  C491  1  0.081990  0.987310  0.649380  1.0  -0.0313
  C  C492  1  0.135550  0.632940  0.580770  1.0  -0.0859
  C  C493  1  0.101830  0.641100  0.547330  1.0  0.2601
  C  C494  1  0.084080  0.961070  0.678170  1.0  -0.0944
  C  C495  1  0.122060  0.690680  0.552520  1.0  -0.1343
  C  C496  1  0.137540  0.963080  0.625180  1.0  -0.122
  C  C497  1  0.185250  0.670080  0.618390  1.0  0.0095
  C  C498  1  0.202130  0.721450  0.625100  1.0  -0.0149
  C  C499  1  0.172910  0.731490  0.591500  1.0  -0.0897
  C  C500  1  0.088960  0.041790  0.582430  1.0  0.5371
  C  C501  1  0.191000  0.783190  0.596310  1.0  0.6945
  C  C502  1  0.141510  0.937640  0.654590  1.0  -0.1554
  C  C503  1  0.220660  0.660090  0.656170  1.0  0.6828
  C  C504  1  0.052960  0.960760  0.708000  1.0  0.7494
  C  C505  1  0.487430  0.378660  0.366350  1.0  0.2028
  C  C506  1  0.431710  0.318990  0.257000  1.0  0.03
  C  C507  1  0.519050  0.342520  0.256990  1.0  0.7249
  C  C508  1  0.539220  0.514040  0.065960  1.0  0.5113
  C  C509  1  0.432610  0.350620  0.337930  1.0  -0.0304
  C  C510  1  0.554780  0.419230  0.052170  1.0  -0.0834
  C  C511  1  0.554500  0.452670  0.093770  1.0  0.2588
  C  C512  1  0.405910  0.321830  0.282900  1.0  -0.0944
  C  C513  1  0.569540  0.447480  0.138160  1.0  -0.1328
  C  C514  1  0.512360  0.374820  0.337900  1.0  -0.1213
  C  C515  1  0.566860  0.381610  0.051690  1.0  0.0063
  C  C516  1  0.577030  0.374900  0.096350  1.0  -0.0136
  C  C517  1  0.581410  0.408500  0.139990  1.0  -0.089
  C  C518  1  0.506530  0.417570  0.459360  1.0  0.5239
  C  C519  1  0.594690  0.403690  0.186880  1.0  0.703
  C  C520  1  0.486920  0.345410  0.283050  1.0  -0.1605
  C  C521  1  0.564490  0.343830  0.003920  1.0  0.688
  C  C522  1  0.344960  0.292000  0.252760  1.0  0.7387
  C  C523  1  0.987690  0.121340  0.608770  1.0  0.2043
  C  C524  1  0.938010  0.181010  0.612720  1.0  0.03
  C  C525  1  0.914470  0.157480  0.676530  1.0  0.7248
  C  C526  1  0.551920  0.985960  0.525180  1.0  0.5151
  C  C527  1  0.987310  0.149380  0.581990  1.0  -0.0298
  C  C528  1  0.632940  0.080770  0.635550  1.0  -0.089
  C  C529  1  0.641100  0.047330  0.601830  1.0  0.2611
  C  C530  1  0.961070  0.178170  0.584080  1.0  -0.0921
  C  C531  1  0.690680  0.052520  0.622060  1.0  -0.1331
  C  C532  1  0.963080  0.125180  0.637540  1.0  -0.119
  C  C533  1  0.670080  0.118390  0.685250  1.0  0.0152
  C  C534  1  0.721450  0.125100  0.702130  1.0  -0.0129
  C  C535  1  0.731490  0.091500  0.672910  1.0  -0.0909
  C  C536  1  0.041790  0.082430  0.588960  1.0  0.5141
  C  C537  1  0.783190  0.096310  0.691000  1.0  0.6955
  C  C538  1  0.937640  0.154590  0.641510  1.0  -0.1613
  C  C539  1  0.660090  0.156170  0.720660  1.0  0.6866
  C  C540  1  0.960760  0.208000  0.552960  1.0  0.7393
  C  C541  1  0.512310  0.121080  0.133650  1.0  0.2043
  C  C542  1  0.561990  0.174710  0.243000  1.0  0.0275
  C  C543  1  0.585530  0.262060  0.243010  1.0  0.7261
  C  C544  1  0.948080  0.473260  0.434040  1.0  0.5164
  C  C545  1  0.512690  0.094680  0.162070  1.0  -0.0269
  C  C546  1  0.867060  0.502610  0.447830  1.0  -0.0883
  C  C547  1  0.858900  0.460730  0.406230  1.0  0.2572
  C  C548  1  0.538930  0.123010  0.217100  1.0  -0.0921
  C  C549  1  0.809320  0.431380  0.361840  1.0  -0.1333
  C  C550  1  0.536920  0.174460  0.162100  1.0  -0.1214
  C  C551  1  0.829920  0.515170  0.448310  1.0  0.0094
  C  C552  1  0.778550  0.480680  0.403650  1.0  -0.0151
  C  C553  1  0.768510  0.441420  0.360010  1.0  -0.0906
  C  C554  1  0.458210  0.047170  0.040640  1.0  0.5218
  C  C555  1  0.716810  0.407810  0.313120  1.0  0.6949
  C  C556  1  0.562360  0.203870  0.216950  1.0  -0.1533
  C  C557  1  0.839910  0.560570  0.496080  1.0  0.6814
  C  C558  1  0.539240  0.092200  0.247240  1.0  0.7444
  C  C559  1  0.012570  0.378920  0.891230  1.0  0.2033
  C  C560  1  0.068290  0.325290  0.887280  1.0  0.0325
  C  C561  1  0.980950  0.237940  0.823470  1.0  0.7258
  C  C562  1  0.960780  0.026740  0.974820  1.0  0.5133
  C  C563  1  0.067390  0.405320  0.918010  1.0  -0.0313
  C  C564  1  0.945220  0.997390  0.864450  1.0  -0.0869
  C  C565  1  0.945500  0.039270  0.898170  1.0  0.2559
  C  C566  1  0.094090  0.376990  0.915920  1.0  -0.0936
  C  C567  1  0.930460  0.068620  0.877940  1.0  -0.1322
  C  C568  1  0.987640  0.325540  0.862460  1.0  -0.1197
  C  C569  1  0.933140  0.984830  0.814750  1.0  0.0077
  C  C570  1  0.922970  0.019320  0.797870  1.0  -0.0152
  C  C571  1  0.918590  0.058580  0.827090  1.0  -0.0875
  C  C572  1  0.993470  0.452830  0.911040  1.0  0.5212
  C  C573  1  0.905310  0.092190  0.809000  1.0  0.6953
  C  C574  1  0.013080  0.296130  0.858490  1.0  -0.1556
  C  C575  1  0.935510  0.939430  0.779340  1.0  0.6826
  C  C576  1  0.155040  0.407800  0.947040  1.0  0.74
  C  C577  1  0.378920  0.391230  0.512570  1.0  0.2063
  C  C578  1  0.325290  0.387280  0.568290  1.0  0.0294
  C  C579  1  0.237940  0.323470  0.480950  1.0  0.7231
  C  C580  1  0.026740  0.474820  0.460780  1.0  0.5101
  C  C581  1  0.405320  0.418010  0.567390  1.0  -0.031
  C  C582  1  0.997390  0.364450  0.445220  1.0  -0.0862
  C  C583  1  0.039270  0.398170  0.445500  1.0  0.2584
  C  C584  1  0.376990  0.415920  0.594090  1.0  -0.0914
  C  C585  1  0.068620  0.377940  0.430460  1.0  -0.1359
  C  C586  1  0.325540  0.362460  0.487640  1.0  -0.1224
  C  C587  1  0.984830  0.314750  0.433140  1.0  0.0057
  C  C588  1  0.019320  0.297870  0.422970  1.0  -0.0173
  C  C589  1  0.058580  0.327090  0.418590  1.0  -0.0889
  C  C590  1  0.452830  0.411040  0.493470  1.0  0.5425
  C  C591  1  0.092190  0.309000  0.405310  1.0  0.694
  C  C592  1  0.296130  0.358490  0.513080  1.0  -0.1587
  C  C593  1  0.939430  0.279340  0.435510  1.0  0.6832
  C  C594  1  0.407800  0.447040  0.655040  1.0  0.7438
  C  C595  1  0.121080  0.633650  0.012310  1.0  0.2014
  C  C596  1  0.174710  0.743000  0.061990  1.0  0.0316
  C  C597  1  0.262060  0.743010  0.085530  1.0  0.7249
  C  C598  1  0.473260  0.934040  0.448080  1.0  0.5207
  C  C599  1  0.094680  0.662070  0.012690  1.0  -0.0312
  C  C600  1  0.502610  0.947830  0.367060  1.0  -0.0872
  C  C601  1  0.460730  0.906230  0.358900  1.0  0.257
  C  C602  1  0.123010  0.717100  0.038930  1.0  -0.0954
  C  C603  1  0.431380  0.861840  0.309320  1.0  -0.1334
  C  C604  1  0.174460  0.662100  0.036920  1.0  -0.1195
  C  C605  1  0.515170  0.948310  0.329920  1.0  0.008
  C  C606  1  0.480680  0.903650  0.278550  1.0  -0.015
  C  C607  1  0.441420  0.860010  0.268510  1.0  -0.0928
  C  C608  1  0.047170  0.540640  0.958210  1.0  0.5432
  C  C609  1  0.407810  0.813120  0.216810  1.0  0.6919
  C  C610  1  0.203870  0.716950  0.062360  1.0  -0.157
  C  C611  1  0.560570  0.996080  0.339910  1.0  0.6806
  C  C612  1  0.092200  0.747240  0.039240  1.0  0.7393
  C  C613  1  0.121340  0.108770  0.487690  1.0  0.2026
  C  C614  1  0.181010  0.112720  0.438010  1.0  0.0308
  C  C615  1  0.157480  0.176530  0.414470  1.0  0.7256
  C  C616  1  0.985960  0.025180  0.051920  1.0  0.5136
  C  C617  1  0.149380  0.081990  0.487310  1.0  -0.0312
  C  C618  1  0.080770  0.135550  0.132940  1.0  -0.086
  C  C619  1  0.047330  0.101830  0.141100  1.0  0.2582
  C  C620  1  0.178170  0.084080  0.461070  1.0  -0.0897
  C  C621  1  0.052520  0.122060  0.190680  1.0  -0.134
  C  C622  1  0.125180  0.137540  0.463080  1.0  -0.1222
  C  C623  1  0.118390  0.185250  0.170080  1.0  0.0068
  C  C624  1  0.125100  0.202130  0.221450  1.0  -0.0151
  C  C625  1  0.091500  0.172910  0.231490  1.0  -0.0875
  C  C626  1  0.082430  0.088960  0.541790  1.0  0.5364
  C  C627  1  0.096310  0.191000  0.283190  1.0  0.7036
  C  C628  1  0.154590  0.141510  0.437640  1.0  -0.1588
  C  C629  1  0.156170  0.220660  0.160090  1.0  0.6865
  C  C630  1  0.208000  0.052960  0.460760  1.0  0.7409
  C  C631  1  0.378660  0.866350  0.987430  1.0  0.2034
  C  C632  1  0.318990  0.757000  0.931710  1.0  0.0328
  C  C633  1  0.342520  0.756990  0.019050  1.0  0.7287
  C  C634  1  0.514040  0.565960  0.039220  1.0  0.5138
  C  C635  1  0.350620  0.837930  0.932610  1.0  -0.0269
  C  C636  1  0.419230  0.552170  0.054780  1.0  -0.0898
  C  C637  1  0.452670  0.593770  0.054500  1.0  0.2595
  C  C638  1  0.321830  0.782900  0.905910  1.0  -0.0934
  C  C639  1  0.447480  0.638160  0.069540  1.0  -0.1326
  C  C640  1  0.374820  0.837900  0.012360  1.0  -0.1183
  C  C641  1  0.381610  0.551690  0.066860  1.0  0.0166
  C  C642  1  0.374900  0.596350  0.077030  1.0  -0.012
  C  C643  1  0.408500  0.639990  0.081410  1.0  -0.0893
  C  C644  1  0.417570  0.959360  0.006530  1.0  0.5461
  C  C645  1  0.403690  0.686880  0.094690  1.0  0.6923
  C  C646  1  0.345410  0.783050  0.986920  1.0  -0.1592
  C  C647  1  0.343830  0.503920  0.064490  1.0  0.6864
  C  C648  1  0.292000  0.752760  0.844960  1.0  0.7404
  N  N649  1  0.604770  0.593840  0.554550  1.0  -0.2676
  N  N650  1  0.058570  0.008070  0.957600  1.0  -0.5478
  N  N651  1  0.525990  0.566660  0.554550  1.0  -0.5879
  N  N652  1  0.011460  0.920230  0.902490  1.0  -0.3453
  N  N653  1  0.539290  0.050220  0.945450  1.0  -0.2651
  N  N654  1  0.550470  0.100970  0.542400  1.0  -0.5481
  N  N655  1  0.512110  0.971440  0.945450  1.0  -0.5875
  N  N656  1  0.517740  0.108970  0.597510  1.0  -0.3461
  N  N657  1  0.960710  0.906160  0.510930  1.0  -0.27
  N  N658  1  0.949530  0.491930  0.550500  1.0  -0.5483
  N  N659  1  0.987890  0.933340  0.459330  1.0  -0.5849
  N  N660  1  0.982260  0.579770  0.591230  1.0  -0.3516
  N  N661  1  0.895230  0.449780  0.989070  1.0  -0.2654
  N  N662  1  0.441430  0.399030  0.949500  1.0  -0.5476
  N  N663  1  0.974010  0.528560  0.040670  1.0  -0.5826
  N  N664  1  0.488540  0.391030  0.908770  1.0  -0.3472
  N  N665  1  0.010930  0.960710  0.406160  1.0  -0.2654
  N  N666  1  0.050500  0.949530  0.991930  1.0  -0.5456
  N  N667  1  0.959330  0.987890  0.433340  1.0  -0.5865
  N  N668  1  0.091230  0.982260  0.079770  1.0  -0.3463
  N  N669  1  0.489070  0.895230  0.949780  1.0  -0.269
  N  N670  1  0.449500  0.441430  0.899030  1.0  -0.5489
  N  N671  1  0.540670  0.974010  0.028560  1.0  -0.583
  N  N672  1  0.408770  0.488540  0.891030  1.0  -0.3484
  N  N673  1  0.054550  0.604770  0.093840  1.0  -0.2666
  N  N674  1  0.457600  0.058570  0.508070  1.0  -0.5483
  N  N675  1  0.054550  0.525990  0.066660  1.0  -0.5834
  N  N676  1  0.402490  0.011460  0.420230  1.0  -0.3438
  N  N677  1  0.445450  0.539290  0.550220  1.0  -0.2704
  N  N678  1  0.042400  0.550470  0.600970  1.0  -0.5441
  N  N679  1  0.445450  0.512110  0.471440  1.0  -0.5839
  N  N680  1  0.097510  0.517740  0.608970  1.0  -0.3505
  N  N681  1  0.050220  0.445450  0.039290  1.0  -0.2665
  N  N682  1  0.100970  0.042400  0.050470  1.0  -0.5485
  N  N683  1  0.971440  0.445450  0.012110  1.0  -0.5856
  N  N684  1  0.108970  0.097510  0.017740  1.0  -0.3454
  N  N685  1  0.593840  0.054550  0.104770  1.0  -0.2709
  N  N686  1  0.008070  0.457600  0.558570  1.0  -0.545
  N  N687  1  0.566660  0.054550  0.025990  1.0  -0.5849
  N  N688  1  0.920230  0.402490  0.511460  1.0  -0.3485
  N  N689  1  0.449780  0.489070  0.395230  1.0  -0.266
  N  N690  1  0.399030  0.449500  0.941430  1.0  -0.5492
  N  N691  1  0.528560  0.540670  0.474010  1.0  -0.5915
  N  N692  1  0.391030  0.408770  0.988540  1.0  -0.3466
  N  N693  1  0.906160  0.010930  0.460710  1.0  -0.2666
  N  N694  1  0.491930  0.050500  0.449530  1.0  -0.5497
  N  N695  1  0.933340  0.959330  0.487890  1.0  -0.5884
  N  N696  1  0.579770  0.091230  0.482260  1.0  -0.3478
  N  N697  1  0.906160  0.895230  0.945450  1.0  -0.2709
  N  N698  1  0.491930  0.441430  0.542400  1.0  -0.5521
  N  N699  1  0.933340  0.974010  0.945450  1.0  -0.5834
  N  N700  1  0.579770  0.488540  0.597510  1.0  -0.3452
  N  N701  1  0.449780  0.960710  0.554550  1.0  -0.2614
  N  N702  1  0.399030  0.949530  0.957600  1.0  -0.5468
  N  N703  1  0.528560  0.987890  0.554550  1.0  -0.5867
  N  N704  1  0.391030  0.982260  0.902490  1.0  -0.3474
  N  N705  1  0.593840  0.539290  0.989070  1.0  -0.2689
  N  N706  1  0.008070  0.550470  0.949500  1.0  -0.548
  N  N707  1  0.566660  0.512110  0.040670  1.0  -0.5851
  N  N708  1  0.920230  0.517740  0.908770  1.0  -0.3531
  N  N709  1  0.050220  0.604770  0.510930  1.0  -0.2651
  N  N710  1  0.100970  0.058570  0.550500  1.0  -0.5496
  N  N711  1  0.971440  0.525990  0.459330  1.0  -0.5817
  N  N712  1  0.108970  0.011460  0.591230  1.0  -0.3431
  N  N713  1  0.539290  0.489070  0.093840  1.0  -0.2633
  N  N714  1  0.550470  0.449500  0.508070  1.0  -0.5469
  N  N715  1  0.512110  0.540670  0.066660  1.0  -0.5876
  N  N716  1  0.517740  0.408770  0.420230  1.0  -0.3432
  N  N717  1  0.604770  0.010930  0.550220  1.0  -0.2674
  N  N718  1  0.058570  0.050500  0.600970  1.0  -0.5478
  N  N719  1  0.525990  0.959330  0.471440  1.0  -0.5846
  N  N720  1  0.011460  0.091230  0.608970  1.0  -0.3453
  N  N721  1  0.895230  0.445450  0.406160  1.0  -0.2669
  N  N722  1  0.441430  0.042400  0.991930  1.0  -0.5452
  N  N723  1  0.974010  0.445450  0.433340  1.0  -0.5862
  N  N724  1  0.488540  0.097510  0.079770  1.0  -0.3488
  N  N725  1  0.960710  0.054550  0.949780  1.0  -0.2715
  N  N726  1  0.949530  0.457600  0.899030  1.0  -0.5482
  N  N727  1  0.987890  0.054550  0.028560  1.0  -0.5841
  N  N728  1  0.982260  0.402490  0.891030  1.0  -0.35
  N  N729  1  0.054550  0.449780  0.460710  1.0  -0.2688
  N  N730  1  0.457600  0.399030  0.449530  1.0  -0.5464
  N  N731  1  0.054550  0.528560  0.487890  1.0  -0.5854
  N  N732  1  0.402490  0.391030  0.482260  1.0  -0.3491
  N  N733  1  0.445450  0.906160  0.395230  1.0  -0.2688
  N  N734  1  0.042400  0.491930  0.941430  1.0  -0.5517
  N  N735  1  0.445450  0.933340  0.474010  1.0  -0.5853
  N  N736  1  0.097510  0.579770  0.988540  1.0  -0.3496
  N  N737  1  0.010930  0.050220  0.104770  1.0  -0.2614
  N  N738  1  0.050500  0.100970  0.558570  1.0  -0.5469
  N  N739  1  0.959330  0.971440  0.025990  1.0  -0.5855
  N  N740  1  0.091230  0.108970  0.511460  1.0  -0.3489
  N  N741  1  0.489070  0.593840  0.039290  1.0  -0.2667
  N  N742  1  0.449500  0.008070  0.050470  1.0  -0.5457
  N  N743  1  0.540670  0.566660  0.012110  1.0  -0.5875
  N  N744  1  0.408770  0.920230  0.017740  1.0  -0.3438
  O  O745  1  0.693000  0.491610  0.439650  1.0  -0.5617
  O  O746  1  0.823140  0.683960  0.589760  1.0  -0.5762
  O  O747  1  0.893680  0.708810  0.713070  1.0  -0.4827
  O  O748  1  0.789980  0.730060  0.621300  1.0  -0.4544
  O  O749  1  0.614000  0.484350  0.396350  1.0  -0.5106
  O  O750  1  0.915160  0.784660  0.716500  1.0  -0.5774
  O  O751  1  0.998010  0.778810  0.954940  1.0  -0.6187
  O  O752  1  0.926780  0.708100  0.885240  1.0  -0.4607
  O  O753  1  0.551960  0.253350  0.060350  1.0  -0.5609
  O  O754  1  0.594200  0.233380  0.910240  1.0  -0.5799
  O  O755  1  0.495740  0.180610  0.786930  1.0  -0.4914
  O  O756  1  0.608760  0.168680  0.878700  1.0  -0.4583
  O  O757  1  0.588000  0.217650  0.103650  1.0  -0.5138
  O  O758  1  0.568160  0.198660  0.783500  1.0  -0.5787
  O  O759  1  0.323870  0.043070  0.545060  1.0  -0.6187
  O  O760  1  0.322860  0.041540  0.614760  1.0  -0.4628
  O  O761  1  0.948040  0.008390  0.701390  1.0  -0.5605
  O  O762  1  0.905800  0.816040  0.639180  1.0  -0.5791
  O  O763  1  0.004260  0.791190  0.684870  1.0  -0.4831
  O  O764  1  0.891240  0.769940  0.559920  1.0  -0.4554
  O  O765  1  0.912000  0.015650  0.629650  1.0  -0.5072
  O  O766  1  0.931840  0.715340  0.630500  1.0  -0.5773
  O  O767  1  0.176130  0.721190  0.719200  1.0  -0.6109
  O  O768  1  0.177140  0.791900  0.718680  1.0  -0.4606
  O  O769  1  0.807000  0.246650  0.798610  1.0  -0.5617
  O  O770  1  0.676860  0.266620  0.860820  1.0  -0.5791
  O  O771  1  0.606320  0.319390  0.815130  1.0  -0.4874
  O  O772  1  0.710020  0.331320  0.940080  1.0  -0.4533
  O  O773  1  0.886000  0.282350  0.870350  1.0  -0.5092
  O  O774  1  0.584840  0.301340  0.869500  1.0  -0.5769
  O  O775  1  0.501990  0.456930  0.780800  1.0  -0.6148
  O  O776  1  0.573220  0.458460  0.781320  1.0  -0.4631
  O  O777  1  0.201390  0.948040  0.508390  1.0  -0.5607
  O  O778  1  0.139180  0.905800  0.316040  1.0  -0.5793
  O  O779  1  0.184870  0.004260  0.291190  1.0  -0.4893
  O  O780  1  0.059920  0.891240  0.269940  1.0  -0.4528
  O  O781  1  0.129650  0.912000  0.515650  1.0  -0.5111
  O  O782  1  0.130500  0.931840  0.215340  1.0  -0.5779
  O  O783  1  0.219200  0.176130  0.221190  1.0  -0.6199
  O  O784  1  0.218680  0.177140  0.291900  1.0  -0.4657
  O  O785  1  0.298610  0.807000  0.746650  1.0  -0.5613
  O  O786  1  0.360820  0.676860  0.766620  1.0  -0.5781
  O  O787  1  0.315130  0.606320  0.819390  1.0  -0.4908
  O  O788  1  0.440080  0.710020  0.831320  1.0  -0.4582
  O  O789  1  0.370350  0.886000  0.782350  1.0  -0.5092
  O  O790  1  0.369500  0.584840  0.801340  1.0  -0.5781
  O  O791  1  0.280800  0.501990  0.956930  1.0  -0.6189
  O  O792  1  0.281320  0.573220  0.958460  1.0  -0.4649
  O  O793  1  0.939650  0.693000  0.991610  1.0  -0.5606
  O  O794  1  0.089760  0.823140  0.183960  1.0  -0.5805
  O  O795  1  0.213070  0.893680  0.208810  1.0  -0.4877
  O  O796  1  0.121300  0.789980  0.230060  1.0  -0.4584
  O  O797  1  0.896350  0.614000  0.984350  1.0  -0.5095
  O  O798  1  0.216500  0.915160  0.284660  1.0  -0.5765
  O  O799  1  0.454940  0.998010  0.278810  1.0  -0.6224
  O  O800  1  0.385240  0.926780  0.208100  1.0  -0.4663
  O  O801  1  0.560350  0.551960  0.753350  1.0  -0.5616
  O  O802  1  0.410240  0.594200  0.733380  1.0  -0.5784
  O  O803  1  0.286930  0.495740  0.680610  1.0  -0.4897
  O  O804  1  0.378700  0.608760  0.668680  1.0  -0.4583
  O  O805  1  0.603650  0.588000  0.717650  1.0  -0.5085
  O  O806  1  0.283500  0.568160  0.698660  1.0  -0.5776
  O  O807  1  0.045060  0.323870  0.543070  1.0  -0.6145
  O  O808  1  0.114760  0.322860  0.541540  1.0  -0.4652
  O  O809  1  0.253350  0.560350  0.051960  1.0  -0.5621
  O  O810  1  0.233380  0.410240  0.094200  1.0  -0.5793
  O  O811  1  0.180610  0.286930  0.995740  1.0  -0.4861
  O  O812  1  0.168680  0.378700  0.108760  1.0  -0.4581
  O  O813  1  0.217650  0.603650  0.088000  1.0  -0.5101
  O  O814  1  0.198660  0.283500  0.068160  1.0  -0.5771
  O  O815  1  0.043070  0.045060  0.823870  1.0  -0.6181
  O  O816  1  0.041540  0.114760  0.822860  1.0  -0.4637
  O  O817  1  0.491610  0.939650  0.193000  1.0  -0.5622
  O  O818  1  0.683960  0.089760  0.323140  1.0  -0.5792
  O  O819  1  0.708810  0.213070  0.393680  1.0  -0.491
  O  O820  1  0.730060  0.121300  0.289980  1.0  -0.4565
  O  O821  1  0.484350  0.896350  0.114000  1.0  -0.5088
  O  O822  1  0.784660  0.216500  0.415160  1.0  -0.578
  O  O823  1  0.778810  0.454940  0.498010  1.0  -0.6156
  O  O824  1  0.708100  0.385240  0.426780  1.0  -0.4648
  O  O825  1  0.246650  0.298610  0.307000  1.0  -0.5598
  O  O826  1  0.266620  0.360820  0.176860  1.0  -0.579
  O  O827  1  0.319390  0.315130  0.106320  1.0  -0.4888
  O  O828  1  0.331320  0.440080  0.210020  1.0  -0.4588
  O  O829  1  0.282350  0.370350  0.386000  1.0  -0.5136
  O  O830  1  0.301340  0.369500  0.084840  1.0  -0.5767
  O  O831  1  0.456930  0.280800  0.001990  1.0  -0.6236
  O  O832  1  0.458460  0.281320  0.073220  1.0  -0.4647
  O  O833  1  0.008390  0.201390  0.448040  1.0  -0.5621
  O  O834  1  0.816040  0.139180  0.405800  1.0  -0.5778
  O  O835  1  0.791190  0.184870  0.504260  1.0  -0.4887
  O  O836  1  0.769940  0.059920  0.391240  1.0  -0.4521
  O  O837  1  0.015650  0.129650  0.412000  1.0  -0.5079
  O  O838  1  0.715340  0.130500  0.431840  1.0  -0.5755
  O  O839  1  0.721190  0.219200  0.676130  1.0  -0.6178
  O  O840  1  0.791900  0.218680  0.677140  1.0  -0.4653
  O  O841  1  0.008390  0.807000  0.060350  1.0  -0.5618
  O  O842  1  0.816040  0.676860  0.910240  1.0  -0.5787
  O  O843  1  0.791190  0.606320  0.786930  1.0  -0.4907
  O  O844  1  0.769940  0.710020  0.878700  1.0  -0.4562
  O  O845  1  0.015650  0.886000  0.103650  1.0  -0.5091
  O  O846  1  0.715340  0.584840  0.783500  1.0  -0.5765
  O  O847  1  0.721190  0.501990  0.545060  1.0  -0.6189
  O  O848  1  0.791900  0.573220  0.614760  1.0  -0.463
  O  O849  1  0.246650  0.948040  0.439650  1.0  -0.5599
  O  O850  1  0.266620  0.905800  0.589760  1.0  -0.5789
  O  O851  1  0.319390  0.004260  0.713070  1.0  -0.4885
  O  O852  1  0.331320  0.891240  0.621300  1.0  -0.4621
  O  O853  1  0.282350  0.912000  0.396350  1.0  -0.5119
  O  O854  1  0.301340  0.931840  0.716500  1.0  -0.5781
  O  O855  1  0.456930  0.176130  0.954940  1.0  -0.6176
  O  O856  1  0.458460  0.177140  0.885240  1.0  -0.4591
  O  O857  1  0.491610  0.551960  0.798610  1.0  -0.5611
  O  O858  1  0.683960  0.594200  0.860820  1.0  -0.5774
  O  O859  1  0.708810  0.495740  0.815130  1.0  -0.4899
  O  O860  1  0.730060  0.608760  0.940080  1.0  -0.4539
  O  O861  1  0.484350  0.588000  0.870350  1.0  -0.5085
  O  O862  1  0.784660  0.568160  0.869500  1.0  -0.5771
  O  O863  1  0.778810  0.323870  0.780800  1.0  -0.6137
  O  O864  1  0.708100  0.322860  0.781320  1.0  -0.4651
  O  O865  1  0.253350  0.693000  0.701390  1.0  -0.5617
  O  O866  1  0.233380  0.823140  0.639180  1.0  -0.5803
  O  O867  1  0.180610  0.893680  0.684870  1.0  -0.4864
  O  O868  1  0.168680  0.789980  0.559920  1.0  -0.4591
  O  O869  1  0.217650  0.614000  0.629650  1.0  -0.5124
  O  O870  1  0.198660  0.915160  0.630500  1.0  -0.5769
  O  O871  1  0.043070  0.998010  0.719200  1.0  -0.6195
  O  O872  1  0.041540  0.926780  0.718680  1.0  -0.4645
  O  O873  1  0.551960  0.298610  0.991610  1.0  -0.5597
  O  O874  1  0.594200  0.360820  0.183960  1.0  -0.5787
  O  O875  1  0.495740  0.315130  0.208810  1.0  -0.4888
  O  O876  1  0.608760  0.440080  0.230060  1.0  -0.4586
  O  O877  1  0.588000  0.370350  0.984350  1.0  -0.5082
  O  O878  1  0.568160  0.369500  0.284660  1.0  -0.5766
  O  O879  1  0.323870  0.280800  0.278810  1.0  -0.6205
  O  O880  1  0.322860  0.281320  0.208100  1.0  -0.4587
  O  O881  1  0.693000  0.201390  0.753350  1.0  -0.5625
  O  O882  1  0.823140  0.139180  0.733380  1.0  -0.578
  O  O883  1  0.893680  0.184870  0.680610  1.0  -0.4895
  O  O884  1  0.789980  0.059920  0.668680  1.0  -0.451
  O  O885  1  0.614000  0.129650  0.717650  1.0  -0.5088
  O  O886  1  0.915160  0.130500  0.698660  1.0  -0.575
  O  O887  1  0.998010  0.219200  0.543070  1.0  -0.6186
  O  O888  1  0.926780  0.218680  0.541540  1.0  -0.4698
  O  O889  1  0.807000  0.560350  0.508390  1.0  -0.5635
  O  O890  1  0.676860  0.410240  0.316040  1.0  -0.5793
  O  O891  1  0.606320  0.286930  0.291190  1.0  -0.4863
  O  O892  1  0.710020  0.378700  0.269940  1.0  -0.4568
  O  O893  1  0.886000  0.603650  0.515650  1.0  -0.5143
  O  O894  1  0.584840  0.283500  0.215340  1.0  -0.5783
  O  O895  1  0.501990  0.045060  0.221190  1.0  -0.6158
  O  O896  1  0.573220  0.114760  0.291900  1.0  -0.4647
  O  O897  1  0.948040  0.939650  0.746650  1.0  -0.5626
  O  O898  1  0.905800  0.089760  0.766620  1.0  -0.5793
  O  O899  1  0.004260  0.213070  0.819390  1.0  -0.49
  O  O900  1  0.891240  0.121300  0.831320  1.0  -0.4545
  O  O901  1  0.912000  0.896350  0.782350  1.0  -0.5092
  O  O902  1  0.931840  0.216500  0.801340  1.0  -0.5768
  O  O903  1  0.176130  0.454940  0.956930  1.0  -0.6153
  O  O904  1  0.177140  0.385240  0.958460  1.0  -0.4639
  O  O905  1  0.939650  0.246650  0.448040  1.0  -0.5603
  O  O906  1  0.089760  0.266620  0.405800  1.0  -0.5799
  O  O907  1  0.213070  0.319390  0.504260  1.0  -0.4865
  O  O908  1  0.121300  0.331320  0.391240  1.0  -0.459
  O  O909  1  0.896350  0.282350  0.412000  1.0  -0.5118
  O  O910  1  0.216500  0.301340  0.431840  1.0  -0.5777
  O  O911  1  0.454940  0.456930  0.676130  1.0  -0.616
  O  O912  1  0.385240  0.458460  0.677140  1.0  -0.4629
  O  O913  1  0.560350  0.008390  0.307000  1.0  -0.5613
  O  O914  1  0.410240  0.816040  0.176860  1.0  -0.5784
  O  O915  1  0.286930  0.791190  0.106320  1.0  -0.4829
  O  O916  1  0.378700  0.769940  0.210020  1.0  -0.4554
  O  O917  1  0.603650  0.015650  0.386000  1.0  -0.5031
  O  O918  1  0.283500  0.715340  0.084840  1.0  -0.5778
  O  O919  1  0.045060  0.721190  0.001990  1.0  -0.614
  O  O920  1  0.114760  0.791900  0.073220  1.0  -0.4598
  O  O921  1  0.201390  0.253350  0.193000  1.0  -0.5598
  O  O922  1  0.139180  0.233380  0.323140  1.0  -0.58
  O  O923  1  0.184870  0.180610  0.393680  1.0  -0.4894
  O  O924  1  0.059920  0.168680  0.289980  1.0  -0.4524
  O  O925  1  0.129650  0.217650  0.114000  1.0  -0.514
  O  O926  1  0.130500  0.198660  0.415160  1.0  -0.5771
  O  O927  1  0.219200  0.043070  0.498010  1.0  -0.6188
  O  O928  1  0.218680  0.041540  0.426780  1.0  -0.4588
  O  O929  1  0.298610  0.491610  0.051960  1.0  -0.5613
  O  O930  1  0.360820  0.683960  0.094200  1.0  -0.5766
  O  O931  1  0.315130  0.708810  0.995740  1.0  -0.4842
  O  O932  1  0.440080  0.730060  0.108760  1.0  -0.4539
  O  O933  1  0.370350  0.484350  0.088000  1.0  -0.509
  O  O934  1  0.369500  0.784660  0.068160  1.0  -0.5779
  O  O935  1  0.280800  0.778810  0.823870  1.0  -0.6158
  O  O936  1  0.281320  0.708100  0.822860  1.0  -0.4609
