# generated using pymatgen
data_Cd3H79C88N8ClO22
_symmetry_space_group_name_H-M   'P 1'
_cell_length_a   18.31960000
_cell_length_b   21.44480000
_cell_length_c   22.38540000
_cell_angle_alpha   90.00000000
_cell_angle_beta   90.00000000
_cell_angle_gamma   90.00000000
_symmetry_Int_Tables_number   1
_chemical_formula_structural   Cd3H79C88N8ClO22
_chemical_formula_sum   'Cd12 H316 C352 N32 Cl4 O88'
_cell_volume   8794.33178268
_cell_formula_units_Z   4
loop_
 _symmetry_equiv_pos_site_id
 _symmetry_equiv_pos_as_xyz
  1  'x, y, z'
loop_
 _atom_site_type_symbol
 _atom_site_label
 _atom_site_symmetry_multiplicity
 _atom_site_fract_x
 _atom_site_fract_y
 _atom_site_fract_z
 _atom_site_occupancy
 _atom_site_charge
  Cd  Cd1  1  0.344450  0.772510  0.567670  1.0  0.9681
  Cd  Cd2  1  0.405540  0.742380  0.402720  1.0  0.9117
  Cd  Cd3  1  0.451700  0.755410  0.232160  1.0  0.9622
  Cd  Cd4  1  0.655550  0.227490  0.067670  1.0  0.9671
  Cd  Cd5  1  0.594460  0.257620  0.902720  1.0  0.9124
  Cd  Cd6  1  0.548300  0.244590  0.732160  1.0  0.9629
  Cd  Cd7  1  0.155550  0.272510  0.567670  1.0  0.9671
  Cd  Cd8  1  0.094460  0.242380  0.402720  1.0  0.9114
  Cd  Cd9  1  0.048300  0.255410  0.232160  1.0  0.9627
  Cd  Cd10  1  0.844450  0.727490  0.067670  1.0  0.968
  Cd  Cd11  1  0.905540  0.757620  0.902720  1.0  0.9128
  Cd  Cd12  1  0.951700  0.744590  0.732160  1.0  0.9624
  H  H13  1  0.398000  0.671800  0.625800  1.0  0.4287
  H  H14  1  0.395000  0.715000  0.674400  1.0  0.4077
  H  H15  1  0.397000  0.674000  0.141200  1.0  0.4272
  H  H16  1  0.415000  0.641100  0.196200  1.0  0.4161
  H  H17  1  0.396800  0.457000  0.660000  1.0  0.2141
  H  H18  1  0.101800  0.736500  0.226000  1.0  0.293
  H  H19  1  0.191100  0.721700  0.083600  1.0  0.3054
  H  H20  1  0.181600  0.881800  0.435500  1.0  0.112
  H  H21  1  0.143100  0.923800  0.345100  1.0  0.1045
  H  H22  1  0.227800  0.956300  0.275000  1.0  0.1088
  H  H23  1  0.352500  0.951700  0.297600  1.0  0.0955
  H  H24  1  0.590100  0.902200  0.350700  1.0  0.1034
  H  H25  1  0.614200  0.966900  0.432900  1.0  0.1103
  H  H26  1  0.517500  0.999000  0.494200  1.0  0.1069
  H  H27  1  0.398600  0.973400  0.469600  1.0  0.0986
  H  H28  1  0.455200  0.368900  0.734900  1.0  0.0913
  H  H29  1  0.238700  0.339200  0.724800  1.0  0.1062
  H  H30  1  0.368600  0.454300  0.757200  1.0  0.0799
  H  H31  1  0.284700  0.445100  0.739500  1.0  0.0787
  H  H32  1  0.261500  0.232600  0.727500  1.0  0.1063
  H  H33  1  0.381100  0.196800  0.733900  1.0  0.0845
  H  H34  1  0.374900  0.549600  0.633800  1.0  0.0927
  H  H35  1  0.377900  0.546800  0.705300  1.0  0.0863
  H  H36  1  0.293700  0.395500  0.621500  1.0  0.078
  H  H37  1  0.321900  0.450700  0.579200  1.0  0.0882
  H  H38  1  0.248800  0.544300  0.709300  1.0  0.0726
  H  H39  1  0.275800  0.605500  0.674600  1.0  0.0706
  H  H40  1  0.194200  0.457800  0.588600  1.0  0.0822
  H  H41  1  0.200800  0.460200  0.660000  1.0  0.0707
  H  H42  1  0.136100  0.565200  0.656100  1.0  0.0963
  H  H43  1  0.129700  0.545600  0.587400  1.0  0.1116
  H  H44  1  0.270500  0.643000  0.580100  1.0  0.0853
  H  H45  1  0.053200  0.652500  0.608300  1.0  0.1112
  H  H46  1  0.057900  0.757200  0.579100  1.0  0.1068
  H  H47  1  0.168700  0.803200  0.558200  1.0  0.0987
  H  H48  1  0.297400  0.776300  0.299800  1.0  0.0967
  H  H49  1  0.252500  0.703100  0.456500  1.0  0.0701
  H  H50  1  0.129200  0.707400  0.437900  1.0  0.1096
  H  H51  1  0.088100  0.748500  0.346600  1.0  0.1165
  H  H52  1  0.128500  0.827300  0.262900  1.0  0.0799
  H  H53  1  0.210400  0.819800  0.239400  1.0  0.086
  H  H54  1  0.210100  0.679200  0.230300  1.0  0.0773
  H  H55  1  0.243600  0.725000  0.180900  1.0  0.079
  H  H56  1  0.162400  0.811000  0.139700  1.0  0.0654
  H  H57  1  0.080800  0.816400  0.165000  1.0  0.0859
  H  H58  1  0.211000  0.630400  0.135600  1.0  0.082
  H  H59  1  0.129000  0.637200  0.159800  1.0  0.0734
  H  H60  1  0.050500  0.720100  0.121400  1.0  0.0782
  H  H61  1  0.080400  0.766600  0.071000  1.0  0.0753
  H  H62  1  0.171500  0.625000  0.033500  1.0  0.0965
  H  H63  1  0.087700  0.630200  0.053100  1.0  0.0735
  H  H64  1  0.004900  0.693600  0.997700  1.0  0.0861
  H  H65  1  0.217800  0.696600  0.952000  1.0  0.125
  H  H66  1  0.185300  0.749900  0.865300  1.0  0.1062
  H  H67  1  0.065600  0.780700  0.851600  1.0  0.0842
  H  H68  1  0.281100  0.909300  0.188600  1.0  0.0928
  H  H69  1  0.446900  0.901400  0.977000  1.0  0.1028
  H  H70  1  0.516700  0.836500  0.917800  1.0  0.1072
  H  H71  1  0.364600  0.553800  0.498700  1.0  0.0926
  H  H72  1  0.251200  0.594100  0.317300  1.0  0.1129
  H  H73  1  0.241200  0.538800  0.489600  1.0  0.1043
  H  H74  1  0.182600  0.559900  0.398300  1.0  0.1096
  H  H75  1  0.420400  0.686200  0.989800  1.0  0.1117
  H  H76  1  0.498400  0.936500  0.581100  1.0  0.0926
  H  H77  1  0.557900  0.026700  0.611600  1.0  0.1062
  H  H78  1  0.483800  0.998700  0.778500  1.0  0.091
  H  H79  1  0.551000  0.056900  0.711400  1.0  0.1063
  H  H80  1  0.350000  0.974400  0.792700  1.0  0.0986
  H  H81  1  0.278300  0.927200  0.866500  1.0  0.1174
  H  H82  1  0.374000  0.761300  0.829500  1.0  0.1169
  H  H83  1  0.221000  0.988500  0.136600  1.0  0.1186
  H  H84  1  0.241600  0.000200  0.032700  1.0  0.1249
  H  H85  1  0.313900  0.930300  0.984400  1.0  0.0932
  H  H86  1  0.507200  0.730300  0.925200  1.0  0.1146
  H  H87  1  0.291500  0.820800  0.885100  1.0  0.0946
  H  H88  1  0.594400  0.636600  0.513800  1.0  0.1106
  H  H89  1  0.667400  0.587200  0.442800  1.0  0.1022
  H  H90  1  0.615100  0.537200  0.362200  1.0  0.1009
  H  H91  1  0.489700  0.539600  0.347800  1.0  0.1092
  H  H92  1  0.602000  0.328200  0.125800  1.0  0.4308
  H  H93  1  0.605000  0.285000  0.174400  1.0  0.4076
  H  H94  1  0.603000  0.326000  0.641200  1.0  0.4279
  H  H95  1  0.585000  0.358900  0.696200  1.0  0.4158
  H  H96  1  0.603200  0.543000  0.160000  1.0  0.2228
  H  H97  1  0.898200  0.263500  0.726000  1.0  0.2923
  H  H98  1  0.808900  0.278300  0.583600  1.0  0.3054
  H  H99  1  0.818400  0.118200  0.935500  1.0  0.1126
  H  H100  1  0.856900  0.076200  0.845100  1.0  0.1026
  H  H101  1  0.772200  0.043700  0.775000  1.0  0.1086
  H  H102  1  0.647500  0.048300  0.797600  1.0  0.0954
  H  H103  1  0.409900  0.097800  0.850700  1.0  0.1035
  H  H104  1  0.385800  0.033100  0.932900  1.0  0.1127
  H  H105  1  0.482500  0.001000  0.994200  1.0  0.1079
  H  H106  1  0.601400  0.026600  0.969600  1.0  0.099
  H  H107  1  0.544800  0.631100  0.234900  1.0  0.0921
  H  H108  1  0.761300  0.660800  0.224800  1.0  0.1063
  H  H109  1  0.631400  0.545700  0.257200  1.0  0.0791
  H  H110  1  0.715300  0.554900  0.239500  1.0  0.0792
  H  H111  1  0.738500  0.767400  0.227500  1.0  0.1059
  H  H112  1  0.618900  0.803200  0.233900  1.0  0.0844
  H  H113  1  0.625100  0.450400  0.133800  1.0  0.0924
  H  H114  1  0.622100  0.453200  0.205300  1.0  0.0871
  H  H115  1  0.706300  0.604500  0.121500  1.0  0.0782
  H  H116  1  0.678100  0.549300  0.079200  1.0  0.0882
  H  H117  1  0.751200  0.455700  0.209300  1.0  0.0734
  H  H118  1  0.724200  0.394500  0.174600  1.0  0.0696
  H  H119  1  0.805800  0.542200  0.088600  1.0  0.0825
  H  H120  1  0.799200  0.539800  0.160000  1.0  0.0716
  H  H121  1  0.863900  0.434800  0.156100  1.0  0.0966
  H  H122  1  0.870300  0.454400  0.087400  1.0  0.1109
  H  H123  1  0.729500  0.357000  0.080100  1.0  0.0853
  H  H124  1  0.946800  0.347500  0.108300  1.0  0.1111
  H  H125  1  0.942100  0.242800  0.079100  1.0  0.1065
  H  H126  1  0.831300  0.196800  0.058200  1.0  0.0977
  H  H127  1  0.702600  0.223700  0.799800  1.0  0.096
  H  H128  1  0.747500  0.296900  0.956500  1.0  0.0701
  H  H129  1  0.870800  0.292600  0.937900  1.0  0.1096
  H  H130  1  0.911900  0.251500  0.846600  1.0  0.1162
  H  H131  1  0.871500  0.172700  0.762900  1.0  0.08
  H  H132  1  0.789600  0.180200  0.739400  1.0  0.0879
  H  H133  1  0.789900  0.320800  0.730300  1.0  0.0755
  H  H134  1  0.756400  0.275000  0.680900  1.0  0.0745
  H  H135  1  0.837600  0.189000  0.639700  1.0  0.0672
  H  H136  1  0.919200  0.183600  0.665000  1.0  0.0844
  H  H137  1  0.789000  0.369600  0.635600  1.0  0.0821
  H  H138  1  0.871000  0.362800  0.659800  1.0  0.0731
  H  H139  1  0.949500  0.279900  0.621400  1.0  0.0782
  H  H140  1  0.919600  0.233400  0.571000  1.0  0.0755
  H  H141  1  0.828500  0.375000  0.533500  1.0  0.0959
  H  H142  1  0.912300  0.369800  0.553100  1.0  0.0724
  H  H143  1  0.995100  0.306400  0.497700  1.0  0.0867
  H  H144  1  0.782200  0.303400  0.452000  1.0  0.1248
  H  H145  1  0.814700  0.250100  0.365300  1.0  0.1063
  H  H146  1  0.934400  0.219300  0.351600  1.0  0.0841
  H  H147  1  0.718900  0.090700  0.688600  1.0  0.093
  H  H148  1  0.553100  0.098600  0.477000  1.0  0.102
  H  H149  1  0.483300  0.163500  0.417800  1.0  0.1073
  H  H150  1  0.635400  0.446200  0.998700  1.0  0.0924
  H  H151  1  0.748800  0.405900  0.817300  1.0  0.1133
  H  H152  1  0.758800  0.461200  0.989600  1.0  0.1039
  H  H153  1  0.817400  0.440100  0.898300  1.0  0.1094
  H  H154  1  0.579600  0.313800  0.489800  1.0  0.1111
  H  H155  1  0.501600  0.063500  0.081100  1.0  0.0923
  H  H156  1  0.442100  0.973300  0.111600  1.0  0.1062
  H  H157  1  0.516200  0.001300  0.278500  1.0  0.0907
  H  H158  1  0.449000  0.943100  0.211400  1.0  0.1063
  H  H159  1  0.650000  0.025600  0.292700  1.0  0.0987
  H  H160  1  0.721700  0.072800  0.366500  1.0  0.1173
  H  H161  1  0.626000  0.238700  0.329500  1.0  0.1183
  H  H162  1  0.779000  0.011500  0.636600  1.0  0.1187
  H  H163  1  0.758400  0.999800  0.532700  1.0  0.1246
  H  H164  1  0.686100  0.069700  0.484400  1.0  0.0923
  H  H165  1  0.492800  0.269700  0.425200  1.0  0.1142
  H  H166  1  0.708500  0.179200  0.385100  1.0  0.0944
  H  H167  1  0.405600  0.363400  0.013800  1.0  0.1106
  H  H168  1  0.332600  0.412800  0.942800  1.0  0.1024
  H  H169  1  0.384900  0.462800  0.862200  1.0  0.1015
  H  H170  1  0.510300  0.460400  0.847800  1.0  0.1092
  H  H171  1  0.102000  0.171800  0.625800  1.0  0.4291
  H  H172  1  0.105000  0.215000  0.674400  1.0  0.4077
  H  H173  1  0.103000  0.174000  0.141200  1.0  0.4291
  H  H174  1  0.085000  0.141100  0.196200  1.0  0.4162
  H  H175  1  0.103200  0.957000  0.660000  1.0  0.2222
  H  H176  1  0.398200  0.236500  0.226000  1.0  0.2931
  H  H177  1  0.308900  0.221700  0.083600  1.0  0.3051
  H  H178  1  0.318400  0.381800  0.435500  1.0  0.1126
  H  H179  1  0.356900  0.423800  0.345100  1.0  0.1026
  H  H180  1  0.272200  0.456300  0.275000  1.0  0.109
  H  H181  1  0.147500  0.451700  0.297600  1.0  0.0957
  H  H182  1  0.909900  0.402200  0.350700  1.0  0.1034
  H  H183  1  0.885800  0.466900  0.432900  1.0  0.1126
  H  H184  1  0.982500  0.499000  0.494200  1.0  0.1071
  H  H185  1  0.101400  0.473400  0.469600  1.0  0.0987
  H  H186  1  0.044800  0.868900  0.734900  1.0  0.0921
  H  H187  1  0.261300  0.839200  0.724800  1.0  0.106
  H  H188  1  0.131400  0.954300  0.757200  1.0  0.0791
  H  H189  1  0.215300  0.945100  0.739500  1.0  0.0789
  H  H190  1  0.238500  0.732600  0.727500  1.0  0.1062
  H  H191  1  0.118900  0.696800  0.733900  1.0  0.086
  H  H192  1  0.125100  0.049600  0.633800  1.0  0.0921
  H  H193  1  0.122100  0.046800  0.705300  1.0  0.087
  H  H194  1  0.206300  0.895500  0.621500  1.0  0.0772
  H  H195  1  0.178100  0.950700  0.579200  1.0  0.088
  H  H196  1  0.251200  0.044300  0.709300  1.0  0.0728
  H  H197  1  0.224200  0.105500  0.674600  1.0  0.07
  H  H198  1  0.305800  0.957800  0.588600  1.0  0.0821
  H  H199  1  0.299200  0.960200  0.660000  1.0  0.0711
  H  H200  1  0.363900  0.065200  0.656100  1.0  0.0963
  H  H201  1  0.370300  0.045600  0.587400  1.0  0.111
  H  H202  1  0.229500  0.143000  0.580100  1.0  0.0858
  H  H203  1  0.446800  0.152500  0.608300  1.0  0.1114
  H  H204  1  0.442100  0.257200  0.579100  1.0  0.1067
  H  H205  1  0.331300  0.303200  0.558200  1.0  0.0982
  H  H206  1  0.202600  0.276300  0.299800  1.0  0.0962
  H  H207  1  0.247500  0.203100  0.456500  1.0  0.0701
  H  H208  1  0.370800  0.207400  0.437900  1.0  0.1097
  H  H209  1  0.411900  0.248500  0.346600  1.0  0.1162
  H  H210  1  0.371500  0.327300  0.262900  1.0  0.0794
  H  H211  1  0.289600  0.319800  0.239400  1.0  0.0864
  H  H212  1  0.289900  0.179200  0.230300  1.0  0.0776
  H  H213  1  0.256400  0.225000  0.180900  1.0  0.0744
  H  H214  1  0.337600  0.311000  0.139700  1.0  0.0664
  H  H215  1  0.419200  0.316400  0.165000  1.0  0.0858
  H  H216  1  0.289000  0.130400  0.135600  1.0  0.0819
  H  H217  1  0.371000  0.137200  0.159800  1.0  0.0744
  H  H218  1  0.449500  0.220100  0.121400  1.0  0.0782
  H  H219  1  0.419600  0.266600  0.071000  1.0  0.0749
  H  H220  1  0.328500  0.125000  0.033500  1.0  0.0969
  H  H221  1  0.412300  0.130200  0.053100  1.0  0.0728
  H  H222  1  0.495100  0.193600  0.997700  1.0  0.0867
  H  H223  1  0.282200  0.196600  0.952000  1.0  0.1244
  H  H224  1  0.314700  0.249900  0.865300  1.0  0.1063
  H  H225  1  0.434400  0.280700  0.851600  1.0  0.0845
  H  H226  1  0.218900  0.409300  0.188600  1.0  0.0934
  H  H227  1  0.053100  0.401400  0.977000  1.0  0.102
  H  H228  1  0.983300  0.336500  0.917800  1.0  0.1072
  H  H229  1  0.135400  0.053800  0.498700  1.0  0.093
  H  H230  1  0.248800  0.094100  0.317300  1.0  0.1134
  H  H231  1  0.258800  0.038800  0.489600  1.0  0.1044
  H  H232  1  0.317400  0.059900  0.398300  1.0  0.1096
  H  H233  1  0.079600  0.186200  0.989800  1.0  0.1117
  H  H234  1  0.001600  0.436500  0.581100  1.0  0.0927
  H  H235  1  0.942100  0.526700  0.611600  1.0  0.1063
  H  H236  1  0.016200  0.498700  0.778500  1.0  0.0908
  H  H237  1  0.949000  0.556900  0.711400  1.0  0.1063
  H  H238  1  0.150000  0.474400  0.792700  1.0  0.0983
  H  H239  1  0.221700  0.427200  0.866500  1.0  0.1183
  H  H240  1  0.126000  0.261300  0.829500  1.0  0.1173
  H  H241  1  0.279000  0.488500  0.136600  1.0  0.1185
  H  H242  1  0.258400  0.500200  0.032700  1.0  0.1249
  H  H243  1  0.186100  0.430300  0.984400  1.0  0.0928
  H  H244  1  0.992800  0.230300  0.925200  1.0  0.1139
  H  H245  1  0.208500  0.320800  0.885100  1.0  0.0948
  H  H246  1  0.905600  0.136600  0.513800  1.0  0.1104
  H  H247  1  0.832600  0.087200  0.442800  1.0  0.1022
  H  H248  1  0.884900  0.037200  0.362200  1.0  0.1012
  H  H249  1  0.010300  0.039600  0.347800  1.0  0.1094
  H  H250  1  0.898000  0.828200  0.125800  1.0  0.4299
  H  H251  1  0.895000  0.785000  0.174400  1.0  0.4075
  H  H252  1  0.897000  0.826000  0.641200  1.0  0.4263
  H  H253  1  0.915000  0.858900  0.696200  1.0  0.416
  H  H254  1  0.896800  0.043000  0.160000  1.0  0.2147
  H  H255  1  0.601800  0.763500  0.726000  1.0  0.2927
  H  H256  1  0.691100  0.778300  0.583600  1.0  0.306
  H  H257  1  0.681600  0.618200  0.935500  1.0  0.1121
  H  H258  1  0.643100  0.576200  0.845100  1.0  0.1042
  H  H259  1  0.727800  0.543700  0.775000  1.0  0.1085
  H  H260  1  0.852500  0.548300  0.797600  1.0  0.0953
  H  H261  1  0.090100  0.597800  0.850700  1.0  0.1033
  H  H262  1  0.114200  0.533100  0.932900  1.0  0.1124
  H  H263  1  0.017500  0.501000  0.994200  1.0  0.1075
  H  H264  1  0.898600  0.526600  0.969600  1.0  0.0986
  H  H265  1  0.955200  0.131100  0.234900  1.0  0.0917
  H  H266  1  0.738700  0.160800  0.224800  1.0  0.1066
  H  H267  1  0.868600  0.045700  0.257200  1.0  0.0792
  H  H268  1  0.784700  0.054900  0.239500  1.0  0.0785
  H  H269  1  0.761500  0.267400  0.227500  1.0  0.1062
  H  H270  1  0.881100  0.303200  0.233900  1.0  0.0857
  H  H271  1  0.874900  0.950400  0.133800  1.0  0.093
  H  H272  1  0.877900  0.953200  0.205300  1.0  0.0862
  H  H273  1  0.793700  0.104500  0.121500  1.0  0.0776
  H  H274  1  0.821900  0.049300  0.079200  1.0  0.0883
  H  H275  1  0.748800  0.955700  0.209300  1.0  0.0731
  H  H276  1  0.775800  0.894500  0.174600  1.0  0.0713
  H  H277  1  0.694200  0.042200  0.088600  1.0  0.0826
  H  H278  1  0.700800  0.039800  0.160000  1.0  0.0711
  H  H279  1  0.636100  0.934800  0.156100  1.0  0.0964
  H  H280  1  0.629700  0.954400  0.087400  1.0  0.1116
  H  H281  1  0.770500  0.857000  0.080100  1.0  0.0848
  H  H282  1  0.553200  0.847500  0.108300  1.0  0.1113
  H  H283  1  0.557900  0.742800  0.079100  1.0  0.1066
  H  H284  1  0.668700  0.696800  0.058200  1.0  0.098
  H  H285  1  0.797400  0.723700  0.799800  1.0  0.0966
  H  H286  1  0.752500  0.796900  0.956500  1.0  0.0701
  H  H287  1  0.629200  0.792600  0.937900  1.0  0.1097
  H  H288  1  0.588100  0.751500  0.846600  1.0  0.1167
  H  H289  1  0.628500  0.672700  0.762900  1.0  0.0801
  H  H290  1  0.710400  0.680200  0.739400  1.0  0.0879
  H  H291  1  0.710100  0.820800  0.730300  1.0  0.0754
  H  H292  1  0.743600  0.775000  0.680900  1.0  0.0794
  H  H293  1  0.662400  0.689000  0.639700  1.0  0.0666
  H  H294  1  0.580800  0.683600  0.665000  1.0  0.0839
  H  H295  1  0.711000  0.869600  0.635600  1.0  0.0812
  H  H296  1  0.629000  0.862800  0.659800  1.0  0.0726
  H  H297  1  0.550500  0.779900  0.621400  1.0  0.0782
  H  H298  1  0.580400  0.733400  0.571000  1.0  0.0745
  H  H299  1  0.671500  0.875000  0.533500  1.0  0.096
  H  H300  1  0.587700  0.869800  0.553100  1.0  0.0731
  H  H301  1  0.504900  0.806400  0.497700  1.0  0.0861
  H  H302  1  0.717800  0.803400  0.452000  1.0  0.125
  H  H303  1  0.685300  0.750100  0.365300  1.0  0.1063
  H  H304  1  0.565600  0.719300  0.351600  1.0  0.0841
  H  H305  1  0.781100  0.590700  0.688600  1.0  0.0925
  H  H306  1  0.946900  0.598600  0.477000  1.0  0.1027
  H  H307  1  0.016700  0.663500  0.417800  1.0  0.1073
  H  H308  1  0.864600  0.946200  0.998700  1.0  0.0923
  H  H309  1  0.751200  0.905900  0.817300  1.0  0.113
  H  H310  1  0.741200  0.961200  0.989600  1.0  0.1044
  H  H311  1  0.682600  0.940100  0.898300  1.0  0.1093
  H  H312  1  0.920400  0.813800  0.489800  1.0  0.1109
  H  H313  1  0.998400  0.563500  0.081100  1.0  0.0922
  H  H314  1  0.057900  0.473300  0.111600  1.0  0.1061
  H  H315  1  0.983800  0.501300  0.278500  1.0  0.0908
  H  H316  1  0.051000  0.443100  0.211400  1.0  0.1064
  H  H317  1  0.850000  0.525600  0.292700  1.0  0.0989
  H  H318  1  0.778300  0.572800  0.366500  1.0  0.1186
  H  H319  1  0.874000  0.738700  0.329500  1.0  0.118
  H  H320  1  0.721000  0.511500  0.636600  1.0  0.1183
  H  H321  1  0.741600  0.499800  0.532700  1.0  0.1245
  H  H322  1  0.813900  0.569700  0.484400  1.0  0.0928
  H  H323  1  0.007200  0.769700  0.425200  1.0  0.114
  H  H324  1  0.791500  0.679200  0.385100  1.0  0.0942
  H  H325  1  0.094400  0.863400  0.013800  1.0  0.1111
  H  H326  1  0.167400  0.912800  0.942800  1.0  0.1021
  H  H327  1  0.115100  0.962800  0.862200  1.0  0.101
  H  H328  1  0.989700  0.960400  0.847800  1.0  0.1092
  C  C329  1  0.216700  0.895260  0.407000  1.0  -0.0523
  C  C330  1  0.193700  0.920400  0.353400  1.0  -0.0945
  C  C331  1  0.243500  0.940300  0.312400  1.0  -0.0906
  C  C332  1  0.318100  0.937000  0.325900  1.0  -0.0767
  C  C333  1  0.342600  0.912790  0.379220  1.0  -0.0303
  C  C334  1  0.291200  0.889480  0.419870  1.0  -0.1143
  C  C335  1  0.421700  0.921160  0.396030  1.0  0.0259
  C  C336  1  0.479700  0.898540  0.362200  1.0  -0.1257
  C  C337  1  0.469700  0.851220  0.313350  1.0  0.6751
  C  C338  1  0.551100  0.916300  0.375200  1.0  -0.0569
  C  C339  1  0.565600  0.954600  0.424100  1.0  -0.1192
  C  C340  1  0.508000  0.974400  0.459800  1.0  -0.0929
  C  C341  1  0.437500  0.958500  0.445400  1.0  -0.0799
  C  C342  1  0.312500  0.855140  0.475100  1.0  0.6939
  C  C343  1  0.415200  0.340860  0.732830  1.0  0.1499
  C  C344  1  0.345400  0.365620  0.728850  1.0  0.1284
  C  C345  1  0.287400  0.324200  0.727100  1.0  -0.0611
  C  C346  1  0.335400  0.435110  0.727500  1.0  -0.0695
  C  C347  1  0.300800  0.261500  0.728800  1.0  -0.1168
  C  C348  1  0.372200  0.240380  0.732400  1.0  0.1398
  C  C349  1  0.350000  0.533000  0.669700  1.0  -0.0533
  C  C350  1  0.299700  0.441320  0.618500  1.0  -0.0263
  C  C351  1  0.273600  0.559440  0.672800  1.0  -0.0119
  C  C352  1  0.225000  0.472240  0.622200  1.0  0.0165
  C  C353  1  0.159900  0.568800  0.616600  1.0  -0.1005
  C  C354  1  0.161900  0.636400  0.598640  1.0  0.1102
  C  C355  1  0.226800  0.666810  0.582260  1.0  0.1136
  C  C356  1  0.098500  0.671140  0.597800  1.0  -0.0756
  C  C357  1  0.101500  0.733300  0.581300  1.0  -0.1095
  C  C358  1  0.167100  0.760190  0.568400  1.0  0.1534
  C  C359  1  0.262200  0.762210  0.327900  1.0  0.0752
  C  C360  1  0.236200  0.719300  0.419400  1.0  0.1618
  C  C361  1  0.189100  0.766700  0.313700  1.0  0.0678
  C  C362  1  0.163000  0.721900  0.408900  1.0  -0.1755
  C  C363  1  0.138800  0.746100  0.355000  1.0  -0.0707
  C  C364  1  0.167900  0.796700  0.255350  1.0  -0.0417
  C  C365  1  0.198400  0.703900  0.194200  1.0  -0.0344
  C  C366  1  0.120300  0.786730  0.154770  1.0  -0.0682
  C  C367  1  0.172100  0.660730  0.145560  1.0  -0.0768
  C  C368  1  0.094300  0.742650  0.107000  1.0  -0.068
  C  C369  1  0.131200  0.654670  0.041110  1.0  -0.0569
  C  C370  1  0.114500  0.689300  0.984830  1.0  0.1035
  C  C371  1  0.042700  0.706140  0.971230  1.0  0.1053
  C  C372  1  0.168100  0.706900  0.944600  1.0  -0.0576
  C  C373  1  0.149300  0.739200  0.894100  1.0  -0.106
  C  C374  1  0.077800  0.756100  0.885400  1.0  0.1744
  C  C375  1  0.333600  0.871600  0.117500  1.0  -0.1249
  C  C376  1  0.342700  0.876600  0.054900  1.0  0.0409
  C  C377  1  0.373600  0.825300  0.155100  1.0  0.6942
  C  C378  1  0.387400  0.832700  0.019100  1.0  0.023
  C  C379  1  0.414400  0.858880  0.634390  1.0  0.6923
  C  C380  1  0.288100  0.913300  0.146700  1.0  -0.061
  C  C381  1  0.440500  0.857500  0.979500  1.0  -0.1731
  C  C382  1  0.482600  0.818900  0.944900  1.0  -0.0709
  C  C383  1  0.318100  0.736800  0.054700  1.0  0.6939
  C  C384  1  0.379300  0.768400  0.021400  1.0  -0.132
  C  C385  1  0.452200  0.655060  0.517100  1.0  0.6949
  C  C386  1  0.495900  0.620750  0.471300  1.0  -0.087
  C  C387  1  0.464500  0.590900  0.421800  1.0  0.0114
  C  C388  1  0.383900  0.585570  0.415300  1.0  -0.014
  C  C389  1  0.348600  0.598200  0.360300  1.0  -0.0984
  C  C390  1  0.341700  0.563100  0.461700  1.0  -0.1163
  C  C391  1  0.274400  0.587100  0.354700  1.0  -0.07
  C  C392  1  0.268500  0.553700  0.456500  1.0  -0.0945
  C  C393  1  0.233700  0.566000  0.402300  1.0  -0.1246
  C  C394  1  0.387400  0.626300  0.307700  1.0  0.6794
  C  C395  1  0.424700  0.730200  0.987000  1.0  -0.0602
  C  C396  1  0.454500  0.912890  0.661040  1.0  -0.1269
  C  C397  1  0.495100  0.949080  0.621700  1.0  -0.0896
  C  C398  1  0.450000  0.930760  0.721400  1.0  0.0213
  C  C399  1  0.530800  0.002600  0.639500  1.0  -0.1084
  C  C400  1  0.486600  0.985300  0.738100  1.0  -0.1558
  C  C401  1  0.407100  0.896600  0.767120  1.0  0.0296
  C  C402  1  0.526500  0.020300  0.698200  1.0  -0.093
  C  C403  1  0.355600  0.931100  0.800400  1.0  -0.1194
  C  C404  1  0.414000  0.832300  0.779550  1.0  -0.12
  C  C405  1  0.312400  0.903200  0.844300  1.0  -0.0952
  C  C406  1  0.370200  0.804800  0.822300  1.0  -0.0467
  C  C407  1  0.473100  0.792500  0.752250  1.0  0.6858
  C  C408  1  0.252600  0.960700  0.116100  1.0  -0.1257
  C  C409  1  0.264000  0.967200  0.054300  1.0  -0.1329
  C  C410  1  0.307200  0.925800  0.026200  1.0  -0.1157
  C  C411  1  0.476500  0.756400  0.948600  1.0  -0.1169
  C  C412  1  0.320300  0.840300  0.855100  1.0  -0.0792
  C  C413  1  0.572700  0.617900  0.479700  1.0  -0.1065
  C  C414  1  0.615900  0.587700  0.438000  1.0  -0.1042
  C  C415  1  0.585000  0.558600  0.390100  1.0  -0.1123
  C  C416  1  0.510300  0.560000  0.381500  1.0  -0.1251
  C  C417  1  0.783300  0.104740  0.907000  1.0  -0.0549
  C  C418  1  0.806300  0.079600  0.853400  1.0  -0.0937
  C  C419  1  0.756500  0.059700  0.812400  1.0  -0.0896
  C  C420  1  0.681900  0.063000  0.825900  1.0  -0.0763
  C  C421  1  0.657400  0.087210  0.879220  1.0  -0.0302
  C  C422  1  0.708800  0.110520  0.919870  1.0  -0.1141
  C  C423  1  0.578300  0.078840  0.896030  1.0  0.0264
  C  C424  1  0.520300  0.101460  0.862200  1.0  -0.1251
  C  C425  1  0.530300  0.148780  0.813350  1.0  0.6764
  C  C426  1  0.448900  0.083700  0.875200  1.0  -0.0566
  C  C427  1  0.434400  0.045400  0.924100  1.0  -0.1187
  C  C428  1  0.492000  0.025600  0.959800  1.0  -0.0944
  C  C429  1  0.562500  0.041500  0.945400  1.0  -0.0798
  C  C430  1  0.687500  0.144860  0.975100  1.0  0.6943
  C  C431  1  0.584800  0.659140  0.232830  1.0  0.1495
  C  C432  1  0.654600  0.634380  0.228850  1.0  0.1287
  C  C433  1  0.712600  0.675800  0.227100  1.0  -0.0603
  C  C434  1  0.664600  0.564890  0.227500  1.0  -0.071
  C  C435  1  0.699200  0.738500  0.228800  1.0  -0.1155
  C  C436  1  0.627800  0.759620  0.232400  1.0  0.1389
  C  C437  1  0.650000  0.467000  0.169700  1.0  -0.0532
  C  C438  1  0.700300  0.558680  0.118500  1.0  -0.0241
  C  C439  1  0.726400  0.440560  0.172800  1.0  -0.0129
  C  C440  1  0.775000  0.527760  0.122200  1.0  0.0163
  C  C441  1  0.840100  0.431200  0.116600  1.0  -0.0994
  C  C442  1  0.838100  0.363600  0.098640  1.0  0.1087
  C  C443  1  0.773200  0.333190  0.082260  1.0  0.1122
  C  C444  1  0.901500  0.328860  0.097800  1.0  -0.0744
  C  C445  1  0.898500  0.266700  0.081300  1.0  -0.1076
  C  C446  1  0.832900  0.239810  0.068400  1.0  0.1532
  C  C447  1  0.737800  0.237790  0.827900  1.0  0.0738
  C  C448  1  0.763800  0.280700  0.919400  1.0  0.1608
  C  C449  1  0.810900  0.233300  0.813700  1.0  0.0684
  C  C450  1  0.837000  0.278100  0.908900  1.0  -0.1763
  C  C451  1  0.861200  0.253900  0.855000  1.0  -0.07
  C  C452  1  0.832100  0.203300  0.755350  1.0  -0.0402
  C  C453  1  0.801600  0.296100  0.694200  1.0  -0.0354
  C  C454  1  0.879700  0.213270  0.654770  1.0  -0.066
  C  C455  1  0.827900  0.339270  0.645560  1.0  -0.0784
  C  C456  1  0.905700  0.257350  0.607000  1.0  -0.0697
  C  C457  1  0.868800  0.345330  0.541110  1.0  -0.0567
  C  C458  1  0.885500  0.310700  0.484830  1.0  0.103
  C  C459  1  0.957300  0.293860  0.471230  1.0  0.1051
  C  C460  1  0.831900  0.293100  0.444600  1.0  -0.0574
  C  C461  1  0.850700  0.260800  0.394100  1.0  -0.1067
  C  C462  1  0.922200  0.243900  0.385400  1.0  0.1755
  C  C463  1  0.666400  0.128400  0.617500  1.0  -0.124
  C  C464  1  0.657300  0.123400  0.554900  1.0  0.0414
  C  C465  1  0.626400  0.174700  0.655100  1.0  0.6941
  C  C466  1  0.612600  0.167300  0.519100  1.0  0.0226
  C  C467  1  0.585600  0.141120  0.134390  1.0  0.6918
  C  C468  1  0.711900  0.086700  0.646700  1.0  -0.0625
  C  C469  1  0.559500  0.142500  0.479500  1.0  -0.1731
  C  C470  1  0.517400  0.181100  0.444900  1.0  -0.0702
  C  C471  1  0.681900  0.263200  0.554700  1.0  0.6955
  C  C472  1  0.620700  0.231600  0.521400  1.0  -0.1323
  C  C473  1  0.547800  0.344940  0.017100  1.0  0.6939
  C  C474  1  0.504100  0.379250  0.971300  1.0  -0.0869
  C  C475  1  0.535500  0.409100  0.921800  1.0  0.0132
  C  C476  1  0.616100  0.414430  0.915300  1.0  -0.0139
  C  C477  1  0.651400  0.401800  0.860300  1.0  -0.0976
  C  C478  1  0.658300  0.436900  0.961700  1.0  -0.1147
  C  C479  1  0.725600  0.412900  0.854700  1.0  -0.0714
  C  C480  1  0.731500  0.446300  0.956500  1.0  -0.0967
  C  C481  1  0.766300  0.434000  0.902300  1.0  -0.124
  C  C482  1  0.612600  0.373700  0.807700  1.0  0.6803
  C  C483  1  0.575300  0.269800  0.487000  1.0  -0.0589
  C  C484  1  0.545500  0.087110  0.161040  1.0  -0.1262
  C  C485  1  0.504900  0.050920  0.121700  1.0  -0.0896
  C  C486  1  0.550000  0.069240  0.221400  1.0  0.0202
  C  C487  1  0.469200  0.997400  0.139500  1.0  -0.1078
  C  C488  1  0.513400  0.014700  0.238100  1.0  -0.1551
  C  C489  1  0.592900  0.103400  0.267120  1.0  0.0285
  C  C490  1  0.473500  0.979700  0.198200  1.0  -0.0929
  C  C491  1  0.644400  0.068900  0.300400  1.0  -0.1198
  C  C492  1  0.586000  0.167700  0.279550  1.0  -0.1208
  C  C493  1  0.687600  0.096800  0.344300  1.0  -0.094
  C  C494  1  0.629800  0.195200  0.322300  1.0  -0.0467
  C  C495  1  0.526900  0.207500  0.252250  1.0  0.6864
  C  C496  1  0.747400  0.039300  0.616100  1.0  -0.1276
  C  C497  1  0.736000  0.032800  0.554300  1.0  -0.1341
  C  C498  1  0.692800  0.074200  0.526200  1.0  -0.116
  C  C499  1  0.523500  0.243600  0.448600  1.0  -0.1163
  C  C500  1  0.679700  0.159700  0.355100  1.0  -0.0787
  C  C501  1  0.427300  0.382100  0.979700  1.0  -0.1057
  C  C502  1  0.384100  0.412300  0.938000  1.0  -0.1056
  C  C503  1  0.415000  0.441400  0.890100  1.0  -0.1098
  C  C504  1  0.489700  0.440000  0.881500  1.0  -0.123
  C  C505  1  0.283300  0.395260  0.407000  1.0  -0.0553
  C  C506  1  0.306300  0.420400  0.353400  1.0  -0.0938
  C  C507  1  0.256500  0.440300  0.312400  1.0  -0.0901
  C  C508  1  0.181900  0.437000  0.325900  1.0  -0.0761
  C  C509  1  0.157400  0.412790  0.379220  1.0  -0.0301
  C  C510  1  0.208800  0.389480  0.419870  1.0  -0.1142
  C  C511  1  0.078300  0.421160  0.396030  1.0  0.0262
  C  C512  1  0.020300  0.398540  0.362200  1.0  -0.1256
  C  C513  1  0.030300  0.351220  0.313350  1.0  0.6756
  C  C514  1  0.948900  0.416300  0.375200  1.0  -0.0565
  C  C515  1  0.934400  0.454600  0.424100  1.0  -0.1201
  C  C516  1  0.992000  0.474400  0.459800  1.0  -0.0926
  C  C517  1  0.062500  0.458500  0.445400  1.0  -0.0799
  C  C518  1  0.187500  0.355140  0.475100  1.0  0.6941
  C  C519  1  0.084800  0.840860  0.732830  1.0  0.1492
  C  C520  1  0.154600  0.865620  0.728850  1.0  0.1288
  C  C521  1  0.212600  0.824200  0.727100  1.0  -0.0604
  C  C522  1  0.164600  0.935110  0.727500  1.0  -0.0699
  C  C523  1  0.199200  0.761500  0.728800  1.0  -0.116
  C  C524  1  0.127800  0.740380  0.732400  1.0  0.1396
  C  C525  1  0.150000  0.033000  0.669700  1.0  -0.0529
  C  C526  1  0.200300  0.941320  0.618500  1.0  -0.0238
  C  C527  1  0.226400  0.059440  0.672800  1.0  -0.0128
  C  C528  1  0.275000  0.972240  0.622200  1.0  0.0168
  C  C529  1  0.340100  0.068800  0.616600  1.0  -0.0991
  C  C530  1  0.338100  0.136400  0.598640  1.0  0.1093
  C  C531  1  0.273200  0.166810  0.582260  1.0  0.1124
  C  C532  1  0.401500  0.171140  0.597800  1.0  -0.0745
  C  C533  1  0.398500  0.233300  0.581300  1.0  -0.1075
  C  C534  1  0.332900  0.260190  0.568400  1.0  0.1536
  C  C535  1  0.237800  0.262210  0.327900  1.0  0.0738
  C  C536  1  0.263800  0.219300  0.419400  1.0  0.1608
  C  C537  1  0.310900  0.266700  0.313700  1.0  0.0679
  C  C538  1  0.337000  0.221900  0.408900  1.0  -0.1762
  C  C539  1  0.361200  0.246100  0.355000  1.0  -0.07
  C  C540  1  0.332100  0.296700  0.255350  1.0  -0.0411
  C  C541  1  0.301600  0.203900  0.194200  1.0  -0.0348
  C  C542  1  0.379700  0.286730  0.154770  1.0  -0.0694
  C  C543  1  0.327900  0.160730  0.145560  1.0  -0.0753
  C  C544  1  0.405700  0.242650  0.107000  1.0  -0.0682
  C  C545  1  0.368800  0.154670  0.041110  1.0  -0.0565
  C  C546  1  0.385500  0.189300  0.984830  1.0  0.1029
  C  C547  1  0.457300  0.206140  0.971230  1.0  0.1053
  C  C548  1  0.331900  0.206900  0.944600  1.0  -0.0578
  C  C549  1  0.350700  0.239200  0.894100  1.0  -0.1072
  C  C550  1  0.422200  0.256100  0.885400  1.0  0.1756
  C  C551  1  0.166400  0.371600  0.117500  1.0  -0.1244
  C  C552  1  0.157300  0.376600  0.054900  1.0  0.0412
  C  C553  1  0.126400  0.325300  0.155100  1.0  0.6938
  C  C554  1  0.112600  0.332700  0.019100  1.0  0.0225
  C  C555  1  0.085600  0.358880  0.634390  1.0  0.6913
  C  C556  1  0.211900  0.413300  0.146700  1.0  -0.061
  C  C557  1  0.059500  0.357500  0.979500  1.0  -0.1722
  C  C558  1  0.017400  0.318900  0.944900  1.0  -0.0712
  C  C559  1  0.181900  0.236800  0.054700  1.0  0.6943
  C  C560  1  0.120700  0.268400  0.021400  1.0  -0.1321
  C  C561  1  0.047800  0.155060  0.517100  1.0  0.6944
  C  C562  1  0.004100  0.120750  0.471300  1.0  -0.0871
  C  C563  1  0.035500  0.090900  0.421800  1.0  0.011
  C  C564  1  0.116100  0.085570  0.415300  1.0  -0.0152
  C  C565  1  0.151400  0.098200  0.360300  1.0  -0.0985
  C  C566  1  0.158300  0.063100  0.461700  1.0  -0.1147
  C  C567  1  0.225600  0.087100  0.354700  1.0  -0.0709
  C  C568  1  0.231500  0.053700  0.456500  1.0  -0.0953
  C  C569  1  0.266300  0.066000  0.402300  1.0  -0.124
  C  C570  1  0.112600  0.126300  0.307700  1.0  0.6805
  C  C571  1  0.075300  0.230200  0.987000  1.0  -0.0597
  C  C572  1  0.045500  0.412890  0.661040  1.0  -0.127
  C  C573  1  0.004900  0.449080  0.621700  1.0  -0.0896
  C  C574  1  0.050000  0.430760  0.721400  1.0  0.0197
  C  C575  1  0.969200  0.502600  0.639500  1.0  -0.1083
  C  C576  1  0.013400  0.485300  0.738100  1.0  -0.1554
  C  C577  1  0.092900  0.396600  0.767120  1.0  0.0284
  C  C578  1  0.973500  0.520300  0.698200  1.0  -0.0929
  C  C579  1  0.144400  0.431100  0.800400  1.0  -0.1193
  C  C580  1  0.086000  0.332300  0.779550  1.0  -0.1218
  C  C581  1  0.187600  0.403200  0.844300  1.0  -0.0945
  C  C582  1  0.129800  0.304800  0.822300  1.0  -0.0461
  C  C583  1  0.026900  0.292500  0.752250  1.0  0.6861
  C  C584  1  0.247400  0.460700  0.116100  1.0  -0.1258
  C  C585  1  0.236000  0.467200  0.054300  1.0  -0.1336
  C  C586  1  0.192800  0.425800  0.026200  1.0  -0.1163
  C  C587  1  0.023500  0.256400  0.948600  1.0  -0.1173
  C  C588  1  0.179700  0.340300  0.855100  1.0  -0.0781
  C  C589  1  0.927300  0.117900  0.479700  1.0  -0.1055
  C  C590  1  0.884100  0.087700  0.438000  1.0  -0.1059
  C  C591  1  0.915000  0.058600  0.390100  1.0  -0.1115
  C  C592  1  0.989700  0.060000  0.381500  1.0  -0.1247
  C  C593  1  0.716700  0.604740  0.907000  1.0  -0.0521
  C  C594  1  0.693700  0.579600  0.853400  1.0  -0.0943
  C  C595  1  0.743500  0.559700  0.812400  1.0  -0.0903
  C  C596  1  0.818100  0.563000  0.825900  1.0  -0.0775
  C  C597  1  0.842600  0.587210  0.879220  1.0  -0.0301
  C  C598  1  0.791200  0.610520  0.919870  1.0  -0.114
  C  C599  1  0.921700  0.578840  0.896030  1.0  0.026
  C  C600  1  0.979700  0.601460  0.862200  1.0  -0.1255
  C  C601  1  0.969700  0.648780  0.813350  1.0  0.6759
  C  C602  1  0.051100  0.583700  0.875200  1.0  -0.0571
  C  C603  1  0.065600  0.545400  0.924100  1.0  -0.1184
  C  C604  1  0.008000  0.525600  0.959800  1.0  -0.0945
  C  C605  1  0.937500  0.541500  0.945400  1.0  -0.0795
  C  C606  1  0.812500  0.644860  0.975100  1.0  0.6942
  C  C607  1  0.915200  0.159140  0.232830  1.0  0.1501
  C  C608  1  0.845400  0.134380  0.228850  1.0  0.1286
  C  C609  1  0.787400  0.175800  0.227100  1.0  -0.0614
  C  C610  1  0.835400  0.064890  0.227500  1.0  -0.0711
  C  C611  1  0.800800  0.238500  0.228800  1.0  -0.117
  C  C612  1  0.872200  0.259620  0.232400  1.0  0.1391
  C  C613  1  0.850000  0.967000  0.169700  1.0  -0.055
  C  C614  1  0.799700  0.058680  0.118500  1.0  -0.0259
  C  C615  1  0.773600  0.940560  0.172800  1.0  -0.012
  C  C616  1  0.725000  0.027760  0.122200  1.0  0.0159
  C  C617  1  0.659900  0.931200  0.116600  1.0  -0.1003
  C  C618  1  0.661900  0.863600  0.098640  1.0  0.1098
  C  C619  1  0.726800  0.833190  0.082260  1.0  0.1128
  C  C620  1  0.598500  0.828860  0.097800  1.0  -0.0757
  C  C621  1  0.601500  0.766700  0.081300  1.0  -0.1097
  C  C622  1  0.667100  0.739810  0.068400  1.0  0.1536
  C  C623  1  0.762200  0.737790  0.827900  1.0  0.0753
  C  C624  1  0.736200  0.780700  0.919400  1.0  0.1617
  C  C625  1  0.689100  0.733300  0.813700  1.0  0.068
  C  C626  1  0.663000  0.778100  0.908900  1.0  -0.1759
  C  C627  1  0.638800  0.753900  0.855000  1.0  -0.0708
  C  C628  1  0.667900  0.703300  0.755350  1.0  -0.0402
  C  C629  1  0.698400  0.796100  0.694200  1.0  -0.0344
  C  C630  1  0.620300  0.713270  0.654770  1.0  -0.0644
  C  C631  1  0.672100  0.839270  0.645560  1.0  -0.0801
  C  C632  1  0.594300  0.757350  0.607000  1.0  -0.0691
  C  C633  1  0.631200  0.845330  0.541110  1.0  -0.057
  C  C634  1  0.614500  0.810700  0.484830  1.0  0.1038
  C  C635  1  0.542700  0.793860  0.471230  1.0  0.105
  C  C636  1  0.668100  0.793100  0.444600  1.0  -0.0576
  C  C637  1  0.649300  0.760800  0.394100  1.0  -0.1055
  C  C638  1  0.577800  0.743900  0.385400  1.0  0.1744
  C  C639  1  0.833600  0.628400  0.617500  1.0  -0.1245
  C  C640  1  0.842700  0.623400  0.554900  1.0  0.0414
  C  C641  1  0.873600  0.674700  0.655100  1.0  0.6947
  C  C642  1  0.887400  0.667300  0.519100  1.0  0.0231
  C  C643  1  0.914400  0.641120  0.134390  1.0  0.6927
  C  C644  1  0.788100  0.586700  0.646700  1.0  -0.0622
  C  C645  1  0.940500  0.642500  0.479500  1.0  -0.1733
  C  C646  1  0.982600  0.681100  0.444900  1.0  -0.0702
  C  C647  1  0.818100  0.763200  0.554700  1.0  0.6944
  C  C648  1  0.879300  0.731600  0.521400  1.0  -0.1319
  C  C649  1  0.952200  0.844940  0.017100  1.0  0.6945
  C  C650  1  0.995900  0.879250  0.971300  1.0  -0.0865
  C  C651  1  0.964500  0.909100  0.921800  1.0  0.0139
  C  C652  1  0.883900  0.914430  0.915300  1.0  -0.0131
  C  C653  1  0.848600  0.901800  0.860300  1.0  -0.098
  C  C654  1  0.841700  0.936900  0.961700  1.0  -0.1163
  C  C655  1  0.774400  0.912900  0.854700  1.0  -0.0703
  C  C656  1  0.768500  0.946300  0.956500  1.0  -0.0959
  C  C657  1  0.733700  0.934000  0.902300  1.0  -0.1246
  C  C658  1  0.887400  0.873700  0.807700  1.0  0.6793
  C  C659  1  0.924700  0.769800  0.487000  1.0  -0.0592
  C  C660  1  0.954500  0.587110  0.161040  1.0  -0.1261
  C  C661  1  0.995100  0.550920  0.121700  1.0  -0.0895
  C  C662  1  0.950000  0.569240  0.221400  1.0  0.0218
  C  C663  1  0.030800  0.497400  0.139500  1.0  -0.108
  C  C664  1  0.986600  0.514700  0.238100  1.0  -0.1555
  C  C665  1  0.907100  0.603400  0.267120  1.0  0.0296
  C  C666  1  0.026500  0.479700  0.198200  1.0  -0.0933
  C  C667  1  0.855600  0.568900  0.300400  1.0  -0.1202
  C  C668  1  0.914000  0.667700  0.279550  1.0  -0.1199
  C  C669  1  0.812400  0.596800  0.344300  1.0  -0.0941
  C  C670  1  0.870200  0.695200  0.322300  1.0  -0.0472
  C  C671  1  0.973100  0.707500  0.252250  1.0  0.6851
  C  C672  1  0.752600  0.539300  0.616100  1.0  -0.1272
  C  C673  1  0.764000  0.532800  0.554300  1.0  -0.1336
  C  C674  1  0.807200  0.574200  0.526200  1.0  -0.1155
  C  C675  1  0.976500  0.743600  0.448600  1.0  -0.1145
  C  C676  1  0.820300  0.659700  0.355100  1.0  -0.0798
  C  C677  1  0.072700  0.882100  0.979700  1.0  -0.1065
  C  C678  1  0.115900  0.912300  0.938000  1.0  -0.1041
  C  C679  1  0.085000  0.941400  0.890100  1.0  -0.11
  C  C680  1  0.010300  0.940000  0.881500  1.0  -0.1242
  N  N681  1  0.429070  0.279740  0.733970  1.0  -0.3585
  N  N682  1  0.350140  0.463190  0.667220  1.0  0.0818
  N  N683  1  0.232400  0.539800  0.619660  1.0  -0.2811
  N  N684  1  0.230070  0.727110  0.569690  1.0  -0.3611
  N  N685  1  0.285520  0.738360  0.380530  1.0  -0.3614
  N  N686  1  0.142390  0.751420  0.209210  1.0  0.1303
  N  N687  1  0.152350  0.696980  0.091370  1.0  0.1286
  N  N688  1  0.024680  0.738940  0.923010  1.0  -0.3563
  N  N689  1  0.570930  0.720260  0.233970  1.0  -0.3591
  N  N690  1  0.649860  0.536810  0.167220  1.0  0.0813
  N  N691  1  0.767600  0.460200  0.119660  1.0  -0.2812
  N  N692  1  0.769930  0.272890  0.069690  1.0  -0.3629
  N  N693  1  0.714480  0.261640  0.880530  1.0  -0.3593
  N  N694  1  0.857610  0.248580  0.709210  1.0  0.1309
  N  N695  1  0.847650  0.303020  0.591370  1.0  0.129
  N  N696  1  0.975320  0.261060  0.423010  1.0  -0.3565
  N  N697  1  0.070930  0.779740  0.733970  1.0  -0.3603
  N  N698  1  0.149860  0.963190  0.667220  1.0  0.0804
  N  N699  1  0.267600  0.039800  0.619660  1.0  -0.2805
  N  N700  1  0.269930  0.227110  0.569690  1.0  -0.3625
  N  N701  1  0.214480  0.238360  0.380530  1.0  -0.3595
  N  N702  1  0.357610  0.251420  0.209210  1.0  0.1311
  N  N703  1  0.347650  0.196980  0.091370  1.0  0.1276
  N  N704  1  0.475320  0.238940  0.923010  1.0  -0.3564
  N  N705  1  0.929070  0.220260  0.233970  1.0  -0.3584
  N  N706  1  0.850140  0.036810  0.167220  1.0  0.082
  N  N707  1  0.732400  0.960200  0.119660  1.0  -0.282
  N  N708  1  0.730070  0.772890  0.069690  1.0  -0.3611
  N  N709  1  0.785520  0.761640  0.880530  1.0  -0.3611
  N  N710  1  0.642390  0.748580  0.709210  1.0  0.1301
  N  N711  1  0.652350  0.803020  0.591370  1.0  0.1301
  N  N712  1  0.524680  0.761060  0.423010  1.0  -0.3568
  Cl  Cl713  1  0.284040  0.595450  0.849810  1.0  1.585
  Cl  Cl714  1  0.715960  0.404550  0.349810  1.0  1.585
  Cl  Cl715  1  0.215960  0.095450  0.849810  1.0  1.5848
  Cl  Cl716  1  0.784040  0.904550  0.349810  1.0  1.5856
  O  O717  1  0.422960  0.807950  0.321010  1.0  -0.6908
  O  O718  1  0.509050  0.852840  0.268080  1.0  -0.6316
  O  O719  1  0.366250  0.816770  0.472120  1.0  -0.6866
  O  O720  1  0.276280  0.860730  0.521930  1.0  -0.6227
  O  O721  1  0.438880  0.812960  0.142960  1.0  -0.622
  O  O722  1  0.341010  0.801510  0.199200  1.0  -0.6022
  O  O723  1  0.351500  0.844430  0.651810  1.0  -0.6625
  O  O724  1  0.445360  0.830790  0.591250  1.0  -0.6147
  O  O725  1  0.403450  0.694290  0.499980  1.0  -0.7356
  O  O726  1  0.372020  0.700180  0.643090  1.0  -0.767
  O  O727  1  0.468460  0.646140  0.570410  1.0  -0.6076
  O  O728  1  0.421100  0.678270  0.314750  1.0  -0.6982
  O  O729  1  0.383000  0.598850  0.258430  1.0  -0.5827
  O  O730  1  0.256940  0.764140  0.052830  1.0  -0.5771
  O  O731  1  0.327710  0.685470  0.079430  1.0  -0.5923
  O  O732  1  0.459390  0.738260  0.736730  1.0  -0.6043
  O  O733  1  0.536260  0.817330  0.748210  1.0  -0.6049
  O  O734  1  0.427800  0.669360  0.169620  1.0  -0.8001
  O  O735  1  0.577040  0.192050  0.821010  1.0  -0.6897
  O  O736  1  0.490950  0.147160  0.768080  1.0  -0.6316
  O  O737  1  0.633750  0.183230  0.972120  1.0  -0.6862
  O  O738  1  0.723720  0.139270  0.021930  1.0  -0.6228
  O  O739  1  0.561120  0.187040  0.642960  1.0  -0.6223
  O  O740  1  0.658990  0.198490  0.699200  1.0  -0.6026
  O  O741  1  0.648500  0.155570  0.151810  1.0  -0.6621
  O  O742  1  0.554640  0.169210  0.091250  1.0  -0.6141
  O  O743  1  0.596550  0.305710  0.999980  1.0  -0.7366
  O  O744  1  0.627980  0.299820  0.143090  1.0  -0.7628
  O  O745  1  0.531540  0.353860  0.070410  1.0  -0.6083
  O  O746  1  0.578900  0.321730  0.814750  1.0  -0.6965
  O  O747  1  0.617000  0.401150  0.758430  1.0  -0.5831
  O  O748  1  0.743060  0.235860  0.552830  1.0  -0.5765
  O  O749  1  0.672290  0.314530  0.579430  1.0  -0.5904
  O  O750  1  0.540610  0.261740  0.236730  1.0  -0.6025
  O  O751  1  0.463740  0.182670  0.248210  1.0  -0.6045
  O  O752  1  0.572200  0.330640  0.669620  1.0  -0.8044
  O  O753  1  0.077040  0.307950  0.321010  1.0  -0.69
  O  O754  1  0.990950  0.352840  0.268080  1.0  -0.6312
  O  O755  1  0.133750  0.316770  0.472120  1.0  -0.6863
  O  O756  1  0.223720  0.360730  0.521930  1.0  -0.6229
  O  O757  1  0.061120  0.312960  0.142960  1.0  -0.6224
  O  O758  1  0.158990  0.301510  0.199200  1.0  -0.6025
  O  O759  1  0.148500  0.344430  0.651810  1.0  -0.6625
  O  O760  1  0.054640  0.330790  0.591250  1.0  -0.6142
  O  O761  1  0.096550  0.194290  0.499980  1.0  -0.7358
  O  O762  1  0.127980  0.200180  0.643090  1.0  -0.7636
  O  O763  1  0.031540  0.146140  0.570410  1.0  -0.606
  O  O764  1  0.078900  0.178270  0.314750  1.0  -0.6982
  O  O765  1  0.117000  0.098850  0.258430  1.0  -0.5825
  O  O766  1  0.243060  0.264140  0.052830  1.0  -0.5768
  O  O767  1  0.172290  0.185470  0.079430  1.0  -0.5909
  O  O768  1  0.040610  0.238260  0.736730  1.0  -0.6048
  O  O769  1  0.963740  0.317330  0.748210  1.0  -0.6046
  O  O770  1  0.072200  0.169360  0.169620  1.0  -0.8027
  O  O771  1  0.922960  0.692050  0.821010  1.0  -0.6905
  O  O772  1  0.009050  0.647160  0.768080  1.0  -0.632
  O  O773  1  0.866250  0.683230  0.972120  1.0  -0.6862
  O  O774  1  0.776280  0.639270  0.021930  1.0  -0.6224
  O  O775  1  0.938880  0.687040  0.642960  1.0  -0.6221
  O  O776  1  0.841010  0.698490  0.699200  1.0  -0.6025
  O  O777  1  0.851500  0.655570  0.151810  1.0  -0.662
  O  O778  1  0.945360  0.669210  0.091250  1.0  -0.6137
  O  O779  1  0.903450  0.805710  0.999980  1.0  -0.7365
  O  O780  1  0.872020  0.799820  0.143090  1.0  -0.7665
  O  O781  1  0.968460  0.853860  0.070410  1.0  -0.6065
  O  O782  1  0.921100  0.821730  0.814750  1.0  -0.6963
  O  O783  1  0.883000  0.901150  0.758430  1.0  -0.5836
  O  O784  1  0.756940  0.735860  0.552830  1.0  -0.5772
  O  O785  1  0.827710  0.814530  0.579430  1.0  -0.5902
  O  O786  1  0.959390  0.761740  0.236730  1.0  -0.6029
  O  O787  1  0.036260  0.682670  0.248210  1.0  -0.6047
  O  O788  1  0.927800  0.830640  0.669620  1.0  -0.8005
  O  O789  1  0.320900  0.640500  0.879500  1.0  -0.5973
  O  O790  1  0.329100  0.560500  0.814200  1.0  -0.6028
  O  O791  1  0.227300  0.625700  0.814800  1.0  -0.6282
  O  O792  1  0.251600  0.556600  0.890400  1.0  -0.5859
  O  O793  1  0.679100  0.359500  0.379500  1.0  -0.5947
  O  O794  1  0.670900  0.439500  0.314200  1.0  -0.6013
  O  O795  1  0.772700  0.374300  0.314800  1.0  -0.63
  O  O796  1  0.748400  0.443400  0.390400  1.0  -0.5868
  O  O797  1  0.179100  0.140500  0.879500  1.0  -0.5954
  O  O798  1  0.170900  0.060500  0.814200  1.0  -0.6016
  O  O799  1  0.272700  0.125700  0.814800  1.0  -0.6296
  O  O800  1  0.248400  0.056600  0.890400  1.0  -0.5859
  O  O801  1  0.820900  0.859500  0.379500  1.0  -0.5966
  O  O802  1  0.829100  0.939500  0.314200  1.0  -0.6036
  O  O803  1  0.727300  0.874300  0.314800  1.0  -0.6289
  O  O804  1  0.751600  0.943400  0.390400  1.0  -0.5865
