# generated using pymatgen
data_Co3H36C60(N3O4)2
_symmetry_space_group_name_H-M   'P 1'
_cell_length_a   33.32880000
_cell_length_b   33.32880000
_cell_length_c   27.85300000
_cell_angle_alpha   90.00000000
_cell_angle_beta   90.00000000
_cell_angle_gamma   90.02430000
_symmetry_Int_Tables_number   1
_chemical_formula_structural   Co3H36C60(N3O4)2
_chemical_formula_sum   'Co24 H288 C480 N48 O64'
_cell_volume   30939.35777205
_cell_formula_units_Z   8
loop_
 _symmetry_equiv_pos_site_id
 _symmetry_equiv_pos_as_xyz
  1  'x, y, z'
loop_
 _atom_site_type_symbol
 _atom_site_label
 _atom_site_symmetry_multiplicity
 _atom_site_fract_x
 _atom_site_fract_y
 _atom_site_fract_z
 _atom_site_occupancy
 _atom_site_charge
  Co  Co1  1  0.250370  0.242590  0.749990  1.0  0.7844
  Co  Co2  1  0.249670  0.257410  0.249990  1.0  0.7848
  Co  Co3  1  0.000340  0.492530  0.707790  1.0  0.6388
  Co  Co4  1  0.499690  0.007470  0.207790  1.0  0.639
  Co  Co5  1  0.000340  0.492530  0.792210  1.0  0.644
  Co  Co6  1  0.499690  0.007470  0.292210  1.0  0.6444
  Co  Co7  1  0.750360  0.242590  0.749990  1.0  0.7843
  Co  Co8  1  0.749670  0.257410  0.249990  1.0  0.7839
  Co  Co9  1  0.500340  0.492510  0.707790  1.0  0.6386
  Co  Co10  1  0.999690  0.007490  0.207790  1.0  0.6399
  Co  Co11  1  0.500340  0.492510  0.792210  1.0  0.6439
  Co  Co12  1  0.999690  0.007490  0.292210  1.0  0.6453
  Co  Co13  1  0.250360  0.742590  0.749990  1.0  0.7845
  Co  Co14  1  0.249660  0.757410  0.249990  1.0  0.7806
  Co  Co15  1  0.000340  0.992530  0.707790  1.0  0.6673
  Co  Co16  1  0.499690  0.507470  0.207790  1.0  0.639
  Co  Co17  1  0.000340  0.992520  0.792210  1.0  0.6735
  Co  Co18  1  0.499690  0.507470  0.292210  1.0  0.6444
  Co  Co19  1  0.750360  0.742590  0.750000  1.0  0.7857
  Co  Co20  1  0.749660  0.757410  0.249990  1.0  0.7841
  Co  Co21  1  0.500340  0.992510  0.707790  1.0  0.6388
  Co  Co22  1  0.999690  0.507490  0.207790  1.0  0.6399
  Co  Co23  1  0.500340  0.992510  0.792210  1.0  0.644
  Co  Co24  1  0.999690  0.507490  0.292210  1.0  0.6453
  H  H25  1  0.359830  0.351170  0.827240  1.0  0.1153
  H  H26  1  0.411190  0.404090  0.827500  1.0  0.1117
  H  H27  1  0.500410  0.062280  0.544920  1.0  0.1079
  H  H28  1  0.000520  0.055780  0.631710  1.0  0.0984
  H  H29  1  0.140050  0.148980  0.327240  1.0  0.1157
  H  H30  1  0.088650  0.096100  0.327500  1.0  0.1124
  H  H31  1  0.000330  0.437720  0.044920  1.0  0.108
  H  H32  1  0.500070  0.444220  0.131710  1.0  0.0983
  H  H33  1  0.140770  0.134080  0.672760  1.0  0.1076
  H  H34  1  0.089090  0.081460  0.672500  1.0  0.1086
  H  H35  1  0.999880  0.433780  0.967260  1.0  0.0973
  H  H36  1  0.000270  0.413150  0.837140  1.0  0.1225
  H  H37  1  0.027100  0.399980  0.889750  1.0  0.1074
  H  H38  1  0.473050  0.400040  0.889530  1.0  0.1067
  H  H39  1  0.359410  0.365770  0.172760  1.0  0.1118
  H  H40  1  0.411120  0.418360  0.172500  1.0  0.1097
  H  H41  1  0.499550  0.066210  0.467260  1.0  0.0986
  H  H42  1  0.499510  0.086850  0.337140  1.0  0.1226
  H  H43  1  0.472280  0.099820  0.389550  1.0  0.1098
  H  H44  1  0.026340  0.100160  0.389720  1.0  0.1077
  H  H45  1  0.140050  0.148980  0.172760  1.0  0.1144
  H  H46  1  0.088650  0.096100  0.172500  1.0  0.1113
  H  H47  1  0.000330  0.437720  0.455080  1.0  0.1085
  H  H48  1  0.500070  0.444220  0.368290  1.0  0.0984
  H  H49  1  0.359830  0.351170  0.672760  1.0  0.114
  H  H50  1  0.411200  0.404090  0.672500  1.0  0.1109
  H  H51  1  0.500410  0.062280  0.955080  1.0  0.1092
  H  H52  1  0.000520  0.055780  0.868290  1.0  0.0982
  H  H53  1  0.359410  0.365770  0.327240  1.0  0.114
  H  H54  1  0.411120  0.418360  0.327500  1.0  0.1102
  H  H55  1  0.499550  0.066210  0.032740  1.0  0.0978
  H  H56  1  0.499510  0.086850  0.162860  1.0  0.1237
  H  H57  1  0.472280  0.099820  0.110450  1.0  0.1095
  H  H58  1  0.026340  0.100160  0.110280  1.0  0.1075
  H  H59  1  0.140770  0.134080  0.827240  1.0  0.109
  H  H60  1  0.089090  0.081460  0.827500  1.0  0.1098
  H  H61  1  0.999880  0.433780  0.532740  1.0  0.0978
  H  H62  1  0.000270  0.413150  0.662860  1.0  0.124
  H  H63  1  0.027100  0.399980  0.610250  1.0  0.1076
  H  H64  1  0.473050  0.400040  0.610470  1.0  0.1068
  H  H65  1  0.358910  0.133020  0.672760  1.0  0.1099
  H  H66  1  0.411480  0.081320  0.672500  1.0  0.1075
  H  H67  1  0.141940  0.352270  0.672760  1.0  0.1134
  H  H68  1  0.089660  0.404250  0.672500  1.0  0.1104
  H  H69  1  0.141260  0.367130  0.172760  1.0  0.1119
  H  H70  1  0.088730  0.418860  0.172500  1.0  0.1068
  H  H71  1  0.357940  0.147580  0.172760  1.0  0.1135
  H  H72  1  0.410180  0.095570  0.172510  1.0  0.1087
  H  H73  1  0.358910  0.133020  0.827240  1.0  0.1121
  H  H74  1  0.411480  0.081320  0.827500  1.0  0.109
  H  H75  1  0.141940  0.352270  0.827240  1.0  0.1158
  H  H76  1  0.089660  0.404250  0.827490  1.0  0.1113
  H  H77  1  0.141260  0.367130  0.327240  1.0  0.114
  H  H78  1  0.088730  0.418860  0.327500  1.0  0.1084
  H  H79  1  0.357940  0.147580  0.327240  1.0  0.1163
  H  H80  1  0.410180  0.095570  0.327490  1.0  0.11
  H  H81  1  0.402190  0.204070  0.750000  1.0  0.1204
  H  H82  1  0.404320  0.280710  0.750000  1.0  0.1202
  H  H83  1  0.288970  0.394410  0.750000  1.0  0.1203
  H  H84  1  0.212350  0.396550  0.750000  1.0  0.1231
  H  H85  1  0.097890  0.296150  0.250000  1.0  0.1213
  H  H86  1  0.095660  0.219510  0.250000  1.0  0.1189
  H  H87  1  0.210850  0.105640  0.250000  1.0  0.1208
  H  H88  1  0.287460  0.103400  0.250000  1.0  0.1218
  H  H89  1  0.288400  0.088640  0.750000  1.0  0.1226
  H  H90  1  0.211760  0.090770  0.750000  1.0  0.1197
  H  H91  1  0.096400  0.204520  0.750000  1.0  0.1198
  H  H92  1  0.098550  0.281160  0.750000  1.0  0.119
  H  H93  1  0.211850  0.411410  0.250000  1.0  0.1219
  H  H94  1  0.288480  0.409180  0.250000  1.0  0.1214
  H  H95  1  0.403680  0.295270  0.250000  1.0  0.1195
  H  H96  1  0.401420  0.218630  0.250000  1.0  0.1191
  H  H97  1  0.858690  0.352330  0.827240  1.0  0.1159
  H  H98  1  0.910950  0.404350  0.827500  1.0  0.1098
  H  H99  1  0.000410  0.062300  0.544920  1.0  0.1078
  H  H100  1  0.500520  0.055760  0.631710  1.0  0.0986
  H  H101  1  0.641190  0.147830  0.327240  1.0  0.1156
  H  H102  1  0.588890  0.095830  0.327500  1.0  0.1105
  H  H103  1  0.500320  0.437700  0.044930  1.0  0.1077
  H  H104  1  0.000070  0.444240  0.131710  1.0  0.0984
  H  H105  1  0.641910  0.132930  0.672760  1.0  0.1099
  H  H106  1  0.589340  0.081200  0.672500  1.0  0.1074
  H  H107  1  0.499880  0.433770  0.967260  1.0  0.0973
  H  H108  1  0.500260  0.413120  0.837150  1.0  0.1224
  H  H109  1  0.527100  0.399960  0.889760  1.0  0.1079
  H  H110  1  0.973050  0.400060  0.889510  1.0  0.1065
  H  H111  1  0.858270  0.366920  0.172760  1.0  0.1103
  H  H112  1  0.910860  0.418630  0.172500  1.0  0.1076
  H  H113  1  0.999560  0.066230  0.467270  1.0  0.0988
  H  H114  1  0.999520  0.086880  0.337150  1.0  0.1225
  H  H115  1  0.972290  0.099840  0.389570  1.0  0.1079
  H  H116  1  0.526330  0.100140  0.389710  1.0  0.1064
  H  H117  1  0.641190  0.147830  0.172760  1.0  0.1141
  H  H118  1  0.588890  0.095830  0.172500  1.0  0.109
  H  H119  1  0.500320  0.437700  0.455070  1.0  0.1085
  H  H120  1  0.000070  0.444240  0.368290  1.0  0.0984
  H  H121  1  0.858690  0.352330  0.672760  1.0  0.1144
  H  H122  1  0.910950  0.404350  0.672500  1.0  0.1087
  H  H123  1  0.000410  0.062300  0.955080  1.0  0.1093
  H  H124  1  0.500520  0.055760  0.868290  1.0  0.0983
  H  H125  1  0.858270  0.366920  0.327240  1.0  0.1124
  H  H126  1  0.910860  0.418630  0.327500  1.0  0.1089
  H  H127  1  0.999560  0.066230  0.032730  1.0  0.0979
  H  H128  1  0.999520  0.086880  0.162850  1.0  0.1232
  H  H129  1  0.972290  0.099840  0.110430  1.0  0.1076
  H  H130  1  0.526330  0.100140  0.110290  1.0  0.1063
  H  H131  1  0.641910  0.132930  0.827240  1.0  0.1114
  H  H132  1  0.589350  0.081200  0.827500  1.0  0.1091
  H  H133  1  0.499880  0.433770  0.532730  1.0  0.0978
  H  H134  1  0.500260  0.413120  0.662850  1.0  0.1235
  H  H135  1  0.527100  0.399960  0.610240  1.0  0.108
  H  H136  1  0.973050  0.400060  0.610490  1.0  0.1071
  H  H137  1  0.860060  0.134170  0.672760  1.0  0.112
  H  H138  1  0.911740  0.081590  0.672500  1.0  0.1085
  H  H139  1  0.640790  0.351120  0.672760  1.0  0.1136
  H  H140  1  0.589400  0.403970  0.672510  1.0  0.1114
  H  H141  1  0.640120  0.365980  0.172760  1.0  0.1114
  H  H142  1  0.588460  0.418580  0.172500  1.0  0.1082
  H  H143  1  0.859090  0.148730  0.172760  1.0  0.1146
  H  H144  1  0.910440  0.095840  0.172510  1.0  0.1109
  H  H145  1  0.860060  0.134170  0.827240  1.0  0.1144
  H  H146  1  0.911740  0.081590  0.827500  1.0  0.1095
  H  H147  1  0.640790  0.351120  0.827240  1.0  0.1153
  H  H148  1  0.589400  0.403970  0.827490  1.0  0.1122
  H  H149  1  0.640120  0.365980  0.327240  1.0  0.1134
  H  H150  1  0.588460  0.418580  0.327500  1.0  0.1091
  H  H151  1  0.859090  0.148730  0.327240  1.0  0.1168
  H  H152  1  0.910440  0.095840  0.327490  1.0  0.112
  H  H153  1  0.904350  0.204700  0.750000  1.0  0.1195
  H  H154  1  0.902150  0.281340  0.750000  1.0  0.1188
  H  H155  1  0.788320  0.396580  0.750000  1.0  0.1063
  H  H156  1  0.711700  0.394390  0.750000  1.0  0.1202
  H  H157  1  0.595730  0.295510  0.250000  1.0  0.1201
  H  H158  1  0.597830  0.218870  0.250000  1.0  0.1186
  H  H159  1  0.711490  0.103470  0.250000  1.0  0.1237
  H  H160  1  0.788110  0.105560  0.250000  1.0  0.1189
  H  H161  1  0.789030  0.090810  0.750000  1.0  0.1199
  H  H162  1  0.712390  0.088610  0.750000  1.0  0.1182
  H  H163  1  0.598560  0.203890  0.750000  1.0  0.1214
  H  H164  1  0.596380  0.280530  0.750000  1.0  0.1193
  H  H165  1  0.711220  0.409250  0.250000  1.0  0.1218
  H  H166  1  0.787850  0.411340  0.250000  1.0  0.1224
  H  H167  1  0.901520  0.295900  0.250000  1.0  0.1204
  H  H168  1  0.903590  0.219260  0.250000  1.0  0.1208
  H  H169  1  0.358690  0.852320  0.827240  1.0  0.1156
  H  H170  1  0.410950  0.904350  0.827500  1.0  0.1112
  H  H171  1  0.500380  0.562280  0.544920  1.0  0.1079
  H  H172  1  0.000490  0.555780  0.631710  1.0  0.0984
  H  H173  1  0.140040  0.648980  0.327240  1.0  0.1156
  H  H174  1  0.088640  0.596100  0.327500  1.0  0.1122
  H  H175  1  0.000290  0.937720  0.044930  1.0  0.107
  H  H176  1  0.500040  0.944220  0.131710  1.0  0.0983
  H  H177  1  0.141910  0.632940  0.672760  1.0  0.108
  H  H178  1  0.089350  0.581210  0.672500  1.0  0.1082
  H  H179  1  0.999840  0.933780  0.967260  1.0  0.0973
  H  H180  1  0.000250  0.913140  0.837150  1.0  0.1217
  H  H181  1  0.027030  0.899950  0.889780  1.0  0.107
  H  H182  1  0.472980  0.900060  0.889490  1.0  0.1074
  H  H183  1  0.359410  0.865770  0.172760  1.0  0.1127
  H  H184  1  0.411120  0.918360  0.172500  1.0  0.1097
  H  H185  1  0.499520  0.566220  0.467270  1.0  0.0988
  H  H186  1  0.499500  0.586860  0.337150  1.0  0.1221
  H  H187  1  0.472220  0.599800  0.389530  1.0  0.1096
  H  H188  1  0.026270  0.600180  0.389740  1.0  0.1104
  H  H189  1  0.140040  0.648980  0.172760  1.0  0.1144
  H  H190  1  0.088640  0.596100  0.172500  1.0  0.1112
  H  H191  1  0.000290  0.937720  0.455070  1.0  0.1077
  H  H192  1  0.500040  0.944220  0.368290  1.0  0.0984
  H  H193  1  0.358690  0.852320  0.672760  1.0  0.1141
  H  H194  1  0.410950  0.904350  0.672500  1.0  0.1104
  H  H195  1  0.500380  0.562280  0.955080  1.0  0.1092
  H  H196  1  0.000490  0.555780  0.868290  1.0  0.0984
  H  H197  1  0.359410  0.865770  0.327240  1.0  0.1153
  H  H198  1  0.411120  0.918360  0.327500  1.0  0.1102
  H  H199  1  0.499520  0.566220  0.032730  1.0  0.0979
  H  H200  1  0.499500  0.586860  0.162850  1.0  0.123
  H  H201  1  0.472220  0.599800  0.110470  1.0  0.1093
  H  H202  1  0.026260  0.600180  0.110260  1.0  0.1092
  H  H203  1  0.141910  0.632940  0.827240  1.0  0.1096
  H  H204  1  0.089350  0.581210  0.827500  1.0  0.1093
  H  H205  1  0.999840  0.933780  0.532740  1.0  0.0978
  H  H206  1  0.000250  0.913140  0.662850  1.0  0.1231
  H  H207  1  0.027030  0.899950  0.610220  1.0  0.1071
  H  H208  1  0.472980  0.900060  0.610510  1.0  0.1076
  H  H209  1  0.360060  0.634170  0.672760  1.0  0.1093
  H  H210  1  0.411740  0.581580  0.672500  1.0  0.1096
  H  H211  1  0.140790  0.851120  0.672760  1.0  0.113
  H  H212  1  0.089400  0.903980  0.672510  1.0  0.1111
  H  H213  1  0.141260  0.867130  0.172760  1.0  0.1126
  H  H214  1  0.088730  0.918860  0.172500  1.0  0.1068
  H  H215  1  0.357930  0.647570  0.172760  1.0  0.1139
  H  H216  1  0.410180  0.595570  0.172510  1.0  0.1088
  H  H217  1  0.360060  0.634160  0.827240  1.0  0.1118
  H  H218  1  0.411740  0.581580  0.827500  1.0  0.1103
  H  H219  1  0.140790  0.851120  0.827240  1.0  0.1153
  H  H220  1  0.089400  0.903980  0.827490  1.0  0.1119
  H  H221  1  0.141260  0.867130  0.327240  1.0  0.1149
  H  H222  1  0.088730  0.918860  0.327500  1.0  0.1084
  H  H223  1  0.357930  0.647580  0.327240  1.0  0.1161
  H  H224  1  0.410180  0.595570  0.327490  1.0  0.1098
  H  H225  1  0.404350  0.704700  0.750000  1.0  0.1214
  H  H226  1  0.402150  0.781340  0.750000  1.0  0.1181
  H  H227  1  0.288330  0.896580  0.750000  1.0  0.1238
  H  H228  1  0.211710  0.894390  0.750000  1.0  0.1194
  H  H229  1  0.097890  0.796150  0.250000  1.0  0.1211
  H  H230  1  0.095660  0.719510  0.250000  1.0  0.121
  H  H231  1  0.210840  0.605640  0.250000  1.0  0.1208
  H  H232  1  0.287460  0.603390  0.250000  1.0  0.1216
  H  H233  1  0.289020  0.590810  0.750000  1.0  0.1198
  H  H234  1  0.212390  0.588610  0.750000  1.0  0.1205
  H  H235  1  0.098560  0.703890  0.750000  1.0  0.1208
  H  H236  1  0.096380  0.780530  0.750000  1.0  0.1222
  H  H237  1  0.211850  0.911410  0.250000  1.0  0.1218
  H  H238  1  0.288480  0.909180  0.250000  1.0  0.1214
  H  H239  1  0.403680  0.795260  0.250000  1.0  0.1198
  H  H240  1  0.401420  0.718630  0.250000  1.0  0.1179
  H  H241  1  0.858680  0.852320  0.827240  1.0  0.1166
  H  H242  1  0.910940  0.904350  0.827500  1.0  0.1097
  H  H243  1  0.000380  0.562300  0.544920  1.0  0.1074
  H  H244  1  0.500490  0.555760  0.631710  1.0  0.0984
  H  H245  1  0.640040  0.648970  0.327240  1.0  0.1156
  H  H246  1  0.588640  0.596090  0.327500  1.0  0.1113
  H  H247  1  0.500290  0.937700  0.044920  1.0  0.108
  H  H248  1  0.000040  0.944240  0.131710  1.0  0.0982
  H  H249  1  0.641910  0.632930  0.672760  1.0  0.1124
  H  H250  1  0.589350  0.581190  0.672500  1.0  0.1075
  H  H251  1  0.499840  0.933770  0.967260  1.0  0.0973
  H  H252  1  0.500250  0.913130  0.837140  1.0  0.1218
  H  H253  1  0.527030  0.899940  0.889780  1.0  0.107
  H  H254  1  0.972980  0.900080  0.889490  1.0  0.1071
  H  H255  1  0.859410  0.865780  0.172760  1.0  0.1118
  H  H256  1  0.911120  0.918370  0.172500  1.0  0.1093
  H  H257  1  0.999520  0.566230  0.467260  1.0  0.0987
  H  H258  1  0.999500  0.586870  0.337140  1.0  0.1222
  H  H259  1  0.972220  0.599810  0.389530  1.0  0.1096
  H  H260  1  0.526270  0.600170  0.389740  1.0  0.1118
  H  H261  1  0.640040  0.648970  0.172760  1.0  0.1145
  H  H262  1  0.588640  0.596090  0.172500  1.0  0.1103
  H  H263  1  0.500290  0.937700  0.455080  1.0  0.1088
  H  H264  1  0.000040  0.944240  0.368290  1.0  0.0984
  H  H265  1  0.858680  0.852320  0.672760  1.0  0.1137
  H  H266  1  0.910940  0.904350  0.672500  1.0  0.1086
  H  H267  1  0.000380  0.562300  0.955080  1.0  0.1094
  H  H268  1  0.500490  0.555760  0.868290  1.0  0.0984
  H  H269  1  0.859410  0.865780  0.327240  1.0  0.1121
  H  H270  1  0.911120  0.918370  0.327500  1.0  0.11
  H  H271  1  0.999520  0.566230  0.032740  1.0  0.0979
  H  H272  1  0.999500  0.586870  0.162860  1.0  0.123
  H  H273  1  0.972220  0.599810  0.110470  1.0  0.1092
  H  H274  1  0.526270  0.600170  0.110250  1.0  0.1097
  H  H275  1  0.641910  0.632930  0.827240  1.0  0.1144
  H  H276  1  0.589350  0.581190  0.827500  1.0  0.1092
  H  H277  1  0.499840  0.933770  0.532740  1.0  0.0978
  H  H278  1  0.500250  0.913130  0.662860  1.0  0.1232
  H  H279  1  0.527030  0.899940  0.610220  1.0  0.1072
  H  H280  1  0.972980  0.900080  0.610510  1.0  0.1069
  H  H281  1  0.860060  0.634170  0.672760  1.0  0.1119
  H  H282  1  0.911740  0.581590  0.672500  1.0  0.1084
  H  H283  1  0.640790  0.851110  0.672760  1.0  0.1136
  H  H284  1  0.589400  0.903970  0.672510  1.0  0.1114
  H  H285  1  0.641270  0.867120  0.172760  1.0  0.109
  H  H286  1  0.588730  0.918840  0.172500  1.0  0.1075
  H  H287  1  0.857940  0.647580  0.172760  1.0  0.1136
  H  H288  1  0.910180  0.595580  0.172510  1.0  0.1098
  H  H289  1  0.860060  0.634170  0.827240  1.0  0.1138
  H  H290  1  0.911740  0.581590  0.827500  1.0  0.1095
  H  H291  1  0.640790  0.851110  0.827240  1.0  0.1153
  H  H292  1  0.589400  0.903970  0.827490  1.0  0.112
  H  H293  1  0.641270  0.867120  0.327240  1.0  0.1112
  H  H294  1  0.588730  0.918850  0.327500  1.0  0.1087
  H  H295  1  0.857940  0.647580  0.327240  1.0  0.1163
  H  H296  1  0.910180  0.595580  0.327490  1.0  0.1112
  H  H297  1  0.904350  0.704710  0.750000  1.0  0.1207
  H  H298  1  0.902150  0.781340  0.750000  1.0  0.1185
  H  H299  1  0.788320  0.896580  0.750000  1.0  0.1166
  H  H300  1  0.711700  0.894380  0.750000  1.0  0.12
  H  H301  1  0.597890  0.796140  0.250000  1.0  0.121
  H  H302  1  0.595660  0.719500  0.250000  1.0  0.1212
  H  H303  1  0.710850  0.605640  0.250000  1.0  0.1221
  H  H304  1  0.787470  0.603400  0.250000  1.0  0.1227
  H  H305  1  0.789020  0.590810  0.750000  1.0  0.1195
  H  H306  1  0.712390  0.588610  0.750000  1.0  0.1182
  H  H307  1  0.598560  0.703890  0.750000  1.0  0.121
  H  H308  1  0.596380  0.780520  0.750000  1.0  0.1221
  H  H309  1  0.711840  0.911410  0.250000  1.0  0.1247
  H  H310  1  0.788470  0.909180  0.250000  1.0  0.1203
  H  H311  1  0.903680  0.795270  0.250000  1.0  0.1202
  H  H312  1  0.901420  0.718630  0.250000  1.0  0.1179
  C  C313  1  0.370910  0.362620  0.793350  1.0  -0.1194
  C  C314  1  0.400330  0.392930  0.793380  1.0  -0.102
  C  C315  1  0.000300  0.032280  0.559380  1.0  -0.1173
  C  C316  1  0.000380  0.028550  0.610590  1.0  0.1322
  C  C317  1  0.128960  0.137550  0.293350  1.0  -0.1174
  C  C318  1  0.099520  0.107250  0.293380  1.0  -0.1031
  C  C319  1  0.500090  0.467720  0.059380  1.0  -0.1135
  C  C320  1  0.499960  0.471450  0.110590  1.0  0.1317
  C  C321  1  0.129640  0.122680  0.706650  1.0  -0.1134
  C  C322  1  0.100030  0.092540  0.706620  1.0  -0.0838
  C  C323  1  0.000160  0.458270  0.895420  1.0  0.1517
  C  C324  1  0.000040  0.461360  0.946930  1.0  -0.0752
  C  C325  1  0.000140  0.415990  0.876250  1.0  -0.2765
  C  C326  1  0.370550  0.377160  0.206650  1.0  -0.1153
  C  C327  1  0.400170  0.407280  0.206620  1.0  -0.0865
  C  C328  1  0.499620  0.041730  0.395420  1.0  0.1491
  C  C329  1  0.499700  0.038640  0.446930  1.0  -0.0774
  C  C330  1  0.499420  0.084010  0.376250  1.0  -0.2782
  C  C331  1  0.128960  0.137550  0.206650  1.0  -0.1134
  C  C332  1  0.099520  0.107250  0.206610  1.0  -0.106
  C  C333  1  0.500090  0.467720  0.440610  1.0  -0.1155
  C  C334  1  0.499960  0.471450  0.389410  1.0  0.132
  C  C335  1  0.370910  0.362620  0.706650  1.0  -0.1186
  C  C336  1  0.400330  0.392930  0.706620  1.0  -0.1025
  C  C337  1  0.000300  0.032280  0.940620  1.0  -0.1185
  C  C338  1  0.000380  0.028550  0.889410  1.0  0.1325
  C  C339  1  0.370550  0.377160  0.293350  1.0  -0.1156
  C  C340  1  0.400170  0.407280  0.293380  1.0  -0.0869
  C  C341  1  0.499620  0.041730  0.104580  1.0  0.1485
  C  C342  1  0.499700  0.038640  0.053070  1.0  -0.0771
  C  C343  1  0.499420  0.084010  0.123750  1.0  -0.2781
  C  C344  1  0.129640  0.122680  0.793350  1.0  -0.1136
  C  C345  1  0.100030  0.092540  0.793380  1.0  -0.0834
  C  C346  1  0.000160  0.458270  0.604580  1.0  0.1507
  C  C347  1  0.000040  0.461360  0.553070  1.0  -0.0755
  C  C348  1  0.000140  0.415990  0.623750  1.0  -0.2768
  C  C349  1  0.322350  0.168340  0.750000  1.0  0.0254
  C  C350  1  0.354830  0.136960  0.750000  1.0  0.0195
  C  C351  1  0.415900  0.076860  0.750000  1.0  -0.0817
  C  C352  1  0.447840  0.045010  0.750000  1.0  0.6642
  C  C353  1  0.178390  0.316860  0.750000  1.0  0.0253
  C  C354  1  0.145960  0.348270  0.750000  1.0  0.0259
  C  C355  1  0.085250  0.408710  0.750000  1.0  -0.0902
  C  C356  1  0.053340  0.440560  0.750000  1.0  0.6522
  C  C357  1  0.177780  0.331760  0.250000  1.0  0.0255
  C  C358  1  0.145340  0.363190  0.250000  1.0  0.019
  C  C359  1  0.084310  0.423320  0.250000  1.0  -0.08
  C  C360  1  0.052340  0.455140  0.250000  1.0  0.6591
  C  C361  1  0.321530  0.183040  0.250000  1.0  0.0256
  C  C362  1  0.353920  0.151580  0.250000  1.0  0.0188
  C  C363  1  0.414600  0.091110  0.250000  1.0  -0.0872
  C  C364  1  0.446540  0.059290  0.250000  1.0  0.655
  C  C365  1  0.370290  0.121880  0.706650  1.0  -0.1152
  C  C366  1  0.400390  0.092240  0.706620  1.0  -0.0865
  C  C367  1  0.130600  0.363450  0.706650  1.0  -0.116
  C  C368  1  0.100670  0.393250  0.706620  1.0  -0.1059
  C  C369  1  0.000090  0.498460  0.528280  1.0  -0.015
  C  C370  1  0.129900  0.378280  0.206650  1.0  -0.1131
  C  C371  1  0.099820  0.407930  0.206620  1.0  -0.0832
  C  C372  1  0.369260  0.136390  0.206650  1.0  -0.118
  C  C373  1  0.399180  0.106570  0.206620  1.0  -0.1071
  C  C374  1  0.499950  0.001540  0.028280  1.0  -0.0146
  C  C375  1  0.370290  0.121880  0.793350  1.0  -0.1162
  C  C376  1  0.400390  0.092240  0.793380  1.0  -0.0849
  C  C377  1  0.130600  0.363450  0.793350  1.0  -0.1167
  C  C378  1  0.100670  0.393250  0.793380  1.0  -0.1028
  C  C379  1  0.000090  0.498460  0.971710  1.0  -0.0139
  C  C380  1  0.129900  0.378280  0.293350  1.0  -0.1138
  C  C381  1  0.099820  0.407930  0.293380  1.0  -0.0825
  C  C382  1  0.369260  0.136390  0.293350  1.0  -0.1196
  C  C383  1  0.399180  0.106570  0.293380  1.0  -0.1044
  C  C384  1  0.499950  0.001540  0.471710  1.0  -0.013
  C  C385  1  0.333830  0.211040  0.750000  1.0  0.1276
  C  C386  1  0.376090  0.223370  0.750000  1.0  0.0309
  C  C387  1  0.377310  0.262650  0.750000  1.0  0.0171
  C  C388  1  0.335720  0.276070  0.750000  1.0  0.0948
  C  C389  1  0.324610  0.314570  0.750000  1.0  0.0263
  C  C390  1  0.281930  0.326040  0.750000  1.0  0.133
  C  C391  1  0.269650  0.368310  0.750000  1.0  0.0248
  C  C392  1  0.230380  0.369540  0.750000  1.0  0.0148
  C  C393  1  0.216910  0.327950  0.750000  1.0  0.093
  C  C394  1  0.355940  0.347080  0.750000  1.0  0.0198
  C  C395  1  0.415570  0.408570  0.750000  1.0  -0.0901
  C  C396  1  0.447300  0.440590  0.750000  1.0  0.6545
  C  C397  1  0.166250  0.289080  0.250000  1.0  0.1257
  C  C398  1  0.123970  0.276810  0.250000  1.0  0.0316
  C  C399  1  0.122690  0.237530  0.250000  1.0  0.0155
  C  C400  1  0.164260  0.224050  0.250000  1.0  0.0954
  C  C401  1  0.175320  0.185530  0.250000  1.0  0.0264
  C  C402  1  0.217990  0.174000  0.250000  1.0  0.1325
  C  C403  1  0.230210  0.131720  0.250000  1.0  0.0253
  C  C404  1  0.269480  0.130430  0.250000  1.0  0.0191
  C  C405  1  0.283000  0.172000  0.250000  1.0  0.094
  C  C406  1  0.143950  0.153070  0.250000  1.0  0.02
  C  C407  1  0.084280  0.091620  0.250000  1.0  -0.0905
  C  C408  1  0.052580  0.059560  0.250000  1.0  0.657
  C  C409  1  0.283830  0.157240  0.750000  1.0  0.0963
  C  C410  1  0.270370  0.115650  0.750000  1.0  0.0199
  C  C411  1  0.231090  0.116870  0.750000  1.0  0.0253
  C  C412  1  0.218790  0.159140  0.750000  1.0  0.1231
  C  C413  1  0.176100  0.170610  0.750000  1.0  0.0255
  C  C414  1  0.165000  0.209120  0.750000  1.0  0.0963
  C  C415  1  0.123420  0.222570  0.750000  1.0  0.0174
  C  C416  1  0.124650  0.261850  0.750000  1.0  0.0332
  C  C417  1  0.166910  0.274160  0.750000  1.0  0.1252
  C  C418  1  0.144720  0.138130  0.750000  1.0  0.02
  C  C419  1  0.084690  0.076980  0.750000  1.0  -0.0789
  C  C420  1  0.052910  0.044970  0.750000  1.0  0.6633
  C  C421  1  0.216320  0.342810  0.250000  1.0  0.0955
  C  C422  1  0.229840  0.384380  0.250000  1.0  0.0158
  C  C423  1  0.269120  0.383100  0.250000  1.0  0.0267
  C  C424  1  0.281350  0.340820  0.250000  1.0  0.1281
  C  C425  1  0.324030  0.329280  0.250000  1.0  0.0267
  C  C426  1  0.335070  0.290760  0.250000  1.0  0.0954
  C  C427  1  0.376640  0.277260  0.250000  1.0  0.0176
  C  C428  1  0.375360  0.237980  0.250000  1.0  0.0324
  C  C429  1  0.333070  0.225730  0.250000  1.0  0.1242
  C  C430  1  0.355450  0.361720  0.250000  1.0  0.0197
  C  C431  1  0.415520  0.422840  0.250000  1.0  -0.0762
  C  C432  1  0.447270  0.454880  0.250000  1.0  0.6661
  C  C433  1  0.870020  0.363520  0.793350  1.0  -0.1189
  C  C434  1  0.899940  0.393340  0.793380  1.0  -0.1075
  C  C435  1  0.500300  0.032260  0.559380  1.0  -0.1166
  C  C436  1  0.500380  0.028530  0.610590  1.0  0.1327
  C  C437  1  0.629850  0.136640  0.293350  1.0  -0.1165
  C  C438  1  0.599910  0.106840  0.293390  1.0  -0.1104
  C  C439  1  0.000090  0.467740  0.059380  1.0  -0.1143
  C  C440  1  0.999960  0.471470  0.110590  1.0  0.132
  C  C441  1  0.630530  0.121780  0.706650  1.0  -0.1131
  C  C442  1  0.600430  0.092130  0.706620  1.0  -0.0831
  C  C443  1  0.500160  0.458250  0.895420  1.0  0.1512
  C  C444  1  0.500040  0.461350  0.946930  1.0  -0.076
  C  C445  1  0.500140  0.415970  0.876260  1.0  -0.2762
  C  C446  1  0.869650  0.378060  0.206650  1.0  -0.1158
  C  C447  1  0.899770  0.407700  0.206620  1.0  -0.0869
  C  C448  1  0.999630  0.041750  0.395420  1.0  0.1496
  C  C449  1  0.999700  0.038650  0.446930  1.0  -0.0761
  C  C450  1  0.999430  0.084030  0.376260  1.0  -0.2791
  C  C451  1  0.629850  0.136640  0.206650  1.0  -0.116
  C  C452  1  0.599910  0.106840  0.206610  1.0  -0.1118
  C  C453  1  0.000090  0.467740  0.440620  1.0  -0.1145
  C  C454  1  0.999960  0.471470  0.389410  1.0  0.1316
  C  C455  1  0.870020  0.363520  0.706650  1.0  -0.118
  C  C456  1  0.899940  0.393340  0.706620  1.0  -0.1088
  C  C457  1  0.500300  0.032260  0.940620  1.0  -0.1178
  C  C458  1  0.500380  0.028530  0.889410  1.0  0.1329
  C  C459  1  0.869650  0.378060  0.293350  1.0  -0.1162
  C  C460  1  0.899770  0.407700  0.293380  1.0  -0.0871
  C  C461  1  0.999630  0.041750  0.104580  1.0  0.1495
  C  C462  1  0.999700  0.038650  0.053070  1.0  -0.0758
  C  C463  1  0.999430  0.084030  0.123740  1.0  -0.2793
  C  C464  1  0.630530  0.121780  0.793350  1.0  -0.1133
  C  C465  1  0.600430  0.092130  0.793380  1.0  -0.0831
  C  C466  1  0.500160  0.458250  0.604580  1.0  0.1511
  C  C467  1  0.500040  0.461350  0.553070  1.0  -0.0763
  C  C468  1  0.500140  0.415970  0.623740  1.0  -0.2765
  C  C469  1  0.824680  0.170680  0.750000  1.0  0.0253
  C  C470  1  0.856090  0.138230  0.750000  1.0  0.0193
  C  C471  1  0.916140  0.077110  0.750000  1.0  -0.0755
  C  C472  1  0.947890  0.045070  0.750000  1.0  0.6664
  C  C473  1  0.676060  0.314520  0.750000  1.0  0.0261
  C  C474  1  0.644700  0.347010  0.750000  1.0  0.0196
  C  C475  1  0.585010  0.408460  0.750000  1.0  -0.09
  C  C476  1  0.553290  0.440490  0.750000  1.0  0.6561
  C  C477  1  0.675450  0.329430  0.250000  1.0  0.0252
  C  C478  1  0.644080  0.361920  0.250000  1.0  0.02
  C  C479  1  0.584070  0.423070  0.250000  1.0  -0.079
  C  C480  1  0.552290  0.455080  0.250000  1.0  0.6629
  C  C481  1  0.823870  0.185370  0.250000  1.0  0.0255
  C  C482  1  0.855190  0.152850  0.250000  1.0  0.0191
  C  C483  1  0.914840  0.091360  0.250000  1.0  -0.0906
  C  C484  1  0.946600  0.059360  0.250000  1.0  0.6547
  C  C485  1  0.871180  0.122790  0.706650  1.0  -0.1093
  C  C486  1  0.900800  0.092660  0.706620  1.0  -0.0848
  C  C487  1  0.629700  0.362540  0.706650  1.0  -0.1165
  C  C488  1  0.600270  0.392830  0.706620  1.0  -0.1062
  C  C489  1  0.500090  0.498450  0.528280  1.0  -0.0153
  C  C490  1  0.629000  0.377370  0.206650  1.0  -0.1134
  C  C491  1  0.599410  0.407510  0.206620  1.0  -0.084
  C  C492  1  0.870170  0.137300  0.206650  1.0  -0.1176
  C  C493  1  0.899580  0.106990  0.206620  1.0  -0.1032
  C  C494  1  0.999960  0.001550  0.028280  1.0  -0.0142
  C  C495  1  0.871180  0.122780  0.793350  1.0  -0.1093
  C  C496  1  0.900800  0.092660  0.793380  1.0  -0.083
  C  C497  1  0.629700  0.362540  0.793350  1.0  -0.1168
  C  C498  1  0.600270  0.392830  0.793380  1.0  -0.1044
  C  C499  1  0.500090  0.498450  0.971720  1.0  -0.0131
  C  C500  1  0.629000  0.377370  0.293350  1.0  -0.114
  C  C501  1  0.599410  0.407510  0.293380  1.0  -0.0833
  C  C502  1  0.870170  0.137300  0.293350  1.0  -0.1191
  C  C503  1  0.899580  0.106990  0.293380  1.0  -0.1015
  C  C504  1  0.999960  0.001550  0.471720  1.0  -0.0126
  C  C505  1  0.835750  0.209210  0.750000  1.0  0.0943
  C  C506  1  0.877330  0.222710  0.750000  1.0  0.0184
  C  C507  1  0.876070  0.261990  0.750000  1.0  0.0303
  C  C508  1  0.833790  0.274230  0.750000  1.0  0.1304
  C  C509  1  0.822270  0.316910  0.750000  1.0  0.0256
  C  C510  1  0.783760  0.327970  0.750000  1.0  0.096
  C  C511  1  0.770300  0.369550  0.750000  1.0  0.0157
  C  C512  1  0.731030  0.368300  0.750000  1.0  0.0291
  C  C513  1  0.718740  0.326020  0.750000  1.0  0.1302
  C  C514  1  0.854680  0.348340  0.750000  1.0  0.0255
  C  C515  1  0.915350  0.408810  0.750000  1.0  -0.0876
  C  C516  1  0.947260  0.440650  0.750000  1.0  0.6553
  C  C517  1  0.664330  0.290910  0.250000  1.0  0.0957
  C  C518  1  0.622730  0.277470  0.250000  1.0  0.0178
  C  C519  1  0.623940  0.238190  0.250000  1.0  0.0295
  C  C520  1  0.666200  0.225880  0.250000  1.0  0.1331
  C  C521  1  0.677650  0.183190  0.250000  1.0  0.0256
  C  C522  1  0.716150  0.172070  0.250000  1.0  0.0967
  C  C523  1  0.729560  0.130480  0.250000  1.0  0.0154
  C  C524  1  0.768830  0.131680  0.250000  1.0  0.0277
  C  C525  1  0.781170  0.173940  0.250000  1.0  0.1319
  C  C526  1  0.645200  0.151800  0.250000  1.0  0.0254
  C  C527  1  0.584500  0.091370  0.250000  1.0  -0.0866
  C  C528  1  0.552620  0.059500  0.250000  1.0  0.6554
  C  C529  1  0.781980  0.159170  0.750000  1.0  0.1272
  C  C530  1  0.769700  0.116890  0.750000  1.0  0.0253
  C  C531  1  0.730420  0.115640  0.750000  1.0  0.0156
  C  C532  1  0.716950  0.157210  0.750000  1.0  0.095
  C  C533  1  0.678430  0.168280  0.750000  1.0  0.0265
  C  C534  1  0.666920  0.210960  0.750000  1.0  0.1284
  C  C535  1  0.624650  0.223230  0.750000  1.0  0.0282
  C  C536  1  0.623400  0.262510  0.750000  1.0  0.0165
  C  C537  1  0.664980  0.276000  0.750000  1.0  0.0954
  C  C538  1  0.645970  0.136870  0.750000  1.0  0.02
  C  C539  1  0.584920  0.076740  0.750000  1.0  -0.0796
  C  C540  1  0.552960  0.044920  0.750000  1.0  0.6608
  C  C541  1  0.718160  0.340880  0.250000  1.0  0.122
  C  C542  1  0.730510  0.383130  0.250000  1.0  0.028
  C  C543  1  0.769790  0.384340  0.250000  1.0  0.0165
  C  C544  1  0.783200  0.342740  0.250000  1.0  0.0944
  C  C545  1  0.821700  0.331620  0.250000  1.0  0.0269
  C  C546  1  0.833150  0.288920  0.250000  1.0  0.1304
  C  C547  1  0.875410  0.276590  0.250000  1.0  0.0286
  C  C548  1  0.876600  0.237310  0.250000  1.0  0.018
  C  C549  1  0.835010  0.223880  0.250000  1.0  0.0943
  C  C550  1  0.854200  0.362980  0.250000  1.0  0.0203
  C  C551  1  0.915290  0.423080  0.250000  1.0  -0.0784
  C  C552  1  0.947220  0.454940  0.250000  1.0  0.6633
  C  C553  1  0.370020  0.863510  0.793350  1.0  -0.1187
  C  C554  1  0.399940  0.893330  0.793390  1.0  -0.1013
  C  C555  1  0.000280  0.532280  0.559380  1.0  -0.1173
  C  C556  1  0.000370  0.528550  0.610590  1.0  0.1363
  C  C557  1  0.128950  0.637550  0.293350  1.0  -0.1174
  C  C558  1  0.099510  0.607250  0.293380  1.0  -0.103
  C  C559  1  0.500080  0.967720  0.059380  1.0  -0.1151
  C  C560  1  0.499950  0.971450  0.110590  1.0  0.1358
  C  C561  1  0.130540  0.621790  0.706650  1.0  -0.1068
  C  C562  1  0.100430  0.592140  0.706620  1.0  -0.0841
  C  C563  1  0.000140  0.958270  0.895420  1.0  0.1514
  C  C564  1  0.000010  0.961360  0.946930  1.0  -0.0752
  C  C565  1  0.000100  0.915980  0.876250  1.0  -0.2764
  C  C566  1  0.370550  0.877160  0.206650  1.0  -0.1153
  C  C567  1  0.400170  0.907280  0.206620  1.0  -0.0845
  C  C568  1  0.499600  0.541730  0.395420  1.0  0.1489
  C  C569  1  0.499680  0.538640  0.446930  1.0  -0.0773
  C  C570  1  0.499380  0.584020  0.376250  1.0  -0.277
  C  C571  1  0.128950  0.637550  0.206650  1.0  -0.1134
  C  C572  1  0.099510  0.607250  0.206610  1.0  -0.106
  C  C573  1  0.500080  0.967720  0.440620  1.0  -0.1153
  C  C574  1  0.499950  0.971450  0.389410  1.0  0.1354
  C  C575  1  0.370020  0.863510  0.706650  1.0  -0.1177
  C  C576  1  0.399940  0.893330  0.706610  1.0  -0.1017
  C  C577  1  0.000280  0.532280  0.940620  1.0  -0.1185
  C  C578  1  0.000370  0.528550  0.889410  1.0  0.1366
  C  C579  1  0.370550  0.877160  0.293350  1.0  -0.1156
  C  C580  1  0.400170  0.907280  0.293380  1.0  -0.0846
  C  C581  1  0.499600  0.541730  0.104580  1.0  0.1482
  C  C582  1  0.499680  0.538640  0.053070  1.0  -0.077
  C  C583  1  0.499380  0.584020  0.123750  1.0  -0.277
  C  C584  1  0.130540  0.621790  0.793350  1.0  -0.1082
  C  C585  1  0.100440  0.592140  0.793380  1.0  -0.0884
  C  C586  1  0.000140  0.958270  0.604580  1.0  0.1506
  C  C587  1  0.000010  0.961360  0.553070  1.0  -0.0756
  C  C588  1  0.000100  0.915980  0.623750  1.0  -0.2769
  C  C589  1  0.324680  0.670670  0.750000  1.0  0.0252
  C  C590  1  0.356090  0.638220  0.750000  1.0  0.0193
  C  C591  1  0.416140  0.577090  0.750000  1.0  -0.0797
  C  C592  1  0.447890  0.545060  0.750000  1.0  0.6638
  C  C593  1  0.176060  0.814530  0.750000  1.0  0.0255
  C  C594  1  0.144690  0.847010  0.750000  1.0  0.0196
  C  C595  1  0.085010  0.908470  0.750000  1.0  -0.0898
  C  C596  1  0.053290  0.940500  0.750000  1.0  0.6542
  C  C597  1  0.177780  0.831760  0.250000  1.0  0.0258
  C  C598  1  0.145340  0.863190  0.250000  1.0  0.0191
  C  C599  1  0.084310  0.923320  0.250000  1.0  -0.0807
  C  C600  1  0.052340  0.955140  0.250000  1.0  0.6646
  C  C601  1  0.321530  0.683040  0.250000  1.0  0.0255
  C  C602  1  0.353920  0.651580  0.250000  1.0  0.019
  C  C603  1  0.414600  0.591110  0.250000  1.0  -0.0863
  C  C604  1  0.446540  0.559290  0.250000  1.0  0.6518
  C  C605  1  0.371190  0.622780  0.706650  1.0  -0.1081
  C  C606  1  0.400800  0.592650  0.706620  1.0  -0.0851
  C  C607  1  0.129700  0.862550  0.706650  1.0  -0.1165
  C  C608  1  0.100260  0.892830  0.706620  1.0  -0.1049
  C  C609  1  0.000090  0.998460  0.528280  1.0  -0.015
  C  C610  1  0.129900  0.878280  0.206650  1.0  -0.1132
  C  C611  1  0.099810  0.907930  0.206620  1.0  -0.0854
  C  C612  1  0.369260  0.636390  0.206650  1.0  -0.1179
  C  C613  1  0.399170  0.606570  0.206620  1.0  -0.1087
  C  C614  1  0.499950  0.501540  0.028280  1.0  -0.0146
  C  C615  1  0.371180  0.622780  0.793350  1.0  -0.1105
  C  C616  1  0.400800  0.592650  0.793380  1.0  -0.0833
  C  C617  1  0.129700  0.862550  0.793350  1.0  -0.1169
  C  C618  1  0.100260  0.892830  0.793380  1.0  -0.1025
  C  C619  1  0.000090  0.998460  0.971710  1.0  -0.0131
  C  C620  1  0.129900  0.878280  0.293350  1.0  -0.1138
  C  C621  1  0.099810  0.907930  0.293380  1.0  -0.0844
  C  C622  1  0.369260  0.636390  0.293350  1.0  -0.1196
  C  C623  1  0.399170  0.606570  0.293380  1.0  -0.1061
  C  C624  1  0.499950  0.501540  0.471710  1.0  -0.0126
  C  C625  1  0.335750  0.709200  0.750000  1.0  0.0943
  C  C626  1  0.377330  0.722710  0.750000  1.0  0.0183
  C  C627  1  0.376070  0.761980  0.750000  1.0  0.0308
  C  C628  1  0.333790  0.774230  0.750000  1.0  0.1297
  C  C629  1  0.322270  0.816910  0.750000  1.0  0.0256
  C  C630  1  0.283760  0.827970  0.750000  1.0  0.096
  C  C631  1  0.270300  0.869550  0.750000  1.0  0.0155
  C  C632  1  0.231030  0.868300  0.750000  1.0  0.0274
  C  C633  1  0.218740  0.826020  0.750000  1.0  0.1306
  C  C634  1  0.354680  0.848340  0.750000  1.0  0.0253
  C  C635  1  0.415350  0.908800  0.750000  1.0  -0.0895
  C  C636  1  0.447260  0.940640  0.750000  1.0  0.6487
  C  C637  1  0.166250  0.789070  0.250000  1.0  0.1307
  C  C638  1  0.123960  0.776810  0.250000  1.0  0.0291
  C  C639  1  0.122690  0.737530  0.250000  1.0  0.0157
  C  C640  1  0.164260  0.724050  0.250000  1.0  0.096
  C  C641  1  0.175320  0.685530  0.250000  1.0  0.0264
  C  C642  1  0.217980  0.674000  0.250000  1.0  0.1325
  C  C643  1  0.230200  0.631720  0.250000  1.0  0.0254
  C  C644  1  0.269470  0.630430  0.250000  1.0  0.0186
  C  C645  1  0.283000  0.672000  0.250000  1.0  0.0937
  C  C646  1  0.143940  0.653070  0.250000  1.0  0.0198
  C  C647  1  0.084270  0.591620  0.250000  1.0  -0.0897
  C  C648  1  0.052580  0.559560  0.250000  1.0  0.654
  C  C649  1  0.281980  0.659170  0.750000  1.0  0.1286
  C  C650  1  0.269700  0.616890  0.750000  1.0  0.0255
  C  C651  1  0.230420  0.615640  0.750000  1.0  0.0155
  C  C652  1  0.216950  0.657210  0.750000  1.0  0.095
  C  C653  1  0.178430  0.668280  0.750000  1.0  0.0262
  C  C654  1  0.166920  0.710970  0.750000  1.0  0.1312
  C  C655  1  0.124650  0.723230  0.750000  1.0  0.0282
  C  C656  1  0.123400  0.762510  0.750000  1.0  0.0164
  C  C657  1  0.164980  0.776000  0.750000  1.0  0.0956
  C  C658  1  0.145980  0.636880  0.750000  1.0  0.0193
  C  C659  1  0.084920  0.576760  0.750000  1.0  -0.0777
  C  C660  1  0.052960  0.544930  0.750000  1.0  0.6667
  C  C661  1  0.216320  0.842810  0.250000  1.0  0.0955
  C  C662  1  0.229840  0.884380  0.250000  1.0  0.0158
  C  C663  1  0.269120  0.883100  0.250000  1.0  0.0267
  C  C664  1  0.281350  0.840820  0.250000  1.0  0.1233
  C  C665  1  0.324030  0.829280  0.250000  1.0  0.0267
  C  C666  1  0.335070  0.790760  0.250000  1.0  0.0954
  C  C667  1  0.376640  0.777250  0.250000  1.0  0.0177
  C  C668  1  0.375350  0.737980  0.250000  1.0  0.0339
  C  C669  1  0.333070  0.725720  0.250000  1.0  0.1235
  C  C670  1  0.355450  0.861720  0.250000  1.0  0.0193
  C  C671  1  0.415520  0.922830  0.250000  1.0  -0.0784
  C  C672  1  0.447270  0.954870  0.250000  1.0  0.6633
  C  C673  1  0.870020  0.863520  0.793350  1.0  -0.1195
  C  C674  1  0.899930  0.893340  0.793380  1.0  -0.1059
  C  C675  1  0.500280  0.532260  0.559380  1.0  -0.1163
  C  C676  1  0.500370  0.528530  0.610590  1.0  0.1341
  C  C677  1  0.628950  0.637540  0.293350  1.0  -0.1174
  C  C678  1  0.599510  0.607240  0.293380  1.0  -0.1083
  C  C679  1  0.000070  0.967740  0.059380  1.0  -0.1137
  C  C680  1  0.999950  0.971470  0.110590  1.0  0.1334
  C  C681  1  0.630530  0.621780  0.706650  1.0  -0.1131
  C  C682  1  0.600430  0.592130  0.706620  1.0  -0.0859
  C  C683  1  0.500140  0.958260  0.895420  1.0  0.1522
  C  C684  1  0.500010  0.961350  0.946930  1.0  -0.0756
  C  C685  1  0.500100  0.915970  0.876250  1.0  -0.2768
  C  C686  1  0.870550  0.877170  0.206650  1.0  -0.1082
  C  C687  1  0.900180  0.907290  0.206620  1.0  -0.0858
  C  C688  1  0.999600  0.541740  0.395420  1.0  0.1503
  C  C689  1  0.999680  0.538650  0.446930  1.0  -0.0769
  C  C690  1  0.999380  0.584030  0.376250  1.0  -0.2782
  C  C691  1  0.628950  0.637540  0.206650  1.0  -0.1171
  C  C692  1  0.599510  0.607240  0.206620  1.0  -0.1094
  C  C693  1  0.000070  0.967740  0.440620  1.0  -0.1139
  C  C694  1  0.999950  0.971470  0.389410  1.0  0.1332
  C  C695  1  0.870020  0.863520  0.706650  1.0  -0.1145
  C  C696  1  0.899930  0.893340  0.706610  1.0  -0.1088
  C  C697  1  0.500280  0.532260  0.940620  1.0  -0.1174
  C  C698  1  0.500370  0.528530  0.889410  1.0  0.1343
  C  C699  1  0.870550  0.877170  0.293350  1.0  -0.1092
  C  C700  1  0.900170  0.907290  0.293380  1.0  -0.0854
  C  C701  1  0.999600  0.541740  0.104580  1.0  0.1496
  C  C702  1  0.999680  0.538650  0.053070  1.0  -0.0766
  C  C703  1  0.999380  0.584030  0.123750  1.0  -0.2774
  C  C704  1  0.630530  0.621780  0.793350  1.0  -0.1133
  C  C705  1  0.600430  0.592130  0.793380  1.0  -0.0872
  C  C706  1  0.500140  0.958260  0.604580  1.0  0.151
  C  C707  1  0.500010  0.961350  0.553070  1.0  -0.076
  C  C708  1  0.500100  0.915970  0.623750  1.0  -0.2771
  C  C709  1  0.824680  0.670670  0.750000  1.0  0.0253
  C  C710  1  0.856090  0.638220  0.750000  1.0  0.0197
  C  C711  1  0.916140  0.577110  0.750000  1.0  -0.0802
  C  C712  1  0.947890  0.545070  0.750000  1.0  0.6639
  C  C713  1  0.676050  0.814520  0.750000  1.0  0.0248
  C  C714  1  0.644690  0.847010  0.750000  1.0  0.0205
  C  C715  1  0.585010  0.908460  0.750000  1.0  -0.0893
  C  C716  1  0.553290  0.940490  0.750000  1.0  0.6511
  C  C717  1  0.677780  0.831760  0.250000  1.0  0.0256
  C  C718  1  0.645340  0.863180  0.250000  1.0  0.0192
  C  C719  1  0.584310  0.923310  0.250000  1.0  -0.077
  C  C720  1  0.552340  0.955120  0.250000  1.0  0.6666
  C  C721  1  0.821530  0.683040  0.250000  1.0  0.0255
  C  C722  1  0.853920  0.651590  0.250000  1.0  0.0187
  C  C723  1  0.914600  0.591120  0.250000  1.0  -0.0912
  C  C724  1  0.946540  0.559300  0.250000  1.0  0.6578
  C  C725  1  0.871180  0.622780  0.706650  1.0  -0.1154
  C  C726  1  0.900800  0.592660  0.706620  1.0  -0.0865
  C  C727  1  0.629700  0.862540  0.706650  1.0  -0.1165
  C  C728  1  0.600260  0.892830  0.706620  1.0  -0.1061
  C  C729  1  0.500090  0.998450  0.528280  1.0  -0.0157
  C  C730  1  0.629900  0.878270  0.206650  1.0  -0.1133
  C  C731  1  0.599810  0.907920  0.206620  1.0  -0.086
  C  C732  1  0.869260  0.636400  0.206650  1.0  -0.1174
  C  C733  1  0.899180  0.606580  0.206620  1.0  -0.1016
  C  C734  1  0.999950  0.501550  0.028280  1.0  -0.0145
  C  C735  1  0.871180  0.622780  0.793350  1.0  -0.1162
  C  C736  1  0.900800  0.592660  0.793380  1.0  -0.0844
  C  C737  1  0.629700  0.862540  0.793350  1.0  -0.1168
  C  C738  1  0.600260  0.892830  0.793380  1.0  -0.1041
  C  C739  1  0.500090  0.998450  0.971720  1.0  -0.0135
  C  C740  1  0.629900  0.878270  0.293350  1.0  -0.1139
  C  C741  1  0.599810  0.907920  0.293380  1.0  -0.0847
  C  C742  1  0.869260  0.636400  0.293350  1.0  -0.119
  C  C743  1  0.899180  0.606580  0.293380  1.0  -0.1001
  C  C744  1  0.999960  0.501550  0.471720  1.0  -0.0119
  C  C745  1  0.835750  0.709200  0.750000  1.0  0.0943
  C  C746  1  0.877320  0.722710  0.750000  1.0  0.0204
  C  C747  1  0.876060  0.761990  0.750000  1.0  0.0307
  C  C748  1  0.833790  0.774230  0.750000  1.0  0.1336
  C  C749  1  0.822270  0.816910  0.750000  1.0  0.0256
  C  C750  1  0.783760  0.827970  0.750000  1.0  0.0959
  C  C751  1  0.770290  0.869550  0.750000  1.0  0.016
  C  C752  1  0.731020  0.868300  0.750000  1.0  0.0263
  C  C753  1  0.718740  0.826020  0.750000  1.0  0.1255
  C  C754  1  0.854680  0.848340  0.750000  1.0  0.0248
  C  C755  1  0.915340  0.908810  0.750000  1.0  -0.0878
  C  C756  1  0.947250  0.940650  0.750000  1.0  0.6521
  C  C757  1  0.666250  0.789070  0.250000  1.0  0.1291
  C  C758  1  0.623970  0.776800  0.250000  1.0  0.0316
  C  C759  1  0.622690  0.737530  0.250000  1.0  0.0152
  C  C760  1  0.664260  0.724040  0.250000  1.0  0.0957
  C  C761  1  0.675320  0.685530  0.250000  1.0  0.0264
  C  C762  1  0.717980  0.674000  0.250000  1.0  0.1356
  C  C763  1  0.730210  0.631720  0.250000  1.0  0.0253
  C  C764  1  0.769480  0.630440  0.250000  1.0  0.0179
  C  C765  1  0.783000  0.672000  0.250000  1.0  0.094
  C  C766  1  0.643940  0.653060  0.250000  1.0  0.0201
  C  C767  1  0.584270  0.591610  0.250000  1.0  -0.0862
  C  C768  1  0.552580  0.559550  0.250000  1.0  0.6565
  C  C769  1  0.781980  0.659170  0.750000  1.0  0.1242
  C  C770  1  0.769700  0.616890  0.750000  1.0  0.0256
  C  C771  1  0.730420  0.615630  0.750000  1.0  0.0146
  C  C772  1  0.716950  0.657210  0.750000  1.0  0.095
  C  C773  1  0.678430  0.668280  0.750000  1.0  0.0266
  C  C774  1  0.666920  0.710960  0.750000  1.0  0.1287
  C  C775  1  0.624650  0.723230  0.750000  1.0  0.0281
  C  C776  1  0.623400  0.762510  0.750000  1.0  0.0168
  C  C777  1  0.664970  0.776000  0.750000  1.0  0.0955
  C  C778  1  0.645970  0.636870  0.750000  1.0  0.0197
  C  C779  1  0.584920  0.576740  0.750000  1.0  -0.0804
  C  C780  1  0.552960  0.544910  0.750000  1.0  0.6648
  C  C781  1  0.716320  0.842810  0.250000  1.0  0.0955
  C  C782  1  0.729840  0.884380  0.250000  1.0  0.0152
  C  C783  1  0.769120  0.883100  0.250000  1.0  0.0255
  C  C784  1  0.781350  0.840820  0.250000  1.0  0.128
  C  C785  1  0.824030  0.829290  0.250000  1.0  0.0255
  C  C786  1  0.835080  0.790760  0.250000  1.0  0.0951
  C  C787  1  0.876640  0.777260  0.250000  1.0  0.0176
  C  C788  1  0.875360  0.737980  0.250000  1.0  0.0322
  C  C789  1  0.833070  0.725730  0.250000  1.0  0.1237
  C  C790  1  0.855460  0.861730  0.250000  1.0  0.0207
  C  C791  1  0.915520  0.922850  0.250000  1.0  -0.0781
  C  C792  1  0.947270  0.954890  0.250000  1.0  0.6627
  N  N793  1  0.000310  0.492150  0.633910  1.0  -0.3939
  N  N794  1  0.499730  0.007850  0.133910  1.0  -0.3942
  N  N795  1  0.000310  0.492150  0.866090  1.0  -0.3942
  N  N796  1  0.499730  0.007850  0.366090  1.0  -0.3942
  N  N797  1  0.309450  0.241870  0.750000  1.0  -0.4421
  N  N798  1  0.251090  0.301670  0.750000  1.0  -0.4397
  N  N799  1  0.190580  0.258210  0.250000  1.0  -0.4424
  N  N800  1  0.248860  0.198330  0.250000  1.0  -0.4415
  N  N801  1  0.249650  0.183500  0.750000  1.0  -0.4397
  N  N802  1  0.191280  0.243320  0.750000  1.0  -0.4424
  N  N803  1  0.250470  0.316490  0.250000  1.0  -0.4395
  N  N804  1  0.308750  0.256600  0.250000  1.0  -0.4419
  N  N805  1  0.500300  0.492130  0.633900  1.0  -0.3934
  N  N806  1  0.999740  0.007870  0.133900  1.0  -0.3932
  N  N807  1  0.500300  0.492130  0.866090  1.0  -0.3942
  N  N808  1  0.999740  0.007870  0.366090  1.0  -0.3937
  N  N809  1  0.809450  0.243360  0.750000  1.0  -0.4424
  N  N810  1  0.749590  0.301680  0.750000  1.0  -0.4394
  N  N811  1  0.690580  0.256720  0.250000  1.0  -0.4425
  N  N812  1  0.750350  0.198320  0.250000  1.0  -0.441
  N  N813  1  0.751130  0.183510  0.750000  1.0  -0.4412
  N  N814  1  0.691270  0.241830  0.750000  1.0  -0.4423
  N  N815  1  0.748990  0.316490  0.250000  1.0  -0.4393
  N  N816  1  0.808760  0.258090  0.250000  1.0  -0.4422
  N  N817  1  0.000300  0.992140  0.633910  1.0  -0.3946
  N  N818  1  0.499730  0.507860  0.133910  1.0  -0.3943
  N  N819  1  0.000300  0.992140  0.866090  1.0  -0.3949
  N  N820  1  0.499730  0.507860  0.366090  1.0  -0.3944
  N  N821  1  0.309450  0.743360  0.750000  1.0  -0.4421
  N  N822  1  0.249590  0.801680  0.750000  1.0  -0.4394
  N  N823  1  0.190570  0.758210  0.250000  1.0  -0.4424
  N  N824  1  0.248860  0.698320  0.250000  1.0  -0.4415
  N  N825  1  0.251130  0.683510  0.750000  1.0  -0.441
  N  N826  1  0.191270  0.741830  0.750000  1.0  -0.4425
  N  N827  1  0.250460  0.816490  0.250000  1.0  -0.4394
  N  N828  1  0.308750  0.756600  0.250000  1.0  -0.4407
  N  N829  1  0.500300  0.992130  0.633910  1.0  -0.3938
  N  N830  1  0.999730  0.507870  0.133910  1.0  -0.3936
  N  N831  1  0.500300  0.992130  0.866090  1.0  -0.3942
  N  N832  1  0.999730  0.507870  0.366090  1.0  -0.3936
  N  N833  1  0.809450  0.743360  0.750000  1.0  -0.4418
  N  N834  1  0.749590  0.801670  0.750000  1.0  -0.4397
  N  N835  1  0.690580  0.758210  0.250000  1.0  -0.4425
  N  N836  1  0.748860  0.698330  0.250000  1.0  -0.4414
  N  N837  1  0.751120  0.683510  0.750000  1.0  -0.441
  N  N838  1  0.691270  0.741830  0.750000  1.0  -0.4423
  N  N839  1  0.750470  0.816490  0.250000  1.0  -0.4395
  N  N840  1  0.808750  0.756600  0.250000  1.0  -0.4423
  O  O841  1  0.460990  0.454250  0.789820  1.0  -0.6349
  O  O842  1  0.038920  0.045870  0.289820  1.0  -0.6145
  O  O843  1  0.039280  0.031280  0.709990  1.0  -0.6376
  O  O844  1  0.460880  0.468590  0.209990  1.0  -0.6288
  O  O845  1  0.038920  0.045870  0.210180  1.0  -0.6146
  O  O846  1  0.460990  0.454250  0.710180  1.0  -0.6357
  O  O847  1  0.460880  0.468590  0.290010  1.0  -0.6285
  O  O848  1  0.039280  0.031280  0.790000  1.0  -0.625
  O  O849  1  0.461490  0.031340  0.710000  1.0  -0.6288
  O  O850  1  0.039630  0.454200  0.710180  1.0  -0.6311
  O  O851  1  0.038660  0.468790  0.210000  1.0  -0.639
  O  O852  1  0.460280  0.045680  0.210180  1.0  -0.6228
  O  O853  1  0.461490  0.031340  0.790000  1.0  -0.6284
  O  O854  1  0.039630  0.454200  0.789820  1.0  -0.6312
  O  O855  1  0.038660  0.468790  0.290000  1.0  -0.6373
  O  O856  1  0.460280  0.045680  0.289820  1.0  -0.6218
  O  O857  1  0.960980  0.454280  0.789820  1.0  -0.6348
  O  O858  1  0.538930  0.045850  0.289820  1.0  -0.6321
  O  O859  1  0.539290  0.031260  0.709990  1.0  -0.6375
  O  O860  1  0.960870  0.468610  0.209990  1.0  -0.6289
  O  O861  1  0.538930  0.045850  0.210180  1.0  -0.6318
  O  O862  1  0.960980  0.454280  0.710180  1.0  -0.6357
  O  O863  1  0.960870  0.468610  0.290010  1.0  -0.629
  O  O864  1  0.539290  0.031260  0.790010  1.0  -0.6364
  O  O865  1  0.961500  0.031360  0.710000  1.0  -0.6265
  O  O866  1  0.539610  0.454170  0.710180  1.0  -0.6181
  O  O867  1  0.538650  0.468760  0.210000  1.0  -0.6385
  O  O868  1  0.960300  0.045710  0.210180  1.0  -0.636
  O  O869  1  0.961500  0.031360  0.790000  1.0  -0.6298
  O  O870  1  0.539610  0.454170  0.789820  1.0  -0.6183
  O  O871  1  0.538650  0.468760  0.290000  1.0  -0.6366
  O  O872  1  0.960300  0.045710  0.289820  1.0  -0.6351
  O  O873  1  0.460980  0.954260  0.789820  1.0  -0.6247
  O  O874  1  0.038920  0.545870  0.289820  1.0  -0.6172
  O  O875  1  0.039290  0.531280  0.709990  1.0  -0.6291
  O  O876  1  0.460880  0.968590  0.209990  1.0  -0.6366
  O  O877  1  0.038920  0.545870  0.210180  1.0  -0.6167
  O  O878  1  0.460980  0.954260  0.710180  1.0  -0.6255
  O  O879  1  0.460880  0.968590  0.290010  1.0  -0.6358
  O  O880  1  0.039290  0.531280  0.790010  1.0  -0.6291
  O  O881  1  0.461500  0.531350  0.710000  1.0  -0.6377
  O  O882  1  0.039610  0.954180  0.710180  1.0  -0.6259
  O  O883  1  0.038660  0.968790  0.210000  1.0  -0.6303
  O  O884  1  0.460280  0.545680  0.210180  1.0  -0.6312
  O  O885  1  0.461500  0.531350  0.790000  1.0  -0.6364
  O  O886  1  0.039610  0.954180  0.789820  1.0  -0.618
  O  O887  1  0.038660  0.968790  0.290000  1.0  -0.6297
  O  O888  1  0.460280  0.545680  0.289820  1.0  -0.63
  O  O889  1  0.960980  0.954270  0.789820  1.0  -0.6141
  O  O890  1  0.538920  0.545860  0.289820  1.0  -0.6358
  O  O891  1  0.539290  0.531260  0.709990  1.0  -0.6297
  O  O892  1  0.960880  0.968610  0.209990  1.0  -0.6369
  O  O893  1  0.538920  0.545860  0.210180  1.0  -0.6358
  O  O894  1  0.960980  0.954270  0.710180  1.0  -0.6255
  O  O895  1  0.960880  0.968610  0.290010  1.0  -0.6363
  O  O896  1  0.539290  0.531260  0.790010  1.0  -0.6297
  O  O897  1  0.961500  0.531360  0.710000  1.0  -0.6378
  O  O898  1  0.539610  0.954170  0.710180  1.0  -0.6251
  O  O899  1  0.538660  0.968770  0.210000  1.0  -0.6303
  O  O900  1  0.960280  0.545690  0.210180  1.0  -0.619
  O  O901  1  0.961500  0.531360  0.790000  1.0  -0.6366
  O  O902  1  0.539610  0.954170  0.789820  1.0  -0.6249
  O  O903  1  0.538660  0.968770  0.290000  1.0  -0.6297
  O  O904  1  0.960280  0.545690  0.289820  1.0  -0.6179
