# generated using pymatgen
data_Ni2H66C81(N7O)3
_symmetry_space_group_name_H-M   'P 1'
_cell_length_a   46.61800000
_cell_length_b   15.15900000
_cell_length_c   27.70400000
_cell_angle_alpha   90.00000000
_cell_angle_beta   107.72100000
_cell_angle_gamma   90.00000000
_symmetry_Int_Tables_number   1
_chemical_formula_structural   Ni2H66C81(N7O)3
_chemical_formula_sum   'Ni16 H528 C648 N168 O24'
_cell_volume   18648.95250051
_cell_formula_units_Z   8
loop_
 _symmetry_equiv_pos_site_id
 _symmetry_equiv_pos_as_xyz
  1  'x, y, z'
loop_
 _atom_site_type_symbol
 _atom_site_label
 _atom_site_symmetry_multiplicity
 _atom_site_fract_x
 _atom_site_fract_y
 _atom_site_fract_z
 _atom_site_occupancy
 _atom_site_charge
  Ni  Ni1  1  0.879200  0.409980  0.446570  1.0  0.7597
  Ni  Ni2  1  0.379200  0.909980  0.446570  1.0  0.7597
  Ni  Ni3  1  0.120800  0.409980  0.053430  1.0  0.7613
  Ni  Ni4  1  0.620800  0.909980  0.053430  1.0  0.7613
  Ni  Ni5  1  0.120800  0.590020  0.553430  1.0  0.763
  Ni  Ni6  1  0.620800  0.090020  0.553430  1.0  0.763
  Ni  Ni7  1  0.879200  0.590020  0.946570  1.0  0.7613
  Ni  Ni8  1  0.379200  0.090020  0.946570  1.0  0.7613
  Ni  Ni9  1  0.000000  0.000000  0.000000  1.0  0.5752
  Ni  Ni10  1  0.500000  0.500000  0.000000  1.0  0.5752
  Ni  Ni11  1  0.000000  0.000000  0.500000  1.0  0.5752
  Ni  Ni12  1  0.500000  0.500000  0.500000  1.0  0.5752
  Ni  Ni13  1  0.250000  0.750000  0.500000  1.0  0.7767
  Ni  Ni14  1  0.750000  0.750000  0.000000  1.0  0.7767
  Ni  Ni15  1  0.750000  0.250000  0.500000  1.0  0.7767
  Ni  Ni16  1  0.250000  0.250000  0.000000  1.0  0.7767
  H  H17  1  0.991700  0.115300  0.060300  1.0  0.3135
  H  H18  1  0.912600  0.536100  0.487400  1.0  0.4281
  H  H19  1  0.207900  0.771500  0.538000  1.0  0.4288
  H  H20  1  0.875100  0.849800  0.582900  1.0  0.0997
  H  H21  1  0.016600  0.787100  0.152000  1.0  0.13
  H  H22  1  0.849300  0.081200  0.498500  1.0  0.1014
  H  H23  1  0.897600  0.748000  0.388200  1.0  0.1
  H  H24  1  0.112000  0.845000  0.016200  1.0  0.1083
  H  H25  1  0.934900  0.337100  0.547700  1.0  0.0981
  H  H26  1  0.929400  0.211800  0.599600  1.0  0.1026
  H  H27  1  0.787400  0.890900  0.817600  1.0  0.1286
  H  H28  1  0.854000  0.241400  0.486900  1.0  0.0971
  H  H29  1  0.961200  0.291000  0.376300  1.0  0.115
  H  H30  1  0.733200  0.035500  0.714300  1.0  0.0781
  H  H31  1  0.932300  0.031600  0.215200  1.0  0.0978
  H  H32  1  0.260100  0.585200  0.986500  1.0  0.1241
  H  H33  1  0.252400  0.792600  0.382800  1.0  0.1006
  H  H34  1  0.832200  0.378900  0.515000  1.0  0.098
  H  H35  1  0.226200  0.803400  0.061100  1.0  0.0984
  H  H36  1  0.873100  0.144700  0.309700  1.0  0.1117
  H  H37  1  0.832800  0.821200  0.698800  1.0  0.1076
  H  H38  1  0.191400  0.663300  0.424800  1.0  0.092
  H  H39  1  0.834200  0.573500  0.280600  1.0  0.1233
  H  H40  1  0.945300  0.409000  0.423000  1.0  0.0954
  H  H41  1  0.255000  0.746400  0.294400  1.0  0.1064
  H  H42  1  0.798500  0.775400  0.608600  1.0  0.09
  H  H43  1  0.031100  0.827500  0.076900  1.0  0.1004
  H  H44  1  0.877200  0.246500  0.375900  1.0  0.0912
  H  H45  1  0.961100  0.026400  0.160600  1.0  0.109
  H  H46  1  0.901200  0.587400  0.408200  1.0  0.0824
  H  H47  1  0.866400  0.601300  0.485400  1.0  0.1005
  H  H48  1  0.227300  0.410700  0.061800  1.0  0.0975
  H  H49  1  0.878400  0.713900  0.547700  1.0  0.1029
  H  H50  1  0.916600  0.872900  0.359800  1.0  0.0848
  H  H51  1  0.894400  0.769900  0.220100  1.0  0.0935
  H  H52  1  0.145500  0.043900  0.111100  1.0  0.1027
  H  H53  1  0.242500  0.688100  0.022300  1.0  0.0872
  H  H54  1  0.963500  0.137100  0.365200  1.0  0.1126
  H  H55  1  0.214500  0.516200  0.105200  1.0  0.1113
  H  H56  1  0.829000  0.456200  0.337800  1.0  0.1017
  H  H57  1  0.876700  0.645000  0.248600  1.0  0.106
  H  H58  1  0.173200  0.671300  0.331200  1.0  0.1278
  H  H59  1  0.963600  0.003900  0.324700  1.0  0.0945
  H  H60  1  0.189700  0.964700  0.145000  1.0  0.0859
  H  H61  1  0.249800  0.772200  0.209300  1.0  0.1054
  H  H62  1  0.802000  0.638500  0.573500  1.0  0.0986
  H  H63  1  0.892100  0.151300  0.642100  1.0  0.092
  H  H64  1  0.268000  0.435100  0.958500  1.0  0.0945
  H  H65  1  0.827200  0.963400  0.527600  1.0  0.1005
  H  H66  1  0.198500  0.630700  0.145500  1.0  0.0713
  H  H67  1  0.797700  0.039500  0.623200  1.0  0.1025
  H  H68  1  0.161300  0.815900  0.183400  1.0  0.0867
  H  H69  1  0.769700  0.061100  0.678100  1.0  0.1037
  H  H70  1  0.710100  0.033300  0.779900  1.0  0.1167
  H  H71  1  0.870400  0.033200  0.670700  1.0  0.096
  H  H72  1  0.819000  0.492100  0.567500  1.0  0.13
  H  H73  1  0.803900  0.839700  0.752300  1.0  0.1169
  H  H74  1  0.167100  0.792200  0.267700  1.0  0.091
  H  H75  1  0.155300  0.762800  0.053500  1.0  0.084
  H  H76  1  0.873500  0.008000  0.272300  1.0  0.1107
  H  H77  1  0.977400  0.771000  0.192500  1.0  0.102
  H  H78  1  0.051500  0.153100  0.024100  1.0  0.1042
  H  H79  1  0.950100  0.777500  0.249600  1.0  0.1029
  H  H80  1  0.969100  0.996100  0.086900  1.0  0.1007
  H  H81  1  0.064800  0.897000  0.030500  1.0  0.0983
  H  H82  1  0.106400  0.129500  0.048500  1.0  0.121
  H  H83  1  0.491700  0.615300  0.060300  1.0  0.3135
  H  H84  1  0.412600  0.036100  0.487400  1.0  0.4281
  H  H85  1  0.707900  0.271500  0.538000  1.0  0.4286
  H  H86  1  0.375100  0.349800  0.582900  1.0  0.0997
  H  H87  1  0.516600  0.287100  0.152000  1.0  0.13
  H  H88  1  0.349300  0.581200  0.498500  1.0  0.1014
  H  H89  1  0.397600  0.248000  0.388200  1.0  0.1
  H  H90  1  0.612000  0.345000  0.016200  1.0  0.1083
  H  H91  1  0.434900  0.837100  0.547700  1.0  0.0981
  H  H92  1  0.429400  0.711800  0.599600  1.0  0.1026
  H  H93  1  0.287400  0.390900  0.817600  1.0  0.1286
  H  H94  1  0.354000  0.741400  0.486900  1.0  0.0971
  H  H95  1  0.461200  0.791000  0.376300  1.0  0.115
  H  H96  1  0.233200  0.535500  0.714300  1.0  0.0781
  H  H97  1  0.432300  0.531600  0.215200  1.0  0.0978
  H  H98  1  0.760100  0.085200  0.986500  1.0  0.1241
  H  H99  1  0.752400  0.292600  0.382800  1.0  0.1006
  H  H100  1  0.332200  0.878900  0.515000  1.0  0.098
  H  H101  1  0.726200  0.303400  0.061100  1.0  0.0984
  H  H102  1  0.373100  0.644700  0.309700  1.0  0.1117
  H  H103  1  0.332800  0.321200  0.698800  1.0  0.1076
  H  H104  1  0.691400  0.163300  0.424800  1.0  0.092
  H  H105  1  0.334200  0.073500  0.280600  1.0  0.1233
  H  H106  1  0.445300  0.909000  0.423000  1.0  0.0954
  H  H107  1  0.755000  0.246400  0.294400  1.0  0.1064
  H  H108  1  0.298500  0.275400  0.608600  1.0  0.09
  H  H109  1  0.531100  0.327500  0.076900  1.0  0.1004
  H  H110  1  0.377200  0.746500  0.375900  1.0  0.0912
  H  H111  1  0.461100  0.526400  0.160600  1.0  0.109
  H  H112  1  0.401200  0.087400  0.408200  1.0  0.0824
  H  H113  1  0.366400  0.101300  0.485400  1.0  0.1005
  H  H114  1  0.727300  0.910700  0.061800  1.0  0.0975
  H  H115  1  0.378400  0.213900  0.547700  1.0  0.1029
  H  H116  1  0.416600  0.372900  0.359800  1.0  0.0848
  H  H117  1  0.394400  0.269900  0.220100  1.0  0.0935
  H  H118  1  0.645500  0.543900  0.111100  1.0  0.1027
  H  H119  1  0.742500  0.188100  0.022300  1.0  0.0872
  H  H120  1  0.463500  0.637100  0.365200  1.0  0.1126
  H  H121  1  0.714500  0.016200  0.105200  1.0  0.1113
  H  H122  1  0.329000  0.956200  0.337800  1.0  0.1017
  H  H123  1  0.376700  0.145000  0.248600  1.0  0.106
  H  H124  1  0.673200  0.171300  0.331200  1.0  0.1278
  H  H125  1  0.463600  0.503900  0.324700  1.0  0.0945
  H  H126  1  0.689700  0.464700  0.145000  1.0  0.0859
  H  H127  1  0.749800  0.272200  0.209300  1.0  0.1054
  H  H128  1  0.302000  0.138500  0.573500  1.0  0.0986
  H  H129  1  0.392100  0.651300  0.642100  1.0  0.092
  H  H130  1  0.768000  0.935100  0.958500  1.0  0.0945
  H  H131  1  0.327200  0.463400  0.527600  1.0  0.1005
  H  H132  1  0.698500  0.130700  0.145500  1.0  0.0713
  H  H133  1  0.297700  0.539500  0.623200  1.0  0.1025
  H  H134  1  0.661300  0.315900  0.183400  1.0  0.0867
  H  H135  1  0.269700  0.561100  0.678100  1.0  0.1037
  H  H136  1  0.210100  0.533300  0.779900  1.0  0.1167
  H  H137  1  0.370400  0.533200  0.670700  1.0  0.096
  H  H138  1  0.319000  0.992100  0.567500  1.0  0.13
  H  H139  1  0.303900  0.339700  0.752300  1.0  0.1169
  H  H140  1  0.667100  0.292200  0.267700  1.0  0.091
  H  H141  1  0.655300  0.262800  0.053500  1.0  0.084
  H  H142  1  0.373500  0.508000  0.272300  1.0  0.1107
  H  H143  1  0.477400  0.271000  0.192500  1.0  0.102
  H  H144  1  0.551500  0.653100  0.024100  1.0  0.1042
  H  H145  1  0.450100  0.277500  0.249600  1.0  0.1029
  H  H146  1  0.469100  0.496100  0.086900  1.0  0.1007
  H  H147  1  0.564800  0.397000  0.030500  1.0  0.0983
  H  H148  1  0.606400  0.629500  0.048500  1.0  0.121
  H  H149  1  0.008300  0.115300  0.439700  1.0  0.3121
  H  H150  1  0.087400  0.536100  0.012600  1.0  0.4283
  H  H151  1  0.792100  0.771500  0.962000  1.0  0.4281
  H  H152  1  0.124900  0.849800  0.917100  1.0  0.0994
  H  H153  1  0.983400  0.787100  0.348000  1.0  0.1294
  H  H154  1  0.150700  0.081200  0.001500  1.0  0.1013
  H  H155  1  0.102400  0.748000  0.111800  1.0  0.1009
  H  H156  1  0.888000  0.845000  0.483800  1.0  0.1094
  H  H157  1  0.065100  0.337100  0.952300  1.0  0.0979
  H  H158  1  0.070600  0.211800  0.900400  1.0  0.1026
  H  H159  1  0.212600  0.890900  0.682400  1.0  0.1286
  H  H160  1  0.146000  0.241400  0.013100  1.0  0.097
  H  H161  1  0.038800  0.291000  0.123700  1.0  0.1157
  H  H162  1  0.266800  0.035500  0.785700  1.0  0.0772
  H  H163  1  0.067700  0.031600  0.284800  1.0  0.0971
  H  H164  1  0.739900  0.585200  0.513500  1.0  0.1247
  H  H165  1  0.747600  0.792600  0.117200  1.0  0.1014
  H  H166  1  0.167800  0.378900  0.985000  1.0  0.0984
  H  H167  1  0.773800  0.803400  0.438900  1.0  0.0984
  H  H168  1  0.126900  0.144700  0.190300  1.0  0.1134
  H  H169  1  0.167200  0.821200  0.801200  1.0  0.1066
  H  H170  1  0.808600  0.663300  0.075200  1.0  0.0907
  H  H171  1  0.165800  0.573500  0.219400  1.0  0.1235
  H  H172  1  0.054700  0.409000  0.077000  1.0  0.0959
  H  H173  1  0.745000  0.746400  0.205600  1.0  0.1056
  H  H174  1  0.201500  0.775400  0.891400  1.0  0.0906
  H  H175  1  0.968900  0.827500  0.423100  1.0  0.1007
  H  H176  1  0.122800  0.246500  0.124100  1.0  0.0934
  H  H177  1  0.038900  0.026400  0.339400  1.0  0.1093
  H  H178  1  0.098800  0.587400  0.091800  1.0  0.0824
  H  H179  1  0.133600  0.601300  0.014600  1.0  0.1005
  H  H180  1  0.772700  0.410700  0.438200  1.0  0.097
  H  H181  1  0.121600  0.713900  0.952300  1.0  0.1021
  H  H182  1  0.083400  0.872900  0.140200  1.0  0.0849
  H  H183  1  0.105600  0.769900  0.279900  1.0  0.0935
  H  H184  1  0.854500  0.043900  0.388900  1.0  0.103
  H  H185  1  0.757500  0.688100  0.477700  1.0  0.0869
  H  H186  1  0.036500  0.137100  0.134800  1.0  0.1112
  H  H187  1  0.785500  0.516200  0.394800  1.0  0.1118
  H  H188  1  0.171000  0.456200  0.162200  1.0  0.1012
  H  H189  1  0.123300  0.645000  0.251400  1.0  0.1063
  H  H190  1  0.826800  0.671300  0.168800  1.0  0.1274
  H  H191  1  0.036400  0.003900  0.175300  1.0  0.0945
  H  H192  1  0.810300  0.964700  0.355000  1.0  0.0862
  H  H193  1  0.750200  0.772200  0.290700  1.0  0.1052
  H  H194  1  0.198000  0.638500  0.926500  1.0  0.0981
  H  H195  1  0.107900  0.151300  0.857900  1.0  0.0921
  H  H196  1  0.732000  0.435100  0.541500  1.0  0.0945
  H  H197  1  0.172800  0.963400  0.972400  1.0  0.1006
  H  H198  1  0.801500  0.630700  0.354500  1.0  0.0714
  H  H199  1  0.202300  0.039500  0.876800  1.0  0.1016
  H  H200  1  0.838700  0.815900  0.316600  1.0  0.0865
  H  H201  1  0.230300  0.061100  0.821900  1.0  0.1035
  H  H202  1  0.289900  0.033300  0.720100  1.0  0.1176
  H  H203  1  0.129600  0.033200  0.829300  1.0  0.0961
  H  H204  1  0.181000  0.492100  0.932500  1.0  0.1291
  H  H205  1  0.196100  0.839700  0.747700  1.0  0.1168
  H  H206  1  0.832900  0.792200  0.232300  1.0  0.0905
  H  H207  1  0.844700  0.762800  0.446500  1.0  0.0849
  H  H208  1  0.126500  0.008000  0.227700  1.0  0.1116
  H  H209  1  0.022600  0.771000  0.307500  1.0  0.102
  H  H210  1  0.948500  0.153100  0.475900  1.0  0.1048
  H  H211  1  0.049900  0.777500  0.250400  1.0  0.1025
  H  H212  1  0.030900  0.996100  0.413100  1.0  0.101
  H  H213  1  0.935200  0.897000  0.469500  1.0  0.0988
  H  H214  1  0.893600  0.129500  0.451500  1.0  0.1212
  H  H215  1  0.508300  0.615300  0.439700  1.0  0.3121
  H  H216  1  0.587400  0.036100  0.012600  1.0  0.4283
  H  H217  1  0.292100  0.271500  0.962000  1.0  0.428
  H  H218  1  0.624900  0.349800  0.917100  1.0  0.0994
  H  H219  1  0.483400  0.287100  0.348000  1.0  0.1294
  H  H220  1  0.650700  0.581200  0.001500  1.0  0.1013
  H  H221  1  0.602400  0.248000  0.111800  1.0  0.1009
  H  H222  1  0.388000  0.345000  0.483800  1.0  0.1094
  H  H223  1  0.565100  0.837100  0.952300  1.0  0.0979
  H  H224  1  0.570600  0.711800  0.900400  1.0  0.1026
  H  H225  1  0.712600  0.390900  0.682400  1.0  0.1286
  H  H226  1  0.646000  0.741400  0.013100  1.0  0.097
  H  H227  1  0.538800  0.791000  0.123700  1.0  0.1157
  H  H228  1  0.766800  0.535500  0.785700  1.0  0.0772
  H  H229  1  0.567700  0.531600  0.284800  1.0  0.0971
  H  H230  1  0.239900  0.085200  0.513500  1.0  0.1247
  H  H231  1  0.247600  0.292600  0.117200  1.0  0.1014
  H  H232  1  0.667800  0.878900  0.985000  1.0  0.0984
  H  H233  1  0.273800  0.303400  0.438900  1.0  0.0984
  H  H234  1  0.626900  0.644700  0.190300  1.0  0.1134
  H  H235  1  0.667200  0.321200  0.801200  1.0  0.1066
  H  H236  1  0.308600  0.163300  0.075200  1.0  0.0907
  H  H237  1  0.665800  0.073500  0.219400  1.0  0.1235
  H  H238  1  0.554700  0.909000  0.077000  1.0  0.0959
  H  H239  1  0.245000  0.246400  0.205600  1.0  0.1056
  H  H240  1  0.701500  0.275400  0.891400  1.0  0.0906
  H  H241  1  0.468900  0.327500  0.423100  1.0  0.1007
  H  H242  1  0.622800  0.746500  0.124100  1.0  0.0934
  H  H243  1  0.538900  0.526400  0.339400  1.0  0.1093
  H  H244  1  0.598800  0.087400  0.091800  1.0  0.0824
  H  H245  1  0.633600  0.101300  0.014600  1.0  0.1005
  H  H246  1  0.272700  0.910700  0.438200  1.0  0.097
  H  H247  1  0.621600  0.213900  0.952300  1.0  0.1021
  H  H248  1  0.583400  0.372900  0.140200  1.0  0.0849
  H  H249  1  0.605600  0.269900  0.279900  1.0  0.0935
  H  H250  1  0.354500  0.543900  0.388900  1.0  0.103
  H  H251  1  0.257500  0.188100  0.477700  1.0  0.0869
  H  H252  1  0.536500  0.637100  0.134800  1.0  0.1112
  H  H253  1  0.285500  0.016200  0.394800  1.0  0.1118
  H  H254  1  0.671000  0.956200  0.162200  1.0  0.1012
  H  H255  1  0.623300  0.145000  0.251400  1.0  0.1063
  H  H256  1  0.326800  0.171300  0.168800  1.0  0.1274
  H  H257  1  0.536400  0.503900  0.175300  1.0  0.0945
  H  H258  1  0.310300  0.464700  0.355000  1.0  0.0862
  H  H259  1  0.250200  0.272200  0.290700  1.0  0.1052
  H  H260  1  0.698000  0.138500  0.926500  1.0  0.0981
  H  H261  1  0.607900  0.651300  0.857900  1.0  0.0921
  H  H262  1  0.232000  0.935100  0.541500  1.0  0.0945
  H  H263  1  0.672800  0.463400  0.972400  1.0  0.1006
  H  H264  1  0.301500  0.130700  0.354500  1.0  0.0714
  H  H265  1  0.702300  0.539500  0.876800  1.0  0.1016
  H  H266  1  0.338700  0.315900  0.316600  1.0  0.0865
  H  H267  1  0.730300  0.561100  0.821900  1.0  0.1035
  H  H268  1  0.789900  0.533300  0.720100  1.0  0.1176
  H  H269  1  0.629600  0.533200  0.829300  1.0  0.0961
  H  H270  1  0.681000  0.992100  0.932500  1.0  0.1291
  H  H271  1  0.696100  0.339700  0.747700  1.0  0.1168
  H  H272  1  0.332900  0.292200  0.232300  1.0  0.0905
  H  H273  1  0.344700  0.262800  0.446500  1.0  0.0849
  H  H274  1  0.626500  0.508000  0.227700  1.0  0.1116
  H  H275  1  0.522600  0.271000  0.307500  1.0  0.102
  H  H276  1  0.448500  0.653100  0.475900  1.0  0.1048
  H  H277  1  0.549900  0.277500  0.250400  1.0  0.1025
  H  H278  1  0.530900  0.496100  0.413100  1.0  0.101
  H  H279  1  0.435200  0.397000  0.469500  1.0  0.0988
  H  H280  1  0.393600  0.629500  0.451500  1.0  0.1212
  H  H281  1  0.008300  0.884700  0.939700  1.0  0.3152
  H  H282  1  0.087400  0.463900  0.512600  1.0  0.4254
  H  H283  1  0.792100  0.228500  0.462000  1.0  0.4287
  H  H284  1  0.124900  0.150200  0.417100  1.0  0.0991
  H  H285  1  0.983400  0.212900  0.848000  1.0  0.1298
  H  H286  1  0.150700  0.918800  0.501500  1.0  0.1014
  H  H287  1  0.102400  0.252000  0.611800  1.0  0.1011
  H  H288  1  0.888000  0.155000  0.983800  1.0  0.1089
  H  H289  1  0.065100  0.662900  0.452300  1.0  0.0975
  H  H290  1  0.070600  0.788200  0.400400  1.0  0.1033
  H  H291  1  0.212600  0.109100  0.182400  1.0  0.1293
  H  H292  1  0.146000  0.758600  0.513100  1.0  0.0969
  H  H293  1  0.038800  0.709000  0.623700  1.0  0.1164
  H  H294  1  0.266800  0.964500  0.285700  1.0  0.0773
  H  H295  1  0.067700  0.968400  0.784800  1.0  0.0977
  H  H296  1  0.739900  0.414800  0.013500  1.0  0.1256
  H  H297  1  0.747600  0.207400  0.617200  1.0  0.1014
  H  H298  1  0.167800  0.621100  0.485000  1.0  0.0986
  H  H299  1  0.773800  0.196600  0.938900  1.0  0.0984
  H  H300  1  0.126900  0.855300  0.690300  1.0  0.1127
  H  H301  1  0.167200  0.178800  0.301200  1.0  0.1069
  H  H302  1  0.808600  0.336700  0.575200  1.0  0.0906
  H  H303  1  0.165800  0.426500  0.719400  1.0  0.1238
  H  H304  1  0.054700  0.591000  0.577000  1.0  0.0955
  H  H305  1  0.745000  0.253600  0.705600  1.0  0.1063
  H  H306  1  0.201500  0.224600  0.391400  1.0  0.0902
  H  H307  1  0.968900  0.172500  0.923100  1.0  0.1007
  H  H308  1  0.122800  0.753500  0.624100  1.0  0.0935
  H  H309  1  0.038900  0.973600  0.839400  1.0  0.1091
  H  H310  1  0.098800  0.412600  0.591800  1.0  0.0819
  H  H311  1  0.133600  0.398700  0.514600  1.0  0.1005
  H  H312  1  0.772700  0.589300  0.938200  1.0  0.097
  H  H313  1  0.121600  0.286100  0.452300  1.0  0.1021
  H  H314  1  0.083400  0.127100  0.640200  1.0  0.085
  H  H315  1  0.105600  0.230100  0.779900  1.0  0.0935
  H  H316  1  0.854500  0.956100  0.888900  1.0  0.1025
  H  H317  1  0.757500  0.311900  0.977700  1.0  0.0866
  H  H318  1  0.036500  0.862900  0.634800  1.0  0.1115
  H  H319  1  0.785500  0.483800  0.894800  1.0  0.1116
  H  H320  1  0.171000  0.543800  0.662200  1.0  0.1004
  H  H321  1  0.123300  0.355000  0.751400  1.0  0.1059
  H  H322  1  0.826800  0.328700  0.668800  1.0  0.1277
  H  H323  1  0.036400  0.996100  0.675300  1.0  0.094
  H  H324  1  0.810300  0.035300  0.855000  1.0  0.086
  H  H325  1  0.750200  0.227800  0.790700  1.0  0.1052
  H  H326  1  0.198000  0.361500  0.426500  1.0  0.0981
  H  H327  1  0.107900  0.848700  0.357900  1.0  0.0918
  H  H328  1  0.732000  0.564900  0.041500  1.0  0.0944
  H  H329  1  0.172800  0.036600  0.472400  1.0  0.1002
  H  H330  1  0.801500  0.369300  0.854500  1.0  0.0711
  H  H331  1  0.202300  0.960500  0.376800  1.0  0.102
  H  H332  1  0.838700  0.184100  0.816600  1.0  0.0865
  H  H333  1  0.230300  0.938900  0.321900  1.0  0.1033
  H  H334  1  0.289900  0.966700  0.220100  1.0  0.1162
  H  H335  1  0.129600  0.966800  0.329300  1.0  0.0964
  H  H336  1  0.181000  0.507900  0.432500  1.0  0.1289
  H  H337  1  0.196100  0.160300  0.247700  1.0  0.1171
  H  H338  1  0.832900  0.207800  0.732300  1.0  0.0907
  H  H339  1  0.844700  0.237200  0.946500  1.0  0.0847
  H  H340  1  0.126500  0.992000  0.727700  1.0  0.1113
  H  H341  1  0.022600  0.229000  0.807500  1.0  0.1017
  H  H342  1  0.948500  0.846900  0.975900  1.0  0.1047
  H  H343  1  0.049900  0.222500  0.750400  1.0  0.1023
  H  H344  1  0.030900  0.003900  0.913100  1.0  0.1008
  H  H345  1  0.935200  0.103000  0.969500  1.0  0.0983
  H  H346  1  0.893600  0.870500  0.951500  1.0  0.1212
  H  H347  1  0.508300  0.384700  0.939700  1.0  0.3152
  H  H348  1  0.587400  0.963900  0.512600  1.0  0.4254
  H  H349  1  0.292100  0.728500  0.462000  1.0  0.4282
  H  H350  1  0.624900  0.650200  0.417100  1.0  0.0991
  H  H351  1  0.483400  0.712900  0.848000  1.0  0.1298
  H  H352  1  0.650700  0.418800  0.501500  1.0  0.1014
  H  H353  1  0.602400  0.752000  0.611800  1.0  0.1011
  H  H354  1  0.388000  0.655000  0.983800  1.0  0.1089
  H  H355  1  0.565100  0.162900  0.452300  1.0  0.0975
  H  H356  1  0.570600  0.288200  0.400400  1.0  0.1033
  H  H357  1  0.712600  0.609100  0.182400  1.0  0.1293
  H  H358  1  0.646000  0.258600  0.513100  1.0  0.0969
  H  H359  1  0.538800  0.209000  0.623700  1.0  0.1164
  H  H360  1  0.766800  0.464500  0.285700  1.0  0.0773
  H  H361  1  0.567700  0.468400  0.784800  1.0  0.0977
  H  H362  1  0.239900  0.914800  0.013500  1.0  0.1256
  H  H363  1  0.247600  0.707400  0.617200  1.0  0.1014
  H  H364  1  0.667800  0.121100  0.485000  1.0  0.0986
  H  H365  1  0.273800  0.696600  0.938900  1.0  0.0984
  H  H366  1  0.626900  0.355300  0.690300  1.0  0.1127
  H  H367  1  0.667200  0.678800  0.301200  1.0  0.1069
  H  H368  1  0.308600  0.836700  0.575200  1.0  0.0906
  H  H369  1  0.665800  0.926500  0.719400  1.0  0.1238
  H  H370  1  0.554700  0.091000  0.577000  1.0  0.0955
  H  H371  1  0.245000  0.753600  0.705600  1.0  0.1063
  H  H372  1  0.701500  0.724600  0.391400  1.0  0.0902
  H  H373  1  0.468900  0.672500  0.923100  1.0  0.1007
  H  H374  1  0.622800  0.253500  0.624100  1.0  0.0935
  H  H375  1  0.538900  0.473600  0.839400  1.0  0.1091
  H  H376  1  0.598800  0.912600  0.591800  1.0  0.0819
  H  H377  1  0.633600  0.898700  0.514600  1.0  0.1005
  H  H378  1  0.272700  0.089300  0.938200  1.0  0.097
  H  H379  1  0.621600  0.786100  0.452300  1.0  0.1021
  H  H380  1  0.583400  0.627100  0.640200  1.0  0.085
  H  H381  1  0.605600  0.730100  0.779900  1.0  0.0935
  H  H382  1  0.354500  0.456100  0.888900  1.0  0.1025
  H  H383  1  0.257500  0.811900  0.977700  1.0  0.0866
  H  H384  1  0.536500  0.362900  0.634800  1.0  0.1115
  H  H385  1  0.285500  0.983800  0.894800  1.0  0.1116
  H  H386  1  0.671000  0.043800  0.662200  1.0  0.1004
  H  H387  1  0.623300  0.855000  0.751400  1.0  0.1059
  H  H388  1  0.326800  0.828700  0.668800  1.0  0.1277
  H  H389  1  0.536400  0.496100  0.675300  1.0  0.094
  H  H390  1  0.310300  0.535300  0.855000  1.0  0.086
  H  H391  1  0.250200  0.727800  0.790700  1.0  0.1052
  H  H392  1  0.698000  0.861500  0.426500  1.0  0.0981
  H  H393  1  0.607900  0.348700  0.357900  1.0  0.0918
  H  H394  1  0.232000  0.064900  0.041500  1.0  0.0944
  H  H395  1  0.672800  0.536600  0.472400  1.0  0.1002
  H  H396  1  0.301500  0.869300  0.854500  1.0  0.0711
  H  H397  1  0.702300  0.460500  0.376800  1.0  0.102
  H  H398  1  0.338700  0.684100  0.816600  1.0  0.0865
  H  H399  1  0.730300  0.438900  0.321900  1.0  0.1033
  H  H400  1  0.789900  0.466700  0.220100  1.0  0.1162
  H  H401  1  0.629600  0.466800  0.329300  1.0  0.0964
  H  H402  1  0.681000  0.007900  0.432500  1.0  0.1289
  H  H403  1  0.696100  0.660300  0.247700  1.0  0.1171
  H  H404  1  0.332900  0.707800  0.732300  1.0  0.0907
  H  H405  1  0.344700  0.737200  0.946500  1.0  0.0847
  H  H406  1  0.626500  0.492000  0.727700  1.0  0.1113
  H  H407  1  0.522600  0.729000  0.807500  1.0  0.1017
  H  H408  1  0.448500  0.346900  0.975900  1.0  0.1047
  H  H409  1  0.549900  0.722500  0.750400  1.0  0.1023
  H  H410  1  0.530900  0.503900  0.913100  1.0  0.1008
  H  H411  1  0.435200  0.603000  0.969500  1.0  0.0983
  H  H412  1  0.393600  0.370500  0.951500  1.0  0.1212
  H  H413  1  0.991700  0.884700  0.560300  1.0  0.3143
  H  H414  1  0.912600  0.463900  0.987400  1.0  0.4244
  H  H415  1  0.207900  0.228500  0.038000  1.0  0.4295
  H  H416  1  0.875100  0.150200  0.082900  1.0  0.1002
  H  H417  1  0.016600  0.212900  0.652000  1.0  0.1293
  H  H418  1  0.849300  0.918800  0.998500  1.0  0.1014
  H  H419  1  0.897600  0.252000  0.888200  1.0  0.0997
  H  H420  1  0.112000  0.155000  0.516200  1.0  0.1087
  H  H421  1  0.934900  0.662900  0.047700  1.0  0.0985
  H  H422  1  0.929400  0.788200  0.099600  1.0  0.1029
  H  H423  1  0.787400  0.109100  0.317600  1.0  0.1289
  H  H424  1  0.854000  0.758600  0.986900  1.0  0.0969
  H  H425  1  0.961200  0.709000  0.876300  1.0  0.1153
  H  H426  1  0.733200  0.964500  0.214300  1.0  0.0776
  H  H427  1  0.932300  0.968400  0.715200  1.0  0.0972
  H  H428  1  0.260100  0.414800  0.486500  1.0  0.125
  H  H429  1  0.252400  0.207400  0.882800  1.0  0.1007
  H  H430  1  0.832200  0.621100  0.015000  1.0  0.0981
  H  H431  1  0.226200  0.196600  0.561100  1.0  0.0987
  H  H432  1  0.873100  0.855300  0.809700  1.0  0.1127
  H  H433  1  0.832800  0.178800  0.198800  1.0  0.1066
  H  H434  1  0.191400  0.336700  0.924800  1.0  0.0917
  H  H435  1  0.834200  0.426500  0.780600  1.0  0.1236
  H  H436  1  0.945300  0.591000  0.923000  1.0  0.0955
  H  H437  1  0.255000  0.253600  0.794400  1.0  0.1069
  H  H438  1  0.798500  0.224600  0.108600  1.0  0.0898
  H  H439  1  0.031100  0.172500  0.576900  1.0  0.1005
  H  H440  1  0.877200  0.753500  0.875900  1.0  0.0915
  H  H441  1  0.961100  0.973600  0.660600  1.0  0.1088
  H  H442  1  0.901200  0.412600  0.908200  1.0  0.0824
  H  H443  1  0.866400  0.398700  0.985400  1.0  0.0999
  H  H444  1  0.227300  0.589300  0.561800  1.0  0.0972
  H  H445  1  0.878400  0.286100  0.047700  1.0  0.103
  H  H446  1  0.916600  0.127100  0.859800  1.0  0.0851
  H  H447  1  0.894400  0.230100  0.720100  1.0  0.0939
  H  H448  1  0.145500  0.956100  0.611100  1.0  0.1027
  H  H449  1  0.242500  0.311900  0.522300  1.0  0.0872
  H  H450  1  0.963500  0.862900  0.865200  1.0  0.1123
  H  H451  1  0.214500  0.483800  0.605200  1.0  0.111
  H  H452  1  0.829000  0.543800  0.837800  1.0  0.1016
  H  H453  1  0.876700  0.355000  0.748600  1.0  0.1069
  H  H454  1  0.173200  0.328700  0.831200  1.0  0.1281
  H  H455  1  0.963600  0.996100  0.824700  1.0  0.0941
  H  H456  1  0.189700  0.035300  0.645000  1.0  0.0861
  H  H457  1  0.249800  0.227800  0.709300  1.0  0.1051
  H  H458  1  0.802000  0.361500  0.073500  1.0  0.0985
  H  H459  1  0.892100  0.848700  0.142100  1.0  0.0922
  H  H460  1  0.268000  0.564900  0.458500  1.0  0.0943
  H  H461  1  0.827200  0.036600  0.027600  1.0  0.1006
  H  H462  1  0.198500  0.369300  0.645500  1.0  0.0708
  H  H463  1  0.797700  0.960500  0.123200  1.0  0.1025
  H  H464  1  0.161300  0.184100  0.683400  1.0  0.0863
  H  H465  1  0.769700  0.938900  0.178100  1.0  0.1032
  H  H466  1  0.710100  0.966700  0.279900  1.0  0.1161
  H  H467  1  0.870400  0.966800  0.170700  1.0  0.096
  H  H468  1  0.819000  0.507900  0.067500  1.0  0.1298
  H  H469  1  0.803900  0.160300  0.252300  1.0  0.1172
  H  H470  1  0.167100  0.207800  0.767700  1.0  0.0909
  H  H471  1  0.155300  0.237200  0.553500  1.0  0.0844
  H  H472  1  0.873500  0.992000  0.772300  1.0  0.1104
  H  H473  1  0.977400  0.229000  0.692500  1.0  0.1017
  H  H474  1  0.051500  0.846900  0.524100  1.0  0.1041
  H  H475  1  0.950100  0.222500  0.749600  1.0  0.102
  H  H476  1  0.969100  0.003900  0.586900  1.0  0.1007
  H  H477  1  0.064800  0.103000  0.530500  1.0  0.0986
  H  H478  1  0.106400  0.870500  0.548500  1.0  0.1214
  H  H479  1  0.491700  0.384700  0.560300  1.0  0.3143
  H  H480  1  0.412600  0.963900  0.987400  1.0  0.4244
  H  H481  1  0.707900  0.728500  0.038000  1.0  0.4293
  H  H482  1  0.375100  0.650200  0.082900  1.0  0.1002
  H  H483  1  0.516600  0.712900  0.652000  1.0  0.1293
  H  H484  1  0.349300  0.418800  0.998500  1.0  0.1014
  H  H485  1  0.397600  0.752000  0.888200  1.0  0.0997
  H  H486  1  0.612000  0.655000  0.516200  1.0  0.1087
  H  H487  1  0.434900  0.162900  0.047700  1.0  0.0985
  H  H488  1  0.429400  0.288200  0.099600  1.0  0.1029
  H  H489  1  0.287400  0.609100  0.317600  1.0  0.1289
  H  H490  1  0.354000  0.258600  0.986900  1.0  0.0969
  H  H491  1  0.461200  0.209000  0.876300  1.0  0.1153
  H  H492  1  0.233200  0.464500  0.214300  1.0  0.0776
  H  H493  1  0.432300  0.468400  0.715200  1.0  0.0972
  H  H494  1  0.760100  0.914800  0.486500  1.0  0.125
  H  H495  1  0.752400  0.707400  0.882800  1.0  0.1007
  H  H496  1  0.332200  0.121100  0.015000  1.0  0.0981
  H  H497  1  0.726200  0.696600  0.561100  1.0  0.0987
  H  H498  1  0.373100  0.355300  0.809700  1.0  0.1127
  H  H499  1  0.332800  0.678800  0.198800  1.0  0.1066
  H  H500  1  0.691400  0.836700  0.924800  1.0  0.0917
  H  H501  1  0.334200  0.926500  0.780600  1.0  0.1236
  H  H502  1  0.445300  0.091000  0.923000  1.0  0.0955
  H  H503  1  0.755000  0.753600  0.794400  1.0  0.1069
  H  H504  1  0.298500  0.724600  0.108600  1.0  0.0898
  H  H505  1  0.531100  0.672500  0.576900  1.0  0.1005
  H  H506  1  0.377200  0.253500  0.875900  1.0  0.0915
  H  H507  1  0.461100  0.473600  0.660600  1.0  0.1088
  H  H508  1  0.401200  0.912600  0.908200  1.0  0.0824
  H  H509  1  0.366400  0.898700  0.985400  1.0  0.0999
  H  H510  1  0.727300  0.089300  0.561800  1.0  0.0972
  H  H511  1  0.378400  0.786100  0.047700  1.0  0.103
  H  H512  1  0.416600  0.627100  0.859800  1.0  0.0851
  H  H513  1  0.394400  0.730100  0.720100  1.0  0.0939
  H  H514  1  0.645500  0.456100  0.611100  1.0  0.1027
  H  H515  1  0.742500  0.811900  0.522300  1.0  0.0872
  H  H516  1  0.463500  0.362900  0.865200  1.0  0.1123
  H  H517  1  0.714500  0.983800  0.605200  1.0  0.111
  H  H518  1  0.329000  0.043800  0.837800  1.0  0.1016
  H  H519  1  0.376700  0.855000  0.748600  1.0  0.1069
  H  H520  1  0.673200  0.828700  0.831200  1.0  0.1281
  H  H521  1  0.463600  0.496100  0.824700  1.0  0.0941
  H  H522  1  0.689700  0.535300  0.645000  1.0  0.0861
  H  H523  1  0.749800  0.727800  0.709300  1.0  0.1051
  H  H524  1  0.302000  0.861500  0.073500  1.0  0.0985
  H  H525  1  0.392100  0.348700  0.142100  1.0  0.0922
  H  H526  1  0.768000  0.064900  0.458500  1.0  0.0943
  H  H527  1  0.327200  0.536600  0.027600  1.0  0.1006
  H  H528  1  0.698500  0.869300  0.645500  1.0  0.0708
  H  H529  1  0.297700  0.460500  0.123200  1.0  0.1025
  H  H530  1  0.661300  0.684100  0.683400  1.0  0.0863
  H  H531  1  0.269700  0.438900  0.178100  1.0  0.1032
  H  H532  1  0.210100  0.466700  0.279900  1.0  0.1161
  H  H533  1  0.370400  0.466800  0.170700  1.0  0.096
  H  H534  1  0.319000  0.007900  0.067500  1.0  0.1298
  H  H535  1  0.303900  0.660300  0.252300  1.0  0.1172
  H  H536  1  0.667100  0.707800  0.767700  1.0  0.0909
  H  H537  1  0.655300  0.737200  0.553500  1.0  0.0844
  H  H538  1  0.373500  0.492000  0.772300  1.0  0.1104
  H  H539  1  0.477400  0.729000  0.692500  1.0  0.1017
  H  H540  1  0.551500  0.346900  0.524100  1.0  0.1041
  H  H541  1  0.450100  0.722500  0.749600  1.0  0.102
  H  H542  1  0.469100  0.503900  0.586900  1.0  0.1007
  H  H543  1  0.564800  0.603000  0.530500  1.0  0.0986
  H  H544  1  0.606400  0.370500  0.548500  1.0  0.1214
  C  C545  1  0.907720  0.833800  0.286940  1.0  0.1411
  C  C546  1  0.860200  0.807700  0.580720  1.0  -0.1583
  C  C547  1  0.008890  0.833800  0.130040  1.0  -0.1464
  C  C548  1  0.853550  0.071500  0.533080  1.0  -0.1685
  C  C549  1  0.897090  0.752100  0.354430  1.0  -0.1355
  C  C550  1  0.127200  0.867800  0.043390  1.0  -0.1935
  C  C551  1  0.917780  0.302200  0.541930  1.0  0.0199
  C  C552  1  0.914910  0.232700  0.570890  1.0  -0.1456
  C  C553  1  0.771200  0.926700  0.800840  1.0  0.0554
  C  C554  1  0.873400  0.250400  0.508290  1.0  0.1552
  C  C555  1  0.942550  0.295900  0.381900  1.0  -0.1476
  C  C556  1  0.741290  0.005600  0.744730  1.0  0.0565
  C  C557  1  0.941320  0.978800  0.210790  1.0  -0.201
  C  C558  1  0.254440  0.532500  0.998230  1.0  -0.1767
  C  C559  1  0.234920  0.762100  0.382100  1.0  0.1438
  C  C560  1  0.837630  0.438100  0.515820  1.0  0.0018
  C  C561  1  0.223900  0.745700  0.070700  1.0  -0.2062
  C  C562  1  0.891270  0.116100  0.313070  1.0  -0.1607
  C  C563  1  0.819610  0.868600  0.693940  1.0  -0.13
  C  C564  1  0.201430  0.691100  0.404680  1.0  0.0367
  C  C565  1  0.847070  0.562400  0.313000  1.0  -0.1418
  C  C566  1  0.933620  0.360900  0.407910  1.0  -0.0039
  C  C567  1  0.236150  0.759000  0.271650  1.0  -0.1805
  C  C568  1  0.814470  0.763600  0.596180  1.0  -0.2064
  C  C569  1  0.176040  0.853900  0.104520  1.0  0.1103
  C  C570  1  0.016870  0.856900  0.088320  1.0  0.0122
  C  C571  1  0.896190  0.271900  0.382200  1.0  0.1326
  C  C572  1  0.958440  0.975600  0.177650  1.0  -0.1562
  C  C573  1  0.883800  0.568900  0.383600  1.0  0.1432
  C  C574  1  0.856480  0.559700  0.499130  1.0  0.148
  C  C575  1  0.230010  0.591600  0.059470  1.0  0.0704
  C  C576  1  0.210870  0.729300  0.108700  1.0  0.1412
  C  C577  1  0.840260  0.662000  0.556090  1.0  0.1453
  C  C578  1  0.236530  0.434900  0.039450  1.0  0.1247
  C  C579  1  0.862200  0.726100  0.559620  1.0  -0.154
  C  C580  1  0.873120  0.127700  0.567820  1.0  0.1166
  C  C581  1  0.908470  0.827200  0.337340  1.0  -0.164
  C  C582  1  0.895380  0.765400  0.253990  1.0  -0.1896
  C  C583  1  0.147360  0.987200  0.099740  1.0  -0.144
  C  C584  1  0.233440  0.676200  0.047200  1.0  -0.13
  C  C585  1  0.945480  0.111900  0.345940  1.0  -0.1715
  C  C586  1  0.217000  0.574200  0.096310  1.0  -0.192
  C  C587  1  0.846830  0.986200  0.602130  1.0  0.1441
  C  C588  1  0.844450  0.497700  0.345000  1.0  0.0236
  C  C589  1  0.884480  0.690900  0.270960  1.0  -0.1506
  C  C590  1  0.191000  0.694900  0.352530  1.0  -0.1067
  C  C591  1  0.945430  0.031900  0.322190  1.0  -0.1894
  C  C592  1  0.783830  0.951500  0.720140  1.0  0.0538
  C  C593  1  0.173660  0.939200  0.120390  1.0  -0.0872
  C  C594  1  0.233000  0.774300  0.220690  1.0  -0.1477
  C  C595  1  0.835890  0.827300  0.598760  1.0  0.1448
  C  C596  1  0.816630  0.681100  0.574970  1.0  -0.1535
  C  C597  1  0.879210  0.113500  0.619000  1.0  -0.1489
  C  C598  1  0.258800  0.448500  0.983010  1.0  0.0309
  C  C599  1  0.840360  0.000800  0.550580  1.0  -0.1408
  C  C600  1  0.207460  0.643300  0.120540  1.0  -0.1081
  C  C601  1  0.798860  0.999000  0.648970  1.0  -0.1384
  C  C602  1  0.180090  0.800700  0.205330  1.0  -0.1133
  C  C603  1  0.782090  0.011900  0.681740  1.0  -0.112
  C  C604  1  0.817360  0.926300  0.654240  1.0  0.1673
  C  C605  1  0.210970  0.762700  0.287980  1.0  0.1411
  C  C606  1  0.728000  0.006000  0.780180  1.0  0.018
  C  C607  1  0.918360  0.154600  0.340860  1.0  0.0816
  C  C608  1  0.866140  0.042800  0.636100  1.0  -0.1594
  C  C609  1  0.830010  0.500300  0.544860  1.0  -0.1333
  C  C610  1  0.802600  0.880000  0.726440  1.0  -0.1245
  C  C611  1  0.183490  0.786100  0.255560  1.0  -0.187
  C  C612  1  0.153310  0.819100  0.065410  1.0  -0.0648
  C  C613  1  0.204670  0.792700  0.186780  1.0  0.0795
  C  C614  1  0.891570  0.034600  0.290430  1.0  -0.1909
  C  C615  1  0.885090  0.684100  0.321440  1.0  0.1621
  C  C616  1  0.937560  0.904600  0.237340  1.0  0.1558
  C  C617  1  0.968320  0.823600  0.197040  1.0  -0.1258
  C  C618  1  0.918590  0.993100  0.294760  1.0  0.1574
  C  C619  1  0.971370  0.898000  0.169970  1.0  0.187
  C  C620  1  0.061150  0.098500  0.028630  1.0  0.0083
  C  C621  1  0.951720  0.827300  0.231000  1.0  -0.1696
  C  C622  1  0.982810  0.949800  0.093720  1.0  0.1206
  C  C623  1  0.068200  0.957600  0.032100  1.0  0.1589
  C  C624  1  0.091590  0.086100  0.042150  1.0  -0.1707
  C  C625  1  0.124300  0.949800  0.062430  1.0  0.1205
  C  C626  1  0.407720  0.333800  0.286940  1.0  0.1411
  C  C627  1  0.360200  0.307700  0.580720  1.0  -0.1583
  C  C628  1  0.508890  0.333800  0.130040  1.0  -0.1464
  C  C629  1  0.353550  0.571500  0.533080  1.0  -0.1685
  C  C630  1  0.397090  0.252100  0.354430  1.0  -0.1355
  C  C631  1  0.627200  0.367800  0.043390  1.0  -0.1935
  C  C632  1  0.417780  0.802200  0.541930  1.0  0.0199
  C  C633  1  0.414910  0.732700  0.570890  1.0  -0.1456
  C  C634  1  0.271200  0.426700  0.800840  1.0  0.0554
  C  C635  1  0.373400  0.750400  0.508290  1.0  0.1552
  C  C636  1  0.442550  0.795900  0.381900  1.0  -0.1476
  C  C637  1  0.241290  0.505600  0.744730  1.0  0.0565
  C  C638  1  0.441320  0.478800  0.210790  1.0  -0.201
  C  C639  1  0.754440  0.032500  0.998230  1.0  -0.1767
  C  C640  1  0.734920  0.262100  0.382100  1.0  0.1438
  C  C641  1  0.337630  0.938100  0.515820  1.0  0.0018
  C  C642  1  0.723900  0.245700  0.070700  1.0  -0.2062
  C  C643  1  0.391270  0.616100  0.313070  1.0  -0.1607
  C  C644  1  0.319610  0.368600  0.693940  1.0  -0.13
  C  C645  1  0.701430  0.191100  0.404680  1.0  0.0367
  C  C646  1  0.347070  0.062400  0.313000  1.0  -0.1418
  C  C647  1  0.433620  0.860900  0.407910  1.0  -0.0039
  C  C648  1  0.736150  0.259000  0.271650  1.0  -0.1805
  C  C649  1  0.314470  0.263600  0.596180  1.0  -0.2064
  C  C650  1  0.676040  0.353900  0.104520  1.0  0.1103
  C  C651  1  0.516870  0.356900  0.088320  1.0  0.0122
  C  C652  1  0.396190  0.771900  0.382200  1.0  0.1326
  C  C653  1  0.458440  0.475600  0.177650  1.0  -0.1562
  C  C654  1  0.383800  0.068900  0.383600  1.0  0.1432
  C  C655  1  0.356480  0.059700  0.499130  1.0  0.148
  C  C656  1  0.730010  0.091600  0.059470  1.0  0.0704
  C  C657  1  0.710870  0.229300  0.108700  1.0  0.1412
  C  C658  1  0.340260  0.162000  0.556090  1.0  0.1453
  C  C659  1  0.736530  0.934900  0.039450  1.0  0.1247
  C  C660  1  0.362200  0.226100  0.559620  1.0  -0.154
  C  C661  1  0.373120  0.627700  0.567820  1.0  0.1166
  C  C662  1  0.408470  0.327200  0.337340  1.0  -0.164
  C  C663  1  0.395380  0.265400  0.253990  1.0  -0.1896
  C  C664  1  0.647360  0.487200  0.099740  1.0  -0.144
  C  C665  1  0.733440  0.176200  0.047200  1.0  -0.13
  C  C666  1  0.445480  0.611900  0.345940  1.0  -0.1715
  C  C667  1  0.717000  0.074200  0.096310  1.0  -0.192
  C  C668  1  0.346830  0.486200  0.602130  1.0  0.1441
  C  C669  1  0.344450  0.997700  0.345000  1.0  0.0236
  C  C670  1  0.384480  0.190900  0.270960  1.0  -0.1506
  C  C671  1  0.691000  0.194900  0.352530  1.0  -0.1067
  C  C672  1  0.445430  0.531900  0.322190  1.0  -0.1894
  C  C673  1  0.283830  0.451500  0.720140  1.0  0.0538
  C  C674  1  0.673660  0.439200  0.120390  1.0  -0.0872
  C  C675  1  0.733000  0.274300  0.220690  1.0  -0.1477
  C  C676  1  0.335890  0.327300  0.598760  1.0  0.1448
  C  C677  1  0.316630  0.181100  0.574970  1.0  -0.1535
  C  C678  1  0.379210  0.613500  0.619000  1.0  -0.1489
  C  C679  1  0.758800  0.948500  0.983010  1.0  0.0309
  C  C680  1  0.340360  0.500800  0.550580  1.0  -0.1408
  C  C681  1  0.707460  0.143300  0.120540  1.0  -0.1081
  C  C682  1  0.298860  0.499000  0.648970  1.0  -0.1384
  C  C683  1  0.680090  0.300700  0.205330  1.0  -0.1133
  C  C684  1  0.282090  0.511900  0.681740  1.0  -0.112
  C  C685  1  0.317360  0.426300  0.654240  1.0  0.1673
  C  C686  1  0.710970  0.262700  0.287980  1.0  0.1411
  C  C687  1  0.228000  0.506000  0.780180  1.0  0.018
  C  C688  1  0.418360  0.654600  0.340860  1.0  0.0816
  C  C689  1  0.366140  0.542800  0.636100  1.0  -0.1594
  C  C690  1  0.330010  0.000300  0.544860  1.0  -0.1333
  C  C691  1  0.302600  0.380000  0.726440  1.0  -0.1245
  C  C692  1  0.683490  0.286100  0.255560  1.0  -0.187
  C  C693  1  0.653310  0.319100  0.065410  1.0  -0.0648
  C  C694  1  0.704670  0.292700  0.186780  1.0  0.0795
  C  C695  1  0.391570  0.534600  0.290430  1.0  -0.1909
  C  C696  1  0.385090  0.184100  0.321440  1.0  0.1621
  C  C697  1  0.437560  0.404600  0.237340  1.0  0.1558
  C  C698  1  0.468320  0.323600  0.197040  1.0  -0.1258
  C  C699  1  0.418590  0.493100  0.294760  1.0  0.1574
  C  C700  1  0.471370  0.398000  0.169970  1.0  0.187
  C  C701  1  0.561150  0.598500  0.028630  1.0  0.0083
  C  C702  1  0.451720  0.327300  0.231000  1.0  -0.1696
  C  C703  1  0.482810  0.449800  0.093720  1.0  0.1206
  C  C704  1  0.568200  0.457600  0.032100  1.0  0.1589
  C  C705  1  0.591590  0.586100  0.042150  1.0  -0.1707
  C  C706  1  0.624300  0.449800  0.062430  1.0  0.1205
  C  C707  1  0.092280  0.833800  0.213060  1.0  0.1415
  C  C708  1  0.139800  0.807700  0.919280  1.0  -0.1617
  C  C709  1  0.991110  0.833800  0.369960  1.0  -0.1469
  C  C710  1  0.146450  0.071500  0.966920  1.0  -0.1671
  C  C711  1  0.102910  0.752100  0.145570  1.0  -0.1363
  C  C712  1  0.872800  0.867800  0.456610  1.0  -0.1928
  C  C713  1  0.082220  0.302200  0.958070  1.0  0.0186
  C  C714  1  0.085090  0.232700  0.929110  1.0  -0.1455
  C  C715  1  0.228800  0.926700  0.699160  1.0  0.056
  C  C716  1  0.126600  0.250400  0.991710  1.0  0.1545
  C  C717  1  0.057450  0.295900  0.118100  1.0  -0.1498
  C  C718  1  0.258710  0.005600  0.755270  1.0  0.0563
  C  C719  1  0.058680  0.978800  0.289210  1.0  -0.2008
  C  C720  1  0.745560  0.532500  0.501770  1.0  -0.1765
  C  C721  1  0.765080  0.762100  0.117900  1.0  0.1435
  C  C722  1  0.162370  0.438100  0.984180  1.0  -0.0002
  C  C723  1  0.776100  0.745700  0.429300  1.0  -0.2066
  C  C724  1  0.108730  0.116100  0.186930  1.0  -0.1616
  C  C725  1  0.180390  0.868600  0.806060  1.0  -0.1284
  C  C726  1  0.798570  0.691100  0.095320  1.0  0.036
  C  C727  1  0.152930  0.562400  0.187000  1.0  -0.1392
  C  C728  1  0.066380  0.360900  0.092090  1.0  -0.0053
  C  C729  1  0.763850  0.759000  0.228350  1.0  -0.1805
  C  C730  1  0.185530  0.763600  0.903820  1.0  -0.2063
  C  C731  1  0.823960  0.853900  0.395480  1.0  0.1088
  C  C732  1  0.983130  0.856900  0.411680  1.0  0.0143
  C  C733  1  0.103810  0.271900  0.117800  1.0  0.1325
  C  C734  1  0.041560  0.975600  0.322350  1.0  -0.1568
  C  C735  1  0.116200  0.568900  0.116400  1.0  0.1434
  C  C736  1  0.143520  0.559700  0.000870  1.0  0.1474
  C  C737  1  0.769990  0.591600  0.440530  1.0  0.0703
  C  C738  1  0.789130  0.729300  0.391300  1.0  0.1412
  C  C739  1  0.159740  0.662000  0.943910  1.0  0.1439
  C  C740  1  0.763470  0.434900  0.460550  1.0  0.1232
  C  C741  1  0.137800  0.726100  0.940380  1.0  -0.1535
  C  C742  1  0.126880  0.127700  0.932180  1.0  0.1167
  C  C743  1  0.091530  0.827200  0.162660  1.0  -0.1639
  C  C744  1  0.104620  0.765400  0.246010  1.0  -0.1902
  C  C745  1  0.852640  0.987200  0.400260  1.0  -0.1428
  C  C746  1  0.766560  0.676200  0.452800  1.0  -0.1292
  C  C747  1  0.054520  0.111900  0.154060  1.0  -0.1734
  C  C748  1  0.783000  0.574200  0.403690  1.0  -0.1912
  C  C749  1  0.153170  0.986200  0.897870  1.0  0.1435
  C  C750  1  0.155550  0.497700  0.155000  1.0  0.0237
  C  C751  1  0.115520  0.690900  0.229040  1.0  -0.1506
  C  C752  1  0.809000  0.694900  0.147470  1.0  -0.1071
  C  C753  1  0.054570  0.031900  0.177810  1.0  -0.1909
  C  C754  1  0.216170  0.951500  0.779860  1.0  0.0536
  C  C755  1  0.826340  0.939200  0.379610  1.0  -0.0872
  C  C756  1  0.767000  0.774300  0.279310  1.0  -0.1479
  C  C757  1  0.164110  0.827300  0.901240  1.0  0.1433
  C  C758  1  0.183370  0.681100  0.925030  1.0  -0.1552
  C  C759  1  0.120790  0.113500  0.881000  1.0  -0.1496
  C  C760  1  0.741200  0.448500  0.516990  1.0  0.0317
  C  C761  1  0.159640  0.000800  0.949420  1.0  -0.1424
  C  C762  1  0.792540  0.643300  0.379460  1.0  -0.1082
  C  C763  1  0.201140  0.999000  0.851030  1.0  -0.1387
  C  C764  1  0.819910  0.800700  0.294670  1.0  -0.1137
  C  C765  1  0.217910  0.011900  0.818260  1.0  -0.1127
  C  C766  1  0.182640  0.926300  0.845760  1.0  0.1665
  C  C767  1  0.789030  0.762700  0.212020  1.0  0.1404
  C  C768  1  0.272000  0.006000  0.719820  1.0  0.016
  C  C769  1  0.081640  0.154600  0.159140  1.0  0.0818
  C  C770  1  0.133860  0.042800  0.863900  1.0  -0.1592
  C  C771  1  0.169990  0.500300  0.955140  1.0  -0.1345
  C  C772  1  0.197400  0.880000  0.773560  1.0  -0.1249
  C  C773  1  0.816510  0.786100  0.244440  1.0  -0.1858
  C  C774  1  0.846690  0.819100  0.434590  1.0  -0.0651
  C  C775  1  0.795330  0.792700  0.313220  1.0  0.0793
  C  C776  1  0.108430  0.034600  0.209570  1.0  -0.1909
  C  C777  1  0.114910  0.684100  0.178560  1.0  0.1619
  C  C778  1  0.062440  0.904600  0.262660  1.0  0.1557
  C  C779  1  0.031680  0.823600  0.302960  1.0  -0.1239
  C  C780  1  0.081410  0.993100  0.205240  1.0  0.1575
  C  C781  1  0.028630  0.898000  0.330030  1.0  0.1866
  C  C782  1  0.938850  0.098500  0.471370  1.0  0.0102
  C  C783  1  0.048280  0.827300  0.269000  1.0  -0.1699
  C  C784  1  0.017190  0.949800  0.406280  1.0  0.1201
  C  C785  1  0.931800  0.957600  0.467900  1.0  0.1591
  C  C786  1  0.908410  0.086100  0.457850  1.0  -0.1707
  C  C787  1  0.875700  0.949800  0.437570  1.0  0.1206
  C  C788  1  0.592280  0.333800  0.213060  1.0  0.1415
  C  C789  1  0.639800  0.307700  0.919280  1.0  -0.1617
  C  C790  1  0.491110  0.333800  0.369960  1.0  -0.1469
  C  C791  1  0.646450  0.571500  0.966920  1.0  -0.1671
  C  C792  1  0.602910  0.252100  0.145570  1.0  -0.1363
  C  C793  1  0.372800  0.367800  0.456610  1.0  -0.1928
  C  C794  1  0.582220  0.802200  0.958070  1.0  0.0186
  C  C795  1  0.585090  0.732700  0.929110  1.0  -0.1455
  C  C796  1  0.728800  0.426700  0.699160  1.0  0.056
  C  C797  1  0.626600  0.750400  0.991710  1.0  0.1545
  C  C798  1  0.557450  0.795900  0.118100  1.0  -0.1498
  C  C799  1  0.758710  0.505600  0.755270  1.0  0.0563
  C  C800  1  0.558680  0.478800  0.289210  1.0  -0.2008
  C  C801  1  0.245560  0.032500  0.501770  1.0  -0.1765
  C  C802  1  0.265080  0.262100  0.117900  1.0  0.1435
  C  C803  1  0.662370  0.938100  0.984180  1.0  -0.0002
  C  C804  1  0.276100  0.245700  0.429300  1.0  -0.2066
  C  C805  1  0.608730  0.616100  0.186930  1.0  -0.1616
  C  C806  1  0.680390  0.368600  0.806060  1.0  -0.1284
  C  C807  1  0.298570  0.191100  0.095320  1.0  0.036
  C  C808  1  0.652930  0.062400  0.187000  1.0  -0.1392
  C  C809  1  0.566380  0.860900  0.092090  1.0  -0.0053
  C  C810  1  0.263850  0.259000  0.228350  1.0  -0.1805
  C  C811  1  0.685530  0.263600  0.903820  1.0  -0.2063
  C  C812  1  0.323960  0.353900  0.395480  1.0  0.1088
  C  C813  1  0.483130  0.356900  0.411680  1.0  0.0143
  C  C814  1  0.603810  0.771900  0.117800  1.0  0.1325
  C  C815  1  0.541560  0.475600  0.322350  1.0  -0.1568
  C  C816  1  0.616200  0.068900  0.116400  1.0  0.1434
  C  C817  1  0.643520  0.059700  0.000870  1.0  0.1474
  C  C818  1  0.269990  0.091600  0.440530  1.0  0.0703
  C  C819  1  0.289130  0.229300  0.391300  1.0  0.1412
  C  C820  1  0.659740  0.162000  0.943910  1.0  0.1439
  C  C821  1  0.263470  0.934900  0.460550  1.0  0.1232
  C  C822  1  0.637800  0.226100  0.940380  1.0  -0.1535
  C  C823  1  0.626880  0.627700  0.932180  1.0  0.1167
  C  C824  1  0.591530  0.327200  0.162660  1.0  -0.1639
  C  C825  1  0.604620  0.265400  0.246010  1.0  -0.1902
  C  C826  1  0.352640  0.487200  0.400260  1.0  -0.1428
  C  C827  1  0.266560  0.176200  0.452800  1.0  -0.1292
  C  C828  1  0.554520  0.611900  0.154060  1.0  -0.1734
  C  C829  1  0.283000  0.074200  0.403690  1.0  -0.1912
  C  C830  1  0.653170  0.486200  0.897870  1.0  0.1435
  C  C831  1  0.655550  0.997700  0.155000  1.0  0.0237
  C  C832  1  0.615520  0.190900  0.229040  1.0  -0.1506
  C  C833  1  0.309000  0.194900  0.147470  1.0  -0.1071
  C  C834  1  0.554570  0.531900  0.177810  1.0  -0.1909
  C  C835  1  0.716170  0.451500  0.779860  1.0  0.0536
  C  C836  1  0.326340  0.439200  0.379610  1.0  -0.0872
  C  C837  1  0.267000  0.274300  0.279310  1.0  -0.1479
  C  C838  1  0.664110  0.327300  0.901240  1.0  0.1433
  C  C839  1  0.683370  0.181100  0.925030  1.0  -0.1552
  C  C840  1  0.620790  0.613500  0.881000  1.0  -0.1496
  C  C841  1  0.241200  0.948500  0.516990  1.0  0.0317
  C  C842  1  0.659640  0.500800  0.949420  1.0  -0.1424
  C  C843  1  0.292540  0.143300  0.379460  1.0  -0.1082
  C  C844  1  0.701140  0.499000  0.851030  1.0  -0.1387
  C  C845  1  0.319910  0.300700  0.294670  1.0  -0.1137
  C  C846  1  0.717910  0.511900  0.818260  1.0  -0.1127
  C  C847  1  0.682640  0.426300  0.845760  1.0  0.1665
  C  C848  1  0.289030  0.262700  0.212020  1.0  0.1404
  C  C849  1  0.772000  0.506000  0.719820  1.0  0.016
  C  C850  1  0.581640  0.654600  0.159140  1.0  0.0818
  C  C851  1  0.633860  0.542800  0.863900  1.0  -0.1592
  C  C852  1  0.669990  0.000300  0.955140  1.0  -0.1345
  C  C853  1  0.697400  0.380000  0.773560  1.0  -0.1249
  C  C854  1  0.316510  0.286100  0.244440  1.0  -0.1858
  C  C855  1  0.346690  0.319100  0.434590  1.0  -0.0651
  C  C856  1  0.295330  0.292700  0.313220  1.0  0.0793
  C  C857  1  0.608430  0.534600  0.209570  1.0  -0.1909
  C  C858  1  0.614910  0.184100  0.178560  1.0  0.1619
  C  C859  1  0.562440  0.404600  0.262660  1.0  0.1557
  C  C860  1  0.531680  0.323600  0.302960  1.0  -0.1239
  C  C861  1  0.581410  0.493100  0.205240  1.0  0.1575
  C  C862  1  0.528630  0.398000  0.330030  1.0  0.1866
  C  C863  1  0.438850  0.598500  0.471370  1.0  0.0102
  C  C864  1  0.548280  0.327300  0.269000  1.0  -0.1699
  C  C865  1  0.517190  0.449800  0.406280  1.0  0.1201
  C  C866  1  0.431800  0.457600  0.467900  1.0  0.1591
  C  C867  1  0.408410  0.586100  0.457850  1.0  -0.1707
  C  C868  1  0.375700  0.449800  0.437570  1.0  0.1206
  C  C869  1  0.092280  0.166200  0.713060  1.0  0.142
  C  C870  1  0.139800  0.192300  0.419280  1.0  -0.161
  C  C871  1  0.991110  0.166200  0.869960  1.0  -0.1476
  C  C872  1  0.146450  0.928500  0.466920  1.0  -0.1669
  C  C873  1  0.102910  0.247900  0.645570  1.0  -0.1361
  C  C874  1  0.872800  0.132200  0.956610  1.0  -0.1935
  C  C875  1  0.082220  0.697800  0.458070  1.0  0.0159
  C  C876  1  0.085090  0.767300  0.429110  1.0  -0.1452
  C  C877  1  0.228800  0.073300  0.199160  1.0  0.0555
  C  C878  1  0.126600  0.749600  0.491710  1.0  0.1539
  C  C879  1  0.057450  0.704100  0.618100  1.0  -0.1494
  C  C880  1  0.258710  0.994400  0.255270  1.0  0.0575
  C  C881  1  0.058680  0.021200  0.789210  1.0  -0.2001
  C  C882  1  0.745560  0.467500  0.001770  1.0  -0.1769
  C  C883  1  0.765080  0.237900  0.617900  1.0  0.1433
  C  C884  1  0.162370  0.561900  0.484180  1.0  -0.0011
  C  C885  1  0.776100  0.254300  0.929300  1.0  -0.2063
  C  C886  1  0.108730  0.883900  0.686930  1.0  -0.162
  C  C887  1  0.180390  0.131400  0.306060  1.0  -0.13
  C  C888  1  0.798570  0.308900  0.595320  1.0  0.0357
  C  C889  1  0.152930  0.437600  0.687000  1.0  -0.1409
  C  C890  1  0.066380  0.639100  0.592090  1.0  -0.0059
  C  C891  1  0.763850  0.241000  0.728350  1.0  -0.1804
  C  C892  1  0.185530  0.236400  0.403820  1.0  -0.2073
  C  C893  1  0.823960  0.146100  0.895480  1.0  0.1092
  C  C894  1  0.983130  0.143100  0.911680  1.0  0.0138
  C  C895  1  0.103810  0.728100  0.617800  1.0  0.1321
  C  C896  1  0.041560  0.024400  0.822350  1.0  -0.1564
  C  C897  1  0.116200  0.431100  0.616400  1.0  0.1435
  C  C898  1  0.143520  0.440300  0.500870  1.0  0.1477
  C  C899  1  0.769990  0.408400  0.940530  1.0  0.0705
  C  C900  1  0.789130  0.270700  0.891300  1.0  0.1409
  C  C901  1  0.159740  0.338000  0.443910  1.0  0.1445
  C  C902  1  0.763470  0.565100  0.960550  1.0  0.1235
  C  C903  1  0.137800  0.273900  0.440380  1.0  -0.1532
  C  C904  1  0.126880  0.872300  0.432180  1.0  0.1167
  C  C905  1  0.091530  0.172800  0.662660  1.0  -0.1636
  C  C906  1  0.104620  0.234600  0.746010  1.0  -0.1904
  C  C907  1  0.852640  0.012800  0.900260  1.0  -0.1439
  C  C908  1  0.766560  0.323800  0.952800  1.0  -0.1288
  C  C909  1  0.054520  0.888100  0.654060  1.0  -0.1731
  C  C910  1  0.783000  0.425800  0.903690  1.0  -0.1915
  C  C911  1  0.153170  0.013800  0.397870  1.0  0.1438
  C  C912  1  0.155550  0.502300  0.655000  1.0  0.0242
  C  C913  1  0.115520  0.309100  0.729040  1.0  -0.1496
  C  C914  1  0.809000  0.305100  0.647470  1.0  -0.1073
  C  C915  1  0.054570  0.968100  0.677810  1.0  -0.1913
  C  C916  1  0.216170  0.048500  0.279860  1.0  0.0533
  C  C917  1  0.826340  0.060800  0.879610  1.0  -0.0862
  C  C918  1  0.767000  0.225700  0.779310  1.0  -0.148
  C  C919  1  0.164110  0.172700  0.401240  1.0  0.1443
  C  C920  1  0.183370  0.318900  0.425030  1.0  -0.1535
  C  C921  1  0.120790  0.886500  0.381000  1.0  -0.1492
  C  C922  1  0.741200  0.551500  0.016990  1.0  0.0316
  C  C923  1  0.159640  0.999200  0.449420  1.0  -0.1423
  C  C924  1  0.792540  0.356700  0.879460  1.0  -0.108
  C  C925  1  0.201140  0.001000  0.351030  1.0  -0.1395
  C  C926  1  0.819910  0.199300  0.794670  1.0  -0.1137
  C  C927  1  0.217910  0.988100  0.318260  1.0  -0.1128
  C  C928  1  0.182640  0.073700  0.345760  1.0  0.1664
  C  C929  1  0.789030  0.237300  0.712020  1.0  0.1398
  C  C930  1  0.272000  0.994000  0.219820  1.0  0.0151
  C  C931  1  0.081640  0.845400  0.659140  1.0  0.0823
  C  C932  1  0.133860  0.957200  0.363900  1.0  -0.1589
  C  C933  1  0.169990  0.499700  0.455140  1.0  -0.1352
  C  C934  1  0.197400  0.120000  0.273560  1.0  -0.1248
  C  C935  1  0.816510  0.213900  0.744440  1.0  -0.1866
  C  C936  1  0.846690  0.180900  0.934590  1.0  -0.0656
  C  C937  1  0.795330  0.207300  0.813220  1.0  0.0795
  C  C938  1  0.108430  0.965400  0.709570  1.0  -0.1916
  C  C939  1  0.114910  0.315900  0.678560  1.0  0.1619
  C  C940  1  0.062440  0.095400  0.762660  1.0  0.1556
  C  C941  1  0.031680  0.176400  0.802960  1.0  -0.1267
  C  C942  1  0.081410  0.006900  0.705240  1.0  0.158
  C  C943  1  0.028630  0.102000  0.830030  1.0  0.1866
  C  C944  1  0.938850  0.901500  0.971370  1.0  0.0094
  C  C945  1  0.048280  0.172700  0.769000  1.0  -0.1711
  C  C946  1  0.017190  0.050200  0.906280  1.0  0.1203
  C  C947  1  0.931800  0.042400  0.967900  1.0  0.1603
  C  C948  1  0.908410  0.913900  0.957850  1.0  -0.1707
  C  C949  1  0.875700  0.050200  0.937570  1.0  0.1207
  C  C950  1  0.592280  0.666200  0.713060  1.0  0.142
  C  C951  1  0.639800  0.692300  0.419280  1.0  -0.161
  C  C952  1  0.491110  0.666200  0.869960  1.0  -0.1476
  C  C953  1  0.646450  0.428500  0.466920  1.0  -0.1669
  C  C954  1  0.602910  0.747900  0.645570  1.0  -0.1361
  C  C955  1  0.372800  0.632200  0.956610  1.0  -0.1935
  C  C956  1  0.582220  0.197800  0.458070  1.0  0.0159
  C  C957  1  0.585090  0.267300  0.429110  1.0  -0.1452
  C  C958  1  0.728800  0.573300  0.199160  1.0  0.0555
  C  C959  1  0.626600  0.249600  0.491710  1.0  0.1539
  C  C960  1  0.557450  0.204100  0.618100  1.0  -0.1494
  C  C961  1  0.758710  0.494400  0.255270  1.0  0.0575
  C  C962  1  0.558680  0.521200  0.789210  1.0  -0.2001
  C  C963  1  0.245560  0.967500  0.001770  1.0  -0.1769
  C  C964  1  0.265080  0.737900  0.617900  1.0  0.1433
  C  C965  1  0.662370  0.061900  0.484180  1.0  -0.0011
  C  C966  1  0.276100  0.754300  0.929300  1.0  -0.2063
  C  C967  1  0.608730  0.383900  0.686930  1.0  -0.162
  C  C968  1  0.680390  0.631400  0.306060  1.0  -0.13
  C  C969  1  0.298570  0.808900  0.595320  1.0  0.0357
  C  C970  1  0.652930  0.937600  0.687000  1.0  -0.1409
  C  C971  1  0.566380  0.139100  0.592090  1.0  -0.0059
  C  C972  1  0.263850  0.741000  0.728350  1.0  -0.1804
  C  C973  1  0.685530  0.736400  0.403820  1.0  -0.2073
  C  C974  1  0.323960  0.646100  0.895480  1.0  0.1092
  C  C975  1  0.483130  0.643100  0.911680  1.0  0.0138
  C  C976  1  0.603810  0.228100  0.617800  1.0  0.1321
  C  C977  1  0.541560  0.524400  0.822350  1.0  -0.1564
  C  C978  1  0.616200  0.931100  0.616400  1.0  0.1435
  C  C979  1  0.643520  0.940300  0.500870  1.0  0.1477
  C  C980  1  0.269990  0.908400  0.940530  1.0  0.0705
  C  C981  1  0.289130  0.770700  0.891300  1.0  0.1409
  C  C982  1  0.659740  0.838000  0.443910  1.0  0.1445
  C  C983  1  0.263470  0.065100  0.960550  1.0  0.1235
  C  C984  1  0.637800  0.773900  0.440380  1.0  -0.1532
  C  C985  1  0.626880  0.372300  0.432180  1.0  0.1167
  C  C986  1  0.591530  0.672800  0.662660  1.0  -0.1636
  C  C987  1  0.604620  0.734600  0.746010  1.0  -0.1904
  C  C988  1  0.352640  0.512800  0.900260  1.0  -0.1439
  C  C989  1  0.266560  0.823800  0.952800  1.0  -0.1288
  C  C990  1  0.554520  0.388100  0.654060  1.0  -0.1731
  C  C991  1  0.283000  0.925800  0.903690  1.0  -0.1915
  C  C992  1  0.653170  0.513800  0.397870  1.0  0.1438
  C  C993  1  0.655550  0.002300  0.655000  1.0  0.0242
  C  C994  1  0.615520  0.809100  0.729040  1.0  -0.1496
  C  C995  1  0.309000  0.805100  0.647470  1.0  -0.1073
  C  C996  1  0.554570  0.468100  0.677810  1.0  -0.1913
  C  C997  1  0.716170  0.548500  0.279860  1.0  0.0533
  C  C998  1  0.326340  0.560800  0.879610  1.0  -0.0862
  C  C999  1  0.267000  0.725700  0.779310  1.0  -0.148
  C  C1000  1  0.664110  0.672700  0.401240  1.0  0.1443
  C  C1001  1  0.683370  0.818900  0.425030  1.0  -0.1535
  C  C1002  1  0.620790  0.386500  0.381000  1.0  -0.1492
  C  C1003  1  0.241200  0.051500  0.016990  1.0  0.0316
  C  C1004  1  0.659640  0.499200  0.449420  1.0  -0.1423
  C  C1005  1  0.292540  0.856700  0.879460  1.0  -0.108
  C  C1006  1  0.701140  0.501000  0.351030  1.0  -0.1395
  C  C1007  1  0.319910  0.699300  0.794670  1.0  -0.1137
  C  C1008  1  0.717910  0.488100  0.318260  1.0  -0.1128
  C  C1009  1  0.682640  0.573700  0.345760  1.0  0.1664
  C  C1010  1  0.289030  0.737300  0.712020  1.0  0.1398
  C  C1011  1  0.772000  0.494000  0.219820  1.0  0.0151
  C  C1012  1  0.581640  0.345400  0.659140  1.0  0.0823
  C  C1013  1  0.633860  0.457200  0.363900  1.0  -0.1589
  C  C1014  1  0.669990  0.999700  0.455140  1.0  -0.1352
  C  C1015  1  0.697400  0.620000  0.273560  1.0  -0.1248
  C  C1016  1  0.316510  0.713900  0.744440  1.0  -0.1866
  C  C1017  1  0.346690  0.680900  0.934590  1.0  -0.0656
  C  C1018  1  0.295330  0.707300  0.813220  1.0  0.0795
  C  C1019  1  0.608430  0.465400  0.709570  1.0  -0.1916
  C  C1020  1  0.614910  0.815900  0.678560  1.0  0.1619
  C  C1021  1  0.562440  0.595400  0.762660  1.0  0.1556
  C  C1022  1  0.531680  0.676400  0.802960  1.0  -0.1267
  C  C1023  1  0.581410  0.506900  0.705240  1.0  0.158
  C  C1024  1  0.528630  0.602000  0.830030  1.0  0.1866
  C  C1025  1  0.438850  0.401500  0.971370  1.0  0.0094
  C  C1026  1  0.548280  0.672700  0.769000  1.0  -0.1711
  C  C1027  1  0.517190  0.550200  0.906280  1.0  0.1203
  C  C1028  1  0.431800  0.542400  0.967900  1.0  0.1603
  C  C1029  1  0.408410  0.413900  0.957850  1.0  -0.1707
  C  C1030  1  0.375700  0.550200  0.937570  1.0  0.1207
  C  C1031  1  0.907720  0.166200  0.786940  1.0  0.1417
  C  C1032  1  0.860200  0.192300  0.080720  1.0  -0.1586
  C  C1033  1  0.008890  0.166200  0.630040  1.0  -0.1471
  C  C1034  1  0.853550  0.928500  0.033080  1.0  -0.1683
  C  C1035  1  0.897090  0.247900  0.854430  1.0  -0.1344
  C  C1036  1  0.127200  0.132200  0.543390  1.0  -0.1939
  C  C1037  1  0.917780  0.697800  0.041930  1.0  0.0168
  C  C1038  1  0.914910  0.767300  0.070890  1.0  -0.1453
  C  C1039  1  0.771200  0.073300  0.300840  1.0  0.0555
  C  C1040  1  0.873400  0.749600  0.008290  1.0  0.1555
  C  C1041  1  0.942550  0.704100  0.881900  1.0  -0.1489
  C  C1042  1  0.741290  0.994400  0.244730  1.0  0.0566
  C  C1043  1  0.941320  0.021200  0.710790  1.0  -0.1991
  C  C1044  1  0.254440  0.467500  0.498230  1.0  -0.1761
  C  C1045  1  0.234920  0.237900  0.882100  1.0  0.1436
  C  C1046  1  0.837630  0.561900  0.015820  1.0  0.0004
  C  C1047  1  0.223900  0.254300  0.570700  1.0  -0.2055
  C  C1048  1  0.891270  0.883900  0.813070  1.0  -0.1619
  C  C1049  1  0.819610  0.131400  0.193940  1.0  -0.1323
  C  C1050  1  0.201430  0.308900  0.904680  1.0  0.0368
  C  C1051  1  0.847070  0.437600  0.813000  1.0  -0.1423
  C  C1052  1  0.933620  0.639100  0.907910  1.0  -0.0042
  C  C1053  1  0.236150  0.241000  0.771650  1.0  -0.1807
  C  C1054  1  0.814470  0.236400  0.096180  1.0  -0.2075
  C  C1055  1  0.176040  0.146100  0.604520  1.0  0.1106
  C  C1056  1  0.016870  0.143100  0.588320  1.0  0.0125
  C  C1057  1  0.896190  0.728100  0.882200  1.0  0.1325
  C  C1058  1  0.958440  0.024400  0.677650  1.0  -0.1561
  C  C1059  1  0.883800  0.431100  0.883600  1.0  0.1436
  C  C1060  1  0.856480  0.440300  0.999130  1.0  0.1478
  C  C1061  1  0.230010  0.408400  0.559470  1.0  0.0705
  C  C1062  1  0.210870  0.270700  0.608700  1.0  0.1411
  C  C1063  1  0.840260  0.338000  0.056090  1.0  0.145
  C  C1064  1  0.236530  0.565100  0.539450  1.0  0.1241
  C  C1065  1  0.862200  0.273900  0.059620  1.0  -0.1531
  C  C1066  1  0.873120  0.872300  0.067820  1.0  0.1166
  C  C1067  1  0.908470  0.172800  0.837340  1.0  -0.1643
  C  C1068  1  0.895380  0.234600  0.753990  1.0  -0.1905
  C  C1069  1  0.147360  0.012800  0.599740  1.0  -0.1438
  C  C1070  1  0.233440  0.323800  0.547200  1.0  -0.1303
  C  C1071  1  0.945480  0.888100  0.845940  1.0  -0.1743
  C  C1072  1  0.217000  0.425800  0.596310  1.0  -0.1922
  C  C1073  1  0.846830  0.013800  0.102130  1.0  0.1444
  C  C1074  1  0.844450  0.502300  0.845000  1.0  0.0237
  C  C1075  1  0.884480  0.309100  0.770960  1.0  -0.1506
  C  C1076  1  0.191000  0.305100  0.852530  1.0  -0.1071
  C  C1077  1  0.945430  0.968100  0.822190  1.0  -0.1902
  C  C1078  1  0.783830  0.048500  0.220140  1.0  0.0537
  C  C1079  1  0.173660  0.060800  0.620390  1.0  -0.0864
  C  C1080  1  0.233000  0.225700  0.720690  1.0  -0.148
  C  C1081  1  0.835890  0.172700  0.098760  1.0  0.1456
  C  C1082  1  0.816630  0.318900  0.074970  1.0  -0.1543
  C  C1083  1  0.879210  0.886500  0.119000  1.0  -0.1488
  C  C1084  1  0.258800  0.551500  0.483010  1.0  0.0309
  C  C1085  1  0.840360  0.999200  0.050580  1.0  -0.1413
  C  C1086  1  0.207460  0.356700  0.620540  1.0  -0.1082
  C  C1087  1  0.798860  0.001000  0.148970  1.0  -0.1391
  C  C1088  1  0.180090  0.199300  0.705330  1.0  -0.1131
  C  C1089  1  0.782090  0.988100  0.181740  1.0  -0.1121
  C  C1090  1  0.817360  0.073700  0.154240  1.0  0.1672
  C  C1091  1  0.210970  0.237300  0.787980  1.0  0.1406
  C  C1092  1  0.728000  0.994000  0.280180  1.0  0.0183
  C  C1093  1  0.918360  0.845400  0.840860  1.0  0.0807
  C  C1094  1  0.866140  0.957200  0.136100  1.0  -0.1589
  C  C1095  1  0.830010  0.499700  0.044860  1.0  -0.1337
  C  C1096  1  0.802600  0.120000  0.226440  1.0  -0.1252
  C  C1097  1  0.183490  0.213900  0.755560  1.0  -0.1875
  C  C1098  1  0.153310  0.180900  0.565410  1.0  -0.0654
  C  C1099  1  0.204670  0.207300  0.686780  1.0  0.0797
  C  C1100  1  0.891570  0.965400  0.790430  1.0  -0.1913
  C  C1101  1  0.885090  0.315900  0.821440  1.0  0.1616
  C  C1102  1  0.937560  0.095400  0.737340  1.0  0.1555
  C  C1103  1  0.968320  0.176400  0.697040  1.0  -0.1272
  C  C1104  1  0.918590  0.006900  0.794760  1.0  0.1582
  C  C1105  1  0.971370  0.102000  0.669970  1.0  0.1871
  C  C1106  1  0.061150  0.901500  0.528630  1.0  0.0076
  C  C1107  1  0.951720  0.172700  0.731000  1.0  -0.1704
  C  C1108  1  0.982810  0.050200  0.593720  1.0  0.1211
  C  C1109  1  0.068200  0.042400  0.532100  1.0  0.1598
  C  C1110  1  0.091590  0.913900  0.542150  1.0  -0.1709
  C  C1111  1  0.124300  0.050200  0.562430  1.0  0.1205
  C  C1112  1  0.407720  0.666200  0.786940  1.0  0.1417
  C  C1113  1  0.360200  0.692300  0.080720  1.0  -0.1586
  C  C1114  1  0.508890  0.666200  0.630040  1.0  -0.1471
  C  C1115  1  0.353550  0.428500  0.033080  1.0  -0.1683
  C  C1116  1  0.397090  0.747900  0.854430  1.0  -0.1344
  C  C1117  1  0.627200  0.632200  0.543390  1.0  -0.1939
  C  C1118  1  0.417780  0.197800  0.041930  1.0  0.0168
  C  C1119  1  0.414910  0.267300  0.070890  1.0  -0.1453
  C  C1120  1  0.271200  0.573300  0.300840  1.0  0.0555
  C  C1121  1  0.373400  0.249600  0.008290  1.0  0.1555
  C  C1122  1  0.442550  0.204100  0.881900  1.0  -0.1489
  C  C1123  1  0.241290  0.494400  0.244730  1.0  0.0566
  C  C1124  1  0.441320  0.521200  0.710790  1.0  -0.1991
  C  C1125  1  0.754440  0.967500  0.498230  1.0  -0.1761
  C  C1126  1  0.734920  0.737900  0.882100  1.0  0.1436
  C  C1127  1  0.337630  0.061900  0.015820  1.0  0.0004
  C  C1128  1  0.723900  0.754300  0.570700  1.0  -0.2055
  C  C1129  1  0.391270  0.383900  0.813070  1.0  -0.1619
  C  C1130  1  0.319610  0.631400  0.193940  1.0  -0.1323
  C  C1131  1  0.701430  0.808900  0.904680  1.0  0.0368
  C  C1132  1  0.347070  0.937600  0.813000  1.0  -0.1423
  C  C1133  1  0.433620  0.139100  0.907910  1.0  -0.0042
  C  C1134  1  0.736150  0.741000  0.771650  1.0  -0.1807
  C  C1135  1  0.314470  0.736400  0.096180  1.0  -0.2075
  C  C1136  1  0.676040  0.646100  0.604520  1.0  0.1106
  C  C1137  1  0.516870  0.643100  0.588320  1.0  0.0125
  C  C1138  1  0.396190  0.228100  0.882200  1.0  0.1325
  C  C1139  1  0.458440  0.524400  0.677650  1.0  -0.1561
  C  C1140  1  0.383800  0.931100  0.883600  1.0  0.1436
  C  C1141  1  0.356480  0.940300  0.999130  1.0  0.1478
  C  C1142  1  0.730010  0.908400  0.559470  1.0  0.0705
  C  C1143  1  0.710870  0.770700  0.608700  1.0  0.1411
  C  C1144  1  0.340260  0.838000  0.056090  1.0  0.145
  C  C1145  1  0.736530  0.065100  0.539450  1.0  0.1241
  C  C1146  1  0.362200  0.773900  0.059620  1.0  -0.1531
  C  C1147  1  0.373120  0.372300  0.067820  1.0  0.1166
  C  C1148  1  0.408470  0.672800  0.837340  1.0  -0.1643
  C  C1149  1  0.395380  0.734600  0.753990  1.0  -0.1905
  C  C1150  1  0.647360  0.512800  0.599740  1.0  -0.1438
  C  C1151  1  0.733440  0.823800  0.547200  1.0  -0.1303
  C  C1152  1  0.445480  0.388100  0.845940  1.0  -0.1743
  C  C1153  1  0.717000  0.925800  0.596310  1.0  -0.1922
  C  C1154  1  0.346830  0.513800  0.102130  1.0  0.1444
  C  C1155  1  0.344450  0.002300  0.845000  1.0  0.0237
  C  C1156  1  0.384480  0.809100  0.770960  1.0  -0.1506
  C  C1157  1  0.691000  0.805100  0.852530  1.0  -0.1071
  C  C1158  1  0.445430  0.468100  0.822190  1.0  -0.1902
  C  C1159  1  0.283830  0.548500  0.220140  1.0  0.0537
  C  C1160  1  0.673660  0.560800  0.620390  1.0  -0.0864
  C  C1161  1  0.733000  0.725700  0.720690  1.0  -0.148
  C  C1162  1  0.335890  0.672700  0.098760  1.0  0.1456
  C  C1163  1  0.316630  0.818900  0.074970  1.0  -0.1543
  C  C1164  1  0.379210  0.386500  0.119000  1.0  -0.1488
  C  C1165  1  0.758800  0.051500  0.483010  1.0  0.0309
  C  C1166  1  0.340360  0.499200  0.050580  1.0  -0.1413
  C  C1167  1  0.707460  0.856700  0.620540  1.0  -0.1082
  C  C1168  1  0.298860  0.501000  0.148970  1.0  -0.1391
  C  C1169  1  0.680090  0.699300  0.705330  1.0  -0.1131
  C  C1170  1  0.282090  0.488100  0.181740  1.0  -0.1121
  C  C1171  1  0.317360  0.573700  0.154240  1.0  0.1672
  C  C1172  1  0.710970  0.737300  0.787980  1.0  0.1406
  C  C1173  1  0.228000  0.494000  0.280180  1.0  0.0183
  C  C1174  1  0.418360  0.345400  0.840860  1.0  0.0807
  C  C1175  1  0.366140  0.457200  0.136100  1.0  -0.1589
  C  C1176  1  0.330010  0.999700  0.044860  1.0  -0.1337
  C  C1177  1  0.302600  0.620000  0.226440  1.0  -0.1252
  C  C1178  1  0.683490  0.713900  0.755560  1.0  -0.1875
  C  C1179  1  0.653310  0.680900  0.565410  1.0  -0.0654
  C  C1180  1  0.704670  0.707300  0.686780  1.0  0.0797
  C  C1181  1  0.391570  0.465400  0.790430  1.0  -0.1913
  C  C1182  1  0.385090  0.815900  0.821440  1.0  0.1616
  C  C1183  1  0.437560  0.595400  0.737340  1.0  0.1555
  C  C1184  1  0.468320  0.676400  0.697040  1.0  -0.1272
  C  C1185  1  0.418590  0.506900  0.794760  1.0  0.1582
  C  C1186  1  0.471370  0.602000  0.669970  1.0  0.1871
  C  C1187  1  0.561150  0.401500  0.528630  1.0  0.0076
  C  C1188  1  0.451720  0.672700  0.731000  1.0  -0.1704
  C  C1189  1  0.482810  0.550200  0.593720  1.0  0.1211
  C  C1190  1  0.568200  0.542400  0.532100  1.0  0.1598
  C  C1191  1  0.591590  0.413900  0.542150  1.0  -0.1709
  C  C1192  1  0.624300  0.550200  0.562430  1.0  0.1205
  N  N1193  1  0.919380  0.910100  0.269920  1.0  -0.1865
  N  N1194  1  0.841910  0.578200  0.533870  1.0  0.0264
  N  N1195  1  0.201690  0.803000  0.133280  1.0  -0.2361
  N  N1196  1  0.240130  0.522400  0.034030  1.0  0.0478
  N  N1197  1  0.987080  0.893700  0.133150  1.0  0.0304
  N  N1198  1  0.918490  0.238200  0.365490  1.0  -0.0214
  N  N1199  1  0.891380  0.313600  0.502350  1.0  -0.3359
  N  N1200  1  0.872640  0.608400  0.338330  1.0  0.0322
  N  N1201  1  0.046770  0.017600  0.022700  1.0  -0.3675
  N  N1202  1  0.228530  0.733400  0.423010  1.0  -0.4002
  N  N1203  1  0.000870  0.930200  0.065510  1.0  -0.4243
  N  N1204  1  0.854490  0.474500  0.487570  1.0  -0.3945
  N  N1205  1  0.867570  0.501800  0.389320  1.0  -0.3527
  N  N1206  1  0.247710  0.387500  0.008990  1.0  -0.3856
  N  N1207  1  0.904710  0.345000  0.408440  1.0  -0.3776
  N  N1208  1  0.764800  0.964300  0.753500  1.0  0.0447
  N  N1209  1  0.747020  0.955900  0.817800  1.0  -0.3263
  N  N1210  1  0.212620  0.741100  0.339000  1.0  0.0366
  N  N1211  1  0.834180  0.911800  0.619850  1.0  -0.1876
  N  N1212  1  0.886860  0.199300  0.550010  1.0  0.027
  N  N1213  1  0.095950  0.995400  0.044500  1.0  -0.0093
  N  N1214  1  0.419380  0.410100  0.269920  1.0  -0.1865
  N  N1215  1  0.341910  0.078200  0.533870  1.0  0.0264
  N  N1216  1  0.701690  0.303000  0.133280  1.0  -0.2361
  N  N1217  1  0.740130  0.022400  0.034030  1.0  0.0478
  N  N1218  1  0.487080  0.393700  0.133150  1.0  0.0304
  N  N1219  1  0.418490  0.738200  0.365490  1.0  -0.0214
  N  N1220  1  0.391380  0.813600  0.502350  1.0  -0.3359
  N  N1221  1  0.372640  0.108400  0.338330  1.0  0.0322
  N  N1222  1  0.546770  0.517600  0.022700  1.0  -0.3675
  N  N1223  1  0.728530  0.233400  0.423010  1.0  -0.4002
  N  N1224  1  0.500870  0.430200  0.065510  1.0  -0.4243
  N  N1225  1  0.354490  0.974500  0.487570  1.0  -0.3945
  N  N1226  1  0.367570  0.001800  0.389320  1.0  -0.3527
  N  N1227  1  0.747710  0.887500  0.008990  1.0  -0.3856
  N  N1228  1  0.404710  0.845000  0.408440  1.0  -0.3776
  N  N1229  1  0.264800  0.464300  0.753500  1.0  0.0447
  N  N1230  1  0.247020  0.455900  0.817800  1.0  -0.3263
  N  N1231  1  0.712620  0.241100  0.339000  1.0  0.0366
  N  N1232  1  0.334180  0.411800  0.619850  1.0  -0.1876
  N  N1233  1  0.386860  0.699300  0.550010  1.0  0.027
  N  N1234  1  0.595950  0.495400  0.044500  1.0  -0.0093
  N  N1235  1  0.080620  0.910100  0.230080  1.0  -0.1868
  N  N1236  1  0.158090  0.578200  0.966130  1.0  0.0281
  N  N1237  1  0.798310  0.803000  0.366720  1.0  -0.237
  N  N1238  1  0.759870  0.522400  0.465970  1.0  0.0477
  N  N1239  1  0.012920  0.893700  0.366850  1.0  0.0307
  N  N1240  1  0.081510  0.238200  0.134510  1.0  -0.0206
  N  N1241  1  0.108620  0.313600  0.997650  1.0  -0.3361
  N  N1242  1  0.127360  0.608400  0.161670  1.0  0.0331
  N  N1243  1  0.953230  0.017600  0.477300  1.0  -0.3672
  N  N1244  1  0.771470  0.733400  0.076990  1.0  -0.4025
  N  N1245  1  0.999130  0.930200  0.434490  1.0  -0.4245
  N  N1246  1  0.145510  0.474500  0.012430  1.0  -0.3941
  N  N1247  1  0.132430  0.501800  0.110680  1.0  -0.3521
  N  N1248  1  0.752290  0.387500  0.491010  1.0  -0.3852
  N  N1249  1  0.095290  0.345000  0.091560  1.0  -0.3758
  N  N1250  1  0.235200  0.964300  0.746500  1.0  0.0461
  N  N1251  1  0.252980  0.955900  0.682200  1.0  -0.3231
  N  N1252  1  0.787380  0.741100  0.161000  1.0  0.0361
  N  N1253  1  0.165820  0.911800  0.880150  1.0  -0.1867
  N  N1254  1  0.113140  0.199300  0.949990  1.0  0.0271
  N  N1255  1  0.904050  0.995400  0.455500  1.0  -0.0099
  N  N1256  1  0.580620  0.410100  0.230080  1.0  -0.1868
  N  N1257  1  0.658090  0.078200  0.966130  1.0  0.0281
  N  N1258  1  0.298310  0.303000  0.366720  1.0  -0.237
  N  N1259  1  0.259870  0.022400  0.465970  1.0  0.0477
  N  N1260  1  0.512920  0.393700  0.366850  1.0  0.0307
  N  N1261  1  0.581510  0.738200  0.134510  1.0  -0.0206
  N  N1262  1  0.608620  0.813600  0.997650  1.0  -0.3361
  N  N1263  1  0.627360  0.108400  0.161670  1.0  0.0331
  N  N1264  1  0.453230  0.517600  0.477300  1.0  -0.3672
  N  N1265  1  0.271470  0.233400  0.076990  1.0  -0.4025
  N  N1266  1  0.499130  0.430200  0.434490  1.0  -0.4245
  N  N1267  1  0.645510  0.974500  0.012430  1.0  -0.3941
  N  N1268  1  0.632430  0.001800  0.110680  1.0  -0.3521
  N  N1269  1  0.252290  0.887500  0.491010  1.0  -0.3852
  N  N1270  1  0.595290  0.845000  0.091560  1.0  -0.3758
  N  N1271  1  0.735200  0.464300  0.746500  1.0  0.0461
  N  N1272  1  0.752980  0.455900  0.682200  1.0  -0.3231
  N  N1273  1  0.287380  0.241100  0.161000  1.0  0.0361
  N  N1274  1  0.665820  0.411800  0.880150  1.0  -0.1867
  N  N1275  1  0.613140  0.699300  0.949990  1.0  0.0271
  N  N1276  1  0.404050  0.495400  0.455500  1.0  -0.0099
  N  N1277  1  0.080620  0.089900  0.730080  1.0  -0.1869
  N  N1278  1  0.158090  0.421800  0.466130  1.0  0.0274
  N  N1279  1  0.798310  0.197000  0.866720  1.0  -0.2378
  N  N1280  1  0.759870  0.477600  0.965970  1.0  0.0483
  N  N1281  1  0.012920  0.106300  0.866850  1.0  0.0305
  N  N1282  1  0.081510  0.761800  0.634510  1.0  -0.0207
  N  N1283  1  0.108620  0.686400  0.497650  1.0  -0.3362
  N  N1284  1  0.127360  0.391600  0.661670  1.0  0.0335
  N  N1285  1  0.953230  0.982400  0.977300  1.0  -0.3678
  N  N1286  1  0.771470  0.266600  0.576990  1.0  -0.4025
  N  N1287  1  0.999130  0.069800  0.934490  1.0  -0.4248
  N  N1288  1  0.145510  0.525500  0.512430  1.0  -0.3939
  N  N1289  1  0.132430  0.498200  0.610680  1.0  -0.3534
  N  N1290  1  0.752290  0.612500  0.991010  1.0  -0.3853
  N  N1291  1  0.095290  0.655000  0.591560  1.0  -0.3758
  N  N1292  1  0.235200  0.035700  0.246500  1.0  0.0465
  N  N1293  1  0.252980  0.044100  0.182200  1.0  -0.3229
  N  N1294  1  0.787380  0.258900  0.661000  1.0  0.0359
  N  N1295  1  0.165820  0.088200  0.380150  1.0  -0.1866
  N  N1296  1  0.113140  0.800700  0.449990  1.0  0.0274
  N  N1297  1  0.904050  0.004600  0.955500  1.0  -0.0094
  N  N1298  1  0.580620  0.589900  0.730080  1.0  -0.1869
  N  N1299  1  0.658090  0.921800  0.466130  1.0  0.0274
  N  N1300  1  0.298310  0.697000  0.866720  1.0  -0.2378
  N  N1301  1  0.259870  0.977600  0.965970  1.0  0.0483
  N  N1302  1  0.512920  0.606300  0.866850  1.0  0.0305
  N  N1303  1  0.581510  0.261800  0.634510  1.0  -0.0207
  N  N1304  1  0.608620  0.186400  0.497650  1.0  -0.3362
  N  N1305  1  0.627360  0.891600  0.661670  1.0  0.0335
  N  N1306  1  0.453230  0.482400  0.977300  1.0  -0.3678
  N  N1307  1  0.271470  0.766600  0.576990  1.0  -0.4025
  N  N1308  1  0.499130  0.569800  0.934490  1.0  -0.4248
  N  N1309  1  0.645510  0.025500  0.512430  1.0  -0.3939
  N  N1310  1  0.632430  0.998200  0.610680  1.0  -0.3534
  N  N1311  1  0.252290  0.112500  0.991010  1.0  -0.3853
  N  N1312  1  0.595290  0.155000  0.591560  1.0  -0.3758
  N  N1313  1  0.735200  0.535700  0.246500  1.0  0.0465
  N  N1314  1  0.752980  0.544100  0.182200  1.0  -0.3229
  N  N1315  1  0.287380  0.758900  0.661000  1.0  0.0359
  N  N1316  1  0.665820  0.588200  0.380150  1.0  -0.1866
  N  N1317  1  0.613140  0.300700  0.449990  1.0  0.0274
  N  N1318  1  0.404050  0.504600  0.955500  1.0  -0.0094
  N  N1319  1  0.919380  0.089900  0.769920  1.0  -0.1865
  N  N1320  1  0.841910  0.421800  0.033870  1.0  0.0268
  N  N1321  1  0.201690  0.197000  0.633280  1.0  -0.2371
  N  N1322  1  0.240130  0.477600  0.534030  1.0  0.048
  N  N1323  1  0.987080  0.106300  0.633150  1.0  0.0302
  N  N1324  1  0.918490  0.761800  0.865490  1.0  -0.02
  N  N1325  1  0.891380  0.686400  0.002350  1.0  -0.3365
  N  N1326  1  0.872640  0.391600  0.838330  1.0  0.0326
  N  N1327  1  0.046770  0.982400  0.522700  1.0  -0.3676
  N  N1328  1  0.228530  0.266600  0.923010  1.0  -0.4004
  N  N1329  1  0.000870  0.069800  0.565510  1.0  -0.4252
  N  N1330  1  0.854490  0.525500  0.987570  1.0  -0.3942
  N  N1331  1  0.867570  0.498200  0.889320  1.0  -0.3539
  N  N1332  1  0.247710  0.612500  0.508990  1.0  -0.3858
  N  N1333  1  0.904710  0.655000  0.908440  1.0  -0.3776
  N  N1334  1  0.764800  0.035700  0.253500  1.0  0.0449
  N  N1335  1  0.747020  0.044100  0.317800  1.0  -0.3263
  N  N1336  1  0.212620  0.258900  0.839000  1.0  0.0363
  N  N1337  1  0.834180  0.088200  0.119850  1.0  -0.1874
  N  N1338  1  0.886860  0.800700  0.050010  1.0  0.0271
  N  N1339  1  0.095950  0.004600  0.544500  1.0  -0.009
  N  N1340  1  0.419380  0.589900  0.769920  1.0  -0.1865
  N  N1341  1  0.341910  0.921800  0.033870  1.0  0.0268
  N  N1342  1  0.701690  0.697000  0.633280  1.0  -0.2371
  N  N1343  1  0.740130  0.977600  0.534030  1.0  0.048
  N  N1344  1  0.487080  0.606300  0.633150  1.0  0.0302
  N  N1345  1  0.418490  0.261800  0.865490  1.0  -0.02
  N  N1346  1  0.391380  0.186400  0.002350  1.0  -0.3365
  N  N1347  1  0.372640  0.891600  0.838330  1.0  0.0326
  N  N1348  1  0.546770  0.482400  0.522700  1.0  -0.3676
  N  N1349  1  0.728530  0.766600  0.923010  1.0  -0.4004
  N  N1350  1  0.500870  0.569800  0.565510  1.0  -0.4252
  N  N1351  1  0.354490  0.025500  0.987570  1.0  -0.3942
  N  N1352  1  0.367570  0.998200  0.889320  1.0  -0.3539
  N  N1353  1  0.747710  0.112500  0.508990  1.0  -0.3858
  N  N1354  1  0.404710  0.155000  0.908440  1.0  -0.3776
  N  N1355  1  0.264800  0.535700  0.253500  1.0  0.0449
  N  N1356  1  0.247020  0.544100  0.317800  1.0  -0.3263
  N  N1357  1  0.712620  0.758900  0.839000  1.0  0.0363
  N  N1358  1  0.334180  0.588200  0.119850  1.0  -0.1874
  N  N1359  1  0.386860  0.300700  0.050010  1.0  0.0271
  N  N1360  1  0.595950  0.504600  0.544500  1.0  -0.009
  O  O1361  1  0.995770  0.123780  0.033960  1.0  -0.7667
  O  O1362  1  0.917320  0.484170  0.486720  1.0  -0.7231
  O  O1363  1  0.206470  0.765100  0.507970  1.0  -0.7552
  O  O1364  1  0.495770  0.623780  0.033960  1.0  -0.7667
  O  O1365  1  0.417320  0.984170  0.486720  1.0  -0.7231
  O  O1366  1  0.706470  0.265100  0.507970  1.0  -0.7552
  O  O1367  1  0.004230  0.123780  0.466040  1.0  -0.766
  O  O1368  1  0.082680  0.484170  0.013280  1.0  -0.7203
  O  O1369  1  0.793530  0.765100  0.992030  1.0  -0.7547
  O  O1370  1  0.504230  0.623780  0.466040  1.0  -0.766
  O  O1371  1  0.582680  0.984170  0.013280  1.0  -0.7203
  O  O1372  1  0.293530  0.265100  0.992030  1.0  -0.7547
  O  O1373  1  0.004230  0.876220  0.966040  1.0  -0.7678
  O  O1374  1  0.082680  0.515830  0.513280  1.0  -0.7189
  O  O1375  1  0.793530  0.234900  0.492030  1.0  -0.754
  O  O1376  1  0.504230  0.376220  0.966040  1.0  -0.7678
  O  O1377  1  0.582680  0.015830  0.513280  1.0  -0.7189
  O  O1378  1  0.293530  0.734900  0.492030  1.0  -0.754
  O  O1379  1  0.995770  0.876220  0.533960  1.0  -0.7693
  O  O1380  1  0.917320  0.515830  0.986720  1.0  -0.7189
  O  O1381  1  0.206470  0.234900  0.007970  1.0  -0.7556
  O  O1382  1  0.495770  0.376220  0.533960  1.0  -0.7693
  O  O1383  1  0.417320  0.015830  0.986720  1.0  -0.7189
  O  O1384  1  0.706470  0.734900  0.007970  1.0  -0.7556
