# generated using pymatgen
data_CuH11C15NO3
_symmetry_space_group_name_H-M   'P 1'
_cell_length_a   11.91990000
_cell_length_b   31.22460000
_cell_length_c   31.22460000
_cell_angle_alpha   61.59430000
_cell_angle_beta   82.68940000
_cell_angle_gamma   97.31060000
_symmetry_Int_Tables_number   1
_chemical_formula_structural   CuH11C15NO3
_chemical_formula_sum   'Cu24 H264 C360 N24 O72'
_cell_volume   9901.64545038
_cell_formula_units_Z   24
loop_
 _symmetry_equiv_pos_site_id
 _symmetry_equiv_pos_as_xyz
  1  'x, y, z'
loop_
 _atom_site_type_symbol
 _atom_site_label
 _atom_site_symmetry_multiplicity
 _atom_site_fract_x
 _atom_site_fract_y
 _atom_site_fract_z
 _atom_site_occupancy
 _atom_site_charge
  Cu  Cu1  1  0.119620  0.768480  0.210320  1.0  0.8649
  Cu  Cu2  1  0.880210  0.716650  0.272310  1.0  0.8331
  Cu  Cu3  1  0.304390  0.505780  0.275910  1.0  0.8592
  Cu  Cu4  1  0.379830  0.720040  0.504240  1.0  0.8286
  Cu  Cu5  1  0.329940  0.210320  0.021200  1.0  0.8658
  Cu  Cu6  1  0.152520  0.272310  0.011040  1.0  0.8321
  Cu  Cu7  1  0.580300  0.275910  0.218310  1.0  0.8596
  Cu  Cu8  1  0.884070  0.504240  0.775720  1.0  0.8283
  Cu  Cu9  1  0.351140  0.021200  0.768480  1.0  0.8656
  Cu  Cu10  1  0.163560  0.011040  0.716650  1.0  0.8318
  Cu  Cu11  1  0.798610  0.218310  0.505780  1.0  0.8604
  Cu  Cu12  1  0.659790  0.775720  0.720040  1.0  0.8257
  Cu  Cu13  1  0.880380  0.231520  0.789680  1.0  0.8665
  Cu  Cu14  1  0.119790  0.283350  0.727690  1.0  0.8333
  Cu  Cu15  1  0.695610  0.494220  0.724090  1.0  0.8583
  Cu  Cu16  1  0.620170  0.279960  0.495760  1.0  0.8277
  Cu  Cu17  1  0.670060  0.789680  0.978800  1.0  0.8652
  Cu  Cu18  1  0.847480  0.727690  0.988960  1.0  0.8334
  Cu  Cu19  1  0.419700  0.724090  0.781690  1.0  0.8604
  Cu  Cu20  1  0.115930  0.495760  0.224280  1.0  0.8275
  Cu  Cu21  1  0.648860  0.978800  0.231520  1.0  0.8655
  Cu  Cu22  1  0.836440  0.988960  0.283350  1.0  0.8334
  Cu  Cu23  1  0.201390  0.781690  0.494220  1.0  0.8595
  Cu  Cu24  1  0.340210  0.224280  0.279960  1.0  0.8266
  H  H25  1  0.724400  0.847200  0.018800  1.0  0.1167
  H  H26  1  0.742000  0.902000  0.046600  1.0  0.1083
  H  H27  1  0.581000  0.909100  0.092700  1.0  0.1136
  H  H28  1  0.404800  0.861300  0.109400  1.0  0.0944
  H  H29  1  0.160600  0.729500  0.089800  1.0  0.115
  H  H30  1  0.150800  0.680400  0.054200  1.0  0.1113
  H  H31  1  0.318500  0.676100  0.011200  1.0  0.1037
  H  H32  1  0.493800  0.723900  0.998700  1.0  0.1077
  H  H33  1  0.773900  0.760000  0.202500  1.0  0.0947
  H  H34  1  0.645100  0.796500  0.156200  1.0  0.1054
  H  H35  1  0.464500  0.749800  0.167100  1.0  0.0936
  H  H36  1  0.414700  0.667600  0.222300  1.0  0.104
  H  H37  1  0.516000  0.518700  0.362600  1.0  0.092
  H  H38  1  0.645700  0.487400  0.410200  1.0  0.1227
  H  H39  1  0.827700  0.538600  0.393300  1.0  0.1078
  H  H40  1  0.871700  0.618800  0.332500  1.0  0.1106
  H  H41  1  0.458500  0.479900  0.235000  1.0  0.0981
  H  H42  1  0.621700  0.464700  0.203000  1.0  0.095
  H  H43  1  0.742800  0.423100  0.253500  1.0  0.1062
  H  H44  1  0.696500  0.392900  0.336700  1.0  0.1117
  H  H45  1  0.432300  0.382100  0.481600  1.0  0.0975
  H  H46  1  0.274800  0.403100  0.509800  1.0  0.1146
  H  H47  1  0.161000  0.447000  0.455000  1.0  0.1119
  H  H48  1  0.210100  0.472100  0.372700  1.0  0.1242
  H  H49  1  0.302100  0.661900  0.467700  1.0  0.1166
  H  H50  1  0.262400  0.603200  0.445600  1.0  0.1148
  H  H51  1  0.410500  0.587100  0.401900  1.0  0.1126
  H  H52  1  0.595800  0.630200  0.381400  1.0  0.0962
  H  H53  1  0.878900  0.758100  0.391100  1.0  0.1171
  H  H54  1  0.909900  0.808200  0.423800  1.0  0.1017
  H  H55  1  0.757500  0.820400  0.467500  1.0  0.1023
  H  H56  1  0.573200  0.779600  0.481600  1.0  0.0947
  H  H57  1  0.051900  0.831500  0.258100  1.0  0.1051
  H  H58  1  0.057000  0.784300  0.308100  1.0  0.1315
  H  H59  1  0.937100  0.797000  0.297100  1.0  0.1158
  H  H60  1  0.058100  0.694800  0.178400  1.0  0.1115
  H  H61  1  0.927300  0.696900  0.179000  1.0  0.1185
  H  H62  1  0.962600  0.654100  0.224400  1.0  0.1099
  H  H63  1  0.093900  0.390600  0.303200  1.0  0.1021
  H  H64  1  0.164100  0.396100  0.340200  1.0  0.0993
  H  H65  1  0.227400  0.392700  0.295100  1.0  0.1168
  H  H66  1  0.196200  0.606700  0.174000  1.0  0.1007
  H  H67  1  0.326900  0.610900  0.177300  1.0  0.1328
  H  H68  1  0.235500  0.610100  0.218500  1.0  0.1334
  H  H69  1  0.743200  0.018800  0.134000  1.0  0.1167
  H  H70  1  0.788600  0.046600  0.051400  1.0  0.1073
  H  H71  1  0.673700  0.092700  0.998200  1.0  0.1155
  H  H72  1  0.514200  0.109400  0.029300  1.0  0.0946
  H  H73  1  0.250400  0.089800  0.180700  1.0  0.1148
  H  H74  1  0.205000  0.054200  0.265400  1.0  0.1108
  H  H75  1  0.329700  0.011200  0.312700  1.0  0.1034
  H  H76  1  0.492500  0.998700  0.277400  1.0  0.1105
  H  H77  1  0.976400  0.202500  0.037500  1.0  0.0947
  H  H78  1  0.801300  0.156200  0.047300  1.0  0.1055
  H  H79  1  0.631600  0.167100  0.083100  1.0  0.0945
  H  H80  1  0.637000  0.222300  0.110100  1.0  0.1055
  H  H81  1  0.878600  0.362600  0.118700  1.0  0.0913
  H  H82  1  0.055900  0.410200  0.102400  1.0  0.1215
  H  H83  1  0.221000  0.393300  0.068100  1.0  0.1079
  H  H84  1  0.204200  0.332500  0.048700  1.0  0.1103
  H  H85  1  0.693500  0.235000  0.285100  1.0  0.097
  H  H86  1  0.824700  0.203000  0.332300  1.0  0.0968
  H  H87  1  0.996300  0.253500  0.323400  1.0  0.1063
  H  H88  1  0.033200  0.336700  0.270400  1.0  0.1113
  H  H89  1  0.913900  0.481600  0.136300  1.0  0.0977
  H  H90  1  0.784600  0.509800  0.087100  1.0  0.1149
  H  H91  1  0.616000  0.455000  0.098000  1.0  0.1118
  H  H92  1  0.582800  0.372700  0.155200  1.0  0.1236
  H  H93  1  0.769800  0.467700  0.870400  1.0  0.1171
  H  H94  1  0.708000  0.445600  0.951200  1.0  0.1137
  H  H95  1  0.812400  0.401900  0.011000  1.0  0.1118
  H  H96  1  0.977200  0.381400  0.988400  1.0  0.0961
  H  H97  1  0.270000  0.391100  0.850800  1.0  0.1174
  H  H98  1  0.333700  0.423800  0.768000  1.0  0.1029
  H  H99  1  0.225000  0.467500  0.712100  1.0  0.1022
  H  H100  1  0.054800  0.481600  0.738800  1.0  0.0964
  H  H101  1  0.310000  0.258100  0.910400  1.0  0.1017
  H  H102  1  0.365100  0.308100  0.907600  1.0  0.1313
  H  H103  1  0.234200  0.297100  0.905900  1.0  0.1186
  H  H104  1  0.236500  0.178400  0.126800  1.0  0.1106
  H  H105  1  0.106300  0.179000  0.124100  1.0  0.1162
  H  H106  1  0.187000  0.224400  0.121500  1.0  0.1069
  H  H107  1  0.397100  0.303200  0.306200  1.0  0.0976
  H  H108  1  0.504300  0.340200  0.263700  1.0  0.1046
  H  H109  1  0.522500  0.295100  0.312200  1.0  0.1177
  H  H110  1  0.370200  0.174000  0.219300  1.0  0.1024
  H  H111  1  0.504200  0.177300  0.211800  1.0  0.1348
  H  H112  1  0.454000  0.218500  0.171400  1.0  0.1335
  H  H113  1  0.877200  0.134000  0.847200  1.0  0.1171
  H  H114  1  0.840000  0.051400  0.902000  1.0  0.1077
  H  H115  1  0.671900  0.998200  0.909100  1.0  0.1153
  H  H116  1  0.543500  0.029300  0.861300  1.0  0.095
  H  H117  1  0.431100  0.180700  0.729500  1.0  0.1145
  H  H118  1  0.470400  0.265400  0.680400  1.0  0.1105
  H  H119  1  0.642400  0.312700  0.676100  1.0  0.1014
  H  H120  1  0.769900  0.277400  0.723900  1.0  0.1082
  H  H121  1  0.013900  0.037500  0.760000  1.0  0.0967
  H  H122  1  0.848600  0.047300  0.796500  1.0  0.1048
  H  H123  1  0.714700  0.083100  0.749800  1.0  0.0942
  H  H124  1  0.747100  0.110100  0.667600  1.0  0.1042
  H  H125  1  0.997300  0.118700  0.518700  1.0  0.0907
  H  H126  1  0.158300  0.102400  0.487400  1.0  0.123
  H  H127  1  0.289100  0.068100  0.538600  1.0  0.1075
  H  H128  1  0.252900  0.048700  0.618800  1.0  0.1105
  H  H129  1  0.978600  0.285100  0.479900  1.0  0.097
  H  H130  1  0.157000  0.332300  0.464700  1.0  0.0955
  H  H131  1  0.319700  0.323400  0.423100  1.0  0.1055
  H  H132  1  0.303600  0.270400  0.392900  1.0  0.1124
  H  H133  1  0.050200  0.136300  0.382100  1.0  0.097
  H  H134  1  0.871700  0.087100  0.403100  1.0  0.1146
  H  H135  1  0.714000  0.098000  0.447000  1.0  0.1127
  H  H136  1  0.738000  0.155200  0.472100  1.0  0.1224
  H  H137  1  0.640200  0.870400  0.661900  1.0  0.1172
  H  H138  1  0.659200  0.951200  0.603200  1.0  0.1123
  H  H139  1  0.823400  0.011000  0.587100  1.0  0.1129
  H  H140  1  0.965600  0.988400  0.630200  1.0  0.0973
  H  H141  1  0.120800  0.850800  0.758100  1.0  0.1171
  H  H142  1  0.101700  0.768000  0.808200  1.0  0.1016
  H  H143  1  0.937100  0.712100  0.820400  1.0  0.1027
  H  H144  1  0.793600  0.738800  0.779600  1.0  0.0955
  H  H145  1  0.220400  0.910400  0.831500  1.0  0.1038
  H  H146  1  0.272700  0.907600  0.784300  1.0  0.1299
  H  H147  1  0.140100  0.905900  0.797000  1.0  0.1198
  H  H148  1  0.363300  0.126800  0.694800  1.0  0.1103
  H  H149  1  0.230400  0.124100  0.696900  1.0  0.1177
  H  H150  1  0.308500  0.121500  0.654100  1.0  0.1069
  H  H151  1  0.703300  0.306200  0.390600  1.0  0.1008
  H  H152  1  0.768000  0.263700  0.396100  1.0  0.1004
  H  H153  1  0.834700  0.312200  0.392700  1.0  0.1169
  H  H154  1  0.589500  0.219300  0.606700  1.0  0.1019
  H  H155  1  0.716000  0.211800  0.610900  1.0  0.1336
  H  H156  1  0.625400  0.171400  0.610100  1.0  0.133
  H  H157  1  0.275600  0.152800  0.981200  1.0  0.1153
  H  H158  1  0.258000  0.098000  0.953400  1.0  0.1064
  H  H159  1  0.419000  0.090900  0.907300  1.0  0.1144
  H  H160  1  0.595200  0.138700  0.890600  1.0  0.0941
  H  H161  1  0.839400  0.270500  0.910200  1.0  0.115
  H  H162  1  0.849200  0.319600  0.945800  1.0  0.1102
  H  H163  1  0.681500  0.323900  0.988800  1.0  0.1044
  H  H164  1  0.506200  0.276100  0.001300  1.0  0.1079
  H  H165  1  0.226100  0.240000  0.797500  1.0  0.0953
  H  H166  1  0.354900  0.203500  0.843800  1.0  0.1056
  H  H167  1  0.535500  0.250200  0.832900  1.0  0.0939
  H  H168  1  0.585300  0.332400  0.777700  1.0  0.1034
  H  H169  1  0.484000  0.481300  0.637400  1.0  0.0922
  H  H170  1  0.354300  0.512600  0.589800  1.0  0.1227
  H  H171  1  0.172300  0.461400  0.606700  1.0  0.1064
  H  H172  1  0.128300  0.381200  0.667500  1.0  0.1099
  H  H173  1  0.541500  0.520100  0.765000  1.0  0.0993
  H  H174  1  0.378300  0.535300  0.797000  1.0  0.0953
  H  H175  1  0.257200  0.576900  0.746500  1.0  0.1061
  H  H176  1  0.303500  0.607100  0.663300  1.0  0.1118
  H  H177  1  0.567700  0.617900  0.518400  1.0  0.0967
  H  H178  1  0.725200  0.596900  0.490200  1.0  0.1148
  H  H179  1  0.839000  0.553000  0.545000  1.0  0.1115
  H  H180  1  0.789900  0.527900  0.627300  1.0  0.1242
  H  H181  1  0.697900  0.338100  0.532300  1.0  0.1173
  H  H182  1  0.737600  0.396800  0.554400  1.0  0.1144
  H  H183  1  0.589500  0.412900  0.598100  1.0  0.1113
  H  H184  1  0.404200  0.369800  0.618600  1.0  0.096
  H  H185  1  0.121100  0.241900  0.608900  1.0  0.1161
  H  H186  1  0.090100  0.191800  0.576200  1.0  0.1022
  H  H187  1  0.242500  0.179600  0.532500  1.0  0.1027
  H  H188  1  0.426800  0.220400  0.518400  1.0  0.0947
  H  H189  1  0.948100  0.168500  0.741900  1.0  0.1032
  H  H190  1  0.943000  0.215700  0.691900  1.0  0.13
  H  H191  1  0.062900  0.203000  0.702900  1.0  0.1165
  H  H192  1  0.941900  0.305200  0.821600  1.0  0.1097
  H  H193  1  0.072700  0.303100  0.821000  1.0  0.1195
  H  H194  1  0.037400  0.345900  0.775600  1.0  0.1101
  H  H195  1  0.906100  0.609400  0.696800  1.0  0.1001
  H  H196  1  0.835900  0.603900  0.659800  1.0  0.101
  H  H197  1  0.772600  0.607300  0.704900  1.0  0.1173
  H  H198  1  0.803800  0.393300  0.826000  1.0  0.1012
  H  H199  1  0.673100  0.389100  0.822700  1.0  0.133
  H  H200  1  0.764500  0.389900  0.781500  1.0  0.1334
  H  H201  1  0.256800  0.981200  0.866000  1.0  0.1164
  H  H202  1  0.211400  0.953400  0.948600  1.0  0.1062
  H  H203  1  0.326300  0.907300  0.001800  1.0  0.115
  H  H204  1  0.485800  0.890600  0.970700  1.0  0.0948
  H  H205  1  0.749600  0.910200  0.819300  1.0  0.1154
  H  H206  1  0.795000  0.945800  0.734600  1.0  0.1107
  H  H207  1  0.670300  0.988800  0.687300  1.0  0.104
  H  H208  1  0.507500  0.001300  0.722600  1.0  0.109
  H  H209  1  0.023600  0.797500  0.962500  1.0  0.0951
  H  H210  1  0.198700  0.843800  0.952700  1.0  0.1054
  H  H211  1  0.368400  0.832900  0.916900  1.0  0.0937
  H  H212  1  0.363000  0.777700  0.889900  1.0  0.1055
  H  H213  1  0.121400  0.637400  0.881300  1.0  0.0915
  H  H214  1  0.944100  0.589800  0.897600  1.0  0.122
  H  H215  1  0.779000  0.606700  0.931900  1.0  0.1072
  H  H216  1  0.795800  0.667500  0.951300  1.0  0.1103
  H  H217  1  0.306500  0.765000  0.714900  1.0  0.0977
  H  H218  1  0.175300  0.797000  0.667700  1.0  0.0962
  H  H219  1  0.003700  0.746500  0.676600  1.0  0.1062
  H  H220  1  0.966800  0.663300  0.729600  1.0  0.1115
  H  H221  1  0.086100  0.518400  0.863700  1.0  0.0979
  H  H222  1  0.215400  0.490200  0.912900  1.0  0.115
  H  H223  1  0.384000  0.545000  0.902000  1.0  0.1116
  H  H224  1  0.417200  0.627300  0.844800  1.0  0.1239
  H  H225  1  0.230200  0.532300  0.129600  1.0  0.1171
  H  H226  1  0.292000  0.554400  0.048800  1.0  0.1137
  H  H227  1  0.187600  0.598100  0.989000  1.0  0.1125
  H  H228  1  0.022800  0.618600  0.011600  1.0  0.0956
  H  H229  1  0.730000  0.608900  0.149200  1.0  0.1169
  H  H230  1  0.666300  0.576200  0.232000  1.0  0.1025
  H  H231  1  0.775000  0.532500  0.287900  1.0  0.1006
  H  H232  1  0.945200  0.518400  0.261200  1.0  0.096
  H  H233  1  0.690000  0.741900  0.089600  1.0  0.1031
  H  H234  1  0.634900  0.691900  0.092400  1.0  0.1316
  H  H235  1  0.765800  0.702900  0.094100  1.0  0.1193
  H  H236  1  0.763500  0.821600  0.873200  1.0  0.11
  H  H237  1  0.893700  0.821000  0.875900  1.0  0.119
  H  H238  1  0.813000  0.775600  0.878500  1.0  0.1054
  H  H239  1  0.602900  0.696800  0.693800  1.0  0.0985
  H  H240  1  0.495700  0.659800  0.736300  1.0  0.1021
  H  H241  1  0.477500  0.704900  0.687800  1.0  0.1177
  H  H242  1  0.629800  0.826000  0.780700  1.0  0.1013
  H  H243  1  0.495800  0.822700  0.788200  1.0  0.135
  H  H244  1  0.546000  0.781500  0.828600  1.0  0.1343
  H  H245  1  0.122800  0.866000  0.152800  1.0  0.1159
  H  H246  1  0.160000  0.948600  0.098000  1.0  0.1065
  H  H247  1  0.328100  0.001800  0.090900  1.0  0.1147
  H  H248  1  0.456500  0.970700  0.138700  1.0  0.0956
  H  H249  1  0.568900  0.819300  0.270500  1.0  0.1146
  H  H250  1  0.529600  0.734600  0.319600  1.0  0.1107
  H  H251  1  0.357600  0.687300  0.323900  1.0  0.1013
  H  H252  1  0.230100  0.722600  0.276100  1.0  0.1081
  H  H253  1  0.986100  0.962500  0.240000  1.0  0.0962
  H  H254  1  0.151400  0.952700  0.203500  1.0  0.1056
  H  H255  1  0.285300  0.916900  0.250200  1.0  0.0941
  H  H256  1  0.252900  0.889900  0.332400  1.0  0.1041
  H  H257  1  0.002700  0.881300  0.481300  1.0  0.091
  H  H258  1  0.841700  0.897600  0.512600  1.0  0.1231
  H  H259  1  0.710900  0.931900  0.461400  1.0  0.1072
  H  H260  1  0.747100  0.951300  0.381200  1.0  0.1102
  H  H261  1  0.021400  0.714900  0.520100  1.0  0.0975
  H  H262  1  0.843000  0.667700  0.535300  1.0  0.0961
  H  H263  1  0.680300  0.676600  0.576900  1.0  0.1065
  H  H264  1  0.696400  0.729600  0.607100  1.0  0.1117
  H  H265  1  0.949800  0.863700  0.617900  1.0  0.0971
  H  H266  1  0.128300  0.912900  0.596900  1.0  0.1145
  H  H267  1  0.286000  0.902000  0.553000  1.0  0.113
  H  H268  1  0.262000  0.844800  0.527900  1.0  0.123
  H  H269  1  0.359800  0.129600  0.338100  1.0  0.1176
  H  H270  1  0.340800  0.048800  0.396800  1.0  0.113
  H  H271  1  0.176600  0.989000  0.412900  1.0  0.1129
  H  H272  1  0.034400  0.011600  0.369800  1.0  0.0971
  H  H273  1  0.879200  0.149200  0.241900  1.0  0.1165
  H  H274  1  0.898300  0.232000  0.191800  1.0  0.1014
  H  H275  1  0.062900  0.287900  0.179600  1.0  0.1019
  H  H276  1  0.206400  0.261200  0.220400  1.0  0.095
  H  H277  1  0.779600  0.089600  0.168500  1.0  0.1043
  H  H278  1  0.727300  0.092400  0.215700  1.0  0.1287
  H  H279  1  0.859900  0.094100  0.203000  1.0  0.1198
  H  H280  1  0.636700  0.873200  0.305200  1.0  0.1103
  H  H281  1  0.769600  0.875900  0.303100  1.0  0.1177
  H  H282  1  0.691500  0.878500  0.345900  1.0  0.1055
  H  H283  1  0.296700  0.693800  0.609400  1.0  0.0994
  H  H284  1  0.232000  0.736300  0.603900  1.0  0.1006
  H  H285  1  0.165300  0.687800  0.607300  1.0  0.1171
  H  H286  1  0.410500  0.780700  0.393300  1.0  0.1025
  H  H287  1  0.284000  0.788200  0.389100  1.0  0.1339
  H  H288  1  0.374600  0.828600  0.389900  1.0  0.1354
  C  C289  1  0.549350  0.818950  0.046200  1.0  0.1963
  C  C290  1  0.659340  0.849650  0.036730  1.0  -0.1878
  C  C291  1  0.669790  0.882080  0.053410  1.0  -0.0894
  C  C292  1  0.572220  0.886420  0.081360  1.0  -0.1384
  C  C293  1  0.468010  0.857950  0.091320  1.0  -0.0716
  C  C294  1  0.451760  0.822420  0.074840  1.0  -0.0038
  C  C295  1  0.344410  0.791740  0.084810  1.0  -0.0961
  C  C296  1  0.239400  0.792420  0.117020  1.0  0.6747
  C  C297  1  0.334240  0.759390  0.065270  1.0  0.0289
  C  C298  1  0.227720  0.729080  0.071320  1.0  -0.027
  C  C299  1  0.221810  0.699390  0.050660  1.0  -0.1213
  C  C300  1  0.323110  0.697440  0.024110  1.0  -0.0803
  C  C301  1  0.428030  0.725780  0.016690  1.0  -0.1824
  C  C302  1  0.436310  0.758370  0.036740  1.0  0.2044
  C  C303  1  0.673620  0.690280  0.244320  1.0  0.1764
  C  C304  1  0.701630  0.740970  0.207680  1.0  -0.1273
  C  C305  1  0.625240  0.762780  0.179660  1.0  -0.0879
  C  C306  1  0.516340  0.734440  0.186120  1.0  -0.0946
  C  C307  1  0.486400  0.685800  0.219200  1.0  -0.1087
  C  C308  1  0.563460  0.661270  0.249990  1.0  0.0199
  C  C309  1  0.534540  0.610960  0.286440  1.0  -0.1106
  C  C310  1  0.420810  0.578970  0.292640  1.0  0.6817
  C  C311  1  0.611030  0.589780  0.316890  1.0  -0.0049
  C  C312  1  0.587020  0.539330  0.356170  1.0  -0.0656
  C  C313  1  0.663970  0.520530  0.384320  1.0  -0.1212
  C  C314  1  0.773740  0.551610  0.374390  1.0  -0.1069
  C  C315  1  0.799780  0.599210  0.338170  1.0  -0.179
  C  C316  1  0.720420  0.620780  0.308020  1.0  0.1913
  C  C317  1  0.475790  0.446460  0.307790  1.0  0.1857
  C  C318  1  0.505630  0.462860  0.255970  1.0  -0.1461
  C  C319  1  0.602990  0.453680  0.237010  1.0  -0.0933
  C  C320  1  0.675490  0.428070  0.267500  1.0  -0.1176
  C  C321  1  0.648520  0.410750  0.316690  1.0  -0.0683
  C  C322  1  0.548190  0.418980  0.339110  1.0  0.0417
  C  C323  1  0.518070  0.402250  0.389940  1.0  -0.1099
  C  C324  1  0.588750  0.371020  0.424470  1.0  0.6794
  C  C325  1  0.421050  0.414040  0.408690  1.0  0.0211
  C  C326  1  0.388430  0.400000  0.459510  1.0  -0.0812
  C  C327  1  0.294540  0.412350  0.476330  1.0  -0.0902
  C  C328  1  0.226400  0.439250  0.443050  1.0  -0.0948
  C  C329  1  0.255100  0.453920  0.394120  1.0  -0.1543
  C  C330  1  0.353410  0.441890  0.375160  1.0  0.1931
  C  C331  1  0.476820  0.682410  0.440450  1.0  0.2158
  C  C332  1  0.362080  0.655420  0.451080  1.0  -0.1646
  C  C333  1  0.338070  0.620840  0.437530  1.0  -0.1165
  C  C334  1  0.427590  0.611110  0.410940  1.0  -0.1446
  C  C335  1  0.537810  0.636830  0.398800  1.0  -0.0733
  C  C336  1  0.566140  0.673640  0.412420  1.0  0.0159
  C  C337  1  0.678720  0.701340  0.400280  1.0  -0.0834
  C  C338  1  0.774760  0.696290  0.367510  1.0  0.6762
  C  C339  1  0.703000  0.734480  0.417880  1.0  0.0371
  C  C340  1  0.816840  0.761480  0.409660  1.0  -0.1218
  C  C341  1  0.834900  0.791660  0.428560  1.0  -0.0883
  C  C342  1  0.743000  0.798710  0.455410  1.0  -0.0994
  C  C343  1  0.633540  0.774280  0.463860  1.0  -0.1336
  C  C344  1  0.608960  0.740680  0.446400  1.0  0.2106
  C  C345  1  0.013700  0.797670  0.282470  1.0  -0.0643
  C  C346  1  0.984470  0.688670  0.199060  1.0  -0.0655
  C  C347  1  0.166670  0.405040  0.306030  1.0  -0.0715
  C  C348  1  0.248580  0.597360  0.196220  1.0  -0.0793
  C  C349  1  0.595550  0.046200  0.134850  1.0  0.1965
  C  C350  1  0.696070  0.036730  0.113620  1.0  -0.1834
  C  C351  1  0.723200  0.053410  0.064510  1.0  -0.0926
  C  C352  1  0.653580  0.081360  0.032220  1.0  -0.1379
  C  C353  1  0.559330  0.091320  0.050730  1.0  -0.0698
  C  C354  1  0.526600  0.074840  0.102740  1.0  -0.0036
  C  C355  1  0.429220  0.084810  0.123450  1.0  -0.0959
  C  C356  1  0.356420  0.117020  0.090560  1.0  0.6743
  C  C357  1  0.399510  0.065270  0.175340  1.0  0.0289
  C  C358  1  0.299040  0.071320  0.199600  1.0  -0.0265
  C  C359  1  0.272470  0.050660  0.249950  1.0  -0.1209
  C  C360  1  0.347220  0.024110  0.278450  1.0  -0.0787
  C  C361  1  0.444720  0.016690  0.257530  1.0  -0.1798
  C  C362  1  0.473050  0.036740  0.204890  1.0  0.2077
  C  C363  1  0.917940  0.244320  0.065400  1.0  0.1769
  C  C364  1  0.909310  0.207680  0.051350  1.0  -0.1265
  C  C365  1  0.804900  0.179660  0.057560  1.0  -0.0907
  C  C366  1  0.702460  0.186120  0.079440  1.0  -0.0946
  C  C367  1  0.705600  0.219200  0.095000  1.0  -0.1092
  C  C368  1  0.813450  0.249990  0.088740  1.0  0.0207
  C  C369  1  0.820980  0.286440  0.102600  1.0  -0.1111
  C  C370  1  0.713450  0.292640  0.128390  1.0  0.6815
  C  C371  1  0.927920  0.316890  0.093330  1.0  -0.0057
  C  C372  1  0.943190  0.356170  0.104500  1.0  -0.0686
  C  C373  1  0.048290  0.384320  0.095150  1.0  -0.1187
  C  C374  1  0.148130  0.374390  0.074000  1.0  -0.1069
  C  C375  1  0.137950  0.338170  0.062620  1.0  -0.1818
  C  C376  1  0.028440  0.308020  0.071200  1.0  0.1912
  C  C377  1  0.783580  0.307790  0.245750  1.0  0.182
  C  C378  1  0.761600  0.255970  0.281170  1.0  -0.1512
  C  C379  1  0.840000  0.237010  0.309310  1.0  -0.0941
  C  C380  1  0.942990  0.267500  0.304430  1.0  -0.1141
  C  C381  1  0.965210  0.316690  0.272560  1.0  -0.0698
  C  C382  1  0.887300  0.339110  0.241910  1.0  0.0423
  C  C383  1  0.908010  0.389940  0.207810  1.0  -0.1097
  C  C384  1  0.013220  0.424470  0.204510  1.0  0.6792
  C  C385  1  0.829740  0.408690  0.177270  1.0  0.0213
  C  C386  1  0.847940  0.459510  0.140490  1.0  -0.082
  C  C387  1  0.770870  0.476330  0.111320  1.0  -0.0912
  C  C388  1  0.669450  0.443050  0.117700  1.0  -0.0903
  C  C389  1  0.649220  0.394120  0.151960  1.0  -0.1557
  C  C390  1  0.728570  0.375160  0.182950  1.0  0.1938
  C  C391  1  0.917270  0.440450  0.877140  1.0  0.2149
  C  C392  1  0.813160  0.451080  0.893500  1.0  -0.1634
  C  C393  1  0.775600  0.437530  0.941630  1.0  -0.1168
  C  C394  1  0.838530  0.410940  0.977950  1.0  -0.1415
  C  C395  1  0.936610  0.398800  0.964370  1.0  -0.0693
  C  C396  1  0.978560  0.412420  0.913940  1.0  0.0159
  C  C397  1  0.079000  0.400280  0.898380  1.0  -0.0829
  C  C398  1  0.142270  0.367510  0.936200  1.0  0.677
  C  C399  1  0.120880  0.417880  0.847640  1.0  0.0376
  C  C400  1  0.226500  0.409660  0.828860  1.0  -0.1189
  C  C401  1  0.263460  0.428560  0.779780  1.0  -0.089
  C  C402  1  0.198410  0.455410  0.745880  1.0  -0.1004
  C  C403  1  0.097400  0.463860  0.761860  1.0  -0.1345
  C  C404  1  0.055360  0.446400  0.812920  1.0  0.211
  C  C405  1  0.296170  0.282470  0.919860  1.0  -0.0638
  C  C406  1  0.183530  0.199060  0.112270  1.0  -0.0671
  C  C407  1  0.472700  0.306030  0.288930  1.0  -0.0704
  C  C408  1  0.444800  0.196220  0.206420  1.0  -0.0782
  C  C409  1  0.730400  0.134850  0.818950  1.0  0.1967
  C  C410  1  0.809690  0.113620  0.849650  1.0  -0.1857
  C  C411  1  0.787710  0.064510  0.882080  1.0  -0.0916
  C  C412  1  0.685800  0.032220  0.886420  1.0  -0.1422
  C  C413  1  0.610060  0.050730  0.857950  1.0  -0.0671
  C  C414  1  0.629340  0.102740  0.822420  1.0  -0.0034
  C  C415  1  0.552670  0.123450  0.791740  1.0  -0.096
  C  C416  1  0.446980  0.090560  0.792420  1.0  0.674
  C  C417  1  0.574850  0.175340  0.759390  1.0  0.0283
  C  C418  1  0.498640  0.199600  0.729080  1.0  -0.0259
  C  C419  1  0.522420  0.249950  0.699390  1.0  -0.1202
  C  C420  1  0.625670  0.278450  0.697440  1.0  -0.0793
  C  C421  1  0.702250  0.257530  0.725780  1.0  -0.1834
  C  C422  1  0.677940  0.204890  0.758370  1.0  0.2045
  C  C423  1  0.983340  0.065400  0.690280  1.0  0.1794
  C  C424  1  0.960660  0.051350  0.740970  1.0  -0.1238
  C  C425  1  0.862460  0.057560  0.762780  1.0  -0.0886
  C  C426  1  0.781900  0.079440  0.734440  1.0  -0.0961
  C  C427  1  0.800600  0.095000  0.685800  1.0  -0.1084
  C  C428  1  0.902190  0.088740  0.661270  1.0  0.0202
  C  C429  1  0.923580  0.102600  0.610960  1.0  -0.1108
  C  C430  1  0.841840  0.128390  0.578970  1.0  0.6805
  C  C431  1  0.021250  0.093330  0.589780  1.0  -0.0057
  C  C432  1  0.047690  0.104500  0.539330  1.0  -0.0662
  C  C433  1  0.143440  0.095150  0.520530  1.0  -0.1186
  C  C434  1  0.222130  0.074000  0.551610  1.0  -0.1089
  C  C435  1  0.200570  0.062620  0.599210  1.0  -0.1777
  C  C436  1  0.099640  0.071200  0.620780  1.0  0.1919
  C  C437  1  0.029330  0.245750  0.446460  1.0  0.1821
  C  C438  1  0.042770  0.281170  0.462860  1.0  -0.1505
  C  C439  1  0.149310  0.309310  0.453680  1.0  -0.093
  C  C440  1  0.247420  0.304430  0.428070  1.0  -0.1162
  C  C441  1  0.237770  0.272560  0.410750  1.0  -0.0708
  C  C442  1  0.129210  0.241910  0.418980  1.0  0.0417
  C  C443  1  0.115820  0.207810  0.402250  1.0  -0.1097
  C  C444  1  0.217730  0.204510  0.371020  1.0  0.6787
  C  C445  1  0.007010  0.177270  0.414040  1.0  0.0202
  C  C446  1  0.988430  0.140490  0.400000  1.0  -0.0854
  C  C447  1  0.882190  0.111320  0.412350  1.0  -0.0889
  C  C448  1  0.787150  0.117700  0.439250  1.0  -0.0908
  C  C449  1  0.801180  0.151960  0.453920  1.0  -0.1562
  C  C450  1  0.911520  0.182950  0.441890  1.0  0.1929
  C  C451  1  0.794410  0.877140  0.682410  1.0  0.2152
  C  C452  1  0.706660  0.893500  0.655420  1.0  -0.1647
  C  C453  1  0.717230  0.941630  0.620840  1.0  -0.1129
  C  C454  1  0.816480  0.977950  0.611110  1.0  -0.1406
  C  C455  1  0.900980  0.964370  0.636830  1.0  -0.0707
  C  C456  1  0.892500  0.913940  0.673640  1.0  0.0159
  C  C457  1  0.977380  0.898380  0.701340  1.0  -0.0834
  C  C458  1  0.078470  0.936200  0.696290  1.0  0.6768
  C  C459  1  0.968520  0.847640  0.734480  1.0  0.0368
  C  C460  1  0.055360  0.828860  0.761480  1.0  -0.1222
  C  C461  1  0.043240  0.779780  0.791660  1.0  -0.0872
  C  C462  1  0.944290  0.745880  0.798710  1.0  -0.0987
  C  C463  1  0.859260  0.761860  0.774280  1.0  -0.1377
  C  C464  1  0.868280  0.812920  0.740680  1.0  0.2104
  C  C465  1  0.216030  0.919860  0.797670  1.0  -0.0663
  C  C466  1  0.295800  0.112270  0.688670  1.0  -0.0671
  C  C467  1  0.761630  0.288930  0.405040  1.0  -0.0703
  C  C468  1  0.651220  0.206420  0.597360  1.0  -0.0782
  C  C469  1  0.450650  0.181050  0.953800  1.0  0.1958
  C  C470  1  0.340660  0.150350  0.963270  1.0  -0.1866
  C  C471  1  0.330210  0.117920  0.946590  1.0  -0.0945
  C  C472  1  0.427780  0.113580  0.918640  1.0  -0.1397
  C  C473  1  0.531990  0.142050  0.908680  1.0  -0.0732
  C  C474  1  0.548240  0.177580  0.925160  1.0  -0.0035
  C  C475  1  0.655590  0.208260  0.915190  1.0  -0.096
  C  C476  1  0.760600  0.207580  0.882980  1.0  0.6735
  C  C477  1  0.665760  0.240610  0.934730  1.0  0.0286
  C  C478  1  0.772280  0.270920  0.928680  1.0  -0.029
  C  C479  1  0.778190  0.300610  0.949340  1.0  -0.1216
  C  C480  1  0.676890  0.302560  0.975890  1.0  -0.078
  C  C481  1  0.571970  0.274220  0.983310  1.0  -0.1817
  C  C482  1  0.563690  0.241630  0.963260  1.0  0.2041
  C  C483  1  0.326380  0.309720  0.755680  1.0  0.1767
  C  C484  1  0.298370  0.259030  0.792320  1.0  -0.1271
  C  C485  1  0.374760  0.237220  0.820340  1.0  -0.0895
  C  C486  1  0.483660  0.265560  0.813880  1.0  -0.0944
  C  C487  1  0.513600  0.314200  0.780800  1.0  -0.1073
  C  C488  1  0.436540  0.338730  0.750010  1.0  0.0207
  C  C489  1  0.465460  0.389040  0.713560  1.0  -0.1114
  C  C490  1  0.579190  0.421030  0.707360  1.0  0.6818
  C  C491  1  0.388970  0.410220  0.683110  1.0  -0.0053
  C  C492  1  0.412980  0.460670  0.643830  1.0  -0.0665
  C  C493  1  0.336030  0.479470  0.615680  1.0  -0.1172
  C  C494  1  0.226260  0.448390  0.625610  1.0  -0.1061
  C  C495  1  0.200220  0.400790  0.661830  1.0  -0.181
  C  C496  1  0.279580  0.379220  0.691980  1.0  0.1908
  C  C497  1  0.524210  0.553540  0.692210  1.0  0.1847
  C  C498  1  0.494370  0.537140  0.744030  1.0  -0.1502
  C  C499  1  0.397010  0.546320  0.762990  1.0  -0.092
  C  C500  1  0.324510  0.571930  0.732500  1.0  -0.1182
  C  C501  1  0.351480  0.589250  0.683310  1.0  -0.0679
  C  C502  1  0.451810  0.581020  0.660890  1.0  0.0419
  C  C503  1  0.481930  0.597750  0.610060  1.0  -0.1103
  C  C504  1  0.411250  0.628980  0.575530  1.0  0.6795
  C  C505  1  0.578950  0.585960  0.591310  1.0  0.0207
  C  C506  1  0.611570  0.600000  0.540490  1.0  -0.0815
  C  C507  1  0.705460  0.587650  0.523670  1.0  -0.0932
  C  C508  1  0.773600  0.560750  0.556950  1.0  -0.0927
  C  C509  1  0.744900  0.546080  0.605880  1.0  -0.1562
  C  C510  1  0.646590  0.558110  0.624840  1.0  0.194
  C  C511  1  0.523180  0.317590  0.559550  1.0  0.2159
  C  C512  1  0.637920  0.344580  0.548920  1.0  -0.1652
  C  C513  1  0.661930  0.379160  0.562470  1.0  -0.1132
  C  C514  1  0.572410  0.388890  0.589060  1.0  -0.1412
  C  C515  1  0.462190  0.363170  0.601200  1.0  -0.0738
  C  C516  1  0.433860  0.326360  0.587580  1.0  0.0154
  C  C517  1  0.321280  0.298660  0.599720  1.0  -0.0829
  C  C518  1  0.225240  0.303710  0.632490  1.0  0.6771
  C  C519  1  0.297000  0.265520  0.582120  1.0  0.0376
  C  C520  1  0.183160  0.238520  0.590340  1.0  -0.1213
  C  C521  1  0.165100  0.208340  0.571440  1.0  -0.0892
  C  C522  1  0.257000  0.201290  0.544590  1.0  -0.0992
  C  C523  1  0.366460  0.225720  0.536140  1.0  -0.1341
  C  C524  1  0.391040  0.259320  0.553600  1.0  0.2097
  C  C525  1  0.986300  0.202330  0.717530  1.0  -0.0638
  C  C526  1  0.015530  0.311330  0.800940  1.0  -0.0663
  C  C527  1  0.833330  0.594960  0.693970  1.0  -0.0711
  C  C528  1  0.751420  0.402640  0.803780  1.0  -0.0807
  C  C529  1  0.404450  0.953800  0.865150  1.0  0.1955
  C  C530  1  0.303930  0.963270  0.886380  1.0  -0.1841
  C  C531  1  0.276800  0.946590  0.935490  1.0  -0.0943
  C  C532  1  0.346420  0.918640  0.967780  1.0  -0.1351
  C  C533  1  0.440670  0.908680  0.949270  1.0  -0.0706
  C  C534  1  0.473400  0.925160  0.897260  1.0  -0.004
  C  C535  1  0.570780  0.915190  0.876550  1.0  -0.0958
  C  C536  1  0.643580  0.882980  0.909440  1.0  0.6747
  C  C537  1  0.600490  0.934730  0.824660  1.0  0.0285
  C  C538  1  0.700960  0.928680  0.800400  1.0  -0.0245
  C  C539  1  0.727530  0.949340  0.750050  1.0  -0.1209
  C  C540  1  0.652780  0.975890  0.721550  1.0  -0.0784
  C  C541  1  0.555280  0.983310  0.742470  1.0  -0.1775
  C  C542  1  0.526950  0.963260  0.795110  1.0  0.2074
  C  C543  1  0.082060  0.755680  0.934600  1.0  0.1765
  C  C544  1  0.090690  0.792320  0.948650  1.0  -0.1249
  C  C545  1  0.195100  0.820340  0.942440  1.0  -0.0906
  C  C546  1  0.297540  0.813880  0.920560  1.0  -0.0938
  C  C547  1  0.294400  0.780800  0.905000  1.0  -0.1104
  C  C548  1  0.186550  0.750010  0.911260  1.0  0.0211
  C  C549  1  0.179020  0.713560  0.897400  1.0  -0.1115
  C  C550  1  0.286550  0.707360  0.871610  1.0  0.6813
  C  C551  1  0.072080  0.683110  0.906670  1.0  -0.0055
  C  C552  1  0.056810  0.643830  0.895500  1.0  -0.0708
  C  C553  1  0.951710  0.615680  0.904850  1.0  -0.1216
  C  C554  1  0.851870  0.625610  0.926000  1.0  -0.1103
  C  C555  1  0.862050  0.661830  0.937380  1.0  -0.1827
  C  C556  1  0.971560  0.691980  0.928800  1.0  0.1911
  C  C557  1  0.216420  0.692210  0.754250  1.0  0.1835
  C  C558  1  0.238400  0.744030  0.718830  1.0  -0.1544
  C  C559  1  0.160000  0.762990  0.690690  1.0  -0.0913
  C  C560  1  0.057010  0.732500  0.695570  1.0  -0.1161
  C  C561  1  0.034790  0.683310  0.727440  1.0  -0.0693
  C  C562  1  0.112700  0.660890  0.758090  1.0  0.0412
  C  C563  1  0.091990  0.610060  0.792190  1.0  -0.1103
  C  C564  1  0.986780  0.575530  0.795490  1.0  0.6793
  C  C565  1  0.170260  0.591310  0.822730  1.0  0.0213
  C  C566  1  0.152060  0.540490  0.859510  1.0  -0.0807
  C  C567  1  0.229130  0.523670  0.888680  1.0  -0.094
  C  C568  1  0.330550  0.556950  0.882300  1.0  -0.0903
  C  C569  1  0.350780  0.605880  0.848040  1.0  -0.1571
  C  C570  1  0.271430  0.624840  0.817050  1.0  0.1941
  C  C571  1  0.082730  0.559550  0.122860  1.0  0.216
  C  C572  1  0.186840  0.548920  0.106500  1.0  -0.1643
  C  C573  1  0.224400  0.562470  0.058370  1.0  -0.1145
  C  C574  1  0.161470  0.589060  0.022050  1.0  -0.1433
  C  C575  1  0.063390  0.601200  0.035630  1.0  -0.0696
  C  C576  1  0.021440  0.587580  0.086060  1.0  0.0159
  C  C577  1  0.921000  0.599720  0.101620  1.0  -0.0827
  C  C578  1  0.857730  0.632490  0.063800  1.0  0.6779
  C  C579  1  0.879120  0.582120  0.152360  1.0  0.0373
  C  C580  1  0.773500  0.590340  0.171140  1.0  -0.1191
  C  C581  1  0.736540  0.571440  0.220220  1.0  -0.0899
  C  C582  1  0.801590  0.544590  0.254120  1.0  -0.1015
  C  C583  1  0.902600  0.536140  0.238140  1.0  -0.1341
  C  C584  1  0.944640  0.553600  0.187080  1.0  0.2118
  C  C585  1  0.703830  0.717530  0.080140  1.0  -0.0638
  C  C586  1  0.816470  0.800940  0.887730  1.0  -0.0658
  C  C587  1  0.527300  0.693970  0.711070  1.0  -0.0703
  C  C588  1  0.555200  0.803780  0.793580  1.0  -0.0783
  C  C589  1  0.269600  0.865150  0.181050  1.0  0.195
  C  C590  1  0.190310  0.886380  0.150350  1.0  -0.1857
  C  C591  1  0.212290  0.935490  0.117920  1.0  -0.0911
  C  C592  1  0.314200  0.967780  0.113580  1.0  -0.1392
  C  C593  1  0.389940  0.949270  0.142050  1.0  -0.0695
  C  C594  1  0.370660  0.897260  0.177580  1.0  -0.0039
  C  C595  1  0.447330  0.876550  0.208260  1.0  -0.0959
  C  C596  1  0.553020  0.909440  0.207580  1.0  0.674
  C  C597  1  0.425150  0.824660  0.240610  1.0  0.0286
  C  C598  1  0.501360  0.800400  0.270920  1.0  -0.0251
  C  C599  1  0.477580  0.750050  0.300610  1.0  -0.1202
  C  C600  1  0.374330  0.721550  0.302560  1.0  -0.0783
  C  C601  1  0.297750  0.742470  0.274220  1.0  -0.1804
  C  C602  1  0.322060  0.795110  0.241630  1.0  0.2051
  C  C603  1  0.016660  0.934600  0.309720  1.0  0.1797
  C  C604  1  0.039340  0.948650  0.259030  1.0  -0.1236
  C  C605  1  0.137540  0.942440  0.237220  1.0  -0.0902
  C  C606  1  0.218100  0.920560  0.265560  1.0  -0.0951
  C  C607  1  0.199400  0.905000  0.314200  1.0  -0.1071
  C  C608  1  0.097810  0.911260  0.338730  1.0  0.021
  C  C609  1  0.076420  0.897400  0.389040  1.0  -0.1118
  C  C610  1  0.158160  0.871610  0.421030  1.0  0.6815
  C  C611  1  0.978750  0.906670  0.410220  1.0  -0.0053
  C  C612  1  0.952310  0.895500  0.460670  1.0  -0.0665
  C  C613  1  0.856560  0.904850  0.479470  1.0  -0.1181
  C  C614  1  0.777870  0.926000  0.448390  1.0  -0.1099
  C  C615  1  0.799430  0.937380  0.400790  1.0  -0.1787
  C  C616  1  0.900360  0.928800  0.379220  1.0  0.1911
  C  C617  1  0.970670  0.754250  0.553540  1.0  0.1828
  C  C618  1  0.957230  0.718830  0.537140  1.0  -0.1511
  C  C619  1  0.850690  0.690690  0.546320  1.0  -0.0929
  C  C620  1  0.752580  0.695570  0.571930  1.0  -0.1162
  C  C621  1  0.762230  0.727440  0.589250  1.0  -0.0687
  C  C622  1  0.870790  0.758090  0.581020  1.0  0.042
  C  C623  1  0.884180  0.792190  0.597750  1.0  -0.1107
  C  C624  1  0.782270  0.795490  0.628980  1.0  0.679
  C  C625  1  0.992990  0.822730  0.585960  1.0  0.0206
  C  C626  1  0.011570  0.859510  0.600000  1.0  -0.0844
  C  C627  1  0.117810  0.888680  0.587650  1.0  -0.0899
  C  C628  1  0.212850  0.882300  0.560750  1.0  -0.0881
  C  C629  1  0.198820  0.848040  0.546080  1.0  -0.1569
  C  C630  1  0.088480  0.817050  0.558110  1.0  0.1938
  C  C631  1  0.205590  0.122860  0.317590  1.0  0.2164
  C  C632  1  0.293340  0.106500  0.344580  1.0  -0.1653
  C  C633  1  0.282770  0.058370  0.379160  1.0  -0.1114
  C  C634  1  0.183520  0.022050  0.388890  1.0  -0.1415
  C  C635  1  0.099020  0.035630  0.363170  1.0  -0.0688
  C  C636  1  0.107500  0.086060  0.326360  1.0  0.0162
  C  C637  1  0.022620  0.101620  0.298660  1.0  -0.083
  C  C638  1  0.921530  0.063800  0.303710  1.0  0.6774
  C  C639  1  0.031480  0.152360  0.265520  1.0  0.0378
  C  C640  1  0.944640  0.171140  0.238520  1.0  -0.1226
  C  C641  1  0.956760  0.220220  0.208340  1.0  -0.0886
  C  C642  1  0.055710  0.254120  0.201290  1.0  -0.0998
  C  C643  1  0.140740  0.238140  0.225720  1.0  -0.1399
  C  C644  1  0.131720  0.187080  0.259320  1.0  0.2104
  C  C645  1  0.783970  0.080140  0.202330  1.0  -0.0642
  C  C646  1  0.704200  0.887730  0.311330  1.0  -0.0677
  C  C647  1  0.238370  0.711070  0.594960  1.0  -0.0706
  C  C648  1  0.348780  0.793580  0.402640  1.0  -0.0783
  N  N649  1  0.541680  0.787520  0.027280  1.0  -0.3682
  N  N650  1  0.748470  0.669410  0.272800  1.0  -0.3437
  N  N651  1  0.380490  0.457850  0.325480  1.0  -0.3615
  N  N652  1  0.500000  0.715250  0.456250  1.0  -0.3252
  N  N653  1  0.568960  0.027280  0.185200  1.0  -0.3689
  N  N654  1  0.021270  0.272800  0.057790  1.0  -0.3479
  N  N655  1  0.705970  0.325480  0.216670  1.0  -0.3606
  N  N656  1  0.956250  0.456250  0.828500  1.0  -0.3265
  N  N657  1  0.754160  0.185200  0.787520  1.0  -0.3689
  N  N658  1  0.079060  0.057790  0.669410  1.0  -0.3437
  N  N659  1  0.922640  0.216670  0.457850  1.0  -0.3602
  N  N660  1  0.784750  0.828500  0.715250  1.0  -0.3249
  N  N661  1  0.458320  0.212480  0.972720  1.0  -0.3673
  N  N662  1  0.251530  0.330590  0.727200  1.0  -0.3461
  N  N663  1  0.619510  0.542150  0.674520  1.0  -0.3591
  N  N664  1  0.500000  0.284750  0.543750  1.0  -0.3247
  N  N665  1  0.431040  0.972720  0.814800  1.0  -0.3685
  N  N666  1  0.978730  0.727200  0.942210  1.0  -0.3462
  N  N667  1  0.294030  0.674520  0.783330  1.0  -0.3586
  N  N668  1  0.043750  0.543750  0.171500  1.0  -0.3259
  N  N669  1  0.245840  0.814800  0.212480  1.0  -0.3689
  N  N670  1  0.920940  0.942210  0.330590  1.0  -0.3453
  N  N671  1  0.077360  0.783330  0.542150  1.0  -0.3592
  N  N672  1  0.215250  0.171500  0.284750  1.0  -0.3243
  O  O673  1  0.228030  0.761510  0.163120  1.0  -0.576
  O  O674  1  0.178570  0.821340  0.098030  1.0  -0.5249
  O  O675  1  0.424690  0.559770  0.264800  1.0  -0.5815
  O  O676  1  0.337720  0.572500  0.323340  1.0  -0.516
  O  O677  1  0.555920  0.324670  0.440910  1.0  -0.5722
  O  O678  1  0.668780  0.391270  0.433830  1.0  -0.5333
  O  O679  1  0.777580  0.722760  0.321020  1.0  -0.5859
  O  O680  1  0.841160  0.668890  0.386010  1.0  -0.5474
  O  O681  1  0.006140  0.768300  0.258980  1.0  -0.6572
  O  O682  1  0.992160  0.717990  0.221510  1.0  -0.6234
  O  O683  1  0.188200  0.456960  0.276260  1.0  -0.6087
  O  O684  1  0.229560  0.544370  0.224290  1.0  -0.6367
  O  O685  1  0.391150  0.163120  0.075370  1.0  -0.5741
  O  O686  1  0.276600  0.098030  0.080630  1.0  -0.5267
  O  O687  1  0.689490  0.264800  0.175430  1.0  -0.5821
  O  O688  1  0.661060  0.323340  0.104160  1.0  -0.5162
  O  O689  1  0.996830  0.440910  0.234420  1.0  -0.5728
  O  O690  1  0.102610  0.433830  0.174900  1.0  -0.5333
  O  O691  1  0.098600  0.321020  0.956220  1.0  -0.5855
  O  O692  1  0.227170  0.386010  0.945100  1.0  -0.5488
  O  O693  1  0.265120  0.258980  0.972720  1.0  -0.6567
  O  O694  1  0.213670  0.221510  0.060500  1.0  -0.6263
  O  O695  1  0.464460  0.276260  0.266780  1.0  -0.6112
  O  O696  1  0.453850  0.224290  0.231340  1.0  -0.6378
  O  O697  1  0.466520  0.075370  0.761510  1.0  -0.575
  O  O698  1  0.357230  0.080630  0.821340  1.0  -0.525
  O  O699  1  0.864920  0.175430  0.559770  1.0  -0.5818
  O  O700  1  0.765220  0.104160  0.572500  1.0  -0.517
  O  O701  1  0.231250  0.234420  0.324670  1.0  -0.5725
  O  O702  1  0.277510  0.174900  0.391270  1.0  -0.5332
  O  O703  1  0.054820  0.956220  0.722760  1.0  -0.5864
  O  O704  1  0.172270  0.945100  0.668890  1.0  -0.5453
  O  O705  1  0.237840  0.972720  0.768300  1.0  -0.656
  O  O706  1  0.274170  0.060500  0.717990  1.0  -0.6245
  O  O707  1  0.731240  0.266780  0.456960  1.0  -0.609
  O  O708  1  0.685190  0.231340  0.544370  1.0  -0.6407
  O  O709  1  0.771970  0.238490  0.836880  1.0  -0.5758
  O  O710  1  0.821430  0.178660  0.901970  1.0  -0.5245
  O  O711  1  0.575310  0.440230  0.735200  1.0  -0.5803
  O  O712  1  0.662280  0.427500  0.676660  1.0  -0.5158
  O  O713  1  0.444080  0.675330  0.559090  1.0  -0.5729
  O  O714  1  0.331220  0.608730  0.566170  1.0  -0.5323
  O  O715  1  0.222420  0.277240  0.678980  1.0  -0.5869
  O  O716  1  0.158840  0.331110  0.613990  1.0  -0.5458
  O  O717  1  0.993860  0.231700  0.741020  1.0  -0.6563
  O  O718  1  0.007840  0.282010  0.778490  1.0  -0.6251
  O  O719  1  0.811800  0.543040  0.723740  1.0  -0.6083
  O  O720  1  0.770440  0.455630  0.775710  1.0  -0.6361
  O  O721  1  0.608850  0.836880  0.924630  1.0  -0.574
  O  O722  1  0.723400  0.901970  0.919370  1.0  -0.5243
  O  O723  1  0.310510  0.735200  0.824570  1.0  -0.5821
  O  O724  1  0.338940  0.676660  0.895840  1.0  -0.516
  O  O725  1  0.003170  0.559090  0.765580  1.0  -0.5726
  O  O726  1  0.897390  0.566170  0.825100  1.0  -0.5309
  O  O727  1  0.901400  0.678980  0.043780  1.0  -0.585
  O  O728  1  0.772830  0.613990  0.054900  1.0  -0.5478
  O  O729  1  0.734880  0.741020  0.027280  1.0  -0.657
  O  O730  1  0.786330  0.778490  0.939500  1.0  -0.6244
  O  O731  1  0.535540  0.723740  0.733220  1.0  -0.6085
  O  O732  1  0.546150  0.775710  0.768660  1.0  -0.6418
  O  O733  1  0.533480  0.924630  0.238490  1.0  -0.5758
  O  O734  1  0.642770  0.919370  0.178660  1.0  -0.5242
  O  O735  1  0.135080  0.824570  0.440230  1.0  -0.5813
  O  O736  1  0.234780  0.895840  0.427500  1.0  -0.5163
  O  O737  1  0.768750  0.765580  0.675330  1.0  -0.5736
  O  O738  1  0.722490  0.825100  0.608730  1.0  -0.5313
  O  O739  1  0.945180  0.043780  0.277240  1.0  -0.5857
  O  O740  1  0.827730  0.054900  0.331110  1.0  -0.5461
  O  O741  1  0.762160  0.027280  0.231700  1.0  -0.6569
  O  O742  1  0.725830  0.939500  0.282010  1.0  -0.6254
  O  O743  1  0.268760  0.733220  0.543040  1.0  -0.61
  O  O744  1  0.314810  0.768660  0.455630  1.0  -0.6384
