# generated using pymatgen
data_KBiH32(C27O4)2
_symmetry_space_group_name_H-M   'P 1'
_cell_length_a   32.07910000
_cell_length_b   11.90480000
_cell_length_c   37.73840000
_cell_angle_alpha   90.00000000
_cell_angle_beta   99.26900000
_cell_angle_gamma   90.00000000
_symmetry_Int_Tables_number   1
_chemical_formula_structural   KBiH32(C27O4)2
_chemical_formula_sum   'K8 Bi8 H256 C432 O64'
_cell_volume   14223.93755673
_cell_formula_units_Z   8
loop_
 _symmetry_equiv_pos_site_id
 _symmetry_equiv_pos_as_xyz
  1  'x, y, z'
loop_
 _atom_site_type_symbol
 _atom_site_label
 _atom_site_symmetry_multiplicity
 _atom_site_fract_x
 _atom_site_fract_y
 _atom_site_fract_z
 _atom_site_occupancy
 _atom_site_charge
  K  K1  1  0.204170  0.551080  0.234110  1.0  0.9422
  K  K2  1  0.704170  0.051080  0.234110  1.0  0.9422
  K  K3  1  0.795830  0.551080  0.265890  1.0  0.9421
  K  K4  1  0.295830  0.051080  0.265890  1.0  0.9421
  K  K5  1  0.795830  0.448920  0.765890  1.0  0.9422
  K  K6  1  0.295830  0.948920  0.765890  1.0  0.9422
  K  K7  1  0.204170  0.448920  0.734110  1.0  0.9424
  K  K8  1  0.704170  0.948920  0.734110  1.0  0.9424
  Bi  Bi9  1  0.246820  0.315810  0.304930  1.0  1.441
  Bi  Bi10  1  0.746820  0.815810  0.304930  1.0  1.441
  Bi  Bi11  1  0.753180  0.315810  0.195070  1.0  1.4412
  Bi  Bi12  1  0.253180  0.815810  0.195070  1.0  1.4412
  Bi  Bi13  1  0.753180  0.684190  0.695070  1.0  1.4413
  Bi  Bi14  1  0.253180  0.184190  0.695070  1.0  1.4413
  Bi  Bi15  1  0.246820  0.684190  0.804930  1.0  1.4416
  Bi  Bi16  1  0.746820  0.184190  0.804930  1.0  1.4416
  H  H17  1  0.124800  0.902700  0.121200  1.0  0.1201
  H  H18  1  0.082200  0.810000  0.075200  1.0  0.1001
  H  H19  1  0.990100  0.035800  0.078600  1.0  0.0931
  H  H20  1  0.032400  0.132000  0.123400  1.0  0.1246
  H  H21  1  0.083700  0.242500  0.150600  1.0  0.1182
  H  H22  1  0.125900  0.327100  0.198200  1.0  0.1076
  H  H23  1  0.189200  0.037200  0.222700  1.0  0.1077
  H  H24  1  0.146800  0.948100  0.175500  1.0  0.1237
  H  H25  1  0.064600  0.605800  0.969800  1.0  0.1106
  H  H26  1  0.022100  0.644700  0.012700  1.0  0.1153
  H  H27  1  0.046700  0.975200  0.004500  1.0  0.097
  H  H28  1  0.087000  0.936600  0.960700  1.0  0.1025
  H  H29  1  0.142900  0.620400  0.961700  1.0  0.1101
  H  H30  1  0.191100  0.598100  0.921700  1.0  0.1177
  H  H31  1  0.128400  0.830100  0.856000  1.0  0.1168
  H  H32  1  0.081800  0.858200  0.896700  1.0  0.1234
  H  H33  1  0.876100  0.534300  0.999700  1.0  0.1107
  H  H34  1  0.914900  0.639500  0.044600  1.0  0.1094
  H  H35  1  0.954600  0.838700  0.970600  1.0  0.0973
  H  H36  1  0.915300  0.733700  0.925300  1.0  0.1078
  H  H37  1  0.884400  0.400000  0.957900  1.0  0.1091
  H  H38  1  0.849900  0.277100  0.915300  1.0  0.1124
  H  H39  1  0.812300  0.539200  0.849900  1.0  0.1044
  H  H40  1  0.848400  0.662800  0.892200  1.0  0.1194
  H  H41  1  0.956200  0.803100  0.162700  1.0  0.1208
  H  H42  1  0.992100  0.780000  0.114200  1.0  0.1116
  H  H43  1  0.888200  0.875200  0.046300  1.0  0.1082
  H  H44  1  0.851200  0.894700  0.094500  1.0  0.1243
  H  H45  1  0.836700  0.983300  0.145100  1.0  0.1127
  H  H46  1  0.795600  0.982600  0.190700  1.0  0.1099
  H  H47  1  0.865400  0.725500  0.238600  1.0  0.1126
  H  H48  1  0.905900  0.725800  0.192600  1.0  0.1257
  H  H49  1  0.624800  0.402700  0.121200  1.0  0.1201
  H  H50  1  0.582200  0.310000  0.075200  1.0  0.1001
  H  H51  1  0.490100  0.535800  0.078600  1.0  0.0931
  H  H52  1  0.532400  0.632000  0.123400  1.0  0.1246
  H  H53  1  0.583700  0.742500  0.150600  1.0  0.1182
  H  H54  1  0.625900  0.827100  0.198200  1.0  0.1076
  H  H55  1  0.689200  0.537200  0.222700  1.0  0.1077
  H  H56  1  0.646800  0.448100  0.175500  1.0  0.1237
  H  H57  1  0.564600  0.105800  0.969800  1.0  0.1106
  H  H58  1  0.522100  0.144700  0.012700  1.0  0.1153
  H  H59  1  0.546700  0.475200  0.004500  1.0  0.097
  H  H60  1  0.587000  0.436600  0.960700  1.0  0.1025
  H  H61  1  0.642900  0.120400  0.961700  1.0  0.1101
  H  H62  1  0.691100  0.098100  0.921700  1.0  0.1177
  H  H63  1  0.628400  0.330100  0.856000  1.0  0.1168
  H  H64  1  0.581800  0.358200  0.896700  1.0  0.1234
  H  H65  1  0.376100  0.034300  0.999700  1.0  0.1107
  H  H66  1  0.414900  0.139500  0.044600  1.0  0.1094
  H  H67  1  0.454600  0.338700  0.970600  1.0  0.0973
  H  H68  1  0.415300  0.233700  0.925300  1.0  0.1078
  H  H69  1  0.384400  0.900000  0.957900  1.0  0.1091
  H  H70  1  0.349900  0.777100  0.915300  1.0  0.1124
  H  H71  1  0.312300  0.039200  0.849900  1.0  0.1044
  H  H72  1  0.348400  0.162800  0.892200  1.0  0.1194
  H  H73  1  0.456200  0.303100  0.162700  1.0  0.1208
  H  H74  1  0.492100  0.280000  0.114200  1.0  0.1116
  H  H75  1  0.388200  0.375200  0.046300  1.0  0.1082
  H  H76  1  0.351200  0.394700  0.094500  1.0  0.1243
  H  H77  1  0.336700  0.483300  0.145100  1.0  0.1127
  H  H78  1  0.295600  0.482600  0.190700  1.0  0.1099
  H  H79  1  0.365400  0.225500  0.238600  1.0  0.1126
  H  H80  1  0.405900  0.225800  0.192600  1.0  0.1257
  H  H81  1  0.875200  0.902700  0.378800  1.0  0.1199
  H  H82  1  0.917800  0.810000  0.424800  1.0  0.0998
  H  H83  1  0.009900  0.035800  0.421400  1.0  0.0932
  H  H84  1  0.967600  0.132000  0.376600  1.0  0.1245
  H  H85  1  0.916300  0.242500  0.349400  1.0  0.1184
  H  H86  1  0.874100  0.327100  0.301800  1.0  0.1074
  H  H87  1  0.810800  0.037200  0.277300  1.0  0.1079
  H  H88  1  0.853200  0.948100  0.324500  1.0  0.1241
  H  H89  1  0.935400  0.605800  0.530200  1.0  0.111
  H  H90  1  0.977900  0.644700  0.487300  1.0  0.1156
  H  H91  1  0.953300  0.975200  0.495500  1.0  0.0978
  H  H92  1  0.913000  0.936600  0.539300  1.0  0.1021
  H  H93  1  0.857100  0.620400  0.538300  1.0  0.109
  H  H94  1  0.808900  0.598100  0.578300  1.0  0.118
  H  H95  1  0.871600  0.830100  0.644000  1.0  0.1164
  H  H96  1  0.918200  0.858200  0.603300  1.0  0.1198
  H  H97  1  0.123900  0.534300  0.500300  1.0  0.1115
  H  H98  1  0.085100  0.639500  0.455400  1.0  0.1094
  H  H99  1  0.045400  0.838700  0.529400  1.0  0.0975
  H  H100  1  0.084700  0.733700  0.574700  1.0  0.1083
  H  H101  1  0.115600  0.400000  0.542100  1.0  0.1087
  H  H102  1  0.150100  0.277100  0.584700  1.0  0.1124
  H  H103  1  0.187700  0.539200  0.650100  1.0  0.1045
  H  H104  1  0.151600  0.662800  0.607800  1.0  0.1191
  H  H105  1  0.043800  0.803100  0.337300  1.0  0.1199
  H  H106  1  0.007900  0.780000  0.385800  1.0  0.1128
  H  H107  1  0.111800  0.875200  0.453700  1.0  0.1089
  H  H108  1  0.148800  0.894700  0.405500  1.0  0.1248
  H  H109  1  0.163300  0.983300  0.354900  1.0  0.1128
  H  H110  1  0.204400  0.982600  0.309300  1.0  0.1097
  H  H111  1  0.134600  0.725500  0.261400  1.0  0.1124
  H  H112  1  0.094100  0.725800  0.307400  1.0  0.1256
  H  H113  1  0.375200  0.402700  0.378800  1.0  0.1199
  H  H114  1  0.417800  0.310000  0.424800  1.0  0.0998
  H  H115  1  0.509900  0.535800  0.421400  1.0  0.0932
  H  H116  1  0.467600  0.632000  0.376600  1.0  0.1245
  H  H117  1  0.416300  0.742500  0.349400  1.0  0.1184
  H  H118  1  0.374100  0.827100  0.301800  1.0  0.1074
  H  H119  1  0.310800  0.537200  0.277300  1.0  0.1079
  H  H120  1  0.353200  0.448100  0.324500  1.0  0.1241
  H  H121  1  0.435400  0.105800  0.530200  1.0  0.111
  H  H122  1  0.477900  0.144700  0.487300  1.0  0.1156
  H  H123  1  0.453300  0.475200  0.495500  1.0  0.0978
  H  H124  1  0.413000  0.436600  0.539300  1.0  0.1021
  H  H125  1  0.357100  0.120400  0.538300  1.0  0.109
  H  H126  1  0.308900  0.098100  0.578300  1.0  0.118
  H  H127  1  0.371600  0.330100  0.644000  1.0  0.1164
  H  H128  1  0.418200  0.358200  0.603300  1.0  0.1198
  H  H129  1  0.623900  0.034300  0.500300  1.0  0.1115
  H  H130  1  0.585100  0.139500  0.455400  1.0  0.1094
  H  H131  1  0.545400  0.338700  0.529400  1.0  0.0975
  H  H132  1  0.584700  0.233700  0.574700  1.0  0.1083
  H  H133  1  0.615600  0.900000  0.542100  1.0  0.1087
  H  H134  1  0.650100  0.777100  0.584700  1.0  0.1124
  H  H135  1  0.687700  0.039200  0.650100  1.0  0.1045
  H  H136  1  0.651600  0.162800  0.607800  1.0  0.1191
  H  H137  1  0.543800  0.303100  0.337300  1.0  0.1199
  H  H138  1  0.507900  0.280000  0.385800  1.0  0.1128
  H  H139  1  0.611800  0.375200  0.453700  1.0  0.1089
  H  H140  1  0.648800  0.394700  0.405500  1.0  0.1248
  H  H141  1  0.663300  0.483300  0.354900  1.0  0.1128
  H  H142  1  0.704400  0.482600  0.309300  1.0  0.1097
  H  H143  1  0.634600  0.225500  0.261400  1.0  0.1124
  H  H144  1  0.594100  0.225800  0.307400  1.0  0.1256
  H  H145  1  0.875200  0.097300  0.878800  1.0  0.1199
  H  H146  1  0.917800  0.190000  0.924800  1.0  0.1002
  H  H147  1  0.009900  0.964200  0.921400  1.0  0.0941
  H  H148  1  0.967600  0.868000  0.876600  1.0  0.1245
  H  H149  1  0.916300  0.757500  0.849400  1.0  0.1181
  H  H150  1  0.874100  0.672900  0.801800  1.0  0.1076
  H  H151  1  0.810800  0.962800  0.777300  1.0  0.1077
  H  H152  1  0.853200  0.051900  0.824500  1.0  0.124
  H  H153  1  0.935400  0.394200  0.030200  1.0  0.1105
  H  H154  1  0.977900  0.355300  0.987300  1.0  0.1166
  H  H155  1  0.953300  0.024800  0.995500  1.0  0.0975
  H  H156  1  0.913000  0.063400  0.039300  1.0  0.1015
  H  H157  1  0.857100  0.379600  0.038300  1.0  0.1089
  H  H158  1  0.808900  0.401900  0.078300  1.0  0.1185
  H  H159  1  0.871600  0.169900  0.144000  1.0  0.1181
  H  H160  1  0.918200  0.141800  0.103300  1.0  0.1189
  H  H161  1  0.123900  0.465700  0.000300  1.0  0.1114
  H  H162  1  0.085100  0.360500  0.955400  1.0  0.1096
  H  H163  1  0.045400  0.161300  0.029400  1.0  0.0977
  H  H164  1  0.084700  0.266300  0.074700  1.0  0.1082
  H  H165  1  0.115600  0.600000  0.042100  1.0  0.1088
  H  H166  1  0.150100  0.722900  0.084700  1.0  0.1126
  H  H167  1  0.187700  0.460800  0.150100  1.0  0.1047
  H  H168  1  0.151600  0.337200  0.107800  1.0  0.1196
  H  H169  1  0.043800  0.196900  0.837300  1.0  0.1198
  H  H170  1  0.007900  0.220000  0.885800  1.0  0.113
  H  H171  1  0.111800  0.124800  0.953700  1.0  0.1091
  H  H172  1  0.148800  0.105300  0.905500  1.0  0.1245
  H  H173  1  0.163300  0.016700  0.854900  1.0  0.1133
  H  H174  1  0.204400  0.017400  0.809300  1.0  0.1105
  H  H175  1  0.134600  0.274500  0.761400  1.0  0.113
  H  H176  1  0.094100  0.274200  0.807400  1.0  0.1261
  H  H177  1  0.375200  0.597300  0.878800  1.0  0.1199
  H  H178  1  0.417800  0.690000  0.924800  1.0  0.1002
  H  H179  1  0.509900  0.464200  0.921400  1.0  0.0941
  H  H180  1  0.467600  0.368000  0.876600  1.0  0.1245
  H  H181  1  0.416300  0.257500  0.849400  1.0  0.1181
  H  H182  1  0.374100  0.172900  0.801800  1.0  0.1076
  H  H183  1  0.310800  0.462800  0.777300  1.0  0.1077
  H  H184  1  0.353200  0.551900  0.824500  1.0  0.124
  H  H185  1  0.435400  0.894200  0.030200  1.0  0.1105
  H  H186  1  0.477900  0.855300  0.987300  1.0  0.1166
  H  H187  1  0.453300  0.524800  0.995500  1.0  0.0975
  H  H188  1  0.413000  0.563400  0.039300  1.0  0.1015
  H  H189  1  0.357100  0.879600  0.038300  1.0  0.1089
  H  H190  1  0.308900  0.901900  0.078300  1.0  0.1185
  H  H191  1  0.371600  0.669900  0.144000  1.0  0.1181
  H  H192  1  0.418200  0.641800  0.103300  1.0  0.1189
  H  H193  1  0.623900  0.965700  0.000300  1.0  0.1114
  H  H194  1  0.585100  0.860500  0.955400  1.0  0.1096
  H  H195  1  0.545400  0.661300  0.029400  1.0  0.0977
  H  H196  1  0.584700  0.766300  0.074700  1.0  0.1082
  H  H197  1  0.615600  0.100000  0.042100  1.0  0.1088
  H  H198  1  0.650100  0.222900  0.084700  1.0  0.1126
  H  H199  1  0.687700  0.960800  0.150100  1.0  0.1047
  H  H200  1  0.651600  0.837200  0.107800  1.0  0.1196
  H  H201  1  0.543800  0.696900  0.837300  1.0  0.1198
  H  H202  1  0.507900  0.720000  0.885800  1.0  0.113
  H  H203  1  0.611800  0.624800  0.953700  1.0  0.1091
  H  H204  1  0.648800  0.605300  0.905500  1.0  0.1245
  H  H205  1  0.663300  0.516700  0.854900  1.0  0.1133
  H  H206  1  0.704400  0.517400  0.809300  1.0  0.1105
  H  H207  1  0.634600  0.774500  0.761400  1.0  0.113
  H  H208  1  0.594100  0.774200  0.807400  1.0  0.1261
  H  H209  1  0.124800  0.097300  0.621200  1.0  0.1203
  H  H210  1  0.082200  0.190000  0.575200  1.0  0.1006
  H  H211  1  0.990100  0.964200  0.578600  1.0  0.0949
  H  H212  1  0.032400  0.868000  0.623400  1.0  0.1245
  H  H213  1  0.083700  0.757500  0.650600  1.0  0.1174
  H  H214  1  0.125900  0.672900  0.698200  1.0  0.1076
  H  H215  1  0.189200  0.962800  0.722700  1.0  0.1074
  H  H216  1  0.146800  0.051900  0.675500  1.0  0.1236
  H  H217  1  0.064600  0.394200  0.469800  1.0  0.1108
  H  H218  1  0.022100  0.355300  0.512700  1.0  0.1163
  H  H219  1  0.046700  0.024800  0.504500  1.0  0.0974
  H  H220  1  0.087000  0.063400  0.460700  1.0  0.1023
  H  H221  1  0.142900  0.379600  0.461700  1.0  0.1099
  H  H222  1  0.191100  0.401900  0.421700  1.0  0.1176
  H  H223  1  0.128400  0.169900  0.356000  1.0  0.1185
  H  H224  1  0.081800  0.141800  0.396700  1.0  0.1216
  H  H225  1  0.876100  0.465700  0.499700  1.0  0.1111
  H  H226  1  0.914900  0.360500  0.544600  1.0  0.1093
  H  H227  1  0.954600  0.161300  0.470600  1.0  0.0973
  H  H228  1  0.915300  0.266300  0.425300  1.0  0.1079
  H  H229  1  0.884400  0.600000  0.457900  1.0  0.1087
  H  H230  1  0.849900  0.722900  0.415300  1.0  0.1125
  H  H231  1  0.812300  0.460800  0.349900  1.0  0.1043
  H  H232  1  0.848400  0.337200  0.392200  1.0  0.1196
  H  H233  1  0.956200  0.196900  0.662700  1.0  0.121
  H  H234  1  0.992100  0.220000  0.614200  1.0  0.112
  H  H235  1  0.888200  0.124800  0.546300  1.0  0.1083
  H  H236  1  0.851200  0.105300  0.594500  1.0  0.1247
  H  H237  1  0.836700  0.016700  0.645100  1.0  0.1127
  H  H238  1  0.795600  0.017400  0.690700  1.0  0.11
  H  H239  1  0.865400  0.274500  0.738600  1.0  0.1125
  H  H240  1  0.905900  0.274200  0.692600  1.0  0.1258
  H  H241  1  0.624800  0.597300  0.621200  1.0  0.1203
  H  H242  1  0.582200  0.690000  0.575200  1.0  0.1006
  H  H243  1  0.490100  0.464200  0.578600  1.0  0.0949
  H  H244  1  0.532400  0.368000  0.623400  1.0  0.1245
  H  H245  1  0.583700  0.257500  0.650600  1.0  0.1174
  H  H246  1  0.625900  0.172900  0.698200  1.0  0.1076
  H  H247  1  0.689200  0.462800  0.722700  1.0  0.1074
  H  H248  1  0.646800  0.551900  0.675500  1.0  0.1236
  H  H249  1  0.564600  0.894200  0.469800  1.0  0.1108
  H  H250  1  0.522100  0.855300  0.512700  1.0  0.1163
  H  H251  1  0.546700  0.524800  0.504500  1.0  0.0974
  H  H252  1  0.587000  0.563400  0.460700  1.0  0.1023
  H  H253  1  0.642900  0.879600  0.461700  1.0  0.1099
  H  H254  1  0.691100  0.901900  0.421700  1.0  0.1176
  H  H255  1  0.628400  0.669900  0.356000  1.0  0.1185
  H  H256  1  0.581800  0.641800  0.396700  1.0  0.1216
  H  H257  1  0.376100  0.965700  0.499700  1.0  0.1111
  H  H258  1  0.414900  0.860500  0.544600  1.0  0.1093
  H  H259  1  0.454600  0.661300  0.470600  1.0  0.0973
  H  H260  1  0.415300  0.766300  0.425300  1.0  0.1079
  H  H261  1  0.384400  0.100000  0.457900  1.0  0.1087
  H  H262  1  0.349900  0.222900  0.415300  1.0  0.1125
  H  H263  1  0.312300  0.960800  0.349900  1.0  0.1043
  H  H264  1  0.348400  0.837200  0.392200  1.0  0.1196
  H  H265  1  0.456200  0.696900  0.662700  1.0  0.121
  H  H266  1  0.492100  0.720000  0.614200  1.0  0.112
  H  H267  1  0.388200  0.624800  0.546300  1.0  0.1083
  H  H268  1  0.351200  0.605300  0.594500  1.0  0.1247
  H  H269  1  0.336700  0.516700  0.645100  1.0  0.1127
  H  H270  1  0.295600  0.517400  0.690700  1.0  0.11
  H  H271  1  0.365400  0.774500  0.738600  1.0  0.1125
  H  H272  1  0.405900  0.774200  0.692600  1.0  0.1258
  C  C273  1  0.005400  0.844400  0.042820  1.0  0.0116
  C  C274  1  0.965800  0.811000  0.043410  1.0  0.0213
  C  C275  1  0.097200  0.930500  0.112650  1.0  -0.1652
  C  C276  1  0.071600  0.875000  0.085320  1.0  -0.1276
  C  C277  1  0.030930  0.911100  0.072200  1.0  0.0251
  C  C278  1  0.017650  0.007900  0.087230  1.0  -0.123
  C  C279  1  0.042650  0.065200  0.114050  1.0  -0.1385
  C  C280  1  0.082980  0.026700  0.127750  1.0  0.0451
  C  C281  1  0.110160  0.084300  0.157570  1.0  0.0546
  C  C282  1  0.104900  0.199800  0.165240  1.0  -0.137
  C  C283  1  0.130070  0.249800  0.193430  1.0  -0.0447
  C  C284  1  0.161460  0.191000  0.215310  1.0  -0.1327
  C  C285  1  0.167500  0.078200  0.208050  1.0  -0.0237
  C  C286  1  0.142400  0.025400  0.179900  1.0  -0.1253
  C  C287  1  0.188010  0.245500  0.246390  1.0  0.681
  C  C288  1  0.060700  0.681500  0.976590  1.0  -0.1237
  C  C289  1  0.035490  0.704700  0.002300  1.0  -0.1176
  C  C290  1  0.029450  0.813700  0.013120  1.0  0.0341
  C  C291  1  0.049770  0.899600  0.997230  1.0  -0.129
  C  C292  1  0.074090  0.876600  0.971410  1.0  -0.0985
  C  C293  1  0.080180  0.767100  0.960690  1.0  0.0686
  C  C294  1  0.108410  0.744300  0.933640  1.0  0.0414
  C  C295  1  0.140400  0.665100  0.940550  1.0  -0.1326
  C  C296  1  0.168700  0.650800  0.916630  1.0  -0.0571
  C  C297  1  0.164250  0.713600  0.885360  1.0  -0.1108
  C  C298  1  0.131900  0.788800  0.877830  1.0  -0.0291
  C  C299  1  0.104000  0.805000  0.901940  1.0  -0.1513
  C  C300  1  0.195980  0.699600  0.860180  1.0  0.7112
  C  C301  1  0.892700  0.595200  0.993570  1.0  -0.1476
  C  C302  1  0.915700  0.657900  0.020250  1.0  -0.1269
  C  C303  1  0.940310  0.747800  0.012380  1.0  0.074
  C  C304  1  0.939140  0.775500  0.976680  1.0  -0.1189
  C  C305  1  0.915800  0.712700  0.949630  1.0  -0.1122
  C  C306  1  0.893200  0.619800  0.957610  1.0  0.0837
  C  C307  1  0.870130  0.543300  0.929370  1.0  0.0262
  C  C308  1  0.869900  0.428700  0.935790  1.0  -0.1382
  C  C309  1  0.849100  0.355600  0.910640  1.0  -0.03
  C  C310  1  0.827040  0.396300  0.878280  1.0  -0.132
  C  C311  1  0.827100  0.510600  0.871890  1.0  -0.053
  C  C312  1  0.848600  0.584500  0.897070  1.0  -0.1397
  C  C313  1  0.804240  0.313400  0.852840  1.0  0.7276
  C  C314  1  0.941920  0.817400  0.139020  1.0  -0.1431
  C  C315  1  0.963620  0.805300  0.110070  1.0  -0.1415
  C  C316  1  0.944290  0.829600  0.075320  1.0  0.0523
  C  C317  1  0.902250  0.860900  0.070000  1.0  -0.1172
  C  C318  1  0.880000  0.872000  0.098850  1.0  -0.1388
  C  C319  1  0.899700  0.850200  0.133910  1.0  0.0461
  C  C320  1  0.875600  0.855000  0.164130  1.0  0.0524
  C  C321  1  0.842500  0.930100  0.164040  1.0  -0.145
  C  C322  1  0.817600  0.929200  0.190970  1.0  -0.0602
  C  C323  1  0.825120  0.850200  0.218260  1.0  -0.1352
  C  C324  1  0.858970  0.776900  0.219190  1.0  -0.0616
  C  C325  1  0.883500  0.778200  0.192040  1.0  -0.1225
  C  C326  1  0.796530  0.842800  0.246140  1.0  0.6578
  C  C327  1  0.505400  0.344400  0.042820  1.0  0.0116
  C  C328  1  0.465800  0.311000  0.043410  1.0  0.0213
  C  C329  1  0.597200  0.430500  0.112650  1.0  -0.1652
  C  C330  1  0.571600  0.375000  0.085320  1.0  -0.1276
  C  C331  1  0.530930  0.411100  0.072200  1.0  0.0251
  C  C332  1  0.517650  0.507900  0.087230  1.0  -0.123
  C  C333  1  0.542650  0.565200  0.114050  1.0  -0.1385
  C  C334  1  0.582980  0.526700  0.127750  1.0  0.0451
  C  C335  1  0.610160  0.584300  0.157570  1.0  0.0546
  C  C336  1  0.604900  0.699800  0.165240  1.0  -0.137
  C  C337  1  0.630070  0.749800  0.193430  1.0  -0.0447
  C  C338  1  0.661460  0.691000  0.215310  1.0  -0.1327
  C  C339  1  0.667500  0.578200  0.208050  1.0  -0.0237
  C  C340  1  0.642400  0.525400  0.179900  1.0  -0.1253
  C  C341  1  0.688010  0.745500  0.246390  1.0  0.681
  C  C342  1  0.560700  0.181500  0.976590  1.0  -0.1237
  C  C343  1  0.535490  0.204700  0.002300  1.0  -0.1176
  C  C344  1  0.529450  0.313700  0.013120  1.0  0.0341
  C  C345  1  0.549770  0.399600  0.997230  1.0  -0.129
  C  C346  1  0.574090  0.376600  0.971410  1.0  -0.0985
  C  C347  1  0.580180  0.267100  0.960690  1.0  0.0686
  C  C348  1  0.608410  0.244300  0.933640  1.0  0.0414
  C  C349  1  0.640400  0.165100  0.940550  1.0  -0.1326
  C  C350  1  0.668700  0.150800  0.916630  1.0  -0.0571
  C  C351  1  0.664250  0.213600  0.885360  1.0  -0.1108
  C  C352  1  0.631900  0.288800  0.877830  1.0  -0.0291
  C  C353  1  0.604000  0.305000  0.901940  1.0  -0.1513
  C  C354  1  0.695980  0.199600  0.860180  1.0  0.7112
  C  C355  1  0.392700  0.095200  0.993570  1.0  -0.1476
  C  C356  1  0.415700  0.157900  0.020250  1.0  -0.1269
  C  C357  1  0.440310  0.247800  0.012380  1.0  0.074
  C  C358  1  0.439140  0.275500  0.976680  1.0  -0.1189
  C  C359  1  0.415800  0.212700  0.949630  1.0  -0.1122
  C  C360  1  0.393200  0.119800  0.957610  1.0  0.0837
  C  C361  1  0.370130  0.043300  0.929370  1.0  0.0262
  C  C362  1  0.369900  0.928700  0.935790  1.0  -0.1382
  C  C363  1  0.349100  0.855600  0.910640  1.0  -0.03
  C  C364  1  0.327040  0.896300  0.878280  1.0  -0.132
  C  C365  1  0.327100  0.010600  0.871890  1.0  -0.053
  C  C366  1  0.348600  0.084500  0.897070  1.0  -0.1397
  C  C367  1  0.304240  0.813400  0.852840  1.0  0.7276
  C  C368  1  0.441920  0.317400  0.139020  1.0  -0.1431
  C  C369  1  0.463620  0.305300  0.110070  1.0  -0.1415
  C  C370  1  0.444290  0.329600  0.075320  1.0  0.0523
  C  C371  1  0.402250  0.360900  0.070000  1.0  -0.1172
  C  C372  1  0.380000  0.372000  0.098850  1.0  -0.1388
  C  C373  1  0.399700  0.350200  0.133910  1.0  0.0461
  C  C374  1  0.375600  0.355000  0.164130  1.0  0.0524
  C  C375  1  0.342500  0.430100  0.164040  1.0  -0.145
  C  C376  1  0.317600  0.429200  0.190970  1.0  -0.0602
  C  C377  1  0.325120  0.350200  0.218260  1.0  -0.1352
  C  C378  1  0.358970  0.276900  0.219190  1.0  -0.0616
  C  C379  1  0.383500  0.278200  0.192040  1.0  -0.1225
  C  C380  1  0.296530  0.342800  0.246140  1.0  0.6578
  C  C381  1  0.994600  0.844400  0.457180  1.0  0.0111
  C  C382  1  0.034200  0.811000  0.456590  1.0  0.0211
  C  C383  1  0.902800  0.930500  0.387350  1.0  -0.165
  C  C384  1  0.928400  0.875000  0.414680  1.0  -0.1261
  C  C385  1  0.969070  0.911100  0.427800  1.0  0.0258
  C  C386  1  0.982350  0.007900  0.412770  1.0  -0.1242
  C  C387  1  0.957350  0.065200  0.385950  1.0  -0.1381
  C  C388  1  0.917020  0.026700  0.372250  1.0  0.0454
  C  C389  1  0.889840  0.084300  0.342430  1.0  0.0533
  C  C390  1  0.895100  0.199800  0.334760  1.0  -0.1357
  C  C391  1  0.869930  0.249800  0.306570  1.0  -0.0455
  C  C392  1  0.838540  0.191000  0.284690  1.0  -0.1323
  C  C393  1  0.832500  0.078200  0.291950  1.0  -0.0232
  C  C394  1  0.857600  0.025400  0.320100  1.0  -0.1257
  C  C395  1  0.811990  0.245500  0.253610  1.0  0.6809
  C  C396  1  0.939300  0.681500  0.523410  1.0  -0.1234
  C  C397  1  0.964510  0.704700  0.497700  1.0  -0.1176
  C  C398  1  0.970550  0.813700  0.486880  1.0  0.0333
  C  C399  1  0.950230  0.899600  0.502770  1.0  -0.1278
  C  C400  1  0.925910  0.876600  0.528590  1.0  -0.0989
  C  C401  1  0.919820  0.767100  0.539310  1.0  0.0669
  C  C402  1  0.891590  0.744300  0.566360  1.0  0.0405
  C  C403  1  0.859600  0.665100  0.559450  1.0  -0.1325
  C  C404  1  0.831300  0.650800  0.583370  1.0  -0.0588
  C  C405  1  0.835750  0.713600  0.614640  1.0  -0.1113
  C  C406  1  0.868100  0.788800  0.622170  1.0  -0.0281
  C  C407  1  0.896000  0.805000  0.598060  1.0  -0.1512
  C  C408  1  0.804020  0.699600  0.639820  1.0  0.7124
  C  C409  1  0.107300  0.595200  0.506430  1.0  -0.1463
  C  C410  1  0.084300  0.657900  0.479750  1.0  -0.1284
  C  C411  1  0.059690  0.747800  0.487620  1.0  0.0743
  C  C412  1  0.060860  0.775500  0.523320  1.0  -0.1167
  C  C413  1  0.084200  0.712700  0.550370  1.0  -0.113
  C  C414  1  0.106800  0.619800  0.542390  1.0  0.0847
  C  C415  1  0.129870  0.543300  0.570630  1.0  0.0263
  C  C416  1  0.130100  0.428700  0.564210  1.0  -0.1375
  C  C417  1  0.150900  0.355600  0.589360  1.0  -0.0303
  C  C418  1  0.172960  0.396300  0.621720  1.0  -0.1331
  C  C419  1  0.172900  0.510600  0.628110  1.0  -0.0529
  C  C420  1  0.151400  0.584500  0.602930  1.0  -0.1402
  C  C421  1  0.195760  0.313400  0.647160  1.0  0.7276
  C  C422  1  0.058080  0.817400  0.360980  1.0  -0.1444
  C  C423  1  0.036380  0.805300  0.389930  1.0  -0.1413
  C  C424  1  0.055710  0.829600  0.424680  1.0  0.0535
  C  C425  1  0.097750  0.860900  0.430000  1.0  -0.115
  C  C426  1  0.120000  0.872000  0.401150  1.0  -0.1398
  C  C427  1  0.100300  0.850200  0.366090  1.0  0.047
  C  C428  1  0.124400  0.855000  0.335870  1.0  0.0523
  C  C429  1  0.157500  0.930100  0.335960  1.0  -0.1449
  C  C430  1  0.182400  0.929200  0.309030  1.0  -0.0599
  C  C431  1  0.174880  0.850200  0.281740  1.0  -0.1348
  C  C432  1  0.141030  0.776900  0.280810  1.0  -0.0609
  C  C433  1  0.116500  0.778200  0.307960  1.0  -0.1213
  C  C434  1  0.203470  0.842800  0.253860  1.0  0.657
  C  C435  1  0.494600  0.344400  0.457180  1.0  0.0111
  C  C436  1  0.534200  0.311000  0.456590  1.0  0.0211
  C  C437  1  0.402800  0.430500  0.387350  1.0  -0.165
  C  C438  1  0.428400  0.375000  0.414680  1.0  -0.1261
  C  C439  1  0.469070  0.411100  0.427800  1.0  0.0258
  C  C440  1  0.482350  0.507900  0.412770  1.0  -0.1242
  C  C441  1  0.457350  0.565200  0.385950  1.0  -0.1381
  C  C442  1  0.417020  0.526700  0.372250  1.0  0.0454
  C  C443  1  0.389840  0.584300  0.342430  1.0  0.0533
  C  C444  1  0.395100  0.699800  0.334760  1.0  -0.1357
  C  C445  1  0.369930  0.749800  0.306570  1.0  -0.0455
  C  C446  1  0.338540  0.691000  0.284690  1.0  -0.1323
  C  C447  1  0.332500  0.578200  0.291950  1.0  -0.0232
  C  C448  1  0.357600  0.525400  0.320100  1.0  -0.1257
  C  C449  1  0.311990  0.745500  0.253610  1.0  0.6809
  C  C450  1  0.439300  0.181500  0.523410  1.0  -0.1234
  C  C451  1  0.464510  0.204700  0.497700  1.0  -0.1176
  C  C452  1  0.470550  0.313700  0.486880  1.0  0.0333
  C  C453  1  0.450230  0.399600  0.502770  1.0  -0.1278
  C  C454  1  0.425910  0.376600  0.528590  1.0  -0.0989
  C  C455  1  0.419820  0.267100  0.539310  1.0  0.0669
  C  C456  1  0.391590  0.244300  0.566360  1.0  0.0405
  C  C457  1  0.359600  0.165100  0.559450  1.0  -0.1325
  C  C458  1  0.331300  0.150800  0.583370  1.0  -0.0588
  C  C459  1  0.335750  0.213600  0.614640  1.0  -0.1113
  C  C460  1  0.368100  0.288800  0.622170  1.0  -0.0281
  C  C461  1  0.396000  0.305000  0.598060  1.0  -0.1512
  C  C462  1  0.304020  0.199600  0.639820  1.0  0.7124
  C  C463  1  0.607300  0.095200  0.506430  1.0  -0.1463
  C  C464  1  0.584300  0.157900  0.479750  1.0  -0.1284
  C  C465  1  0.559690  0.247800  0.487620  1.0  0.0743
  C  C466  1  0.560860  0.275500  0.523320  1.0  -0.1167
  C  C467  1  0.584200  0.212700  0.550370  1.0  -0.113
  C  C468  1  0.606800  0.119800  0.542390  1.0  0.0847
  C  C469  1  0.629870  0.043300  0.570630  1.0  0.0263
  C  C470  1  0.630100  0.928700  0.564210  1.0  -0.1375
  C  C471  1  0.650900  0.855600  0.589360  1.0  -0.0303
  C  C472  1  0.672960  0.896300  0.621720  1.0  -0.1331
  C  C473  1  0.672900  0.010600  0.628110  1.0  -0.0529
  C  C474  1  0.651400  0.084500  0.602930  1.0  -0.1402
  C  C475  1  0.695760  0.813400  0.647160  1.0  0.7276
  C  C476  1  0.558080  0.317400  0.360980  1.0  -0.1444
  C  C477  1  0.536380  0.305300  0.389930  1.0  -0.1413
  C  C478  1  0.555710  0.329600  0.424680  1.0  0.0535
  C  C479  1  0.597750  0.360900  0.430000  1.0  -0.115
  C  C480  1  0.620000  0.372000  0.401150  1.0  -0.1398
  C  C481  1  0.600300  0.350200  0.366090  1.0  0.047
  C  C482  1  0.624400  0.355000  0.335870  1.0  0.0523
  C  C483  1  0.657500  0.430100  0.335960  1.0  -0.1449
  C  C484  1  0.682400  0.429200  0.309030  1.0  -0.0599
  C  C485  1  0.674880  0.350200  0.281740  1.0  -0.1348
  C  C486  1  0.641030  0.276900  0.280810  1.0  -0.0609
  C  C487  1  0.616500  0.278200  0.307960  1.0  -0.1213
  C  C488  1  0.703470  0.342800  0.253860  1.0  0.657
  C  C489  1  0.994600  0.155600  0.957180  1.0  0.0115
  C  C490  1  0.034200  0.189000  0.956590  1.0  0.0214
  C  C491  1  0.902800  0.069500  0.887350  1.0  -0.1649
  C  C492  1  0.928400  0.125000  0.914680  1.0  -0.1263
  C  C493  1  0.969070  0.088900  0.927800  1.0  0.0254
  C  C494  1  0.982350  0.992100  0.912770  1.0  -0.1251
  C  C495  1  0.957350  0.934800  0.885950  1.0  -0.1387
  C  C496  1  0.917020  0.973300  0.872250  1.0  0.0451
  C  C497  1  0.889840  0.915700  0.842430  1.0  0.0535
  C  C498  1  0.895100  0.800200  0.834760  1.0  -0.1346
  C  C499  1  0.869930  0.750200  0.806570  1.0  -0.0457
  C  C500  1  0.838540  0.809000  0.784690  1.0  -0.134
  C  C501  1  0.832500  0.921800  0.791950  1.0  -0.0236
  C  C502  1  0.857600  0.974600  0.820100  1.0  -0.1253
  C  C503  1  0.811990  0.754500  0.753610  1.0  0.6799
  C  C504  1  0.939300  0.318500  0.023410  1.0  -0.1245
  C  C505  1  0.964510  0.295300  0.997700  1.0  -0.1175
  C  C506  1  0.970550  0.186300  0.986880  1.0  0.0338
  C  C507  1  0.950230  0.100400  0.002770  1.0  -0.1281
  C  C508  1  0.925910  0.123400  0.028590  1.0  -0.0983
  C  C509  1  0.919820  0.232900  0.039310  1.0  0.0673
  C  C510  1  0.891590  0.255700  0.066360  1.0  0.0406
  C  C511  1  0.859600  0.334900  0.059450  1.0  -0.1319
  C  C512  1  0.831300  0.349200  0.083370  1.0  -0.0586
  C  C513  1  0.835750  0.286400  0.114640  1.0  -0.1103
  C  C514  1  0.868100  0.211200  0.122170  1.0  -0.0282
  C  C515  1  0.896000  0.195000  0.098060  1.0  -0.1518
  C  C516  1  0.804020  0.300400  0.139820  1.0  0.712
  C  C517  1  0.107300  0.404800  0.006430  1.0  -0.1471
  C  C518  1  0.084300  0.342100  0.979750  1.0  -0.1291
  C  C519  1  0.059690  0.252200  0.987620  1.0  0.0742
  C  C520  1  0.060860  0.224500  0.023320  1.0  -0.1172
  C  C521  1  0.084200  0.287300  0.050370  1.0  -0.1133
  C  C522  1  0.106800  0.380200  0.042390  1.0  0.0846
  C  C523  1  0.129870  0.456700  0.070630  1.0  0.0262
  C  C524  1  0.130100  0.571300  0.064210  1.0  -0.1372
  C  C525  1  0.150900  0.644400  0.089360  1.0  -0.0294
  C  C526  1  0.172960  0.603700  0.121720  1.0  -0.1331
  C  C527  1  0.172900  0.489400  0.128110  1.0  -0.0523
  C  C528  1  0.151400  0.415500  0.102930  1.0  -0.1387
  C  C529  1  0.195760  0.686600  0.147160  1.0  0.7275
  C  C530  1  0.058080  0.182600  0.860980  1.0  -0.1451
  C  C531  1  0.036380  0.194700  0.889930  1.0  -0.1422
  C  C532  1  0.055710  0.170400  0.924680  1.0  0.0545
  C  C533  1  0.097750  0.139100  0.930000  1.0  -0.1147
  C  C534  1  0.120000  0.128000  0.901150  1.0  -0.1393
  C  C535  1  0.100300  0.149800  0.866090  1.0  0.0469
  C  C536  1  0.124400  0.145000  0.835870  1.0  0.0522
  C  C537  1  0.157500  0.069900  0.835960  1.0  -0.1451
  C  C538  1  0.182400  0.070800  0.809030  1.0  -0.06
  C  C539  1  0.174880  0.149800  0.781740  1.0  -0.1345
  C  C540  1  0.141030  0.223100  0.780810  1.0  -0.0612
  C  C541  1  0.116500  0.221800  0.807960  1.0  -0.1234
  C  C542  1  0.203470  0.157200  0.753860  1.0  0.658
  C  C543  1  0.494600  0.655600  0.957180  1.0  0.0115
  C  C544  1  0.534200  0.689000  0.956590  1.0  0.0214
  C  C545  1  0.402800  0.569500  0.887350  1.0  -0.1649
  C  C546  1  0.428400  0.625000  0.914680  1.0  -0.1263
  C  C547  1  0.469070  0.588900  0.927800  1.0  0.0254
  C  C548  1  0.482350  0.492100  0.912770  1.0  -0.1251
  C  C549  1  0.457350  0.434800  0.885950  1.0  -0.1387
  C  C550  1  0.417020  0.473300  0.872250  1.0  0.0451
  C  C551  1  0.389840  0.415700  0.842430  1.0  0.0535
  C  C552  1  0.395100  0.300200  0.834760  1.0  -0.1346
  C  C553  1  0.369930  0.250200  0.806570  1.0  -0.0457
  C  C554  1  0.338540  0.309000  0.784690  1.0  -0.134
  C  C555  1  0.332500  0.421800  0.791950  1.0  -0.0236
  C  C556  1  0.357600  0.474600  0.820100  1.0  -0.1253
  C  C557  1  0.311990  0.254500  0.753610  1.0  0.6799
  C  C558  1  0.439300  0.818500  0.023410  1.0  -0.1245
  C  C559  1  0.464510  0.795300  0.997700  1.0  -0.1175
  C  C560  1  0.470550  0.686300  0.986880  1.0  0.0338
  C  C561  1  0.450230  0.600400  0.002770  1.0  -0.1281
  C  C562  1  0.425910  0.623400  0.028590  1.0  -0.0983
  C  C563  1  0.419820  0.732900  0.039310  1.0  0.0673
  C  C564  1  0.391590  0.755700  0.066360  1.0  0.0406
  C  C565  1  0.359600  0.834900  0.059450  1.0  -0.1319
  C  C566  1  0.331300  0.849200  0.083370  1.0  -0.0586
  C  C567  1  0.335750  0.786400  0.114640  1.0  -0.1103
  C  C568  1  0.368100  0.711200  0.122170  1.0  -0.0282
  C  C569  1  0.396000  0.695000  0.098060  1.0  -0.1518
  C  C570  1  0.304020  0.800400  0.139820  1.0  0.712
  C  C571  1  0.607300  0.904800  0.006430  1.0  -0.1471
  C  C572  1  0.584300  0.842100  0.979750  1.0  -0.1291
  C  C573  1  0.559690  0.752200  0.987620  1.0  0.0742
  C  C574  1  0.560860  0.724500  0.023320  1.0  -0.1172
  C  C575  1  0.584200  0.787300  0.050370  1.0  -0.1133
  C  C576  1  0.606800  0.880200  0.042390  1.0  0.0846
  C  C577  1  0.629870  0.956700  0.070630  1.0  0.0262
  C  C578  1  0.630100  0.071300  0.064210  1.0  -0.1372
  C  C579  1  0.650900  0.144400  0.089360  1.0  -0.0294
  C  C580  1  0.672960  0.103700  0.121720  1.0  -0.1331
  C  C581  1  0.672900  0.989400  0.128110  1.0  -0.0523
  C  C582  1  0.651400  0.915500  0.102930  1.0  -0.1387
  C  C583  1  0.695760  0.186600  0.147160  1.0  0.7275
  C  C584  1  0.558080  0.682600  0.860980  1.0  -0.1451
  C  C585  1  0.536380  0.694700  0.889930  1.0  -0.1422
  C  C586  1  0.555710  0.670400  0.924680  1.0  0.0545
  C  C587  1  0.597750  0.639100  0.930000  1.0  -0.1147
  C  C588  1  0.620000  0.628000  0.901150  1.0  -0.1393
  C  C589  1  0.600300  0.649800  0.866090  1.0  0.0469
  C  C590  1  0.624400  0.645000  0.835870  1.0  0.0522
  C  C591  1  0.657500  0.569900  0.835960  1.0  -0.1451
  C  C592  1  0.682400  0.570800  0.809030  1.0  -0.06
  C  C593  1  0.674880  0.649800  0.781740  1.0  -0.1345
  C  C594  1  0.641030  0.723100  0.780810  1.0  -0.0612
  C  C595  1  0.616500  0.721800  0.807960  1.0  -0.1234
  C  C596  1  0.703470  0.657200  0.753860  1.0  0.658
  C  C597  1  0.005400  0.155600  0.542820  1.0  0.0118
  C  C598  1  0.965800  0.189000  0.543410  1.0  0.0215
  C  C599  1  0.097200  0.069500  0.612650  1.0  -0.165
  C  C600  1  0.071600  0.125000  0.585320  1.0  -0.1283
  C  C601  1  0.030930  0.088900  0.572200  1.0  0.0247
  C  C602  1  0.017650  0.992100  0.587230  1.0  -0.1236
  C  C603  1  0.042650  0.934800  0.614050  1.0  -0.1393
  C  C604  1  0.082980  0.973300  0.627750  1.0  0.0452
  C  C605  1  0.110160  0.915700  0.657570  1.0  0.0547
  C  C606  1  0.104900  0.800200  0.665240  1.0  -0.1358
  C  C607  1  0.130070  0.750200  0.693430  1.0  -0.0463
  C  C608  1  0.161460  0.809000  0.715310  1.0  -0.1338
  C  C609  1  0.167500  0.921800  0.708050  1.0  -0.024
  C  C610  1  0.142400  0.974600  0.679900  1.0  -0.1253
  C  C611  1  0.188010  0.754500  0.746390  1.0  0.6805
  C  C612  1  0.060700  0.318500  0.476590  1.0  -0.1239
  C  C613  1  0.035490  0.295300  0.502300  1.0  -0.1179
  C  C614  1  0.029450  0.186300  0.513120  1.0  0.0346
  C  C615  1  0.049770  0.100400  0.497230  1.0  -0.1289
  C  C616  1  0.074090  0.123400  0.471410  1.0  -0.0978
  C  C617  1  0.080180  0.232900  0.460690  1.0  0.0687
  C  C618  1  0.108410  0.255700  0.433640  1.0  0.0414
  C  C619  1  0.140400  0.334900  0.440550  1.0  -0.133
  C  C620  1  0.168700  0.349200  0.416630  1.0  -0.0567
  C  C621  1  0.164250  0.286400  0.385360  1.0  -0.1108
  C  C622  1  0.131900  0.211200  0.377830  1.0  -0.0288
  C  C623  1  0.104000  0.195000  0.401940  1.0  -0.152
  C  C624  1  0.195980  0.300400  0.360180  1.0  0.7117
  C  C625  1  0.892700  0.404800  0.493570  1.0  -0.1483
  C  C626  1  0.915700  0.342100  0.520250  1.0  -0.1274
  C  C627  1  0.940310  0.252200  0.512380  1.0  0.0737
  C  C628  1  0.939140  0.224500  0.476680  1.0  -0.1192
  C  C629  1  0.915800  0.287300  0.449630  1.0  -0.1118
  C  C630  1  0.893200  0.380200  0.457610  1.0  0.0834
  C  C631  1  0.870130  0.456700  0.429370  1.0  0.0258
  C  C632  1  0.869900  0.571300  0.435790  1.0  -0.138
  C  C633  1  0.849100  0.644400  0.410640  1.0  -0.0291
  C  C634  1  0.827040  0.603700  0.378280  1.0  -0.1317
  C  C635  1  0.827100  0.489400  0.371890  1.0  -0.0533
  C  C636  1  0.848600  0.415500  0.397070  1.0  -0.1384
  C  C637  1  0.804240  0.686600  0.352840  1.0  0.7278
  C  C638  1  0.941920  0.182600  0.639020  1.0  -0.1432
  C  C639  1  0.963620  0.194700  0.610070  1.0  -0.1428
  C  C640  1  0.944290  0.170400  0.575320  1.0  0.0536
  C  C641  1  0.902250  0.139100  0.570000  1.0  -0.117
  C  C642  1  0.880000  0.128000  0.598850  1.0  -0.1388
  C  C643  1  0.899700  0.149800  0.633910  1.0  0.0461
  C  C644  1  0.875600  0.145000  0.664130  1.0  0.0525
  C  C645  1  0.842500  0.069900  0.664040  1.0  -0.1451
  C  C646  1  0.817600  0.070800  0.690970  1.0  -0.0602
  C  C647  1  0.825120  0.149800  0.718260  1.0  -0.1346
  C  C648  1  0.858970  0.223100  0.719190  1.0  -0.0601
  C  C649  1  0.883500  0.221800  0.692040  1.0  -0.1233
  C  C650  1  0.796530  0.157200  0.746140  1.0  0.6585
  C  C651  1  0.505400  0.655600  0.542820  1.0  0.0118
  C  C652  1  0.465800  0.689000  0.543410  1.0  0.0215
  C  C653  1  0.597200  0.569500  0.612650  1.0  -0.165
  C  C654  1  0.571600  0.625000  0.585320  1.0  -0.1283
  C  C655  1  0.530930  0.588900  0.572200  1.0  0.0247
  C  C656  1  0.517650  0.492100  0.587230  1.0  -0.1236
  C  C657  1  0.542650  0.434800  0.614050  1.0  -0.1393
  C  C658  1  0.582980  0.473300  0.627750  1.0  0.0452
  C  C659  1  0.610160  0.415700  0.657570  1.0  0.0547
  C  C660  1  0.604900  0.300200  0.665240  1.0  -0.1358
  C  C661  1  0.630070  0.250200  0.693430  1.0  -0.0463
  C  C662  1  0.661460  0.309000  0.715310  1.0  -0.1338
  C  C663  1  0.667500  0.421800  0.708050  1.0  -0.024
  C  C664  1  0.642400  0.474600  0.679900  1.0  -0.1253
  C  C665  1  0.688010  0.254500  0.746390  1.0  0.6805
  C  C666  1  0.560700  0.818500  0.476590  1.0  -0.1239
  C  C667  1  0.535490  0.795300  0.502300  1.0  -0.1179
  C  C668  1  0.529450  0.686300  0.513120  1.0  0.0346
  C  C669  1  0.549770  0.600400  0.497230  1.0  -0.1289
  C  C670  1  0.574090  0.623400  0.471410  1.0  -0.0978
  C  C671  1  0.580180  0.732900  0.460690  1.0  0.0687
  C  C672  1  0.608410  0.755700  0.433640  1.0  0.0414
  C  C673  1  0.640400  0.834900  0.440550  1.0  -0.133
  C  C674  1  0.668700  0.849200  0.416630  1.0  -0.0567
  C  C675  1  0.664250  0.786400  0.385360  1.0  -0.1108
  C  C676  1  0.631900  0.711200  0.377830  1.0  -0.0288
  C  C677  1  0.604000  0.695000  0.401940  1.0  -0.152
  C  C678  1  0.695980  0.800400  0.360180  1.0  0.7117
  C  C679  1  0.392700  0.904800  0.493570  1.0  -0.1483
  C  C680  1  0.415700  0.842100  0.520250  1.0  -0.1274
  C  C681  1  0.440310  0.752200  0.512380  1.0  0.0737
  C  C682  1  0.439140  0.724500  0.476680  1.0  -0.1192
  C  C683  1  0.415800  0.787300  0.449630  1.0  -0.1118
  C  C684  1  0.393200  0.880200  0.457610  1.0  0.0834
  C  C685  1  0.370130  0.956700  0.429370  1.0  0.0258
  C  C686  1  0.369900  0.071300  0.435790  1.0  -0.138
  C  C687  1  0.349100  0.144400  0.410640  1.0  -0.0291
  C  C688  1  0.327040  0.103700  0.378280  1.0  -0.1317
  C  C689  1  0.327100  0.989400  0.371890  1.0  -0.0533
  C  C690  1  0.348600  0.915500  0.397070  1.0  -0.1384
  C  C691  1  0.304240  0.186600  0.352840  1.0  0.7278
  C  C692  1  0.441920  0.682600  0.639020  1.0  -0.1432
  C  C693  1  0.463620  0.694700  0.610070  1.0  -0.1428
  C  C694  1  0.444290  0.670400  0.575320  1.0  0.0536
  C  C695  1  0.402250  0.639100  0.570000  1.0  -0.117
  C  C696  1  0.380000  0.628000  0.598850  1.0  -0.1388
  C  C697  1  0.399700  0.649800  0.633910  1.0  0.0461
  C  C698  1  0.375600  0.645000  0.664130  1.0  0.0525
  C  C699  1  0.342500  0.569900  0.664040  1.0  -0.1451
  C  C700  1  0.317600  0.570800  0.690970  1.0  -0.0602
  C  C701  1  0.325120  0.649800  0.718260  1.0  -0.1346
  C  C702  1  0.358970  0.723100  0.719190  1.0  -0.0601
  C  C703  1  0.383500  0.721800  0.692040  1.0  -0.1233
  C  C704  1  0.296530  0.657200  0.746140  1.0  0.6585
  O  O705  1  0.219190  0.189800  0.263450  1.0  -0.6813
  O  O706  1  0.179700  0.342900  0.256070  1.0  -0.7038
  O  O707  1  0.189440  0.748400  0.830320  1.0  -0.6076
  O  O708  1  0.228210  0.640900  0.869650  1.0  -0.6049
  O  O709  1  0.774510  0.350300  0.828510  1.0  -0.6984
  O  O710  1  0.813510  0.211700  0.855210  1.0  -0.6335
  O  O711  1  0.806820  0.777100  0.272300  1.0  -0.7396
  O  O712  1  0.763940  0.901300  0.242450  1.0  -0.6857
  O  O713  1  0.719190  0.689800  0.263450  1.0  -0.6813
  O  O714  1  0.679700  0.842900  0.256070  1.0  -0.7038
  O  O715  1  0.689440  0.248400  0.830320  1.0  -0.6076
  O  O716  1  0.728210  0.140900  0.869650  1.0  -0.6049
  O  O717  1  0.274510  0.850300  0.828510  1.0  -0.6984
  O  O718  1  0.313510  0.711700  0.855210  1.0  -0.6335
  O  O719  1  0.306820  0.277100  0.272300  1.0  -0.7396
  O  O720  1  0.263940  0.401300  0.242450  1.0  -0.6857
  O  O721  1  0.780810  0.189800  0.236550  1.0  -0.6795
  O  O722  1  0.820300  0.342900  0.243930  1.0  -0.6994
  O  O723  1  0.810560  0.748400  0.669680  1.0  -0.6065
  O  O724  1  0.771790  0.640900  0.630350  1.0  -0.6059
  O  O725  1  0.225490  0.350300  0.671490  1.0  -0.7005
  O  O726  1  0.186490  0.211700  0.644790  1.0  -0.6338
  O  O727  1  0.193180  0.777100  0.227700  1.0  -0.7386
  O  O728  1  0.236060  0.901300  0.257550  1.0  -0.6853
  O  O729  1  0.280810  0.689800  0.236550  1.0  -0.6795
  O  O730  1  0.320300  0.842900  0.243930  1.0  -0.6994
  O  O731  1  0.310560  0.248400  0.669680  1.0  -0.6065
  O  O732  1  0.271790  0.140900  0.630350  1.0  -0.6059
  O  O733  1  0.725490  0.850300  0.671490  1.0  -0.7005
  O  O734  1  0.686490  0.711700  0.644790  1.0  -0.6338
  O  O735  1  0.693180  0.277100  0.227700  1.0  -0.7386
  O  O736  1  0.736060  0.401300  0.257550  1.0  -0.6853
  O  O737  1  0.780810  0.810200  0.736550  1.0  -0.6795
  O  O738  1  0.820300  0.657100  0.743930  1.0  -0.7038
  O  O739  1  0.810560  0.251600  0.169680  1.0  -0.6073
  O  O740  1  0.771790  0.359100  0.130350  1.0  -0.6057
  O  O741  1  0.225490  0.649700  0.171490  1.0  -0.6999
  O  O742  1  0.186490  0.788300  0.144790  1.0  -0.6338
  O  O743  1  0.193180  0.222900  0.727700  1.0  -0.7399
  O  O744  1  0.236060  0.098700  0.757550  1.0  -0.6853
  O  O745  1  0.280810  0.310200  0.736550  1.0  -0.6795
  O  O746  1  0.320300  0.157100  0.743930  1.0  -0.7038
  O  O747  1  0.310560  0.751600  0.169680  1.0  -0.6073
  O  O748  1  0.271790  0.859100  0.130350  1.0  -0.6057
  O  O749  1  0.725490  0.149700  0.171490  1.0  -0.6999
  O  O750  1  0.686490  0.288300  0.144790  1.0  -0.6338
  O  O751  1  0.693180  0.722900  0.727700  1.0  -0.7399
  O  O752  1  0.736060  0.598700  0.757550  1.0  -0.6853
  O  O753  1  0.219190  0.810200  0.763450  1.0  -0.6813
  O  O754  1  0.179700  0.657100  0.756070  1.0  -0.7015
  O  O755  1  0.189440  0.251600  0.330320  1.0  -0.6082
  O  O756  1  0.228210  0.359100  0.369650  1.0  -0.6048
  O  O757  1  0.774510  0.649700  0.328510  1.0  -0.6985
  O  O758  1  0.813510  0.788300  0.355210  1.0  -0.6337
  O  O759  1  0.806820  0.222900  0.772300  1.0  -0.7415
  O  O760  1  0.763940  0.098700  0.742450  1.0  -0.6863
  O  O761  1  0.719190  0.310200  0.763450  1.0  -0.6813
  O  O762  1  0.679700  0.157100  0.756070  1.0  -0.7015
  O  O763  1  0.689440  0.751600  0.330320  1.0  -0.6082
  O  O764  1  0.728210  0.859100  0.369650  1.0  -0.6048
  O  O765  1  0.274510  0.149700  0.328510  1.0  -0.6985
  O  O766  1  0.313510  0.288300  0.355210  1.0  -0.6337
  O  O767  1  0.306820  0.722900  0.772300  1.0  -0.7415
  O  O768  1  0.263940  0.598700  0.742450  1.0  -0.6863
