# generated using pymatgen
data_NaMg2(CO3)4
_symmetry_space_group_name_H-M   'P 1'
_cell_length_a   28.92340000
_cell_length_b   28.92340000
_cell_length_c   28.92340000
_cell_angle_alpha   90.00000000
_cell_angle_beta   90.00000000
_cell_angle_gamma   90.00000000
_symmetry_Int_Tables_number   1
_chemical_formula_structural   NaMg2(CO3)4
_chemical_formula_sum   'Na48 Mg96 C192 O576'
_cell_volume   24196.24822826
_cell_formula_units_Z   48
loop_
 _symmetry_equiv_pos_site_id
 _symmetry_equiv_pos_as_xyz
  1  'x, y, z'
loop_
 _atom_site_type_symbol
 _atom_site_label
 _atom_site_symmetry_multiplicity
 _atom_site_fract_x
 _atom_site_fract_y
 _atom_site_fract_z
 _atom_site_occupancy
 _atom_site_charge
  Na  Na1  1  0.375000  0.625000  0.125000  1.0  1.0146
  Na  Na2  1  0.875000  0.125000  0.625000  1.0  1.0146
  Na  Na3  1  0.375000  0.125000  0.125000  1.0  1.0146
  Na  Na4  1  0.375000  0.625000  0.625000  1.0  1.0146
  Na  Na5  1  0.875000  0.625000  0.625000  1.0  1.0146
  Na  Na6  1  0.875000  0.125000  0.125000  1.0  1.0146
  Na  Na7  1  0.125000  0.375000  0.625000  1.0  1.0146
  Na  Na8  1  0.125000  0.875000  0.125000  1.0  1.0146
  Na  Na9  1  0.625000  0.875000  0.125000  1.0  1.0146
  Na  Na10  1  0.625000  0.375000  0.625000  1.0  1.0146
  Na  Na11  1  0.125000  0.375000  0.125000  1.0  1.0146
  Na  Na12  1  0.625000  0.875000  0.625000  1.0  1.0146
  Na  Na13  1  0.625000  0.125000  0.375000  1.0  1.0146
  Na  Na14  1  0.125000  0.625000  0.875000  1.0  1.0146
  Na  Na15  1  0.125000  0.125000  0.375000  1.0  1.0146
  Na  Na16  1  0.625000  0.625000  0.875000  1.0  1.0146
  Na  Na17  1  0.375000  0.625000  0.875000  1.0  1.0146
  Na  Na18  1  0.875000  0.125000  0.375000  1.0  1.0146
  Na  Na19  1  0.875000  0.625000  0.875000  1.0  1.0146
  Na  Na20  1  0.375000  0.125000  0.375000  1.0  1.0146
  Na  Na21  1  0.125000  0.375000  0.375000  1.0  1.0146
  Na  Na22  1  0.125000  0.875000  0.875000  1.0  1.0146
  Na  Na23  1  0.625000  0.875000  0.875000  1.0  1.0146
  Na  Na24  1  0.625000  0.375000  0.375000  1.0  1.0146
  Na  Na25  1  0.125000  0.375000  0.875000  1.0  1.0146
  Na  Na26  1  0.625000  0.875000  0.375000  1.0  1.0146
  Na  Na27  1  0.875000  0.875000  0.625000  1.0  1.0146
  Na  Na28  1  0.375000  0.375000  0.125000  1.0  1.0146
  Na  Na29  1  0.875000  0.375000  0.625000  1.0  1.0146
  Na  Na30  1  0.875000  0.875000  0.125000  1.0  1.0146
  Na  Na31  1  0.375000  0.875000  0.125000  1.0  1.0146
  Na  Na32  1  0.375000  0.375000  0.625000  1.0  1.0146
  Na  Na33  1  0.625000  0.375000  0.875000  1.0  1.0146
  Na  Na34  1  0.125000  0.875000  0.375000  1.0  1.0146
  Na  Na35  1  0.875000  0.625000  0.375000  1.0  1.0146
  Na  Na36  1  0.875000  0.125000  0.875000  1.0  1.0146
  Na  Na37  1  0.375000  0.125000  0.875000  1.0  1.0146
  Na  Na38  1  0.375000  0.625000  0.375000  1.0  1.0146
  Na  Na39  1  0.375000  0.875000  0.625000  1.0  1.0146
  Na  Na40  1  0.875000  0.375000  0.125000  1.0  1.0146
  Na  Na41  1  0.625000  0.375000  0.125000  1.0  1.0146
  Na  Na42  1  0.125000  0.875000  0.625000  1.0  1.0146
  Na  Na43  1  0.875000  0.625000  0.125000  1.0  1.0146
  Na  Na44  1  0.375000  0.125000  0.625000  1.0  1.0146
  Na  Na45  1  0.125000  0.625000  0.375000  1.0  1.0146
  Na  Na46  1  0.125000  0.125000  0.875000  1.0  1.0146
  Na  Na47  1  0.625000  0.125000  0.875000  1.0  1.0146
  Na  Na48  1  0.625000  0.625000  0.375000  1.0  1.0146
  Mg  Mg49  1  0.374120  0.500000  0.124120  1.0  1.4938
  Mg  Mg50  1  0.374120  0.000000  0.624120  1.0  1.4938
  Mg  Mg51  1  0.874120  0.500000  0.624120  1.0  1.4938
  Mg  Mg52  1  0.874120  0.000000  0.124120  1.0  1.4938
  Mg  Mg53  1  0.875880  0.250000  0.624120  1.0  1.4944
  Mg  Mg54  1  0.875880  0.750000  0.124120  1.0  1.4944
  Mg  Mg55  1  0.375880  0.250000  0.124120  1.0  1.4944
  Mg  Mg56  1  0.375880  0.750000  0.624120  1.0  1.4944
  Mg  Mg57  1  0.375880  0.000000  0.125880  1.0  1.4946
  Mg  Mg58  1  0.375880  0.500000  0.625880  1.0  1.4946
  Mg  Mg59  1  0.875880  0.000000  0.625880  1.0  1.4946
  Mg  Mg60  1  0.875880  0.500000  0.125880  1.0  1.4946
  Mg  Mg61  1  0.874120  0.750000  0.625880  1.0  1.4939
  Mg  Mg62  1  0.874120  0.250000  0.125880  1.0  1.4939
  Mg  Mg63  1  0.374120  0.750000  0.125880  1.0  1.4939
  Mg  Mg64  1  0.374120  0.250000  0.625880  1.0  1.4939
  Mg  Mg65  1  0.124120  0.374120  0.500000  1.0  1.4933
  Mg  Mg66  1  0.124120  0.874120  0.000000  1.0  1.4933
  Mg  Mg67  1  0.624120  0.374120  0.000000  1.0  1.4933
  Mg  Mg68  1  0.624120  0.874120  0.500000  1.0  1.4933
  Mg  Mg69  1  0.624120  0.875880  0.250000  1.0  1.494
  Mg  Mg70  1  0.624120  0.375880  0.750000  1.0  1.494
  Mg  Mg71  1  0.124120  0.875880  0.750000  1.0  1.494
  Mg  Mg72  1  0.124120  0.375880  0.250000  1.0  1.494
  Mg  Mg73  1  0.125880  0.375880  0.000000  1.0  1.4946
  Mg  Mg74  1  0.125880  0.875880  0.500000  1.0  1.4946
  Mg  Mg75  1  0.625880  0.375880  0.500000  1.0  1.4946
  Mg  Mg76  1  0.625880  0.875880  0.000000  1.0  1.4946
  Mg  Mg77  1  0.625880  0.874120  0.750000  1.0  1.494
  Mg  Mg78  1  0.625880  0.374120  0.250000  1.0  1.494
  Mg  Mg79  1  0.125880  0.874120  0.250000  1.0  1.494
  Mg  Mg80  1  0.125880  0.374120  0.750000  1.0  1.494
  Mg  Mg81  1  0.500000  0.124120  0.374120  1.0  1.4943
  Mg  Mg82  1  0.500000  0.624120  0.874120  1.0  1.4943
  Mg  Mg83  1  0.000000  0.124120  0.874120  1.0  1.4943
  Mg  Mg84  1  0.000000  0.624120  0.374120  1.0  1.4943
  Mg  Mg85  1  0.250000  0.624120  0.875880  1.0  1.4946
  Mg  Mg86  1  0.250000  0.124120  0.375880  1.0  1.4946
  Mg  Mg87  1  0.750000  0.624120  0.375880  1.0  1.4946
  Mg  Mg88  1  0.750000  0.124120  0.875880  1.0  1.4946
  Mg  Mg89  1  0.000000  0.125880  0.375880  1.0  1.4953
  Mg  Mg90  1  0.000000  0.625880  0.875880  1.0  1.4953
  Mg  Mg91  1  0.500000  0.125880  0.875880  1.0  1.4953
  Mg  Mg92  1  0.500000  0.625880  0.375880  1.0  1.4953
  Mg  Mg93  1  0.750000  0.625880  0.874120  1.0  1.495
  Mg  Mg94  1  0.750000  0.125880  0.374120  1.0  1.495
  Mg  Mg95  1  0.250000  0.625880  0.374120  1.0  1.495
  Mg  Mg96  1  0.250000  0.125880  0.874120  1.0  1.495
  Mg  Mg97  1  0.625880  0.500000  0.875880  1.0  1.4886
  Mg  Mg98  1  0.625880  0.000000  0.375880  1.0  1.4886
  Mg  Mg99  1  0.125880  0.500000  0.375880  1.0  1.4886
  Mg  Mg100  1  0.125880  0.000000  0.875880  1.0  1.4886
  Mg  Mg101  1  0.124120  0.750000  0.375880  1.0  1.488
  Mg  Mg102  1  0.124120  0.250000  0.875880  1.0  1.488
  Mg  Mg103  1  0.624120  0.750000  0.875880  1.0  1.488
  Mg  Mg104  1  0.624120  0.250000  0.375880  1.0  1.488
  Mg  Mg105  1  0.624120  0.000000  0.874120  1.0  1.4878
  Mg  Mg106  1  0.624120  0.500000  0.374120  1.0  1.4878
  Mg  Mg107  1  0.124120  0.000000  0.374120  1.0  1.4878
  Mg  Mg108  1  0.124120  0.500000  0.874120  1.0  1.4878
  Mg  Mg109  1  0.125880  0.250000  0.374120  1.0  1.4885
  Mg  Mg110  1  0.125880  0.750000  0.874120  1.0  1.4885
  Mg  Mg111  1  0.625880  0.250000  0.874120  1.0  1.4885
  Mg  Mg112  1  0.625880  0.750000  0.374120  1.0  1.4885
  Mg  Mg113  1  0.875880  0.625880  0.500000  1.0  1.4886
  Mg  Mg114  1  0.875880  0.125880  0.000000  1.0  1.4886
  Mg  Mg115  1  0.375880  0.625880  0.000000  1.0  1.4886
  Mg  Mg116  1  0.375880  0.125880  0.500000  1.0  1.4886
  Mg  Mg117  1  0.375880  0.124120  0.750000  1.0  1.4881
  Mg  Mg118  1  0.375880  0.624120  0.250000  1.0  1.4881
  Mg  Mg119  1  0.875880  0.124120  0.250000  1.0  1.4881
  Mg  Mg120  1  0.875880  0.624120  0.750000  1.0  1.4881
  Mg  Mg121  1  0.874120  0.624120  0.000000  1.0  1.4874
  Mg  Mg122  1  0.874120  0.124120  0.500000  1.0  1.4874
  Mg  Mg123  1  0.374120  0.624120  0.500000  1.0  1.4874
  Mg  Mg124  1  0.374120  0.124120  0.000000  1.0  1.4874
  Mg  Mg125  1  0.374120  0.125880  0.250000  1.0  1.488
  Mg  Mg126  1  0.374120  0.625880  0.750000  1.0  1.488
  Mg  Mg127  1  0.874120  0.125880  0.750000  1.0  1.488
  Mg  Mg128  1  0.874120  0.625880  0.250000  1.0  1.488
  Mg  Mg129  1  0.500000  0.875880  0.625880  1.0  1.4893
  Mg  Mg130  1  0.500000  0.375880  0.125880  1.0  1.4893
  Mg  Mg131  1  0.000000  0.875880  0.125880  1.0  1.4893
  Mg  Mg132  1  0.000000  0.375880  0.625880  1.0  1.4893
  Mg  Mg133  1  0.750000  0.375880  0.124120  1.0  1.4891
  Mg  Mg134  1  0.750000  0.875880  0.624120  1.0  1.4891
  Mg  Mg135  1  0.250000  0.375880  0.624120  1.0  1.4891
  Mg  Mg136  1  0.250000  0.875880  0.124120  1.0  1.4891
  Mg  Mg137  1  0.000000  0.874120  0.624120  1.0  1.4884
  Mg  Mg138  1  0.000000  0.374120  0.124120  1.0  1.4884
  Mg  Mg139  1  0.500000  0.874120  0.124120  1.0  1.4884
  Mg  Mg140  1  0.500000  0.374120  0.624120  1.0  1.4884
  Mg  Mg141  1  0.250000  0.374120  0.125880  1.0  1.4886
  Mg  Mg142  1  0.250000  0.874120  0.625880  1.0  1.4886
  Mg  Mg143  1  0.750000  0.374120  0.625880  1.0  1.4886
  Mg  Mg144  1  0.750000  0.874120  0.125880  1.0  1.4886
  C  C145  1  0.376100  0.537360  0.045690  1.0  0.8264
  C  C146  1  0.376100  0.037360  0.545690  1.0  0.8264
  C  C147  1  0.876100  0.537360  0.545690  1.0  0.8264
  C  C148  1  0.876100  0.037360  0.045690  1.0  0.8264
  C  C149  1  0.873900  0.212640  0.545690  1.0  0.8265
  C  C150  1  0.873900  0.712640  0.045690  1.0  0.8265
  C  C151  1  0.373900  0.212640  0.045690  1.0  0.8265
  C  C152  1  0.373900  0.712640  0.545690  1.0  0.8265
  C  C153  1  0.373900  0.037360  0.204310  1.0  0.8262
  C  C154  1  0.373900  0.537360  0.704310  1.0  0.8262
  C  C155  1  0.873900  0.037360  0.704310  1.0  0.8262
  C  C156  1  0.873900  0.537360  0.204310  1.0  0.8262
  C  C157  1  0.876100  0.712640  0.704310  1.0  0.8264
  C  C158  1  0.876100  0.212640  0.204310  1.0  0.8264
  C  C159  1  0.376100  0.712640  0.204310  1.0  0.8264
  C  C160  1  0.376100  0.212640  0.704310  1.0  0.8264
  C  C161  1  0.045690  0.376100  0.537360  1.0  0.8246
  C  C162  1  0.045690  0.876100  0.037360  1.0  0.8246
  C  C163  1  0.545690  0.376100  0.037360  1.0  0.8246
  C  C164  1  0.545690  0.876100  0.537360  1.0  0.8246
  C  C165  1  0.545690  0.873900  0.212640  1.0  0.8253
  C  C166  1  0.545690  0.373900  0.712640  1.0  0.8253
  C  C167  1  0.045690  0.873900  0.712640  1.0  0.8253
  C  C168  1  0.045690  0.373900  0.212640  1.0  0.8253
  C  C169  1  0.204310  0.373900  0.037360  1.0  0.8245
  C  C170  1  0.204310  0.873900  0.537360  1.0  0.8245
  C  C171  1  0.704310  0.373900  0.537360  1.0  0.8245
  C  C172  1  0.704310  0.873900  0.037360  1.0  0.8245
  C  C173  1  0.704310  0.876100  0.712640  1.0  0.8246
  C  C174  1  0.704310  0.376100  0.212640  1.0  0.8246
  C  C175  1  0.204310  0.876100  0.212640  1.0  0.8246
  C  C176  1  0.204310  0.376100  0.712640  1.0  0.8246
  C  C177  1  0.537360  0.045690  0.376100  1.0  0.8259
  C  C178  1  0.537360  0.545690  0.876100  1.0  0.8259
  C  C179  1  0.037360  0.045690  0.876100  1.0  0.8259
  C  C180  1  0.037360  0.545690  0.376100  1.0  0.8259
  C  C181  1  0.212640  0.545690  0.873900  1.0  0.8254
  C  C182  1  0.212640  0.045690  0.373900  1.0  0.8254
  C  C183  1  0.712640  0.545690  0.373900  1.0  0.8254
  C  C184  1  0.712640  0.045690  0.873900  1.0  0.8254
  C  C185  1  0.037360  0.204310  0.373900  1.0  0.8242
  C  C186  1  0.037360  0.704310  0.873900  1.0  0.8242
  C  C187  1  0.537360  0.204310  0.873900  1.0  0.8242
  C  C188  1  0.537360  0.704310  0.373900  1.0  0.8242
  C  C189  1  0.712640  0.704310  0.876100  1.0  0.8233
  C  C190  1  0.712640  0.204310  0.376100  1.0  0.8233
  C  C191  1  0.212640  0.704310  0.376100  1.0  0.8233
  C  C192  1  0.212640  0.204310  0.876100  1.0  0.8233
  C  C193  1  0.287360  0.626100  0.954310  1.0  0.8257
  C  C194  1  0.287360  0.126100  0.454310  1.0  0.8257
  C  C195  1  0.787360  0.626100  0.454310  1.0  0.8257
  C  C196  1  0.787360  0.126100  0.954310  1.0  0.8257
  C  C197  1  0.962640  0.123900  0.454310  1.0  0.8256
  C  C198  1  0.962640  0.623900  0.954310  1.0  0.8256
  C  C199  1  0.462640  0.123900  0.954310  1.0  0.8256
  C  C200  1  0.462640  0.623900  0.454310  1.0  0.8256
  C  C201  1  0.787360  0.623900  0.795690  1.0  0.8268
  C  C202  1  0.787360  0.123900  0.295690  1.0  0.8268
  C  C203  1  0.287360  0.623900  0.295690  1.0  0.8268
  C  C204  1  0.287360  0.123900  0.795690  1.0  0.8268
  C  C205  1  0.462640  0.126100  0.295690  1.0  0.8256
  C  C206  1  0.462640  0.626100  0.795690  1.0  0.8256
  C  C207  1  0.962640  0.126100  0.795690  1.0  0.8256
  C  C208  1  0.962640  0.626100  0.295690  1.0  0.8256
  C  C209  1  0.126100  0.295690  0.462640  1.0  0.8263
  C  C210  1  0.126100  0.795690  0.962640  1.0  0.8263
  C  C211  1  0.626100  0.295690  0.962640  1.0  0.8263
  C  C212  1  0.626100  0.795690  0.462640  1.0  0.8263
  C  C213  1  0.623900  0.795690  0.787360  1.0  0.8252
  C  C214  1  0.623900  0.295690  0.287360  1.0  0.8252
  C  C215  1  0.123900  0.795690  0.287360  1.0  0.8252
  C  C216  1  0.123900  0.295690  0.787360  1.0  0.8252
  C  C217  1  0.123900  0.454310  0.962640  1.0  0.8242
  C  C218  1  0.123900  0.954310  0.462640  1.0  0.8242
  C  C219  1  0.623900  0.454310  0.462640  1.0  0.8242
  C  C220  1  0.623900  0.954310  0.962640  1.0  0.8242
  C  C221  1  0.626100  0.954310  0.287360  1.0  0.8238
  C  C222  1  0.626100  0.454310  0.787360  1.0  0.8238
  C  C223  1  0.126100  0.954310  0.787360  1.0  0.8238
  C  C224  1  0.126100  0.454310  0.287360  1.0  0.8238
  C  C225  1  0.795690  0.787360  0.623900  1.0  0.8253
  C  C226  1  0.795690  0.287360  0.123900  1.0  0.8253
  C  C227  1  0.295690  0.787360  0.123900  1.0  0.8253
  C  C228  1  0.295690  0.287360  0.623900  1.0  0.8253
  C  C229  1  0.295690  0.462640  0.126100  1.0  0.8252
  C  C230  1  0.295690  0.962640  0.626100  1.0  0.8252
  C  C231  1  0.795690  0.462640  0.626100  1.0  0.8252
  C  C232  1  0.795690  0.962640  0.126100  1.0  0.8252
  C  C233  1  0.954310  0.287360  0.626100  1.0  0.8245
  C  C234  1  0.954310  0.787360  0.126100  1.0  0.8245
  C  C235  1  0.454310  0.287360  0.126100  1.0  0.8245
  C  C236  1  0.454310  0.787360  0.626100  1.0  0.8245
  C  C237  1  0.454310  0.962640  0.123900  1.0  0.8248
  C  C238  1  0.454310  0.462640  0.623900  1.0  0.8248
  C  C239  1  0.954310  0.962640  0.623900  1.0  0.8248
  C  C240  1  0.954310  0.462640  0.123900  1.0  0.8248
  C  C241  1  0.623900  0.462640  0.954310  1.0  0.8261
  C  C242  1  0.623900  0.962640  0.454310  1.0  0.8261
  C  C243  1  0.123900  0.462640  0.454310  1.0  0.8261
  C  C244  1  0.123900  0.962640  0.954310  1.0  0.8261
  C  C245  1  0.126100  0.787360  0.454310  1.0  0.8264
  C  C246  1  0.126100  0.287360  0.954310  1.0  0.8264
  C  C247  1  0.626100  0.787360  0.954310  1.0  0.8264
  C  C248  1  0.626100  0.287360  0.454310  1.0  0.8264
  C  C249  1  0.626100  0.962640  0.795690  1.0  0.8267
  C  C250  1  0.626100  0.462640  0.295690  1.0  0.8267
  C  C251  1  0.126100  0.962640  0.295690  1.0  0.8267
  C  C252  1  0.126100  0.462640  0.795690  1.0  0.8267
  C  C253  1  0.123900  0.287360  0.295690  1.0  0.8263
  C  C254  1  0.123900  0.787360  0.795690  1.0  0.8263
  C  C255  1  0.623900  0.287360  0.795690  1.0  0.8263
  C  C256  1  0.623900  0.787360  0.295690  1.0  0.8263
  C  C257  1  0.954310  0.623900  0.462640  1.0  0.8248
  C  C258  1  0.954310  0.123900  0.962640  1.0  0.8248
  C  C259  1  0.454310  0.623900  0.962640  1.0  0.8248
  C  C260  1  0.454310  0.123900  0.462640  1.0  0.8248
  C  C261  1  0.454310  0.126100  0.787360  1.0  0.8243
  C  C262  1  0.454310  0.626100  0.287360  1.0  0.8243
  C  C263  1  0.954310  0.126100  0.287360  1.0  0.8243
  C  C264  1  0.954310  0.626100  0.787360  1.0  0.8243
  C  C265  1  0.795690  0.626100  0.962640  1.0  0.825
  C  C266  1  0.795690  0.126100  0.462640  1.0  0.825
  C  C267  1  0.295690  0.626100  0.462640  1.0  0.825
  C  C268  1  0.295690  0.126100  0.962640  1.0  0.825
  C  C269  1  0.295690  0.123900  0.287360  1.0  0.8249
  C  C270  1  0.295690  0.623900  0.787360  1.0  0.8249
  C  C271  1  0.795690  0.123900  0.787360  1.0  0.8249
  C  C272  1  0.795690  0.623900  0.287360  1.0  0.8249
  C  C273  1  0.462640  0.954310  0.623900  1.0  0.8235
  C  C274  1  0.462640  0.454310  0.123900  1.0  0.8235
  C  C275  1  0.962640  0.954310  0.123900  1.0  0.8235
  C  C276  1  0.962640  0.454310  0.623900  1.0  0.8235
  C  C277  1  0.787360  0.454310  0.126100  1.0  0.824
  C  C278  1  0.787360  0.954310  0.626100  1.0  0.824
  C  C279  1  0.287360  0.454310  0.626100  1.0  0.824
  C  C280  1  0.287360  0.954310  0.126100  1.0  0.824
  C  C281  1  0.962640  0.795690  0.626100  1.0  0.8251
  C  C282  1  0.962640  0.295690  0.126100  1.0  0.8251
  C  C283  1  0.462640  0.795690  0.126100  1.0  0.8251
  C  C284  1  0.462640  0.295690  0.626100  1.0  0.8251
  C  C285  1  0.287360  0.295690  0.123900  1.0  0.8261
  C  C286  1  0.287360  0.795690  0.623900  1.0  0.8261
  C  C287  1  0.787360  0.295690  0.623900  1.0  0.8261
  C  C288  1  0.787360  0.795690  0.123900  1.0  0.8261
  C  C289  1  0.712640  0.373900  0.045690  1.0  0.8259
  C  C290  1  0.712640  0.873900  0.545690  1.0  0.8259
  C  C291  1  0.212640  0.373900  0.545690  1.0  0.8259
  C  C292  1  0.212640  0.873900  0.045690  1.0  0.8259
  C  C293  1  0.037360  0.876100  0.545690  1.0  0.8265
  C  C294  1  0.037360  0.376100  0.045690  1.0  0.8265
  C  C295  1  0.537360  0.876100  0.045690  1.0  0.8265
  C  C296  1  0.537360  0.376100  0.545690  1.0  0.8265
  C  C297  1  0.212640  0.376100  0.204310  1.0  0.8253
  C  C298  1  0.212640  0.876100  0.704310  1.0  0.8253
  C  C299  1  0.712640  0.376100  0.704310  1.0  0.8253
  C  C300  1  0.712640  0.876100  0.204310  1.0  0.8253
  C  C301  1  0.537360  0.873900  0.704310  1.0  0.826
  C  C302  1  0.537360  0.373900  0.204310  1.0  0.826
  C  C303  1  0.037360  0.873900  0.204310  1.0  0.826
  C  C304  1  0.037360  0.373900  0.704310  1.0  0.826
  C  C305  1  0.873900  0.704310  0.537360  1.0  0.8236
  C  C306  1  0.873900  0.204310  0.037360  1.0  0.8236
  C  C307  1  0.373900  0.704310  0.037360  1.0  0.8236
  C  C308  1  0.373900  0.204310  0.537360  1.0  0.8236
  C  C309  1  0.376100  0.204310  0.212640  1.0  0.8244
  C  C310  1  0.376100  0.704310  0.712640  1.0  0.8244
  C  C311  1  0.876100  0.204310  0.712640  1.0  0.8244
  C  C312  1  0.876100  0.704310  0.212640  1.0  0.8244
  C  C313  1  0.876100  0.545690  0.037360  1.0  0.8254
  C  C314  1  0.876100  0.045690  0.537360  1.0  0.8254
  C  C315  1  0.376100  0.545690  0.537360  1.0  0.8254
  C  C316  1  0.376100  0.045690  0.037360  1.0  0.8254
  C  C317  1  0.373900  0.045690  0.712640  1.0  0.8261
  C  C318  1  0.373900  0.545690  0.212640  1.0  0.8261
  C  C319  1  0.873900  0.045690  0.212640  1.0  0.8261
  C  C320  1  0.873900  0.545690  0.712640  1.0  0.8261
  C  C321  1  0.204310  0.212640  0.376100  1.0  0.8246
  C  C322  1  0.204310  0.712640  0.876100  1.0  0.8246
  C  C323  1  0.704310  0.212640  0.876100  1.0  0.8246
  C  C324  1  0.704310  0.712640  0.376100  1.0  0.8246
  C  C325  1  0.704310  0.537360  0.873900  1.0  0.8248
  C  C326  1  0.704310  0.037360  0.373900  1.0  0.8248
  C  C327  1  0.204310  0.537360  0.373900  1.0  0.8248
  C  C328  1  0.204310  0.037360  0.873900  1.0  0.8248
  C  C329  1  0.045690  0.712640  0.373900  1.0  0.8253
  C  C330  1  0.045690  0.212640  0.873900  1.0  0.8253
  C  C331  1  0.545690  0.712640  0.873900  1.0  0.8253
  C  C332  1  0.545690  0.212640  0.373900  1.0  0.8253
  C  C333  1  0.545690  0.037360  0.876100  1.0  0.8251
  C  C334  1  0.545690  0.537360  0.376100  1.0  0.8251
  C  C335  1  0.045690  0.037360  0.376100  1.0  0.8251
  C  C336  1  0.045690  0.537360  0.876100  1.0  0.8251
  O  O337  1  0.374670  0.492950  0.049990  1.0  -0.6073
  O  O338  1  0.375050  0.555340  0.005140  1.0  -0.5741
  O  O339  1  0.377900  0.561380  0.082190  1.0  -0.6459
  O  O340  1  0.374670  0.992950  0.549990  1.0  -0.6073
  O  O341  1  0.375050  0.055340  0.505140  1.0  -0.5741
  O  O342  1  0.377900  0.061380  0.582190  1.0  -0.6459
  O  O343  1  0.874670  0.492950  0.549990  1.0  -0.6073
  O  O344  1  0.875050  0.555340  0.505140  1.0  -0.5741
  O  O345  1  0.877900  0.561380  0.582190  1.0  -0.6459
  O  O346  1  0.874670  0.992950  0.049990  1.0  -0.6073
  O  O347  1  0.875050  0.055340  0.005140  1.0  -0.5741
  O  O348  1  0.877900  0.061380  0.082190  1.0  -0.6459
  O  O349  1  0.875330  0.257050  0.549990  1.0  -0.6077
  O  O350  1  0.874950  0.194660  0.505140  1.0  -0.574
  O  O351  1  0.872100  0.188620  0.582190  1.0  -0.6462
  O  O352  1  0.875330  0.757050  0.049990  1.0  -0.6077
  O  O353  1  0.874950  0.694660  0.005140  1.0  -0.574
  O  O354  1  0.872100  0.688620  0.082190  1.0  -0.6462
  O  O355  1  0.375330  0.257050  0.049990  1.0  -0.6077
  O  O356  1  0.374950  0.194660  0.005140  1.0  -0.574
  O  O357  1  0.372100  0.188620  0.082190  1.0  -0.6462
  O  O358  1  0.375330  0.757050  0.549990  1.0  -0.6077
  O  O359  1  0.374950  0.694660  0.505140  1.0  -0.574
  O  O360  1  0.372100  0.688620  0.582190  1.0  -0.6462
  O  O361  1  0.375330  0.992950  0.200010  1.0  -0.6091
  O  O362  1  0.374950  0.055340  0.244860  1.0  -0.5725
  O  O363  1  0.372100  0.061380  0.167810  1.0  -0.6467
  O  O364  1  0.375330  0.492950  0.700010  1.0  -0.6091
  O  O365  1  0.374950  0.555340  0.744860  1.0  -0.5725
  O  O366  1  0.372100  0.561380  0.667810  1.0  -0.6467
  O  O367  1  0.875330  0.992950  0.700010  1.0  -0.6091
  O  O368  1  0.874950  0.055340  0.744860  1.0  -0.5725
  O  O369  1  0.872100  0.061380  0.667810  1.0  -0.6467
  O  O370  1  0.875330  0.492950  0.200010  1.0  -0.6091
  O  O371  1  0.874950  0.555340  0.244860  1.0  -0.5725
  O  O372  1  0.872100  0.561380  0.167810  1.0  -0.6467
  O  O373  1  0.874670  0.757050  0.700010  1.0  -0.6085
  O  O374  1  0.875050  0.694660  0.744860  1.0  -0.572
  O  O375  1  0.877900  0.688620  0.667810  1.0  -0.6455
  O  O376  1  0.874670  0.257050  0.200010  1.0  -0.6085
  O  O377  1  0.875050  0.194660  0.244860  1.0  -0.572
  O  O378  1  0.877900  0.188620  0.167810  1.0  -0.6455
  O  O379  1  0.374670  0.757050  0.200010  1.0  -0.6085
  O  O380  1  0.375050  0.694660  0.244860  1.0  -0.572
  O  O381  1  0.377900  0.688620  0.167810  1.0  -0.6455
  O  O382  1  0.374670  0.257050  0.700010  1.0  -0.6085
  O  O383  1  0.375050  0.194660  0.744860  1.0  -0.572
  O  O384  1  0.377900  0.188620  0.667810  1.0  -0.6455
  O  O385  1  0.049990  0.374670  0.492950  1.0  -0.6012
  O  O386  1  0.005140  0.375050  0.555340  1.0  -0.5745
  O  O387  1  0.082190  0.377900  0.561380  1.0  -0.6453
  O  O388  1  0.049990  0.874670  0.992950  1.0  -0.6012
  O  O389  1  0.005140  0.875050  0.055340  1.0  -0.5745
  O  O390  1  0.082190  0.877900  0.061380  1.0  -0.6453
  O  O391  1  0.549990  0.374670  0.992950  1.0  -0.6012
  O  O392  1  0.505140  0.375050  0.055340  1.0  -0.5745
  O  O393  1  0.582190  0.377900  0.061380  1.0  -0.6453
  O  O394  1  0.549990  0.874670  0.492950  1.0  -0.6012
  O  O395  1  0.505140  0.875050  0.555340  1.0  -0.5745
  O  O396  1  0.582190  0.877900  0.561380  1.0  -0.6453
  O  O397  1  0.549990  0.875330  0.257050  1.0  -0.6014
  O  O398  1  0.505140  0.874950  0.194660  1.0  -0.5747
  O  O399  1  0.582190  0.872100  0.188620  1.0  -0.6451
  O  O400  1  0.549990  0.375330  0.757050  1.0  -0.6014
  O  O401  1  0.505140  0.374950  0.694660  1.0  -0.5747
  O  O402  1  0.582190  0.372100  0.688620  1.0  -0.6451
  O  O403  1  0.049990  0.875330  0.757050  1.0  -0.6014
  O  O404  1  0.005140  0.874950  0.694660  1.0  -0.5747
  O  O405  1  0.082190  0.872100  0.688620  1.0  -0.6451
  O  O406  1  0.049990  0.375330  0.257050  1.0  -0.6014
  O  O407  1  0.005140  0.374950  0.194660  1.0  -0.5747
  O  O408  1  0.082190  0.372100  0.188620  1.0  -0.6451
  O  O409  1  0.200010  0.375330  0.992950  1.0  -0.6012
  O  O410  1  0.244860  0.374950  0.055340  1.0  -0.5739
  O  O411  1  0.167810  0.372100  0.061380  1.0  -0.645
  O  O412  1  0.200010  0.875330  0.492950  1.0  -0.6012
  O  O413  1  0.244860  0.874950  0.555340  1.0  -0.5739
  O  O414  1  0.167810  0.872100  0.561380  1.0  -0.645
  O  O415  1  0.700010  0.375330  0.492950  1.0  -0.6012
  O  O416  1  0.744860  0.374950  0.555340  1.0  -0.5739
  O  O417  1  0.667810  0.372100  0.561380  1.0  -0.645
  O  O418  1  0.700010  0.875330  0.992950  1.0  -0.6012
  O  O419  1  0.744860  0.874950  0.055340  1.0  -0.5739
  O  O420  1  0.667810  0.872100  0.061380  1.0  -0.645
  O  O421  1  0.700010  0.874670  0.757050  1.0  -0.6001
  O  O422  1  0.744860  0.875050  0.694660  1.0  -0.5739
  O  O423  1  0.667810  0.877900  0.688620  1.0  -0.6443
  O  O424  1  0.700010  0.374670  0.257050  1.0  -0.6001
  O  O425  1  0.744860  0.375050  0.194660  1.0  -0.5739
  O  O426  1  0.667810  0.377900  0.188620  1.0  -0.6443
  O  O427  1  0.200010  0.874670  0.257050  1.0  -0.6001
  O  O428  1  0.244860  0.875050  0.194660  1.0  -0.5739
  O  O429  1  0.167810  0.877900  0.188620  1.0  -0.6443
  O  O430  1  0.200010  0.374670  0.757050  1.0  -0.6001
  O  O431  1  0.244860  0.375050  0.694660  1.0  -0.5739
  O  O432  1  0.167810  0.377900  0.688620  1.0  -0.6443
  O  O433  1  0.492950  0.049990  0.374670  1.0  -0.6042
  O  O434  1  0.555340  0.005140  0.375050  1.0  -0.5759
  O  O435  1  0.561380  0.082190  0.377900  1.0  -0.6455
  O  O436  1  0.492950  0.549990  0.874670  1.0  -0.6042
  O  O437  1  0.555340  0.505140  0.875050  1.0  -0.5759
  O  O438  1  0.561380  0.582190  0.877900  1.0  -0.6455
  O  O439  1  0.992950  0.049990  0.874670  1.0  -0.6042
  O  O440  1  0.055340  0.005140  0.875050  1.0  -0.5759
  O  O441  1  0.061380  0.082190  0.877900  1.0  -0.6455
  O  O442  1  0.992950  0.549990  0.374670  1.0  -0.6042
  O  O443  1  0.055340  0.505140  0.375050  1.0  -0.5759
  O  O444  1  0.061380  0.582190  0.377900  1.0  -0.6455
  O  O445  1  0.257050  0.549990  0.875330  1.0  -0.6054
  O  O446  1  0.194660  0.505140  0.874950  1.0  -0.5765
  O  O447  1  0.188620  0.582190  0.872100  1.0  -0.6456
  O  O448  1  0.257050  0.049990  0.375330  1.0  -0.6054
  O  O449  1  0.194660  0.005140  0.374950  1.0  -0.5765
  O  O450  1  0.188620  0.082190  0.372100  1.0  -0.6456
  O  O451  1  0.757050  0.549990  0.375330  1.0  -0.6054
  O  O452  1  0.694660  0.505140  0.374950  1.0  -0.5765
  O  O453  1  0.688620  0.582190  0.372100  1.0  -0.6456
  O  O454  1  0.757050  0.049990  0.875330  1.0  -0.6054
  O  O455  1  0.694660  0.005140  0.874950  1.0  -0.5765
  O  O456  1  0.688620  0.082190  0.872100  1.0  -0.6456
  O  O457  1  0.992950  0.200010  0.375330  1.0  -0.606
  O  O458  1  0.055340  0.244860  0.374950  1.0  -0.5776
  O  O459  1  0.061380  0.167810  0.372100  1.0  -0.6457
  O  O460  1  0.992950  0.700010  0.875330  1.0  -0.606
  O  O461  1  0.055340  0.744860  0.874950  1.0  -0.5776
  O  O462  1  0.061380  0.667810  0.872100  1.0  -0.6457
  O  O463  1  0.492950  0.200010  0.875330  1.0  -0.606
  O  O464  1  0.555340  0.244860  0.874950  1.0  -0.5776
  O  O465  1  0.561380  0.167810  0.872100  1.0  -0.6457
  O  O466  1  0.492950  0.700010  0.375330  1.0  -0.606
  O  O467  1  0.555340  0.744860  0.374950  1.0  -0.5776
  O  O468  1  0.561380  0.667810  0.372100  1.0  -0.6457
  O  O469  1  0.757050  0.700010  0.874670  1.0  -0.606
  O  O470  1  0.694660  0.744860  0.875050  1.0  -0.575
  O  O471  1  0.688620  0.667810  0.877900  1.0  -0.646
  O  O472  1  0.757050  0.200010  0.374670  1.0  -0.606
  O  O473  1  0.694660  0.244860  0.375050  1.0  -0.575
  O  O474  1  0.688620  0.167810  0.377900  1.0  -0.646
  O  O475  1  0.257050  0.700010  0.374670  1.0  -0.606
  O  O476  1  0.194660  0.744860  0.375050  1.0  -0.575
  O  O477  1  0.188620  0.667810  0.377900  1.0  -0.646
  O  O478  1  0.257050  0.200010  0.874670  1.0  -0.606
  O  O479  1  0.194660  0.244860  0.875050  1.0  -0.575
  O  O480  1  0.188620  0.167810  0.877900  1.0  -0.646
  O  O481  1  0.242950  0.624670  0.950010  1.0  -0.6044
  O  O482  1  0.305340  0.625050  0.994860  1.0  -0.5743
  O  O483  1  0.311380  0.627900  0.917810  1.0  -0.6452
  O  O484  1  0.242950  0.124670  0.450010  1.0  -0.6044
  O  O485  1  0.305340  0.125050  0.494860  1.0  -0.5743
  O  O486  1  0.311380  0.127900  0.417810  1.0  -0.6452
  O  O487  1  0.742950  0.624670  0.450010  1.0  -0.6044
  O  O488  1  0.805340  0.625050  0.494860  1.0  -0.5743
  O  O489  1  0.811380  0.627900  0.417810  1.0  -0.6452
  O  O490  1  0.742950  0.124670  0.950010  1.0  -0.6044
  O  O491  1  0.805340  0.125050  0.994860  1.0  -0.5743
  O  O492  1  0.811380  0.127900  0.917810  1.0  -0.6452
  O  O493  1  0.007050  0.125330  0.450010  1.0  -0.6042
  O  O494  1  0.944660  0.124950  0.494860  1.0  -0.5737
  O  O495  1  0.938620  0.122100  0.417810  1.0  -0.6448
  O  O496  1  0.007050  0.625330  0.950010  1.0  -0.6042
  O  O497  1  0.944660  0.624950  0.994860  1.0  -0.5737
  O  O498  1  0.938620  0.622100  0.917810  1.0  -0.6448
  O  O499  1  0.507050  0.125330  0.950010  1.0  -0.6042
  O  O500  1  0.444660  0.124950  0.994860  1.0  -0.5737
  O  O501  1  0.438620  0.122100  0.917810  1.0  -0.6448
  O  O502  1  0.507050  0.625330  0.450010  1.0  -0.6042
  O  O503  1  0.444660  0.624950  0.494860  1.0  -0.5737
  O  O504  1  0.438620  0.622100  0.417810  1.0  -0.6448
  O  O505  1  0.742950  0.625330  0.799990  1.0  -0.6018
  O  O506  1  0.805340  0.624950  0.755140  1.0  -0.5767
  O  O507  1  0.811380  0.622100  0.832190  1.0  -0.645
  O  O508  1  0.742950  0.125330  0.299990  1.0  -0.6018
  O  O509  1  0.805340  0.124950  0.255140  1.0  -0.5767
  O  O510  1  0.811380  0.122100  0.332190  1.0  -0.645
  O  O511  1  0.242950  0.625330  0.299990  1.0  -0.6018
  O  O512  1  0.305340  0.624950  0.255140  1.0  -0.5767
  O  O513  1  0.311380  0.622100  0.332190  1.0  -0.645
  O  O514  1  0.242950  0.125330  0.799990  1.0  -0.6018
  O  O515  1  0.305340  0.124950  0.755140  1.0  -0.5767
  O  O516  1  0.311380  0.122100  0.832190  1.0  -0.645
  O  O517  1  0.507050  0.124670  0.299990  1.0  -0.6028
  O  O518  1  0.444660  0.125050  0.255140  1.0  -0.5759
  O  O519  1  0.438620  0.127900  0.332190  1.0  -0.6452
  O  O520  1  0.507050  0.624670  0.799990  1.0  -0.6028
  O  O521  1  0.444660  0.625050  0.755140  1.0  -0.5759
  O  O522  1  0.438620  0.627900  0.832190  1.0  -0.6452
  O  O523  1  0.007050  0.124670  0.799990  1.0  -0.6028
  O  O524  1  0.944660  0.125050  0.755140  1.0  -0.5759
  O  O525  1  0.938620  0.127900  0.832190  1.0  -0.6452
  O  O526  1  0.007050  0.624670  0.299990  1.0  -0.6028
  O  O527  1  0.944660  0.625050  0.255140  1.0  -0.5759
  O  O528  1  0.938620  0.627900  0.332190  1.0  -0.6452
  O  O529  1  0.124670  0.299990  0.507050  1.0  -0.6019
  O  O530  1  0.125050  0.255140  0.444660  1.0  -0.5722
  O  O531  1  0.127900  0.332190  0.438620  1.0  -0.6454
  O  O532  1  0.124670  0.799990  0.007050  1.0  -0.6019
  O  O533  1  0.125050  0.755140  0.944660  1.0  -0.5722
  O  O534  1  0.127900  0.832190  0.938620  1.0  -0.6454
  O  O535  1  0.624670  0.299990  0.007050  1.0  -0.6019
  O  O536  1  0.625050  0.255140  0.944660  1.0  -0.5722
  O  O537  1  0.627900  0.332190  0.938620  1.0  -0.6454
  O  O538  1  0.624670  0.799990  0.507050  1.0  -0.6019
  O  O539  1  0.625050  0.755140  0.444660  1.0  -0.5722
  O  O540  1  0.627900  0.832190  0.438620  1.0  -0.6454
  O  O541  1  0.625330  0.799990  0.742950  1.0  -0.6003
  O  O542  1  0.624950  0.755140  0.805340  1.0  -0.5719
  O  O543  1  0.622100  0.832190  0.811380  1.0  -0.6468
  O  O544  1  0.625330  0.299990  0.242950  1.0  -0.6003
  O  O545  1  0.624950  0.255140  0.305340  1.0  -0.5719
  O  O546  1  0.622100  0.332190  0.311380  1.0  -0.6468
  O  O547  1  0.125330  0.799990  0.242950  1.0  -0.6003
  O  O548  1  0.124950  0.755140  0.305340  1.0  -0.5719
  O  O549  1  0.122100  0.832190  0.311380  1.0  -0.6468
  O  O550  1  0.125330  0.299990  0.742950  1.0  -0.6003
  O  O551  1  0.124950  0.255140  0.805340  1.0  -0.5719
  O  O552  1  0.122100  0.332190  0.811380  1.0  -0.6468
  O  O553  1  0.125330  0.450010  0.007050  1.0  -0.6017
  O  O554  1  0.124950  0.494860  0.944660  1.0  -0.5718
  O  O555  1  0.122100  0.417810  0.938620  1.0  -0.6466
  O  O556  1  0.125330  0.950010  0.507050  1.0  -0.6017
  O  O557  1  0.124950  0.994860  0.444660  1.0  -0.5718
  O  O558  1  0.122100  0.917810  0.438620  1.0  -0.6466
  O  O559  1  0.625330  0.450010  0.507050  1.0  -0.6017
  O  O560  1  0.624950  0.494860  0.444660  1.0  -0.5718
  O  O561  1  0.622100  0.417810  0.438620  1.0  -0.6466
  O  O562  1  0.625330  0.950010  0.007050  1.0  -0.6017
  O  O563  1  0.624950  0.994860  0.944660  1.0  -0.5718
  O  O564  1  0.622100  0.917810  0.938620  1.0  -0.6466
  O  O565  1  0.624670  0.950010  0.242950  1.0  -0.6032
  O  O566  1  0.625050  0.994860  0.305340  1.0  -0.5733
  O  O567  1  0.627900  0.917810  0.311380  1.0  -0.6461
  O  O568  1  0.624670  0.450010  0.742950  1.0  -0.6032
  O  O569  1  0.625050  0.494860  0.805340  1.0  -0.5733
  O  O570  1  0.627900  0.417810  0.811380  1.0  -0.6461
  O  O571  1  0.124670  0.950010  0.742950  1.0  -0.6032
  O  O572  1  0.125050  0.994860  0.805340  1.0  -0.5733
  O  O573  1  0.127900  0.917810  0.811380  1.0  -0.6461
  O  O574  1  0.124670  0.450010  0.242950  1.0  -0.6032
  O  O575  1  0.125050  0.494860  0.305340  1.0  -0.5733
  O  O576  1  0.127900  0.417810  0.311380  1.0  -0.6461
  O  O577  1  0.799990  0.742950  0.625330  1.0  -0.6061
  O  O578  1  0.755140  0.805340  0.624950  1.0  -0.5752
  O  O579  1  0.832190  0.811380  0.622100  1.0  -0.646
  O  O580  1  0.799990  0.242950  0.125330  1.0  -0.6061
  O  O581  1  0.755140  0.305340  0.124950  1.0  -0.5752
  O  O582  1  0.832190  0.311380  0.122100  1.0  -0.646
  O  O583  1  0.299990  0.742950  0.125330  1.0  -0.6061
  O  O584  1  0.255140  0.805340  0.124950  1.0  -0.5752
  O  O585  1  0.332190  0.811380  0.122100  1.0  -0.646
  O  O586  1  0.299990  0.242950  0.625330  1.0  -0.6061
  O  O587  1  0.255140  0.305340  0.624950  1.0  -0.5752
  O  O588  1  0.332190  0.311380  0.622100  1.0  -0.646
  O  O589  1  0.299990  0.507050  0.124670  1.0  -0.6075
  O  O590  1  0.255140  0.444660  0.125050  1.0  -0.5743
  O  O591  1  0.332190  0.438620  0.127900  1.0  -0.6453
  O  O592  1  0.299990  0.007050  0.624670  1.0  -0.6075
  O  O593  1  0.255140  0.944660  0.625050  1.0  -0.5743
  O  O594  1  0.332190  0.938620  0.627900  1.0  -0.6453
  O  O595  1  0.799990  0.507050  0.624670  1.0  -0.6075
  O  O596  1  0.755140  0.444660  0.625050  1.0  -0.5743
  O  O597  1  0.832190  0.438620  0.627900  1.0  -0.6453
  O  O598  1  0.799990  0.007050  0.124670  1.0  -0.6075
  O  O599  1  0.755140  0.944660  0.125050  1.0  -0.5743
  O  O600  1  0.832190  0.938620  0.127900  1.0  -0.6453
  O  O601  1  0.950010  0.242950  0.624670  1.0  -0.609
  O  O602  1  0.994860  0.305340  0.625050  1.0  -0.5744
  O  O603  1  0.917810  0.311380  0.627900  1.0  -0.6457
  O  O604  1  0.950010  0.742950  0.124670  1.0  -0.609
  O  O605  1  0.994860  0.805340  0.125050  1.0  -0.5744
  O  O606  1  0.917810  0.811380  0.127900  1.0  -0.6457
  O  O607  1  0.450010  0.242950  0.124670  1.0  -0.609
  O  O608  1  0.494860  0.305340  0.125050  1.0  -0.5744
  O  O609  1  0.417810  0.311380  0.127900  1.0  -0.6457
  O  O610  1  0.450010  0.742950  0.624670  1.0  -0.609
  O  O611  1  0.494860  0.805340  0.625050  1.0  -0.5744
  O  O612  1  0.417810  0.811380  0.627900  1.0  -0.6457
  O  O613  1  0.450010  0.007050  0.125330  1.0  -0.6067
  O  O614  1  0.494860  0.944660  0.124950  1.0  -0.5737
  O  O615  1  0.417810  0.938620  0.122100  1.0  -0.6455
  O  O616  1  0.450010  0.507050  0.625330  1.0  -0.6067
  O  O617  1  0.494860  0.444660  0.624950  1.0  -0.5737
  O  O618  1  0.417810  0.438620  0.622100  1.0  -0.6455
  O  O619  1  0.950010  0.007050  0.625330  1.0  -0.6067
  O  O620  1  0.994860  0.944660  0.624950  1.0  -0.5737
  O  O621  1  0.917810  0.938620  0.622100  1.0  -0.6455
  O  O622  1  0.950010  0.507050  0.125330  1.0  -0.6067
  O  O623  1  0.994860  0.444660  0.124950  1.0  -0.5737
  O  O624  1  0.917810  0.438620  0.122100  1.0  -0.6455
  O  O625  1  0.625330  0.507050  0.950010  1.0  -0.6086
  O  O626  1  0.624950  0.444660  0.994860  1.0  -0.5717
  O  O627  1  0.622100  0.438620  0.917810  1.0  -0.6459
  O  O628  1  0.625330  0.007050  0.450010  1.0  -0.6086
  O  O629  1  0.624950  0.944660  0.494860  1.0  -0.5717
  O  O630  1  0.622100  0.938620  0.417810  1.0  -0.6459
  O  O631  1  0.125330  0.507050  0.450010  1.0  -0.6086
  O  O632  1  0.124950  0.444660  0.494860  1.0  -0.5717
  O  O633  1  0.122100  0.438620  0.417810  1.0  -0.6459
  O  O634  1  0.125330  0.007050  0.950010  1.0  -0.6086
  O  O635  1  0.124950  0.944660  0.994860  1.0  -0.5717
  O  O636  1  0.122100  0.938620  0.917810  1.0  -0.6459
  O  O637  1  0.124670  0.742950  0.450010  1.0  -0.6093
  O  O638  1  0.125050  0.805340  0.494860  1.0  -0.5726
  O  O639  1  0.127900  0.811380  0.417810  1.0  -0.6463
  O  O640  1  0.124670  0.242950  0.950010  1.0  -0.6093
  O  O641  1  0.125050  0.305340  0.994860  1.0  -0.5726
  O  O642  1  0.127900  0.311380  0.917810  1.0  -0.6463
  O  O643  1  0.624670  0.742950  0.950010  1.0  -0.6093
  O  O644  1  0.625050  0.805340  0.994860  1.0  -0.5726
  O  O645  1  0.627900  0.811380  0.917810  1.0  -0.6463
  O  O646  1  0.624670  0.242950  0.450010  1.0  -0.6093
  O  O647  1  0.625050  0.305340  0.494860  1.0  -0.5726
  O  O648  1  0.627900  0.311380  0.417810  1.0  -0.6463
  O  O649  1  0.624670  0.007050  0.799990  1.0  -0.6076
  O  O650  1  0.625050  0.944660  0.755140  1.0  -0.5742
  O  O651  1  0.627900  0.938620  0.832190  1.0  -0.6459
  O  O652  1  0.624670  0.507050  0.299990  1.0  -0.6076
  O  O653  1  0.625050  0.444660  0.255140  1.0  -0.5742
  O  O654  1  0.627900  0.438620  0.332190  1.0  -0.6459
  O  O655  1  0.124670  0.007050  0.299990  1.0  -0.6076
  O  O656  1  0.125050  0.944660  0.255140  1.0  -0.5742
  O  O657  1  0.127900  0.938620  0.332190  1.0  -0.6459
  O  O658  1  0.124670  0.507050  0.799990  1.0  -0.6076
  O  O659  1  0.125050  0.444660  0.755140  1.0  -0.5742
  O  O660  1  0.127900  0.438620  0.832190  1.0  -0.6459
  O  O661  1  0.125330  0.242950  0.299990  1.0  -0.6071
  O  O662  1  0.124950  0.305340  0.255140  1.0  -0.5741
  O  O663  1  0.122100  0.311380  0.332190  1.0  -0.6464
  O  O664  1  0.125330  0.742950  0.799990  1.0  -0.6071
  O  O665  1  0.124950  0.805340  0.755140  1.0  -0.5741
  O  O666  1  0.122100  0.811380  0.832190  1.0  -0.6464
  O  O667  1  0.625330  0.242950  0.799990  1.0  -0.6071
  O  O668  1  0.624950  0.305340  0.755140  1.0  -0.5741
  O  O669  1  0.622100  0.311380  0.832190  1.0  -0.6464
  O  O670  1  0.625330  0.742950  0.299990  1.0  -0.6071
  O  O671  1  0.624950  0.805340  0.255140  1.0  -0.5741
  O  O672  1  0.622100  0.811380  0.332190  1.0  -0.6464
  O  O673  1  0.950010  0.625330  0.507050  1.0  -0.6002
  O  O674  1  0.994860  0.624950  0.444660  1.0  -0.5739
  O  O675  1  0.917810  0.622100  0.438620  1.0  -0.6445
  O  O676  1  0.950010  0.125330  0.007050  1.0  -0.6002
  O  O677  1  0.994860  0.124950  0.944660  1.0  -0.5739
  O  O678  1  0.917810  0.122100  0.938620  1.0  -0.6445
  O  O679  1  0.450010  0.625330  0.007050  1.0  -0.6002
  O  O680  1  0.494860  0.624950  0.944660  1.0  -0.5739
  O  O681  1  0.417810  0.622100  0.938620  1.0  -0.6445
  O  O682  1  0.450010  0.125330  0.507050  1.0  -0.6002
  O  O683  1  0.494860  0.124950  0.444660  1.0  -0.5739
  O  O684  1  0.417810  0.122100  0.438620  1.0  -0.6445
  O  O685  1  0.450010  0.124670  0.742950  1.0  -0.6012
  O  O686  1  0.494860  0.125050  0.805340  1.0  -0.5741
  O  O687  1  0.417810  0.127900  0.811380  1.0  -0.645
  O  O688  1  0.450010  0.624670  0.242950  1.0  -0.6012
  O  O689  1  0.494860  0.625050  0.305340  1.0  -0.5741
  O  O690  1  0.417810  0.627900  0.311380  1.0  -0.645
  O  O691  1  0.950010  0.124670  0.242950  1.0  -0.6012
  O  O692  1  0.994860  0.125050  0.305340  1.0  -0.5741
  O  O693  1  0.917810  0.127900  0.311380  1.0  -0.645
  O  O694  1  0.950010  0.624670  0.742950  1.0  -0.6012
  O  O695  1  0.994860  0.625050  0.805340  1.0  -0.5741
  O  O696  1  0.917810  0.627900  0.811380  1.0  -0.645
  O  O697  1  0.799990  0.624670  0.007050  1.0  -0.6011
  O  O698  1  0.755140  0.625050  0.944660  1.0  -0.5746
  O  O699  1  0.832190  0.627900  0.938620  1.0  -0.645
  O  O700  1  0.799990  0.124670  0.507050  1.0  -0.6011
  O  O701  1  0.755140  0.125050  0.444660  1.0  -0.5746
  O  O702  1  0.832190  0.127900  0.438620  1.0  -0.645
  O  O703  1  0.299990  0.624670  0.507050  1.0  -0.6011
  O  O704  1  0.255140  0.625050  0.444660  1.0  -0.5746
  O  O705  1  0.332190  0.627900  0.438620  1.0  -0.645
  O  O706  1  0.299990  0.124670  0.007050  1.0  -0.6011
  O  O707  1  0.255140  0.125050  0.944660  1.0  -0.5746
  O  O708  1  0.332190  0.127900  0.938620  1.0  -0.645
  O  O709  1  0.299990  0.125330  0.242950  1.0  -0.6013
  O  O710  1  0.255140  0.124950  0.305340  1.0  -0.5744
  O  O711  1  0.332190  0.122100  0.311380  1.0  -0.6453
  O  O712  1  0.299990  0.625330  0.742950  1.0  -0.6013
  O  O713  1  0.255140  0.624950  0.805340  1.0  -0.5744
  O  O714  1  0.332190  0.622100  0.811380  1.0  -0.6453
  O  O715  1  0.799990  0.125330  0.742950  1.0  -0.6013
  O  O716  1  0.755140  0.124950  0.805340  1.0  -0.5744
  O  O717  1  0.832190  0.122100  0.811380  1.0  -0.6453
  O  O718  1  0.799990  0.625330  0.242950  1.0  -0.6013
  O  O719  1  0.755140  0.624950  0.305340  1.0  -0.5744
  O  O720  1  0.832190  0.622100  0.311380  1.0  -0.6453
  O  O721  1  0.507050  0.950010  0.625330  1.0  -0.6063
  O  O722  1  0.444660  0.994860  0.624950  1.0  -0.5754
  O  O723  1  0.438620  0.917810  0.622100  1.0  -0.646
  O  O724  1  0.507050  0.450010  0.125330  1.0  -0.6063
  O  O725  1  0.444660  0.494860  0.124950  1.0  -0.5754
  O  O726  1  0.438620  0.417810  0.122100  1.0  -0.646
  O  O727  1  0.007050  0.950010  0.125330  1.0  -0.6063
  O  O728  1  0.944660  0.994860  0.124950  1.0  -0.5754
  O  O729  1  0.938620  0.917810  0.122100  1.0  -0.646
  O  O730  1  0.007050  0.450010  0.625330  1.0  -0.6063
  O  O731  1  0.944660  0.494860  0.624950  1.0  -0.5754
  O  O732  1  0.938620  0.417810  0.622100  1.0  -0.646
  O  O733  1  0.742950  0.450010  0.124670  1.0  -0.6057
  O  O734  1  0.805340  0.494860  0.125050  1.0  -0.5773
  O  O735  1  0.811380  0.417810  0.127900  1.0  -0.6457
  O  O736  1  0.742950  0.950010  0.624670  1.0  -0.6057
  O  O737  1  0.805340  0.994860  0.625050  1.0  -0.5773
  O  O738  1  0.811380  0.917810  0.627900  1.0  -0.6457
  O  O739  1  0.242950  0.450010  0.624670  1.0  -0.6057
  O  O740  1  0.305340  0.494860  0.625050  1.0  -0.5773
  O  O741  1  0.311380  0.417810  0.627900  1.0  -0.6457
  O  O742  1  0.242950  0.950010  0.124670  1.0  -0.6057
  O  O743  1  0.305340  0.994860  0.125050  1.0  -0.5773
  O  O744  1  0.311380  0.917810  0.127900  1.0  -0.6457
  O  O745  1  0.007050  0.799990  0.624670  1.0  -0.605
  O  O746  1  0.944660  0.755140  0.625050  1.0  -0.5763
  O  O747  1  0.938620  0.832190  0.627900  1.0  -0.6457
  O  O748  1  0.007050  0.299990  0.124670  1.0  -0.605
  O  O749  1  0.944660  0.255140  0.125050  1.0  -0.5763
  O  O750  1  0.938620  0.332190  0.127900  1.0  -0.6457
  O  O751  1  0.507050  0.799990  0.124670  1.0  -0.605
  O  O752  1  0.444660  0.755140  0.125050  1.0  -0.5763
  O  O753  1  0.438620  0.832190  0.127900  1.0  -0.6457
  O  O754  1  0.507050  0.299990  0.624670  1.0  -0.605
  O  O755  1  0.444660  0.255140  0.625050  1.0  -0.5763
  O  O756  1  0.438620  0.332190  0.627900  1.0  -0.6457
  O  O757  1  0.242950  0.299990  0.125330  1.0  -0.6046
  O  O758  1  0.305340  0.255140  0.124950  1.0  -0.5761
  O  O759  1  0.311380  0.332190  0.122100  1.0  -0.6454
  O  O760  1  0.242950  0.799990  0.625330  1.0  -0.6046
  O  O761  1  0.305340  0.755140  0.624950  1.0  -0.5761
  O  O762  1  0.311380  0.832190  0.622100  1.0  -0.6454
  O  O763  1  0.742950  0.299990  0.625330  1.0  -0.6046
  O  O764  1  0.805340  0.255140  0.624950  1.0  -0.5761
  O  O765  1  0.811380  0.332190  0.622100  1.0  -0.6454
  O  O766  1  0.742950  0.799990  0.125330  1.0  -0.6046
  O  O767  1  0.805340  0.755140  0.124950  1.0  -0.5761
  O  O768  1  0.811380  0.832190  0.122100  1.0  -0.6454
  O  O769  1  0.757050  0.375330  0.049990  1.0  -0.6034
  O  O770  1  0.694660  0.374950  0.005140  1.0  -0.5755
  O  O771  1  0.688620  0.372100  0.082190  1.0  -0.6451
  O  O772  1  0.757050  0.875330  0.549990  1.0  -0.6034
  O  O773  1  0.694660  0.874950  0.505140  1.0  -0.5755
  O  O774  1  0.688620  0.872100  0.582190  1.0  -0.6451
  O  O775  1  0.257050  0.375330  0.549990  1.0  -0.6034
  O  O776  1  0.194660  0.374950  0.505140  1.0  -0.5755
  O  O777  1  0.188620  0.372100  0.582190  1.0  -0.6451
  O  O778  1  0.257050  0.875330  0.049990  1.0  -0.6034
  O  O779  1  0.194660  0.874950  0.005140  1.0  -0.5755
  O  O780  1  0.188620  0.872100  0.082190  1.0  -0.6451
  O  O781  1  0.992950  0.874670  0.549990  1.0  -0.6027
  O  O782  1  0.055340  0.875050  0.505140  1.0  -0.5771
  O  O783  1  0.061380  0.877900  0.582190  1.0  -0.6449
  O  O784  1  0.992950  0.374670  0.049990  1.0  -0.6027
  O  O785  1  0.055340  0.375050  0.005140  1.0  -0.5771
  O  O786  1  0.061380  0.377900  0.082190  1.0  -0.6449
  O  O787  1  0.492950  0.874670  0.049990  1.0  -0.6027
  O  O788  1  0.555340  0.875050  0.005140  1.0  -0.5771
  O  O789  1  0.561380  0.877900  0.082190  1.0  -0.6449
  O  O790  1  0.492950  0.374670  0.549990  1.0  -0.6027
  O  O791  1  0.555340  0.375050  0.505140  1.0  -0.5771
  O  O792  1  0.561380  0.377900  0.582190  1.0  -0.6449
  O  O793  1  0.257050  0.374670  0.200010  1.0  -0.6046
  O  O794  1  0.194660  0.375050  0.244860  1.0  -0.5738
  O  O795  1  0.188620  0.377900  0.167810  1.0  -0.6448
  O  O796  1  0.257050  0.874670  0.700010  1.0  -0.6046
  O  O797  1  0.194660  0.875050  0.744860  1.0  -0.5738
  O  O798  1  0.188620  0.877900  0.667810  1.0  -0.6448
  O  O799  1  0.757050  0.374670  0.700010  1.0  -0.6046
  O  O800  1  0.694660  0.375050  0.744860  1.0  -0.5738
  O  O801  1  0.688620  0.377900  0.667810  1.0  -0.6448
  O  O802  1  0.757050  0.874670  0.200010  1.0  -0.6046
  O  O803  1  0.694660  0.875050  0.244860  1.0  -0.5738
  O  O804  1  0.688620  0.877900  0.167810  1.0  -0.6448
  O  O805  1  0.492950  0.875330  0.700010  1.0  -0.6055
  O  O806  1  0.555340  0.874950  0.744860  1.0  -0.5743
  O  O807  1  0.561380  0.872100  0.667810  1.0  -0.6452
  O  O808  1  0.492950  0.375330  0.200010  1.0  -0.6055
  O  O809  1  0.555340  0.374950  0.244860  1.0  -0.5743
  O  O810  1  0.561380  0.372100  0.167810  1.0  -0.6452
  O  O811  1  0.992950  0.875330  0.200010  1.0  -0.6055
  O  O812  1  0.055340  0.874950  0.244860  1.0  -0.5743
  O  O813  1  0.061380  0.872100  0.167810  1.0  -0.6452
  O  O814  1  0.992950  0.375330  0.700010  1.0  -0.6055
  O  O815  1  0.055340  0.374950  0.744860  1.0  -0.5743
  O  O816  1  0.061380  0.372100  0.667810  1.0  -0.6452
  O  O817  1  0.875330  0.700010  0.492950  1.0  -0.6047
  O  O818  1  0.874950  0.744860  0.555340  1.0  -0.5731
  O  O819  1  0.872100  0.667810  0.561380  1.0  -0.6465
  O  O820  1  0.875330  0.200010  0.992950  1.0  -0.6047
  O  O821  1  0.874950  0.244860  0.055340  1.0  -0.5731
  O  O822  1  0.872100  0.167810  0.061380  1.0  -0.6465
  O  O823  1  0.375330  0.700010  0.992950  1.0  -0.6047
  O  O824  1  0.374950  0.744860  0.055340  1.0  -0.5731
  O  O825  1  0.372100  0.667810  0.061380  1.0  -0.6465
  O  O826  1  0.375330  0.200010  0.492950  1.0  -0.6047
  O  O827  1  0.374950  0.244860  0.555340  1.0  -0.5731
  O  O828  1  0.372100  0.167810  0.561380  1.0  -0.6465
  O  O829  1  0.374670  0.200010  0.257050  1.0  -0.6027
  O  O830  1  0.375050  0.244860  0.194660  1.0  -0.572
  O  O831  1  0.377900  0.167810  0.188620  1.0  -0.6461
  O  O832  1  0.374670  0.700010  0.757050  1.0  -0.6027
  O  O833  1  0.375050  0.744860  0.694660  1.0  -0.572
  O  O834  1  0.377900  0.667810  0.688620  1.0  -0.6461
  O  O835  1  0.874670  0.200010  0.757050  1.0  -0.6027
  O  O836  1  0.875050  0.244860  0.694660  1.0  -0.572
  O  O837  1  0.877900  0.167810  0.688620  1.0  -0.6461
  O  O838  1  0.874670  0.700010  0.257050  1.0  -0.6027
  O  O839  1  0.875050  0.744860  0.194660  1.0  -0.572
  O  O840  1  0.877900  0.667810  0.188620  1.0  -0.6461
  O  O841  1  0.874670  0.549990  0.992950  1.0  -0.6012
  O  O842  1  0.875050  0.505140  0.055340  1.0  -0.5721
  O  O843  1  0.877900  0.582190  0.061380  1.0  -0.6463
  O  O844  1  0.874670  0.049990  0.492950  1.0  -0.6012
  O  O845  1  0.875050  0.005140  0.555340  1.0  -0.5721
  O  O846  1  0.877900  0.082190  0.561380  1.0  -0.6463
  O  O847  1  0.374670  0.549990  0.492950  1.0  -0.6012
  O  O848  1  0.375050  0.505140  0.555340  1.0  -0.5721
  O  O849  1  0.377900  0.582190  0.561380  1.0  -0.6463
  O  O850  1  0.374670  0.049990  0.992950  1.0  -0.6012
  O  O851  1  0.375050  0.005140  0.055340  1.0  -0.5721
  O  O852  1  0.377900  0.082190  0.061380  1.0  -0.6463
  O  O853  1  0.375330  0.049990  0.757050  1.0  -0.6027
  O  O854  1  0.374950  0.005140  0.694660  1.0  -0.5721
  O  O855  1  0.372100  0.082190  0.688620  1.0  -0.646
  O  O856  1  0.375330  0.549990  0.257050  1.0  -0.6027
  O  O857  1  0.374950  0.505140  0.194660  1.0  -0.5721
  O  O858  1  0.372100  0.582190  0.188620  1.0  -0.646
  O  O859  1  0.875330  0.049990  0.257050  1.0  -0.6027
  O  O860  1  0.874950  0.005140  0.194660  1.0  -0.5721
  O  O861  1  0.872100  0.082190  0.188620  1.0  -0.646
  O  O862  1  0.875330  0.549990  0.757050  1.0  -0.6027
  O  O863  1  0.874950  0.505140  0.694660  1.0  -0.5721
  O  O864  1  0.872100  0.582190  0.688620  1.0  -0.646
  O  O865  1  0.200010  0.257050  0.374670  1.0  -0.6072
  O  O866  1  0.244860  0.194660  0.375050  1.0  -0.5734
  O  O867  1  0.167810  0.188620  0.377900  1.0  -0.6453
  O  O868  1  0.200010  0.757050  0.874670  1.0  -0.6072
  O  O869  1  0.244860  0.694660  0.875050  1.0  -0.5734
  O  O870  1  0.167810  0.688620  0.877900  1.0  -0.6453
  O  O871  1  0.700010  0.257050  0.874670  1.0  -0.6072
  O  O872  1  0.744860  0.194660  0.875050  1.0  -0.5734
  O  O873  1  0.667810  0.188620  0.877900  1.0  -0.6453
  O  O874  1  0.700010  0.757050  0.374670  1.0  -0.6072
  O  O875  1  0.744860  0.694660  0.375050  1.0  -0.5734
  O  O876  1  0.667810  0.688620  0.377900  1.0  -0.6453
  O  O877  1  0.700010  0.492950  0.875330  1.0  -0.6101
  O  O878  1  0.744860  0.555340  0.874950  1.0  -0.575
  O  O879  1  0.667810  0.561380  0.872100  1.0  -0.6456
  O  O880  1  0.700010  0.992950  0.375330  1.0  -0.6101
  O  O881  1  0.744860  0.055340  0.374950  1.0  -0.575
  O  O882  1  0.667810  0.061380  0.372100  1.0  -0.6456
  O  O883  1  0.200010  0.492950  0.375330  1.0  -0.6101
  O  O884  1  0.244860  0.555340  0.374950  1.0  -0.575
  O  O885  1  0.167810  0.561380  0.372100  1.0  -0.6456
  O  O886  1  0.200010  0.992950  0.875330  1.0  -0.6101
  O  O887  1  0.244860  0.055340  0.874950  1.0  -0.575
  O  O888  1  0.167810  0.061380  0.872100  1.0  -0.6456
  O  O889  1  0.049990  0.757050  0.375330  1.0  -0.6089
  O  O890  1  0.005140  0.694660  0.374950  1.0  -0.5748
  O  O891  1  0.082190  0.688620  0.372100  1.0  -0.6454
  O  O892  1  0.049990  0.257050  0.875330  1.0  -0.6089
  O  O893  1  0.005140  0.194660  0.874950  1.0  -0.5748
  O  O894  1  0.082190  0.188620  0.872100  1.0  -0.6454
  O  O895  1  0.549990  0.757050  0.875330  1.0  -0.6089
  O  O896  1  0.505140  0.694660  0.874950  1.0  -0.5748
  O  O897  1  0.582190  0.688620  0.872100  1.0  -0.6454
  O  O898  1  0.549990  0.257050  0.375330  1.0  -0.6089
  O  O899  1  0.505140  0.194660  0.374950  1.0  -0.5748
  O  O900  1  0.582190  0.188620  0.372100  1.0  -0.6454
  O  O901  1  0.549990  0.992950  0.874670  1.0  -0.6069
  O  O902  1  0.505140  0.055340  0.875050  1.0  -0.5746
  O  O903  1  0.582190  0.061380  0.877900  1.0  -0.646
  O  O904  1  0.549990  0.492950  0.374670  1.0  -0.6069
  O  O905  1  0.505140  0.555340  0.375050  1.0  -0.5746
  O  O906  1  0.582190  0.561380  0.377900  1.0  -0.646
  O  O907  1  0.049990  0.992950  0.374670  1.0  -0.6069
  O  O908  1  0.005140  0.055340  0.375050  1.0  -0.5746
  O  O909  1  0.082190  0.061380  0.377900  1.0  -0.646
  O  O910  1  0.049990  0.492950  0.874670  1.0  -0.6069
  O  O911  1  0.005140  0.555340  0.875050  1.0  -0.5746
  O  O912  1  0.082190  0.561380  0.877900  1.0  -0.646
