# generated using pymatgen
data_NaCo2(CO3)4
_symmetry_space_group_name_H-M   'P 1'
_cell_length_a   28.90570000
_cell_length_b   28.90570000
_cell_length_c   28.90570000
_cell_angle_alpha   90.00000000
_cell_angle_beta   90.00000000
_cell_angle_gamma   90.00000000
_symmetry_Int_Tables_number   1
_chemical_formula_structural   NaCo2(CO3)4
_chemical_formula_sum   'Na48 Co96 C192 O576'
_cell_volume   24151.85390807
_cell_formula_units_Z   48
loop_
 _symmetry_equiv_pos_site_id
 _symmetry_equiv_pos_as_xyz
  1  'x, y, z'
loop_
 _atom_site_type_symbol
 _atom_site_label
 _atom_site_symmetry_multiplicity
 _atom_site_fract_x
 _atom_site_fract_y
 _atom_site_fract_z
 _atom_site_occupancy
 _atom_site_charge
  Na  Na1  1  0.125000  0.375000  0.125000  1.0  1.0667
  Na  Na2  1  0.125000  0.375000  0.625000  1.0  1.0667
  Na  Na3  1  0.125000  0.875000  0.125000  1.0  1.0667
  Na  Na4  1  0.625000  0.875000  0.125000  1.0  1.0667
  Na  Na5  1  0.625000  0.375000  0.625000  1.0  1.0667
  Na  Na6  1  0.625000  0.875000  0.625000  1.0  1.0667
  Na  Na7  1  0.125000  0.125000  0.375000  1.0  1.0667
  Na  Na8  1  0.625000  0.125000  0.375000  1.0  1.0667
  Na  Na9  1  0.125000  0.625000  0.875000  1.0  1.0667
  Na  Na10  1  0.625000  0.625000  0.875000  1.0  1.0667
  Na  Na11  1  0.375000  0.125000  0.125000  1.0  1.0667
  Na  Na12  1  0.375000  0.625000  0.625000  1.0  1.0667
  Na  Na13  1  0.375000  0.625000  0.125000  1.0  1.0667
  Na  Na14  1  0.875000  0.125000  0.625000  1.0  1.0667
  Na  Na15  1  0.875000  0.625000  0.625000  1.0  1.0667
  Na  Na16  1  0.875000  0.125000  0.125000  1.0  1.0667
  Na  Na17  1  0.125000  0.375000  0.875000  1.0  1.0667
  Na  Na18  1  0.125000  0.375000  0.375000  1.0  1.0667
  Na  Na19  1  0.125000  0.875000  0.875000  1.0  1.0667
  Na  Na20  1  0.625000  0.875000  0.875000  1.0  1.0667
  Na  Na21  1  0.625000  0.375000  0.375000  1.0  1.0667
  Na  Na22  1  0.625000  0.875000  0.375000  1.0  1.0667
  Na  Na23  1  0.875000  0.375000  0.625000  1.0  1.0667
  Na  Na24  1  0.875000  0.875000  0.125000  1.0  1.0667
  Na  Na25  1  0.875000  0.875000  0.625000  1.0  1.0667
  Na  Na26  1  0.375000  0.375000  0.125000  1.0  1.0667
  Na  Na27  1  0.375000  0.875000  0.125000  1.0  1.0667
  Na  Na28  1  0.375000  0.375000  0.625000  1.0  1.0667
  Na  Na29  1  0.875000  0.625000  0.875000  1.0  1.0667
  Na  Na30  1  0.375000  0.625000  0.875000  1.0  1.0667
  Na  Na31  1  0.875000  0.125000  0.375000  1.0  1.0667
  Na  Na32  1  0.375000  0.125000  0.375000  1.0  1.0667
  Na  Na33  1  0.875000  0.625000  0.375000  1.0  1.0667
  Na  Na34  1  0.875000  0.125000  0.875000  1.0  1.0667
  Na  Na35  1  0.375000  0.125000  0.875000  1.0  1.0667
  Na  Na36  1  0.375000  0.625000  0.375000  1.0  1.0667
  Na  Na37  1  0.375000  0.875000  0.625000  1.0  1.0667
  Na  Na38  1  0.875000  0.375000  0.125000  1.0  1.0667
  Na  Na39  1  0.625000  0.375000  0.875000  1.0  1.0667
  Na  Na40  1  0.125000  0.875000  0.375000  1.0  1.0667
  Na  Na41  1  0.875000  0.625000  0.125000  1.0  1.0667
  Na  Na42  1  0.375000  0.125000  0.625000  1.0  1.0667
  Na  Na43  1  0.125000  0.625000  0.375000  1.0  1.0667
  Na  Na44  1  0.125000  0.125000  0.875000  1.0  1.0667
  Na  Na45  1  0.625000  0.125000  0.875000  1.0  1.0667
  Na  Na46  1  0.625000  0.625000  0.375000  1.0  1.0667
  Na  Na47  1  0.625000  0.375000  0.125000  1.0  1.0667
  Na  Na48  1  0.125000  0.875000  0.625000  1.0  1.0667
  Co  Co49  1  0.000000  0.376350  0.126350  1.0  1.03
  Co  Co50  1  0.500000  0.376350  0.626350  1.0  1.03
  Co  Co51  1  0.250000  0.373650  0.626350  1.0  1.0296
  Co  Co52  1  0.750000  0.373650  0.126350  1.0  1.0296
  Co  Co53  1  0.750000  0.876350  0.123650  1.0  1.0305
  Co  Co54  1  0.250000  0.876350  0.623650  1.0  1.0305
  Co  Co55  1  0.500000  0.873650  0.623650  1.0  1.03
  Co  Co56  1  0.000000  0.873650  0.123650  1.0  1.03
  Co  Co57  1  0.126350  0.000000  0.376350  1.0  1.0282
  Co  Co58  1  0.126350  0.500000  0.876350  1.0  1.0282
  Co  Co59  1  0.626350  0.250000  0.373650  1.0  1.0287
  Co  Co60  1  0.626350  0.750000  0.873650  1.0  1.0287
  Co  Co61  1  0.123650  0.750000  0.876350  1.0  1.0276
  Co  Co62  1  0.123650  0.250000  0.376350  1.0  1.0276
  Co  Co63  1  0.623650  0.500000  0.873650  1.0  1.0282
  Co  Co64  1  0.623650  0.000000  0.373650  1.0  1.0282
  Co  Co65  1  0.376350  0.126350  0.000000  1.0  1.0286
  Co  Co66  1  0.376350  0.626350  0.500000  1.0  1.0286
  Co  Co67  1  0.373650  0.626350  0.250000  1.0  1.0282
  Co  Co68  1  0.373650  0.126350  0.750000  1.0  1.0282
  Co  Co69  1  0.876350  0.123650  0.750000  1.0  1.0282
  Co  Co70  1  0.876350  0.623650  0.250000  1.0  1.0282
  Co  Co71  1  0.873650  0.623650  0.500000  1.0  1.0277
  Co  Co72  1  0.873650  0.123650  0.000000  1.0  1.0277
  Co  Co73  1  0.126350  0.250000  0.873650  1.0  1.0287
  Co  Co74  1  0.126350  0.750000  0.373650  1.0  1.0287
  Co  Co75  1  0.123650  0.500000  0.373650  1.0  1.0282
  Co  Co76  1  0.123650  0.000000  0.873650  1.0  1.0282
  Co  Co77  1  0.626350  0.000000  0.876350  1.0  1.0282
  Co  Co78  1  0.626350  0.500000  0.376350  1.0  1.0282
  Co  Co79  1  0.623650  0.750000  0.376350  1.0  1.0276
  Co  Co80  1  0.623650  0.250000  0.876350  1.0  1.0276
  Co  Co81  1  0.750000  0.376350  0.623650  1.0  1.0305
  Co  Co82  1  0.250000  0.376350  0.123650  1.0  1.0305
  Co  Co83  1  0.000000  0.876350  0.626350  1.0  1.03
  Co  Co84  1  0.500000  0.876350  0.126350  1.0  1.03
  Co  Co85  1  0.500000  0.373650  0.123650  1.0  1.03
  Co  Co86  1  0.000000  0.373650  0.623650  1.0  1.03
  Co  Co87  1  0.250000  0.873650  0.126350  1.0  1.0296
  Co  Co88  1  0.750000  0.873650  0.626350  1.0  1.0296
  Co  Co89  1  0.876350  0.626350  0.000000  1.0  1.0286
  Co  Co90  1  0.876350  0.126350  0.500000  1.0  1.0286
  Co  Co91  1  0.376350  0.623650  0.750000  1.0  1.0282
  Co  Co92  1  0.376350  0.123650  0.250000  1.0  1.0282
  Co  Co93  1  0.873650  0.126350  0.250000  1.0  1.0282
  Co  Co94  1  0.873650  0.626350  0.750000  1.0  1.0282
  Co  Co95  1  0.373650  0.123650  0.500000  1.0  1.0277
  Co  Co96  1  0.373650  0.623650  0.000000  1.0  1.0277
  Co  Co97  1  0.000000  0.623650  0.873650  1.0  1.033
  Co  Co98  1  0.500000  0.623650  0.373650  1.0  1.033
  Co  Co99  1  0.750000  0.626350  0.373650  1.0  1.0335
  Co  Co100  1  0.250000  0.626350  0.873650  1.0  1.0335
  Co  Co101  1  0.250000  0.123650  0.876350  1.0  1.0326
  Co  Co102  1  0.750000  0.123650  0.376350  1.0  1.0326
  Co  Co103  1  0.500000  0.126350  0.376350  1.0  1.033
  Co  Co104  1  0.000000  0.126350  0.876350  1.0  1.033
  Co  Co105  1  0.873650  0.000000  0.623650  1.0  1.0311
  Co  Co106  1  0.873650  0.500000  0.123650  1.0  1.0311
  Co  Co107  1  0.373650  0.750000  0.626350  1.0  1.0305
  Co  Co108  1  0.373650  0.250000  0.126350  1.0  1.0305
  Co  Co109  1  0.876350  0.250000  0.123650  1.0  1.0316
  Co  Co110  1  0.876350  0.750000  0.623650  1.0  1.0316
  Co  Co111  1  0.376350  0.500000  0.126350  1.0  1.0311
  Co  Co112  1  0.376350  0.000000  0.626350  1.0  1.0311
  Co  Co113  1  0.623650  0.873650  0.000000  1.0  1.0306
  Co  Co114  1  0.623650  0.373650  0.500000  1.0  1.0306
  Co  Co115  1  0.626350  0.373650  0.750000  1.0  1.0311
  Co  Co116  1  0.626350  0.873650  0.250000  1.0  1.0311
  Co  Co117  1  0.123650  0.876350  0.250000  1.0  1.0311
  Co  Co118  1  0.123650  0.376350  0.750000  1.0  1.0311
  Co  Co119  1  0.126350  0.376350  0.500000  1.0  1.0316
  Co  Co120  1  0.126350  0.876350  0.000000  1.0  1.0316
  Co  Co121  1  0.873650  0.750000  0.126350  1.0  1.0305
  Co  Co122  1  0.873650  0.250000  0.626350  1.0  1.0305
  Co  Co123  1  0.876350  0.500000  0.626350  1.0  1.0311
  Co  Co124  1  0.876350  0.000000  0.126350  1.0  1.0311
  Co  Co125  1  0.373650  0.000000  0.123650  1.0  1.0311
  Co  Co126  1  0.373650  0.500000  0.623650  1.0  1.0311
  Co  Co127  1  0.376350  0.250000  0.623650  1.0  1.0316
  Co  Co128  1  0.376350  0.750000  0.123650  1.0  1.0316
  Co  Co129  1  0.250000  0.623650  0.376350  1.0  1.0326
  Co  Co130  1  0.750000  0.623650  0.876350  1.0  1.0326
  Co  Co131  1  0.000000  0.123650  0.373650  1.0  1.033
  Co  Co132  1  0.500000  0.123650  0.873650  1.0  1.033
  Co  Co133  1  0.500000  0.626350  0.876350  1.0  1.033
  Co  Co134  1  0.000000  0.626350  0.376350  1.0  1.033
  Co  Co135  1  0.750000  0.126350  0.873650  1.0  1.0335
  Co  Co136  1  0.250000  0.126350  0.373650  1.0  1.0335
  Co  Co137  1  0.123650  0.373650  0.000000  1.0  1.0306
  Co  Co138  1  0.123650  0.873650  0.500000  1.0  1.0306
  Co  Co139  1  0.623650  0.376350  0.250000  1.0  1.0311
  Co  Co140  1  0.623650  0.876350  0.750000  1.0  1.0311
  Co  Co141  1  0.126350  0.873650  0.750000  1.0  1.0311
  Co  Co142  1  0.126350  0.373650  0.250000  1.0  1.0311
  Co  Co143  1  0.626350  0.876350  0.500000  1.0  1.0316
  Co  Co144  1  0.626350  0.376350  0.000000  1.0  1.0316
  C  C145  1  0.955470  0.286660  0.125590  1.0  0.8461
  C  C146  1  0.955470  0.786660  0.625590  1.0  0.8461
  C  C147  1  0.455470  0.286660  0.625590  1.0  0.8461
  C  C148  1  0.455470  0.786660  0.125590  1.0  0.8461
  C  C149  1  0.294530  0.463340  0.625590  1.0  0.8462
  C  C150  1  0.294530  0.963340  0.125590  1.0  0.8462
  C  C151  1  0.794530  0.463340  0.125590  1.0  0.8462
  C  C152  1  0.794530  0.963340  0.625590  1.0  0.8462
  C  C153  1  0.794530  0.786660  0.124410  1.0  0.8458
  C  C154  1  0.794530  0.286660  0.624410  1.0  0.8458
  C  C155  1  0.294530  0.786660  0.624410  1.0  0.8458
  C  C156  1  0.294530  0.286660  0.124410  1.0  0.8458
  C  C157  1  0.455470  0.963340  0.624410  1.0  0.8459
  C  C158  1  0.455470  0.463340  0.124410  1.0  0.8459
  C  C159  1  0.955470  0.963340  0.124410  1.0  0.8459
  C  C160  1  0.955470  0.463340  0.624410  1.0  0.8459
  C  C161  1  0.125590  0.955470  0.286660  1.0  0.8461
  C  C162  1  0.125590  0.455470  0.786660  1.0  0.8461
  C  C163  1  0.625590  0.955470  0.786660  1.0  0.8461
  C  C164  1  0.625590  0.455470  0.286660  1.0  0.8461
  C  C165  1  0.625590  0.294530  0.463340  1.0  0.848
  C  C166  1  0.625590  0.794530  0.963340  1.0  0.848
  C  C167  1  0.125590  0.294530  0.963340  1.0  0.848
  C  C168  1  0.125590  0.794530  0.463340  1.0  0.848
  C  C169  1  0.124410  0.794530  0.786660  1.0  0.8478
  C  C170  1  0.124410  0.294530  0.286660  1.0  0.8478
  C  C171  1  0.624410  0.794530  0.286660  1.0  0.8478
  C  C172  1  0.624410  0.294530  0.786660  1.0  0.8478
  C  C173  1  0.624410  0.455470  0.963340  1.0  0.8463
  C  C174  1  0.624410  0.955470  0.463340  1.0  0.8463
  C  C175  1  0.124410  0.455470  0.463340  1.0  0.8463
  C  C176  1  0.124410  0.955470  0.963340  1.0  0.8463
  C  C177  1  0.286660  0.125590  0.955470  1.0  0.8464
  C  C178  1  0.286660  0.625590  0.455470  1.0  0.8464
  C  C179  1  0.786660  0.125590  0.455470  1.0  0.8464
  C  C180  1  0.786660  0.625590  0.955470  1.0  0.8464
  C  C181  1  0.463340  0.625590  0.294530  1.0  0.8479
  C  C182  1  0.463340  0.125590  0.794530  1.0  0.8479
  C  C183  1  0.963340  0.625590  0.794530  1.0  0.8479
  C  C184  1  0.963340  0.125590  0.294530  1.0  0.8479
  C  C185  1  0.786660  0.124410  0.794530  1.0  0.8476
  C  C186  1  0.786660  0.624410  0.294530  1.0  0.8476
  C  C187  1  0.286660  0.124410  0.294530  1.0  0.8476
  C  C188  1  0.286660  0.624410  0.794530  1.0  0.8476
  C  C189  1  0.963340  0.624410  0.455470  1.0  0.8461
  C  C190  1  0.963340  0.124410  0.955470  1.0  0.8461
  C  C191  1  0.463340  0.624410  0.955470  1.0  0.8461
  C  C192  1  0.463340  0.124410  0.455470  1.0  0.8461
  C  C193  1  0.036660  0.205470  0.874410  1.0  0.8463
  C  C194  1  0.036660  0.705470  0.374410  1.0  0.8463
  C  C195  1  0.536660  0.205470  0.374410  1.0  0.8463
  C  C196  1  0.536660  0.705470  0.874410  1.0  0.8463
  C  C197  1  0.213340  0.544530  0.374410  1.0  0.8479
  C  C198  1  0.213340  0.044530  0.874410  1.0  0.8479
  C  C199  1  0.713340  0.544530  0.874410  1.0  0.8479
  C  C200  1  0.713340  0.044530  0.374410  1.0  0.8479
  C  C201  1  0.536660  0.044530  0.875590  1.0  0.8481
  C  C202  1  0.536660  0.544530  0.375590  1.0  0.8481
  C  C203  1  0.036660  0.044530  0.375590  1.0  0.8481
  C  C204  1  0.036660  0.544530  0.875590  1.0  0.8481
  C  C205  1  0.713340  0.705470  0.375590  1.0  0.8462
  C  C206  1  0.713340  0.205470  0.875590  1.0  0.8462
  C  C207  1  0.213340  0.705470  0.875590  1.0  0.8462
  C  C208  1  0.213340  0.205470  0.375590  1.0  0.8462
  C  C209  1  0.705470  0.375590  0.713340  1.0  0.846
  C  C210  1  0.705470  0.875590  0.213340  1.0  0.846
  C  C211  1  0.205470  0.375590  0.213340  1.0  0.846
  C  C212  1  0.205470  0.875590  0.713340  1.0  0.846
  C  C213  1  0.044530  0.875590  0.536660  1.0  0.8462
  C  C214  1  0.044530  0.375590  0.036660  1.0  0.8462
  C  C215  1  0.544530  0.875590  0.036660  1.0  0.8462
  C  C216  1  0.544530  0.375590  0.536660  1.0  0.8462
  C  C217  1  0.544530  0.374410  0.213340  1.0  0.8458
  C  C218  1  0.544530  0.874410  0.713340  1.0  0.8458
  C  C219  1  0.044530  0.374410  0.713340  1.0  0.8458
  C  C220  1  0.044530  0.874410  0.213340  1.0  0.8458
  C  C221  1  0.205470  0.874410  0.036660  1.0  0.846
  C  C222  1  0.205470  0.374410  0.536660  1.0  0.846
  C  C223  1  0.705470  0.874410  0.536660  1.0  0.846
  C  C224  1  0.705470  0.374410  0.036660  1.0  0.846
  C  C225  1  0.875590  0.536660  0.044530  1.0  0.8476
  C  C226  1  0.875590  0.036660  0.544530  1.0  0.8476
  C  C227  1  0.375590  0.536660  0.544530  1.0  0.8476
  C  C228  1  0.375590  0.036660  0.044530  1.0  0.8476
  C  C229  1  0.375590  0.713340  0.705470  1.0  0.8465
  C  C230  1  0.375590  0.213340  0.205470  1.0  0.8465
  C  C231  1  0.875590  0.713340  0.205470  1.0  0.8465
  C  C232  1  0.875590  0.213340  0.705470  1.0  0.8465
  C  C233  1  0.874410  0.036660  0.205470  1.0  0.8467
  C  C234  1  0.874410  0.536660  0.705470  1.0  0.8467
  C  C235  1  0.374410  0.036660  0.705470  1.0  0.8467
  C  C236  1  0.374410  0.536660  0.205470  1.0  0.8467
  C  C237  1  0.374410  0.213340  0.544530  1.0  0.8478
  C  C238  1  0.374410  0.713340  0.044530  1.0  0.8478
  C  C239  1  0.874410  0.213340  0.044530  1.0  0.8478
  C  C240  1  0.874410  0.713340  0.544530  1.0  0.8478
  C  C241  1  0.044530  0.713340  0.874410  1.0  0.8461
  C  C242  1  0.044530  0.213340  0.374410  1.0  0.8461
  C  C243  1  0.544530  0.713340  0.374410  1.0  0.8461
  C  C244  1  0.544530  0.213340  0.874410  1.0  0.8461
  C  C245  1  0.705470  0.536660  0.374410  1.0  0.846
  C  C246  1  0.705470  0.036660  0.874410  1.0  0.846
  C  C247  1  0.205470  0.536660  0.874410  1.0  0.846
  C  C248  1  0.205470  0.036660  0.374410  1.0  0.846
  C  C249  1  0.205470  0.213340  0.875590  1.0  0.846
  C  C250  1  0.205470  0.713340  0.375590  1.0  0.846
  C  C251  1  0.705470  0.213340  0.375590  1.0  0.846
  C  C252  1  0.705470  0.713340  0.875590  1.0  0.846
  C  C253  1  0.544530  0.036660  0.375590  1.0  0.8459
  C  C254  1  0.544530  0.536660  0.875590  1.0  0.8459
  C  C255  1  0.044530  0.036660  0.875590  1.0  0.8459
  C  C256  1  0.044530  0.536660  0.375590  1.0  0.8459
  C  C257  1  0.874410  0.044530  0.713340  1.0  0.8481
  C  C258  1  0.874410  0.544530  0.213340  1.0  0.8481
  C  C259  1  0.374410  0.044530  0.213340  1.0  0.8481
  C  C260  1  0.374410  0.544530  0.713340  1.0  0.8481
  C  C261  1  0.374410  0.705470  0.536660  1.0  0.8462
  C  C262  1  0.374410  0.205470  0.036660  1.0  0.8462
  C  C263  1  0.874410  0.705470  0.036660  1.0  0.8462
  C  C264  1  0.874410  0.205470  0.536660  1.0  0.8462
  C  C265  1  0.875590  0.205470  0.213340  1.0  0.8462
  C  C266  1  0.875590  0.705470  0.713340  1.0  0.8462
  C  C267  1  0.375590  0.205470  0.713340  1.0  0.8462
  C  C268  1  0.375590  0.705470  0.213340  1.0  0.8462
  C  C269  1  0.375590  0.544530  0.036660  1.0  0.8477
  C  C270  1  0.375590  0.044530  0.536660  1.0  0.8477
  C  C271  1  0.875590  0.544530  0.536660  1.0  0.8477
  C  C272  1  0.875590  0.044530  0.036660  1.0  0.8477
  C  C273  1  0.713340  0.874410  0.044530  1.0  0.8476
  C  C274  1  0.713340  0.374410  0.544530  1.0  0.8476
  C  C275  1  0.213340  0.874410  0.544530  1.0  0.8476
  C  C276  1  0.213340  0.374410  0.044530  1.0  0.8476
  C  C277  1  0.536660  0.374410  0.705470  1.0  0.846
  C  C278  1  0.536660  0.874410  0.205470  1.0  0.846
  C  C279  1  0.036660  0.374410  0.205470  1.0  0.846
  C  C280  1  0.036660  0.874410  0.705470  1.0  0.846
  C  C281  1  0.213340  0.875590  0.205470  1.0  0.8464
  C  C282  1  0.213340  0.375590  0.705470  1.0  0.8464
  C  C283  1  0.713340  0.875590  0.705470  1.0  0.8464
  C  C284  1  0.713340  0.375590  0.205470  1.0  0.8464
  C  C285  1  0.036660  0.375590  0.544530  1.0  0.8479
  C  C286  1  0.036660  0.875590  0.044530  1.0  0.8479
  C  C287  1  0.536660  0.375590  0.044530  1.0  0.8479
  C  C288  1  0.536660  0.875590  0.544530  1.0  0.8479
  C  C289  1  0.963340  0.794530  0.125590  1.0  0.848
  C  C290  1  0.963340  0.294530  0.625590  1.0  0.848
  C  C291  1  0.463340  0.794530  0.625590  1.0  0.848
  C  C292  1  0.463340  0.294530  0.125590  1.0  0.848
  C  C293  1  0.786660  0.455470  0.625590  1.0  0.8464
  C  C294  1  0.786660  0.955470  0.125590  1.0  0.8464
  C  C295  1  0.286660  0.455470  0.125590  1.0  0.8464
  C  C296  1  0.286660  0.955470  0.625590  1.0  0.8464
  C  C297  1  0.463340  0.955470  0.124410  1.0  0.8461
  C  C298  1  0.463340  0.455470  0.624410  1.0  0.8461
  C  C299  1  0.963340  0.955470  0.624410  1.0  0.8461
  C  C300  1  0.963340  0.455470  0.124410  1.0  0.8461
  C  C301  1  0.286660  0.294530  0.624410  1.0  0.848
  C  C302  1  0.286660  0.794530  0.124410  1.0  0.848
  C  C303  1  0.786660  0.294530  0.124410  1.0  0.848
  C  C304  1  0.786660  0.794530  0.624410  1.0  0.848
  C  C305  1  0.294530  0.624410  0.286660  1.0  0.8459
  C  C306  1  0.294530  0.124410  0.786660  1.0  0.8459
  C  C307  1  0.794530  0.624410  0.786660  1.0  0.8459
  C  C308  1  0.794530  0.124410  0.286660  1.0  0.8459
  C  C309  1  0.955470  0.124410  0.463340  1.0  0.8457
  C  C310  1  0.955470  0.624410  0.963340  1.0  0.8457
  C  C311  1  0.455470  0.124410  0.963340  1.0  0.8457
  C  C312  1  0.455470  0.624410  0.463340  1.0  0.8457
  C  C313  1  0.455470  0.625590  0.786660  1.0  0.8462
  C  C314  1  0.455470  0.125590  0.286660  1.0  0.8462
  C  C315  1  0.955470  0.625590  0.286660  1.0  0.8462
  C  C316  1  0.955470  0.125590  0.786660  1.0  0.8462
  C  C317  1  0.794530  0.125590  0.963340  1.0  0.8461
  C  C318  1  0.794530  0.625590  0.463340  1.0  0.8461
  C  C319  1  0.294530  0.125590  0.463340  1.0  0.8461
  C  C320  1  0.294530  0.625590  0.963340  1.0  0.8461
  C  C321  1  0.124410  0.463340  0.955470  1.0  0.8466
  C  C322  1  0.124410  0.963340  0.455470  1.0  0.8466
  C  C323  1  0.624410  0.463340  0.455470  1.0  0.8466
  C  C324  1  0.624410  0.963340  0.955470  1.0  0.8466
  C  C325  1  0.624410  0.286660  0.294530  1.0  0.8477
  C  C326  1  0.624410  0.786660  0.794530  1.0  0.8477
  C  C327  1  0.124410  0.286660  0.794530  1.0  0.8477
  C  C328  1  0.124410  0.786660  0.294530  1.0  0.8477
  C  C329  1  0.125590  0.963340  0.794530  1.0  0.8477
  C  C330  1  0.125590  0.463340  0.294530  1.0  0.8477
  C  C331  1  0.625590  0.963340  0.294530  1.0  0.8477
  C  C332  1  0.625590  0.463340  0.794530  1.0  0.8477
  C  C333  1  0.625590  0.786660  0.455470  1.0  0.8466
  C  C334  1  0.625590  0.286660  0.955470  1.0  0.8466
  C  C335  1  0.125590  0.786660  0.955470  1.0  0.8466
  C  C336  1  0.125590  0.286660  0.455470  1.0  0.8466
  O  O337  1  0.995600  0.305470  0.126000  1.0  -0.5093
  O  O338  1  0.951950  0.242030  0.124960  1.0  -0.5526
  O  O339  1  0.918250  0.309930  0.125980  1.0  -0.5702
  O  O340  1  0.995600  0.805470  0.626000  1.0  -0.5093
  O  O341  1  0.951950  0.742030  0.624960  1.0  -0.5526
  O  O342  1  0.918250  0.809930  0.625980  1.0  -0.5702
  O  O343  1  0.495600  0.305470  0.626000  1.0  -0.5093
  O  O344  1  0.451950  0.242030  0.624960  1.0  -0.5526
  O  O345  1  0.418250  0.309930  0.625980  1.0  -0.5702
  O  O346  1  0.495600  0.805470  0.126000  1.0  -0.5093
  O  O347  1  0.451950  0.742030  0.124960  1.0  -0.5526
  O  O348  1  0.418250  0.809930  0.125980  1.0  -0.5702
  O  O349  1  0.254400  0.444530  0.626000  1.0  -0.5074
  O  O350  1  0.298050  0.507970  0.624960  1.0  -0.5528
  O  O351  1  0.331750  0.440070  0.625980  1.0  -0.5702
  O  O352  1  0.254400  0.944530  0.126000  1.0  -0.5074
  O  O353  1  0.298050  0.007970  0.124960  1.0  -0.5528
  O  O354  1  0.331750  0.940070  0.125980  1.0  -0.5702
  O  O355  1  0.754400  0.444530  0.126000  1.0  -0.5074
  O  O356  1  0.798050  0.507970  0.124960  1.0  -0.5528
  O  O357  1  0.831750  0.440070  0.125980  1.0  -0.5702
  O  O358  1  0.754400  0.944530  0.626000  1.0  -0.5074
  O  O359  1  0.798050  0.007970  0.624960  1.0  -0.5528
  O  O360  1  0.831750  0.940070  0.625980  1.0  -0.5702
  O  O361  1  0.754400  0.805470  0.124000  1.0  -0.5082
  O  O362  1  0.798050  0.742030  0.125040  1.0  -0.5505
  O  O363  1  0.831750  0.809930  0.124020  1.0  -0.5709
  O  O364  1  0.754400  0.305470  0.624000  1.0  -0.5082
  O  O365  1  0.798050  0.242030  0.625040  1.0  -0.5505
  O  O366  1  0.831750  0.309930  0.624020  1.0  -0.5709
  O  O367  1  0.254400  0.805470  0.624000  1.0  -0.5082
  O  O368  1  0.298050  0.742030  0.625040  1.0  -0.5505
  O  O369  1  0.331750  0.809930  0.624020  1.0  -0.5709
  O  O370  1  0.254400  0.305470  0.124000  1.0  -0.5082
  O  O371  1  0.298050  0.242030  0.125040  1.0  -0.5505
  O  O372  1  0.331750  0.309930  0.124020  1.0  -0.5709
  O  O373  1  0.495600  0.944530  0.624000  1.0  -0.5066
  O  O374  1  0.451950  0.007970  0.625040  1.0  -0.5522
  O  O375  1  0.418250  0.940070  0.624020  1.0  -0.5701
  O  O376  1  0.495600  0.444530  0.124000  1.0  -0.5066
  O  O377  1  0.451950  0.507970  0.125040  1.0  -0.5522
  O  O378  1  0.418250  0.440070  0.124020  1.0  -0.5701
  O  O379  1  0.995600  0.944530  0.124000  1.0  -0.5066
  O  O380  1  0.951950  0.007970  0.125040  1.0  -0.5522
  O  O381  1  0.918250  0.940070  0.124020  1.0  -0.5701
  O  O382  1  0.995600  0.444530  0.624000  1.0  -0.5066
  O  O383  1  0.951950  0.507970  0.625040  1.0  -0.5522
  O  O384  1  0.918250  0.440070  0.624020  1.0  -0.5701
  O  O385  1  0.126000  0.995600  0.305470  1.0  -0.5072
  O  O386  1  0.124960  0.951950  0.242030  1.0  -0.5478
  O  O387  1  0.125980  0.918250  0.309930  1.0  -0.5699
  O  O388  1  0.126000  0.495600  0.805470  1.0  -0.5072
  O  O389  1  0.124960  0.451950  0.742030  1.0  -0.5478
  O  O390  1  0.125980  0.418250  0.809930  1.0  -0.5699
  O  O391  1  0.626000  0.995600  0.805470  1.0  -0.5072
  O  O392  1  0.624960  0.951950  0.742030  1.0  -0.5478
  O  O393  1  0.625980  0.918250  0.809930  1.0  -0.5699
  O  O394  1  0.626000  0.495600  0.305470  1.0  -0.5072
  O  O395  1  0.624960  0.451950  0.242030  1.0  -0.5478
  O  O396  1  0.625980  0.418250  0.309930  1.0  -0.5699
  O  O397  1  0.626000  0.254400  0.444530  1.0  -0.5077
  O  O398  1  0.624960  0.298050  0.507970  1.0  -0.5487
  O  O399  1  0.625980  0.331750  0.440070  1.0  -0.5692
  O  O400  1  0.626000  0.754400  0.944530  1.0  -0.5077
  O  O401  1  0.624960  0.798050  0.007970  1.0  -0.5487
  O  O402  1  0.625980  0.831750  0.940070  1.0  -0.5692
  O  O403  1  0.126000  0.254400  0.944530  1.0  -0.5077
  O  O404  1  0.124960  0.298050  0.007970  1.0  -0.5487
  O  O405  1  0.125980  0.331750  0.940070  1.0  -0.5692
  O  O406  1  0.126000  0.754400  0.444530  1.0  -0.5077
  O  O407  1  0.124960  0.798050  0.507970  1.0  -0.5487
  O  O408  1  0.125980  0.831750  0.440070  1.0  -0.5692
  O  O409  1  0.124000  0.754400  0.805470  1.0  -0.5069
  O  O410  1  0.125040  0.798050  0.742030  1.0  -0.5455
  O  O411  1  0.124020  0.831750  0.809930  1.0  -0.5699
  O  O412  1  0.124000  0.254400  0.305470  1.0  -0.5069
  O  O413  1  0.125040  0.298050  0.242030  1.0  -0.5455
  O  O414  1  0.124020  0.331750  0.309930  1.0  -0.5699
  O  O415  1  0.624000  0.754400  0.305470  1.0  -0.5069
  O  O416  1  0.625040  0.798050  0.242030  1.0  -0.5455
  O  O417  1  0.624020  0.831750  0.309930  1.0  -0.5699
  O  O418  1  0.624000  0.254400  0.805470  1.0  -0.5069
  O  O419  1  0.625040  0.298050  0.742030  1.0  -0.5455
  O  O420  1  0.624020  0.331750  0.809930  1.0  -0.5699
  O  O421  1  0.624000  0.495600  0.944530  1.0  -0.5053
  O  O422  1  0.625040  0.451950  0.007970  1.0  -0.5478
  O  O423  1  0.624020  0.418250  0.940070  1.0  -0.5702
  O  O424  1  0.624000  0.995600  0.444530  1.0  -0.5053
  O  O425  1  0.625040  0.951950  0.507970  1.0  -0.5478
  O  O426  1  0.624020  0.918250  0.440070  1.0  -0.5702
  O  O427  1  0.124000  0.495600  0.444530  1.0  -0.5053
  O  O428  1  0.125040  0.451950  0.507970  1.0  -0.5478
  O  O429  1  0.124020  0.418250  0.440070  1.0  -0.5702
  O  O430  1  0.124000  0.995600  0.944530  1.0  -0.5053
  O  O431  1  0.125040  0.951950  0.007970  1.0  -0.5478
  O  O432  1  0.124020  0.918250  0.940070  1.0  -0.5702
  O  O433  1  0.305470  0.126000  0.995600  1.0  -0.5084
  O  O434  1  0.242030  0.124960  0.951950  1.0  -0.5505
  O  O435  1  0.309930  0.125980  0.918250  1.0  -0.5704
  O  O436  1  0.305470  0.626000  0.495600  1.0  -0.5084
  O  O437  1  0.242030  0.624960  0.451950  1.0  -0.5505
  O  O438  1  0.309930  0.625980  0.418250  1.0  -0.5704
  O  O439  1  0.805470  0.126000  0.495600  1.0  -0.5084
  O  O440  1  0.742030  0.124960  0.451950  1.0  -0.5505
  O  O441  1  0.809930  0.125980  0.418250  1.0  -0.5704
  O  O442  1  0.805470  0.626000  0.995600  1.0  -0.5084
  O  O443  1  0.742030  0.624960  0.951950  1.0  -0.5505
  O  O444  1  0.809930  0.625980  0.918250  1.0  -0.5704
  O  O445  1  0.444530  0.626000  0.254400  1.0  -0.5112
  O  O446  1  0.507970  0.624960  0.298050  1.0  -0.5487
  O  O447  1  0.440070  0.625980  0.331750  1.0  -0.5696
  O  O448  1  0.444530  0.126000  0.754400  1.0  -0.5112
  O  O449  1  0.507970  0.124960  0.798050  1.0  -0.5487
  O  O450  1  0.440070  0.125980  0.831750  1.0  -0.5696
  O  O451  1  0.944530  0.626000  0.754400  1.0  -0.5112
  O  O452  1  0.007970  0.624960  0.798050  1.0  -0.5487
  O  O453  1  0.940070  0.625980  0.831750  1.0  -0.5696
  O  O454  1  0.944530  0.126000  0.254400  1.0  -0.5112
  O  O455  1  0.007970  0.124960  0.298050  1.0  -0.5487
  O  O456  1  0.940070  0.125980  0.331750  1.0  -0.5696
  O  O457  1  0.805470  0.124000  0.754400  1.0  -0.5122
  O  O458  1  0.742030  0.125040  0.798050  1.0  -0.547
  O  O459  1  0.809930  0.124020  0.831750  1.0  -0.5702
  O  O460  1  0.805470  0.624000  0.254400  1.0  -0.5122
  O  O461  1  0.742030  0.625040  0.298050  1.0  -0.547
  O  O462  1  0.809930  0.624020  0.331750  1.0  -0.5702
  O  O463  1  0.305470  0.124000  0.254400  1.0  -0.5122
  O  O464  1  0.242030  0.125040  0.298050  1.0  -0.547
  O  O465  1  0.309930  0.124020  0.331750  1.0  -0.5702
  O  O466  1  0.305470  0.624000  0.754400  1.0  -0.5122
  O  O467  1  0.242030  0.625040  0.798050  1.0  -0.547
  O  O468  1  0.309930  0.624020  0.831750  1.0  -0.5702
  O  O469  1  0.944530  0.624000  0.495600  1.0  -0.5071
  O  O470  1  0.007970  0.625040  0.451950  1.0  -0.5496
  O  O471  1  0.940070  0.624020  0.418250  1.0  -0.5692
  O  O472  1  0.944530  0.124000  0.995600  1.0  -0.5071
  O  O473  1  0.007970  0.125040  0.951950  1.0  -0.5496
  O  O474  1  0.940070  0.124020  0.918250  1.0  -0.5692
  O  O475  1  0.444530  0.624000  0.995600  1.0  -0.5071
  O  O476  1  0.507970  0.625040  0.951950  1.0  -0.5496
  O  O477  1  0.440070  0.624020  0.918250  1.0  -0.5692
  O  O478  1  0.444530  0.124000  0.495600  1.0  -0.5071
  O  O479  1  0.507970  0.125040  0.451950  1.0  -0.5496
  O  O480  1  0.440070  0.124020  0.418250  1.0  -0.5692
  O  O481  1  0.055470  0.245600  0.874000  1.0  -0.5092
  O  O482  1  0.992030  0.201950  0.875040  1.0  -0.5522
  O  O483  1  0.059930  0.168250  0.874020  1.0  -0.5703
  O  O484  1  0.055470  0.745600  0.374000  1.0  -0.5092
  O  O485  1  0.992030  0.701950  0.375040  1.0  -0.5522
  O  O486  1  0.059930  0.668250  0.374020  1.0  -0.5703
  O  O487  1  0.555470  0.245600  0.374000  1.0  -0.5092
  O  O488  1  0.492030  0.201950  0.375040  1.0  -0.5522
  O  O489  1  0.559930  0.168250  0.374020  1.0  -0.5703
  O  O490  1  0.555470  0.745600  0.874000  1.0  -0.5092
  O  O491  1  0.492030  0.701950  0.875040  1.0  -0.5522
  O  O492  1  0.559930  0.668250  0.874020  1.0  -0.5703
  O  O493  1  0.194530  0.504400  0.374000  1.0  -0.5088
  O  O494  1  0.257970  0.548050  0.375040  1.0  -0.5519
  O  O495  1  0.190070  0.581750  0.374020  1.0  -0.5697
  O  O496  1  0.194530  0.004400  0.874000  1.0  -0.5088
  O  O497  1  0.257970  0.048050  0.875040  1.0  -0.5519
  O  O498  1  0.190070  0.081750  0.874020  1.0  -0.5697
  O  O499  1  0.694530  0.504400  0.874000  1.0  -0.5088
  O  O500  1  0.757970  0.548050  0.875040  1.0  -0.5519
  O  O501  1  0.690070  0.581750  0.874020  1.0  -0.5697
  O  O502  1  0.694530  0.004400  0.374000  1.0  -0.5088
  O  O503  1  0.757970  0.048050  0.375040  1.0  -0.5519
  O  O504  1  0.690070  0.081750  0.374020  1.0  -0.5697
  O  O505  1  0.555470  0.004400  0.876000  1.0  -0.5094
  O  O506  1  0.492030  0.048050  0.874960  1.0  -0.5515
  O  O507  1  0.559930  0.081750  0.875980  1.0  -0.57
  O  O508  1  0.555470  0.504400  0.376000  1.0  -0.5094
  O  O509  1  0.492030  0.548050  0.374960  1.0  -0.5515
  O  O510  1  0.559930  0.581750  0.375980  1.0  -0.57
  O  O511  1  0.055470  0.004400  0.376000  1.0  -0.5094
  O  O512  1  0.992030  0.048050  0.374960  1.0  -0.5515
  O  O513  1  0.059930  0.081750  0.375980  1.0  -0.57
  O  O514  1  0.055470  0.504400  0.876000  1.0  -0.5094
  O  O515  1  0.992030  0.548050  0.874960  1.0  -0.5515
  O  O516  1  0.059930  0.581750  0.875980  1.0  -0.57
  O  O517  1  0.694530  0.745600  0.376000  1.0  -0.5078
  O  O518  1  0.757970  0.701950  0.374960  1.0  -0.5524
  O  O519  1  0.690070  0.668250  0.375980  1.0  -0.5699
  O  O520  1  0.694530  0.245600  0.876000  1.0  -0.5078
  O  O521  1  0.757970  0.201950  0.874960  1.0  -0.5524
  O  O522  1  0.690070  0.168250  0.875980  1.0  -0.5699
  O  O523  1  0.194530  0.745600  0.876000  1.0  -0.5078
  O  O524  1  0.257970  0.701950  0.874960  1.0  -0.5524
  O  O525  1  0.190070  0.668250  0.875980  1.0  -0.5699
  O  O526  1  0.194530  0.245600  0.376000  1.0  -0.5078
  O  O527  1  0.257970  0.201950  0.374960  1.0  -0.5524
  O  O528  1  0.190070  0.168250  0.375980  1.0  -0.5699
  O  O529  1  0.745600  0.376000  0.694530  1.0  -0.5086
  O  O530  1  0.701950  0.374960  0.757970  1.0  -0.5465
  O  O531  1  0.668250  0.375980  0.690070  1.0  -0.5685
  O  O532  1  0.745600  0.876000  0.194530  1.0  -0.5086
  O  O533  1  0.701950  0.874960  0.257970  1.0  -0.5465
  O  O534  1  0.668250  0.875980  0.190070  1.0  -0.5685
  O  O535  1  0.245600  0.376000  0.194530  1.0  -0.5086
  O  O536  1  0.201950  0.374960  0.257970  1.0  -0.5465
  O  O537  1  0.168250  0.375980  0.190070  1.0  -0.5685
  O  O538  1  0.245600  0.876000  0.694530  1.0  -0.5086
  O  O539  1  0.201950  0.874960  0.757970  1.0  -0.5465
  O  O540  1  0.168250  0.875980  0.690070  1.0  -0.5685
  O  O541  1  0.004400  0.876000  0.555470  1.0  -0.5081
  O  O542  1  0.048050  0.874960  0.492030  1.0  -0.5459
  O  O543  1  0.081750  0.875980  0.559930  1.0  -0.5697
  O  O544  1  0.004400  0.376000  0.055470  1.0  -0.5081
  O  O545  1  0.048050  0.374960  0.992030  1.0  -0.5459
  O  O546  1  0.081750  0.375980  0.059930  1.0  -0.5697
  O  O547  1  0.504400  0.876000  0.055470  1.0  -0.5081
  O  O548  1  0.548050  0.874960  0.992030  1.0  -0.5459
  O  O549  1  0.581750  0.875980  0.059930  1.0  -0.5697
  O  O550  1  0.504400  0.376000  0.555470  1.0  -0.5081
  O  O551  1  0.548050  0.374960  0.492030  1.0  -0.5459
  O  O552  1  0.581750  0.375980  0.559930  1.0  -0.5697
  O  O553  1  0.504400  0.374000  0.194530  1.0  -0.5084
  O  O554  1  0.548050  0.375040  0.257970  1.0  -0.5481
  O  O555  1  0.581750  0.374020  0.190070  1.0  -0.5694
  O  O556  1  0.504400  0.874000  0.694530  1.0  -0.5084
  O  O557  1  0.548050  0.875040  0.757970  1.0  -0.5481
  O  O558  1  0.581750  0.874020  0.690070  1.0  -0.5694
  O  O559  1  0.004400  0.374000  0.694530  1.0  -0.5084
  O  O560  1  0.048050  0.375040  0.757970  1.0  -0.5481
  O  O561  1  0.081750  0.374020  0.690070  1.0  -0.5694
  O  O562  1  0.004400  0.874000  0.194530  1.0  -0.5084
  O  O563  1  0.048050  0.875040  0.257970  1.0  -0.5481
  O  O564  1  0.081750  0.874020  0.190070  1.0  -0.5694
  O  O565  1  0.245600  0.874000  0.055470  1.0  -0.5088
  O  O566  1  0.201950  0.875040  0.992030  1.0  -0.5472
  O  O567  1  0.168250  0.874020  0.059930  1.0  -0.5692
  O  O568  1  0.245600  0.374000  0.555470  1.0  -0.5088
  O  O569  1  0.201950  0.375040  0.492030  1.0  -0.5472
  O  O570  1  0.168250  0.374020  0.559930  1.0  -0.5692
  O  O571  1  0.745600  0.874000  0.555470  1.0  -0.5088
  O  O572  1  0.701950  0.875040  0.492030  1.0  -0.5472
  O  O573  1  0.668250  0.874020  0.559930  1.0  -0.5692
  O  O574  1  0.745600  0.374000  0.055470  1.0  -0.5088
  O  O575  1  0.701950  0.375040  0.992030  1.0  -0.5472
  O  O576  1  0.668250  0.374020  0.059930  1.0  -0.5692
  O  O577  1  0.876000  0.555470  0.004400  1.0  -0.5105
  O  O578  1  0.874960  0.492030  0.048050  1.0  -0.5519
  O  O579  1  0.875980  0.559930  0.081750  1.0  -0.5692
  O  O580  1  0.876000  0.055470  0.504400  1.0  -0.5105
  O  O581  1  0.874960  0.992030  0.548050  1.0  -0.5519
  O  O582  1  0.875980  0.059930  0.581750  1.0  -0.5692
  O  O583  1  0.376000  0.555470  0.504400  1.0  -0.5105
  O  O584  1  0.374960  0.492030  0.548050  1.0  -0.5519
  O  O585  1  0.375980  0.559930  0.581750  1.0  -0.5692
  O  O586  1  0.376000  0.055470  0.004400  1.0  -0.5105
  O  O587  1  0.374960  0.992030  0.048050  1.0  -0.5519
  O  O588  1  0.375980  0.059930  0.081750  1.0  -0.5692
  O  O589  1  0.376000  0.694530  0.745600  1.0  -0.5059
  O  O590  1  0.374960  0.757970  0.701950  1.0  -0.5551
  O  O591  1  0.375980  0.690070  0.668250  1.0  -0.5689
  O  O592  1  0.376000  0.194530  0.245600  1.0  -0.5059
  O  O593  1  0.374960  0.257970  0.201950  1.0  -0.5551
  O  O594  1  0.375980  0.190070  0.168250  1.0  -0.5689
  O  O595  1  0.876000  0.694530  0.245600  1.0  -0.5059
  O  O596  1  0.874960  0.757970  0.201950  1.0  -0.5551
  O  O597  1  0.875980  0.690070  0.168250  1.0  -0.5689
  O  O598  1  0.876000  0.194530  0.745600  1.0  -0.5059
  O  O599  1  0.874960  0.257970  0.701950  1.0  -0.5551
  O  O600  1  0.875980  0.190070  0.668250  1.0  -0.5689
  O  O601  1  0.874000  0.055470  0.245600  1.0  -0.5075
  O  O602  1  0.875040  0.992030  0.201950  1.0  -0.5542
  O  O603  1  0.874020  0.059930  0.168250  1.0  -0.5698
  O  O604  1  0.874000  0.555470  0.745600  1.0  -0.5075
  O  O605  1  0.875040  0.492030  0.701950  1.0  -0.5542
  O  O606  1  0.874020  0.559930  0.668250  1.0  -0.5698
  O  O607  1  0.374000  0.055470  0.745600  1.0  -0.5075
  O  O608  1  0.375040  0.992030  0.701950  1.0  -0.5542
  O  O609  1  0.374020  0.059930  0.668250  1.0  -0.5698
  O  O610  1  0.374000  0.555470  0.245600  1.0  -0.5075
  O  O611  1  0.375040  0.492030  0.201950  1.0  -0.5542
  O  O612  1  0.374020  0.559930  0.168250  1.0  -0.5698
  O  O613  1  0.374000  0.194530  0.504400  1.0  -0.5097
  O  O614  1  0.375040  0.257970  0.548050  1.0  -0.5548
  O  O615  1  0.374020  0.190070  0.581750  1.0  -0.569
  O  O616  1  0.374000  0.694530  0.004400  1.0  -0.5097
  O  O617  1  0.375040  0.757970  0.048050  1.0  -0.5548
  O  O618  1  0.374020  0.690070  0.081750  1.0  -0.569
  O  O619  1  0.874000  0.194530  0.004400  1.0  -0.5097
  O  O620  1  0.875040  0.257970  0.048050  1.0  -0.5548
  O  O621  1  0.874020  0.190070  0.081750  1.0  -0.569
  O  O622  1  0.874000  0.694530  0.504400  1.0  -0.5097
  O  O623  1  0.875040  0.757970  0.548050  1.0  -0.5548
  O  O624  1  0.874020  0.690070  0.581750  1.0  -0.569
  O  O625  1  0.004400  0.694530  0.874000  1.0  -0.5075
  O  O626  1  0.048050  0.757970  0.875040  1.0  -0.5545
  O  O627  1  0.081750  0.690070  0.874020  1.0  -0.5694
  O  O628  1  0.004400  0.194530  0.374000  1.0  -0.5075
  O  O629  1  0.048050  0.257970  0.375040  1.0  -0.5545
  O  O630  1  0.081750  0.190070  0.374020  1.0  -0.5694
  O  O631  1  0.504400  0.694530  0.374000  1.0  -0.5075
  O  O632  1  0.548050  0.757970  0.375040  1.0  -0.5545
  O  O633  1  0.581750  0.690070  0.374020  1.0  -0.5694
  O  O634  1  0.504400  0.194530  0.874000  1.0  -0.5075
  O  O635  1  0.548050  0.257970  0.875040  1.0  -0.5545
  O  O636  1  0.581750  0.190070  0.874020  1.0  -0.5694
  O  O637  1  0.745600  0.555470  0.374000  1.0  -0.5092
  O  O638  1  0.701950  0.492030  0.375040  1.0  -0.5538
  O  O639  1  0.668250  0.559930  0.374020  1.0  -0.5696
  O  O640  1  0.745600  0.055470  0.874000  1.0  -0.5092
  O  O641  1  0.701950  0.992030  0.875040  1.0  -0.5538
  O  O642  1  0.668250  0.059930  0.874020  1.0  -0.5696
  O  O643  1  0.245600  0.555470  0.874000  1.0  -0.5092
  O  O644  1  0.201950  0.492030  0.875040  1.0  -0.5538
  O  O645  1  0.168250  0.559930  0.874020  1.0  -0.5696
  O  O646  1  0.245600  0.055470  0.374000  1.0  -0.5092
  O  O647  1  0.201950  0.992030  0.375040  1.0  -0.5538
  O  O648  1  0.168250  0.059930  0.374020  1.0  -0.5696
  O  O649  1  0.245600  0.194530  0.876000  1.0  -0.507
  O  O650  1  0.201950  0.257970  0.874960  1.0  -0.5532
  O  O651  1  0.168250  0.190070  0.875980  1.0  -0.5693
  O  O652  1  0.245600  0.694530  0.376000  1.0  -0.507
  O  O653  1  0.201950  0.757970  0.374960  1.0  -0.5532
  O  O654  1  0.168250  0.690070  0.375980  1.0  -0.5693
  O  O655  1  0.745600  0.194530  0.376000  1.0  -0.507
  O  O656  1  0.701950  0.257970  0.374960  1.0  -0.5532
  O  O657  1  0.668250  0.190070  0.375980  1.0  -0.5693
  O  O658  1  0.745600  0.694530  0.876000  1.0  -0.507
  O  O659  1  0.701950  0.757970  0.874960  1.0  -0.5532
  O  O660  1  0.668250  0.690070  0.875980  1.0  -0.5693
  O  O661  1  0.504400  0.055470  0.376000  1.0  -0.5086
  O  O662  1  0.548050  0.992030  0.374960  1.0  -0.5512
  O  O663  1  0.581750  0.059930  0.375980  1.0  -0.5703
  O  O664  1  0.504400  0.555470  0.876000  1.0  -0.5086
  O  O665  1  0.548050  0.492030  0.874960  1.0  -0.5512
  O  O666  1  0.581750  0.559930  0.875980  1.0  -0.5703
  O  O667  1  0.004400  0.055470  0.876000  1.0  -0.5086
  O  O668  1  0.048050  0.992030  0.874960  1.0  -0.5512
  O  O669  1  0.081750  0.059930  0.875980  1.0  -0.5703
  O  O670  1  0.004400  0.555470  0.376000  1.0  -0.5086
  O  O671  1  0.048050  0.492030  0.374960  1.0  -0.5512
  O  O672  1  0.081750  0.559930  0.375980  1.0  -0.5703
  O  O673  1  0.874000  0.004400  0.694530  1.0  -0.5079
  O  O674  1  0.875040  0.048050  0.757970  1.0  -0.5496
  O  O675  1  0.874020  0.081750  0.690070  1.0  -0.5686
  O  O676  1  0.874000  0.504400  0.194530  1.0  -0.5079
  O  O677  1  0.875040  0.548050  0.257970  1.0  -0.5496
  O  O678  1  0.874020  0.581750  0.190070  1.0  -0.5686
  O  O679  1  0.374000  0.004400  0.194530  1.0  -0.5079
  O  O680  1  0.375040  0.048050  0.257970  1.0  -0.5496
  O  O681  1  0.374020  0.081750  0.190070  1.0  -0.5686
  O  O682  1  0.374000  0.504400  0.694530  1.0  -0.5079
  O  O683  1  0.375040  0.548050  0.757970  1.0  -0.5496
  O  O684  1  0.374020  0.581750  0.690070  1.0  -0.5686
  O  O685  1  0.374000  0.745600  0.555470  1.0  -0.5073
  O  O686  1  0.375040  0.701950  0.492030  1.0  -0.5494
  O  O687  1  0.374020  0.668250  0.559930  1.0  -0.5691
  O  O688  1  0.374000  0.245600  0.055470  1.0  -0.5073
  O  O689  1  0.375040  0.201950  0.992030  1.0  -0.5494
  O  O690  1  0.374020  0.168250  0.059930  1.0  -0.5691
  O  O691  1  0.874000  0.745600  0.055470  1.0  -0.5073
  O  O692  1  0.875040  0.701950  0.992030  1.0  -0.5494
  O  O693  1  0.874020  0.668250  0.059930  1.0  -0.5691
  O  O694  1  0.874000  0.245600  0.555470  1.0  -0.5073
  O  O695  1  0.875040  0.201950  0.492030  1.0  -0.5494
  O  O696  1  0.874020  0.168250  0.559930  1.0  -0.5691
  O  O697  1  0.876000  0.245600  0.194530  1.0  -0.5054
  O  O698  1  0.874960  0.201950  0.257970  1.0  -0.5491
  O  O699  1  0.875980  0.168250  0.190070  1.0  -0.5694
  O  O700  1  0.876000  0.745600  0.694530  1.0  -0.5054
  O  O701  1  0.874960  0.701950  0.757970  1.0  -0.5491
  O  O702  1  0.875980  0.668250  0.690070  1.0  -0.5694
  O  O703  1  0.376000  0.245600  0.694530  1.0  -0.5054
  O  O704  1  0.374960  0.201950  0.757970  1.0  -0.5491
  O  O705  1  0.375980  0.168250  0.690070  1.0  -0.5694
  O  O706  1  0.376000  0.745600  0.194530  1.0  -0.5054
  O  O707  1  0.374960  0.701950  0.257970  1.0  -0.5491
  O  O708  1  0.375980  0.668250  0.190070  1.0  -0.5694
  O  O709  1  0.376000  0.504400  0.055470  1.0  -0.5069
  O  O710  1  0.374960  0.548050  0.992030  1.0  -0.5467
  O  O711  1  0.375980  0.581750  0.059930  1.0  -0.5694
  O  O712  1  0.376000  0.004400  0.555470  1.0  -0.5069
  O  O713  1  0.374960  0.048050  0.492030  1.0  -0.5467
  O  O714  1  0.375980  0.081750  0.559930  1.0  -0.5694
  O  O715  1  0.876000  0.504400  0.555470  1.0  -0.5069
  O  O716  1  0.874960  0.548050  0.492030  1.0  -0.5467
  O  O717  1  0.875980  0.581750  0.559930  1.0  -0.5694
  O  O718  1  0.876000  0.004400  0.055470  1.0  -0.5069
  O  O719  1  0.874960  0.048050  0.992030  1.0  -0.5467
  O  O720  1  0.875980  0.081750  0.059930  1.0  -0.5694
  O  O721  1  0.694530  0.874000  0.004400  1.0  -0.5115
  O  O722  1  0.757970  0.875040  0.048050  1.0  -0.5497
  O  O723  1  0.690070  0.874020  0.081750  1.0  -0.569
  O  O724  1  0.694530  0.374000  0.504400  1.0  -0.5115
  O  O725  1  0.757970  0.375040  0.548050  1.0  -0.5497
  O  O726  1  0.690070  0.374020  0.581750  1.0  -0.569
  O  O727  1  0.194530  0.874000  0.504400  1.0  -0.5115
  O  O728  1  0.257970  0.875040  0.548050  1.0  -0.5497
  O  O729  1  0.190070  0.874020  0.581750  1.0  -0.569
  O  O730  1  0.194530  0.374000  0.004400  1.0  -0.5115
  O  O731  1  0.257970  0.375040  0.048050  1.0  -0.5497
  O  O732  1  0.190070  0.374020  0.081750  1.0  -0.569
  O  O733  1  0.555470  0.374000  0.745600  1.0  -0.5085
  O  O734  1  0.492030  0.375040  0.701950  1.0  -0.5516
  O  O735  1  0.559930  0.374020  0.668250  1.0  -0.5698
  O  O736  1  0.555470  0.874000  0.245600  1.0  -0.5085
  O  O737  1  0.492030  0.875040  0.201950  1.0  -0.5516
  O  O738  1  0.559930  0.874020  0.168250  1.0  -0.5698
  O  O739  1  0.055470  0.374000  0.245600  1.0  -0.5085
  O  O740  1  0.992030  0.375040  0.201950  1.0  -0.5516
  O  O741  1  0.059930  0.374020  0.168250  1.0  -0.5698
  O  O742  1  0.055470  0.874000  0.745600  1.0  -0.5085
  O  O743  1  0.992030  0.875040  0.701950  1.0  -0.5516
  O  O744  1  0.059930  0.874020  0.668250  1.0  -0.5698
  O  O745  1  0.194530  0.876000  0.245600  1.0  -0.507
  O  O746  1  0.257970  0.874960  0.201950  1.0  -0.5502
  O  O747  1  0.190070  0.875980  0.168250  1.0  -0.5685
  O  O748  1  0.194530  0.376000  0.745600  1.0  -0.507
  O  O749  1  0.257970  0.374960  0.701950  1.0  -0.5502
  O  O750  1  0.190070  0.375980  0.668250  1.0  -0.5685
  O  O751  1  0.694530  0.876000  0.745600  1.0  -0.507
  O  O752  1  0.757970  0.874960  0.701950  1.0  -0.5502
  O  O753  1  0.690070  0.875980  0.668250  1.0  -0.5685
  O  O754  1  0.694530  0.376000  0.245600  1.0  -0.507
  O  O755  1  0.757970  0.374960  0.201950  1.0  -0.5502
  O  O756  1  0.690070  0.375980  0.168250  1.0  -0.5685
  O  O757  1  0.055470  0.376000  0.504400  1.0  -0.5124
  O  O758  1  0.992030  0.374960  0.548050  1.0  -0.5481
  O  O759  1  0.059930  0.375980  0.581750  1.0  -0.5695
  O  O760  1  0.055470  0.876000  0.004400  1.0  -0.5124
  O  O761  1  0.992030  0.874960  0.048050  1.0  -0.5481
  O  O762  1  0.059930  0.875980  0.081750  1.0  -0.5695
  O  O763  1  0.555470  0.376000  0.004400  1.0  -0.5124
  O  O764  1  0.492030  0.374960  0.048050  1.0  -0.5481
  O  O765  1  0.559930  0.375980  0.081750  1.0  -0.5695
  O  O766  1  0.555470  0.876000  0.504400  1.0  -0.5124
  O  O767  1  0.492030  0.874960  0.548050  1.0  -0.5481
  O  O768  1  0.559930  0.875980  0.581750  1.0  -0.5695
  O  O769  1  0.944530  0.754400  0.126000  1.0  -0.5088
  O  O770  1  0.007970  0.798050  0.124960  1.0  -0.5511
  O  O771  1  0.940070  0.831750  0.125980  1.0  -0.5707
  O  O772  1  0.944530  0.254400  0.626000  1.0  -0.5088
  O  O773  1  0.007970  0.298050  0.624960  1.0  -0.5511
  O  O774  1  0.940070  0.331750  0.625980  1.0  -0.5707
  O  O775  1  0.444530  0.754400  0.626000  1.0  -0.5088
  O  O776  1  0.507970  0.798050  0.624960  1.0  -0.5511
  O  O777  1  0.440070  0.831750  0.625980  1.0  -0.5707
  O  O778  1  0.444530  0.254400  0.126000  1.0  -0.5088
  O  O779  1  0.507970  0.298050  0.124960  1.0  -0.5511
  O  O780  1  0.440070  0.331750  0.125980  1.0  -0.5707
  O  O781  1  0.805470  0.495600  0.626000  1.0  -0.5096
  O  O782  1  0.742030  0.451950  0.624960  1.0  -0.5511
  O  O783  1  0.809930  0.418250  0.625980  1.0  -0.5714
  O  O784  1  0.805470  0.995600  0.126000  1.0  -0.5096
  O  O785  1  0.742030  0.951950  0.124960  1.0  -0.5511
  O  O786  1  0.809930  0.918250  0.125980  1.0  -0.5714
  O  O787  1  0.305470  0.495600  0.126000  1.0  -0.5096
  O  O788  1  0.242030  0.451950  0.124960  1.0  -0.5511
  O  O789  1  0.309930  0.418250  0.125980  1.0  -0.5714
  O  O790  1  0.305470  0.995600  0.626000  1.0  -0.5096
  O  O791  1  0.242030  0.951950  0.624960  1.0  -0.5511
  O  O792  1  0.309930  0.918250  0.625980  1.0  -0.5714
  O  O793  1  0.444530  0.995600  0.124000  1.0  -0.5074
  O  O794  1  0.507970  0.951950  0.125040  1.0  -0.5517
  O  O795  1  0.440070  0.918250  0.124020  1.0  -0.5711
  O  O796  1  0.444530  0.495600  0.624000  1.0  -0.5074
  O  O797  1  0.507970  0.451950  0.625040  1.0  -0.5517
  O  O798  1  0.440070  0.418250  0.624020  1.0  -0.5711
  O  O799  1  0.944530  0.995600  0.624000  1.0  -0.5074
  O  O800  1  0.007970  0.951950  0.625040  1.0  -0.5517
  O  O801  1  0.940070  0.918250  0.624020  1.0  -0.5711
  O  O802  1  0.944530  0.495600  0.124000  1.0  -0.5074
  O  O803  1  0.007970  0.451950  0.125040  1.0  -0.5517
  O  O804  1  0.940070  0.418250  0.124020  1.0  -0.5711
  O  O805  1  0.305470  0.254400  0.624000  1.0  -0.5094
  O  O806  1  0.242030  0.298050  0.625040  1.0  -0.5511
  O  O807  1  0.309930  0.331750  0.624020  1.0  -0.5709
  O  O808  1  0.305470  0.754400  0.124000  1.0  -0.5094
  O  O809  1  0.242030  0.798050  0.125040  1.0  -0.5511
  O  O810  1  0.309930  0.831750  0.124020  1.0  -0.5709
  O  O811  1  0.805470  0.254400  0.124000  1.0  -0.5094
  O  O812  1  0.742030  0.298050  0.125040  1.0  -0.5511
  O  O813  1  0.809930  0.331750  0.124020  1.0  -0.5709
  O  O814  1  0.805470  0.754400  0.624000  1.0  -0.5094
  O  O815  1  0.742030  0.798050  0.625040  1.0  -0.5511
  O  O816  1  0.809930  0.831750  0.624020  1.0  -0.5709
  O  O817  1  0.254400  0.624000  0.305470  1.0  -0.5082
  O  O818  1  0.298050  0.625040  0.242030  1.0  -0.5452
  O  O819  1  0.331750  0.624020  0.309930  1.0  -0.5707
  O  O820  1  0.254400  0.124000  0.805470  1.0  -0.5082
  O  O821  1  0.298050  0.125040  0.742030  1.0  -0.5452
  O  O822  1  0.331750  0.124020  0.809930  1.0  -0.5707
  O  O823  1  0.754400  0.624000  0.805470  1.0  -0.5082
  O  O824  1  0.798050  0.625040  0.742030  1.0  -0.5452
  O  O825  1  0.831750  0.624020  0.809930  1.0  -0.5707
  O  O826  1  0.754400  0.124000  0.305470  1.0  -0.5082
  O  O827  1  0.798050  0.125040  0.242030  1.0  -0.5452
  O  O828  1  0.831750  0.124020  0.309930  1.0  -0.5707
  O  O829  1  0.995600  0.124000  0.444530  1.0  -0.5087
  O  O830  1  0.951950  0.125040  0.507970  1.0  -0.5461
  O  O831  1  0.918250  0.124020  0.440070  1.0  -0.5696
  O  O832  1  0.995600  0.624000  0.944530  1.0  -0.5087
  O  O833  1  0.951950  0.625040  0.007970  1.0  -0.5461
  O  O834  1  0.918250  0.624020  0.940070  1.0  -0.5696
  O  O835  1  0.495600  0.124000  0.944530  1.0  -0.5087
  O  O836  1  0.451950  0.125040  0.007970  1.0  -0.5461
  O  O837  1  0.418250  0.124020  0.940070  1.0  -0.5696
  O  O838  1  0.495600  0.624000  0.444530  1.0  -0.5087
  O  O839  1  0.451950  0.625040  0.507970  1.0  -0.5461
  O  O840  1  0.418250  0.624020  0.440070  1.0  -0.5696
  O  O841  1  0.495600  0.626000  0.805470  1.0  -0.5087
  O  O842  1  0.451950  0.624960  0.742030  1.0  -0.5465
  O  O843  1  0.418250  0.625980  0.809930  1.0  -0.5702
  O  O844  1  0.495600  0.126000  0.305470  1.0  -0.5087
  O  O845  1  0.451950  0.124960  0.242030  1.0  -0.5465
  O  O846  1  0.418250  0.125980  0.309930  1.0  -0.5702
  O  O847  1  0.995600  0.626000  0.305470  1.0  -0.5087
  O  O848  1  0.951950  0.624960  0.242030  1.0  -0.5465
  O  O849  1  0.918250  0.625980  0.309930  1.0  -0.5702
  O  O850  1  0.995600  0.126000  0.805470  1.0  -0.5087
  O  O851  1  0.951950  0.124960  0.742030  1.0  -0.5465
  O  O852  1  0.918250  0.125980  0.809930  1.0  -0.5702
  O  O853  1  0.754400  0.126000  0.944530  1.0  -0.5083
  O  O854  1  0.798050  0.124960  0.007970  1.0  -0.5472
  O  O855  1  0.831750  0.125980  0.940070  1.0  -0.5704
  O  O856  1  0.754400  0.626000  0.444530  1.0  -0.5083
  O  O857  1  0.798050  0.624960  0.507970  1.0  -0.5472
  O  O858  1  0.831750  0.625980  0.440070  1.0  -0.5704
  O  O859  1  0.254400  0.126000  0.444530  1.0  -0.5083
  O  O860  1  0.298050  0.124960  0.507970  1.0  -0.5472
  O  O861  1  0.331750  0.125980  0.440070  1.0  -0.5704
  O  O862  1  0.254400  0.626000  0.944530  1.0  -0.5083
  O  O863  1  0.298050  0.624960  0.007970  1.0  -0.5472
  O  O864  1  0.331750  0.625980  0.940070  1.0  -0.5704
  O  O865  1  0.124000  0.444530  0.995600  1.0  -0.506
  O  O866  1  0.125040  0.507970  0.951950  1.0  -0.5541
  O  O867  1  0.124020  0.440070  0.918250  1.0  -0.5698
  O  O868  1  0.124000  0.944530  0.495600  1.0  -0.506
  O  O869  1  0.125040  0.007970  0.451950  1.0  -0.5541
  O  O870  1  0.124020  0.940070  0.418250  1.0  -0.5698
  O  O871  1  0.624000  0.444530  0.495600  1.0  -0.506
  O  O872  1  0.625040  0.507970  0.451950  1.0  -0.5541
  O  O873  1  0.624020  0.440070  0.418250  1.0  -0.5698
  O  O874  1  0.624000  0.944530  0.995600  1.0  -0.506
  O  O875  1  0.625040  0.007970  0.951950  1.0  -0.5541
  O  O876  1  0.624020  0.940070  0.918250  1.0  -0.5698
  O  O877  1  0.624000  0.305470  0.254400  1.0  -0.5107
  O  O878  1  0.625040  0.242030  0.298050  1.0  -0.5512
  O  O879  1  0.624020  0.309930  0.331750  1.0  -0.57
  O  O880  1  0.624000  0.805470  0.754400  1.0  -0.5107
  O  O881  1  0.625040  0.742030  0.798050  1.0  -0.5512
  O  O882  1  0.624020  0.809930  0.831750  1.0  -0.57
  O  O883  1  0.124000  0.305470  0.754400  1.0  -0.5107
  O  O884  1  0.125040  0.242030  0.798050  1.0  -0.5512
  O  O885  1  0.124020  0.309930  0.831750  1.0  -0.57
  O  O886  1  0.124000  0.805470  0.254400  1.0  -0.5107
  O  O887  1  0.125040  0.742030  0.298050  1.0  -0.5512
  O  O888  1  0.124020  0.809930  0.331750  1.0  -0.57
  O  O889  1  0.126000  0.944530  0.754400  1.0  -0.5098
  O  O890  1  0.124960  0.007970  0.798050  1.0  -0.5539
  O  O891  1  0.125980  0.940070  0.831750  1.0  -0.5701
  O  O892  1  0.126000  0.444530  0.254400  1.0  -0.5098
  O  O893  1  0.124960  0.507970  0.298050  1.0  -0.5539
  O  O894  1  0.125980  0.440070  0.331750  1.0  -0.5701
  O  O895  1  0.626000  0.944530  0.254400  1.0  -0.5098
  O  O896  1  0.624960  0.007970  0.298050  1.0  -0.5539
  O  O897  1  0.625980  0.940070  0.331750  1.0  -0.5701
  O  O898  1  0.626000  0.444530  0.754400  1.0  -0.5098
  O  O899  1  0.624960  0.507970  0.798050  1.0  -0.5539
  O  O900  1  0.625980  0.440070  0.831750  1.0  -0.5701
  O  O901  1  0.626000  0.805470  0.495600  1.0  -0.5076
  O  O902  1  0.624960  0.742030  0.451950  1.0  -0.5535
  O  O903  1  0.625980  0.809930  0.418250  1.0  -0.5708
  O  O904  1  0.626000  0.305470  0.995600  1.0  -0.5076
  O  O905  1  0.624960  0.242030  0.951950  1.0  -0.5535
  O  O906  1  0.625980  0.309930  0.918250  1.0  -0.5708
  O  O907  1  0.126000  0.805470  0.995600  1.0  -0.5076
  O  O908  1  0.124960  0.742030  0.951950  1.0  -0.5535
  O  O909  1  0.125980  0.809930  0.918250  1.0  -0.5708
  O  O910  1  0.126000  0.305470  0.495600  1.0  -0.5076
  O  O911  1  0.124960  0.242030  0.451950  1.0  -0.5535
  O  O912  1  0.125980  0.309930  0.418250  1.0  -0.5708
