# generated using pymatgen
data_NaNi2(CO3)4
_symmetry_space_group_name_H-M   'P 1'
_cell_length_a   28.77800000
_cell_length_b   28.77800000
_cell_length_c   28.77800000
_cell_angle_alpha   90.00000000
_cell_angle_beta   90.00000000
_cell_angle_gamma   90.00000000
_symmetry_Int_Tables_number   1
_chemical_formula_structural   NaNi2(CO3)4
_chemical_formula_sum   'Na48 Ni96 C192 O576'
_cell_volume   23833.17076695
_cell_formula_units_Z   48
loop_
 _symmetry_equiv_pos_site_id
 _symmetry_equiv_pos_as_xyz
  1  'x, y, z'
loop_
 _atom_site_type_symbol
 _atom_site_label
 _atom_site_symmetry_multiplicity
 _atom_site_fract_x
 _atom_site_fract_y
 _atom_site_fract_z
 _atom_site_occupancy
 _atom_site_charge
  Na  Na1  1  0.375000  0.375000  0.125000  1.0  1.0677
  Na  Na2  1  0.875000  0.375000  0.625000  1.0  1.0677
  Na  Na3  1  0.875000  0.875000  0.125000  1.0  1.0677
  Na  Na4  1  0.375000  0.875000  0.125000  1.0  1.0677
  Na  Na5  1  0.375000  0.375000  0.625000  1.0  1.0677
  Na  Na6  1  0.875000  0.875000  0.625000  1.0  1.0677
  Na  Na7  1  0.125000  0.375000  0.375000  1.0  1.0677
  Na  Na8  1  0.125000  0.875000  0.875000  1.0  1.0677
  Na  Na9  1  0.625000  0.875000  0.375000  1.0  1.0677
  Na  Na10  1  0.125000  0.375000  0.875000  1.0  1.0677
  Na  Na11  1  0.625000  0.875000  0.875000  1.0  1.0677
  Na  Na12  1  0.625000  0.375000  0.375000  1.0  1.0677
  Na  Na13  1  0.375000  0.125000  0.375000  1.0  1.0677
  Na  Na14  1  0.375000  0.625000  0.875000  1.0  1.0677
  Na  Na15  1  0.875000  0.125000  0.375000  1.0  1.0677
  Na  Na16  1  0.875000  0.625000  0.875000  1.0  1.0677
  Na  Na17  1  0.125000  0.625000  0.875000  1.0  1.0677
  Na  Na18  1  0.125000  0.125000  0.375000  1.0  1.0677
  Na  Na19  1  0.625000  0.125000  0.875000  1.0  1.0677
  Na  Na20  1  0.625000  0.625000  0.875000  1.0  1.0677
  Na  Na21  1  0.625000  0.125000  0.375000  1.0  1.0677
  Na  Na22  1  0.125000  0.375000  0.625000  1.0  1.0677
  Na  Na23  1  0.125000  0.875000  0.125000  1.0  1.0677
  Na  Na24  1  0.625000  0.875000  0.625000  1.0  1.0677
  Na  Na25  1  0.125000  0.375000  0.125000  1.0  1.0677
  Na  Na26  1  0.125000  0.875000  0.625000  1.0  1.0677
  Na  Na27  1  0.625000  0.875000  0.125000  1.0  1.0677
  Na  Na28  1  0.625000  0.375000  0.625000  1.0  1.0677
  Na  Na29  1  0.875000  0.625000  0.625000  1.0  1.0677
  Na  Na30  1  0.875000  0.125000  0.125000  1.0  1.0677
  Na  Na31  1  0.375000  0.625000  0.125000  1.0  1.0677
  Na  Na32  1  0.875000  0.125000  0.625000  1.0  1.0677
  Na  Na33  1  0.375000  0.125000  0.125000  1.0  1.0677
  Na  Na34  1  0.375000  0.625000  0.625000  1.0  1.0677
  Na  Na35  1  0.875000  0.625000  0.125000  1.0  1.0677
  Na  Na36  1  0.125000  0.625000  0.375000  1.0  1.0677
  Na  Na37  1  0.125000  0.125000  0.875000  1.0  1.0677
  Na  Na38  1  0.625000  0.625000  0.375000  1.0  1.0677
  Na  Na39  1  0.375000  0.125000  0.625000  1.0  1.0677
  Na  Na40  1  0.625000  0.375000  0.125000  1.0  1.0677
  Na  Na41  1  0.875000  0.375000  0.125000  1.0  1.0677
  Na  Na42  1  0.375000  0.875000  0.625000  1.0  1.0677
  Na  Na43  1  0.875000  0.625000  0.375000  1.0  1.0677
  Na  Na44  1  0.875000  0.125000  0.875000  1.0  1.0677
  Na  Na45  1  0.375000  0.125000  0.875000  1.0  1.0677
  Na  Na46  1  0.375000  0.625000  0.375000  1.0  1.0677
  Na  Na47  1  0.625000  0.375000  0.875000  1.0  1.0677
  Na  Na48  1  0.125000  0.875000  0.375000  1.0  1.0677
  Ni  Ni49  1  0.373080  0.500000  0.123080  1.0  0.9629
  Ni  Ni50  1  0.373080  0.000000  0.623080  1.0  0.9629
  Ni  Ni51  1  0.873080  0.500000  0.623080  1.0  0.9629
  Ni  Ni52  1  0.873080  0.000000  0.123080  1.0  0.9629
  Ni  Ni53  1  0.876920  0.250000  0.623080  1.0  0.9645
  Ni  Ni54  1  0.876920  0.750000  0.123080  1.0  0.9645
  Ni  Ni55  1  0.376920  0.250000  0.123080  1.0  0.9645
  Ni  Ni56  1  0.376920  0.750000  0.623080  1.0  0.9645
  Ni  Ni57  1  0.376920  0.000000  0.126920  1.0  0.9646
  Ni  Ni58  1  0.376920  0.500000  0.626920  1.0  0.9646
  Ni  Ni59  1  0.876920  0.000000  0.626920  1.0  0.9646
  Ni  Ni60  1  0.876920  0.500000  0.126920  1.0  0.9646
  Ni  Ni61  1  0.873080  0.750000  0.626920  1.0  0.963
  Ni  Ni62  1  0.873080  0.250000  0.126920  1.0  0.963
  Ni  Ni63  1  0.373080  0.750000  0.126920  1.0  0.963
  Ni  Ni64  1  0.373080  0.250000  0.626920  1.0  0.963
  Ni  Ni65  1  0.123080  0.373080  0.500000  1.0  0.9623
  Ni  Ni66  1  0.123080  0.873080  0.000000  1.0  0.9623
  Ni  Ni67  1  0.623080  0.373080  0.000000  1.0  0.9623
  Ni  Ni68  1  0.623080  0.873080  0.500000  1.0  0.9623
  Ni  Ni69  1  0.623080  0.876920  0.250000  1.0  0.963
  Ni  Ni70  1  0.623080  0.376920  0.750000  1.0  0.963
  Ni  Ni71  1  0.123080  0.876920  0.750000  1.0  0.963
  Ni  Ni72  1  0.123080  0.376920  0.250000  1.0  0.963
  Ni  Ni73  1  0.126920  0.376920  0.000000  1.0  0.9645
  Ni  Ni74  1  0.126920  0.876920  0.500000  1.0  0.9645
  Ni  Ni75  1  0.626920  0.376920  0.500000  1.0  0.9645
  Ni  Ni76  1  0.626920  0.876920  0.000000  1.0  0.9645
  Ni  Ni77  1  0.626920  0.873080  0.750000  1.0  0.9638
  Ni  Ni78  1  0.626920  0.373080  0.250000  1.0  0.9638
  Ni  Ni79  1  0.126920  0.873080  0.250000  1.0  0.9638
  Ni  Ni80  1  0.126920  0.373080  0.750000  1.0  0.9638
  Ni  Ni81  1  0.500000  0.123080  0.373080  1.0  0.9636
  Ni  Ni82  1  0.500000  0.623080  0.873080  1.0  0.9636
  Ni  Ni83  1  0.000000  0.123080  0.873080  1.0  0.9636
  Ni  Ni84  1  0.000000  0.623080  0.373080  1.0  0.9636
  Ni  Ni85  1  0.250000  0.623080  0.876920  1.0  0.9638
  Ni  Ni86  1  0.250000  0.123080  0.376920  1.0  0.9638
  Ni  Ni87  1  0.750000  0.623080  0.376920  1.0  0.9638
  Ni  Ni88  1  0.750000  0.123080  0.876920  1.0  0.9638
  Ni  Ni89  1  0.000000  0.126920  0.376920  1.0  0.9644
  Ni  Ni90  1  0.000000  0.626920  0.876920  1.0  0.9644
  Ni  Ni91  1  0.500000  0.126920  0.876920  1.0  0.9644
  Ni  Ni92  1  0.500000  0.626920  0.376920  1.0  0.9644
  Ni  Ni93  1  0.750000  0.626920  0.873080  1.0  0.9644
  Ni  Ni94  1  0.750000  0.126920  0.373080  1.0  0.9644
  Ni  Ni95  1  0.250000  0.626920  0.373080  1.0  0.9644
  Ni  Ni96  1  0.250000  0.126920  0.873080  1.0  0.9644
  Ni  Ni97  1  0.626920  0.500000  0.876920  1.0  0.9646
  Ni  Ni98  1  0.626920  0.000000  0.376920  1.0  0.9646
  Ni  Ni99  1  0.126920  0.500000  0.376920  1.0  0.9646
  Ni  Ni100  1  0.126920  0.000000  0.876920  1.0  0.9646
  Ni  Ni101  1  0.123080  0.750000  0.376920  1.0  0.963
  Ni  Ni102  1  0.123080  0.250000  0.876920  1.0  0.963
  Ni  Ni103  1  0.623080  0.750000  0.876920  1.0  0.963
  Ni  Ni104  1  0.623080  0.250000  0.376920  1.0  0.963
  Ni  Ni105  1  0.623080  0.000000  0.873080  1.0  0.9629
  Ni  Ni106  1  0.623080  0.500000  0.373080  1.0  0.9629
  Ni  Ni107  1  0.123080  0.000000  0.373080  1.0  0.9629
  Ni  Ni108  1  0.123080  0.500000  0.873080  1.0  0.9629
  Ni  Ni109  1  0.126920  0.250000  0.373080  1.0  0.9645
  Ni  Ni110  1  0.126920  0.750000  0.873080  1.0  0.9645
  Ni  Ni111  1  0.626920  0.250000  0.873080  1.0  0.9645
  Ni  Ni112  1  0.626920  0.750000  0.373080  1.0  0.9645
  Ni  Ni113  1  0.876920  0.626920  0.500000  1.0  0.9645
  Ni  Ni114  1  0.876920  0.126920  0.000000  1.0  0.9645
  Ni  Ni115  1  0.376920  0.626920  0.000000  1.0  0.9645
  Ni  Ni116  1  0.376920  0.126920  0.500000  1.0  0.9645
  Ni  Ni117  1  0.376920  0.123080  0.750000  1.0  0.9638
  Ni  Ni118  1  0.376920  0.623080  0.250000  1.0  0.9638
  Ni  Ni119  1  0.876920  0.123080  0.250000  1.0  0.9638
  Ni  Ni120  1  0.876920  0.623080  0.750000  1.0  0.9638
  Ni  Ni121  1  0.873080  0.623080  0.000000  1.0  0.9623
  Ni  Ni122  1  0.873080  0.123080  0.500000  1.0  0.9623
  Ni  Ni123  1  0.373080  0.623080  0.500000  1.0  0.9623
  Ni  Ni124  1  0.373080  0.123080  0.000000  1.0  0.9623
  Ni  Ni125  1  0.373080  0.126920  0.250000  1.0  0.963
  Ni  Ni126  1  0.373080  0.626920  0.750000  1.0  0.963
  Ni  Ni127  1  0.873080  0.126920  0.750000  1.0  0.963
  Ni  Ni128  1  0.873080  0.626920  0.250000  1.0  0.963
  Ni  Ni129  1  0.500000  0.876920  0.626920  1.0  0.9644
  Ni  Ni130  1  0.500000  0.376920  0.126920  1.0  0.9644
  Ni  Ni131  1  0.000000  0.876920  0.126920  1.0  0.9644
  Ni  Ni132  1  0.000000  0.376920  0.626920  1.0  0.9644
  Ni  Ni133  1  0.750000  0.376920  0.123080  1.0  0.9645
  Ni  Ni134  1  0.750000  0.876920  0.623080  1.0  0.9645
  Ni  Ni135  1  0.250000  0.376920  0.623080  1.0  0.9645
  Ni  Ni136  1  0.250000  0.876920  0.123080  1.0  0.9645
  Ni  Ni137  1  0.000000  0.873080  0.623080  1.0  0.9637
  Ni  Ni138  1  0.000000  0.373080  0.123080  1.0  0.9637
  Ni  Ni139  1  0.500000  0.873080  0.123080  1.0  0.9637
  Ni  Ni140  1  0.500000  0.373080  0.623080  1.0  0.9637
  Ni  Ni141  1  0.250000  0.373080  0.126920  1.0  0.9638
  Ni  Ni142  1  0.250000  0.873080  0.626920  1.0  0.9638
  Ni  Ni143  1  0.750000  0.373080  0.626920  1.0  0.9638
  Ni  Ni144  1  0.750000  0.873080  0.126920  1.0  0.9638
  C  C145  1  0.296650  0.462500  0.127480  1.0  0.819
  C  C146  1  0.296650  0.962500  0.627480  1.0  0.819
  C  C147  1  0.796650  0.462500  0.627480  1.0  0.819
  C  C148  1  0.796650  0.962500  0.127480  1.0  0.819
  C  C149  1  0.953350  0.287500  0.627480  1.0  0.8191
  C  C150  1  0.953350  0.787500  0.127480  1.0  0.8191
  C  C151  1  0.453350  0.287500  0.127480  1.0  0.8191
  C  C152  1  0.453350  0.787500  0.627480  1.0  0.8191
  C  C153  1  0.453350  0.962500  0.122520  1.0  0.8196
  C  C154  1  0.453350  0.462500  0.622520  1.0  0.8196
  C  C155  1  0.953350  0.962500  0.622520  1.0  0.8196
  C  C156  1  0.953350  0.462500  0.122520  1.0  0.8196
  C  C157  1  0.796650  0.787500  0.622520  1.0  0.8185
  C  C158  1  0.796650  0.287500  0.122520  1.0  0.8185
  C  C159  1  0.296650  0.787500  0.122520  1.0  0.8185
  C  C160  1  0.296650  0.287500  0.622520  1.0  0.8185
  C  C161  1  0.127480  0.296650  0.462500  1.0  0.8196
  C  C162  1  0.127480  0.796650  0.962500  1.0  0.8196
  C  C163  1  0.627480  0.296650  0.962500  1.0  0.8196
  C  C164  1  0.627480  0.796650  0.462500  1.0  0.8196
  C  C165  1  0.627480  0.953350  0.287500  1.0  0.8158
  C  C166  1  0.627480  0.453350  0.787500  1.0  0.8158
  C  C167  1  0.127480  0.953350  0.787500  1.0  0.8158
  C  C168  1  0.127480  0.453350  0.287500  1.0  0.8158
  C  C169  1  0.122520  0.453350  0.962500  1.0  0.8165
  C  C170  1  0.122520  0.953350  0.462500  1.0  0.8165
  C  C171  1  0.622520  0.453350  0.462500  1.0  0.8165
  C  C172  1  0.622520  0.953350  0.962500  1.0  0.8165
  C  C173  1  0.622520  0.796650  0.787500  1.0  0.8185
  C  C174  1  0.622520  0.296650  0.287500  1.0  0.8185
  C  C175  1  0.122520  0.796650  0.287500  1.0  0.8185
  C  C176  1  0.122520  0.296650  0.787500  1.0  0.8185
  C  C177  1  0.462500  0.127480  0.296650  1.0  0.8188
  C  C178  1  0.462500  0.627480  0.796650  1.0  0.8188
  C  C179  1  0.962500  0.127480  0.796650  1.0  0.8188
  C  C180  1  0.962500  0.627480  0.296650  1.0  0.8188
  C  C181  1  0.287500  0.627480  0.953350  1.0  0.8181
  C  C182  1  0.287500  0.127480  0.453350  1.0  0.8181
  C  C183  1  0.787500  0.627480  0.453350  1.0  0.8181
  C  C184  1  0.787500  0.127480  0.953350  1.0  0.8181
  C  C185  1  0.962500  0.122520  0.453350  1.0  0.8184
  C  C186  1  0.962500  0.622520  0.953350  1.0  0.8184
  C  C187  1  0.462500  0.122520  0.953350  1.0  0.8184
  C  C188  1  0.462500  0.622520  0.453350  1.0  0.8184
  C  C189  1  0.787500  0.622520  0.796650  1.0  0.8189
  C  C190  1  0.787500  0.122520  0.296650  1.0  0.8189
  C  C191  1  0.287500  0.622520  0.296650  1.0  0.8189
  C  C192  1  0.287500  0.122520  0.796650  1.0  0.8189
  C  C193  1  0.212500  0.546650  0.872520  1.0  0.8195
  C  C194  1  0.212500  0.046650  0.372520  1.0  0.8195
  C  C195  1  0.712500  0.546650  0.372520  1.0  0.8195
  C  C196  1  0.712500  0.046650  0.872520  1.0  0.8195
  C  C197  1  0.037500  0.203350  0.372520  1.0  0.8163
  C  C198  1  0.037500  0.703350  0.872520  1.0  0.8163
  C  C199  1  0.537500  0.203350  0.872520  1.0  0.8163
  C  C200  1  0.537500  0.703350  0.372520  1.0  0.8163
  C  C201  1  0.712500  0.703350  0.877480  1.0  0.8163
  C  C202  1  0.712500  0.203350  0.377480  1.0  0.8163
  C  C203  1  0.212500  0.703350  0.377480  1.0  0.8163
  C  C204  1  0.212500  0.203350  0.877480  1.0  0.8163
  C  C205  1  0.537500  0.046650  0.377480  1.0  0.819
  C  C206  1  0.537500  0.546650  0.877480  1.0  0.819
  C  C207  1  0.037500  0.046650  0.877480  1.0  0.819
  C  C208  1  0.037500  0.546650  0.377480  1.0  0.819
  C  C209  1  0.046650  0.377480  0.537500  1.0  0.818
  C  C210  1  0.046650  0.877480  0.037500  1.0  0.818
  C  C211  1  0.546650  0.377480  0.037500  1.0  0.818
  C  C212  1  0.546650  0.877480  0.537500  1.0  0.818
  C  C213  1  0.703350  0.877480  0.712500  1.0  0.8196
  C  C214  1  0.703350  0.377480  0.212500  1.0  0.8196
  C  C215  1  0.203350  0.877480  0.212500  1.0  0.8196
  C  C216  1  0.203350  0.377480  0.712500  1.0  0.8196
  C  C217  1  0.203350  0.372520  0.037500  1.0  0.8187
  C  C218  1  0.203350  0.872520  0.537500  1.0  0.8187
  C  C219  1  0.703350  0.372520  0.537500  1.0  0.8187
  C  C220  1  0.703350  0.872520  0.037500  1.0  0.8187
  C  C221  1  0.546650  0.872520  0.212500  1.0  0.8193
  C  C222  1  0.546650  0.372520  0.712500  1.0  0.8193
  C  C223  1  0.046650  0.872520  0.712500  1.0  0.8193
  C  C224  1  0.046650  0.372520  0.212500  1.0  0.8193
  C  C225  1  0.877480  0.712500  0.703350  1.0  0.8183
  C  C226  1  0.877480  0.212500  0.203350  1.0  0.8183
  C  C227  1  0.377480  0.712500  0.203350  1.0  0.8183
  C  C228  1  0.377480  0.212500  0.703350  1.0  0.8183
  C  C229  1  0.377480  0.537500  0.046650  1.0  0.8187
  C  C230  1  0.377480  0.037500  0.546650  1.0  0.8187
  C  C231  1  0.877480  0.537500  0.546650  1.0  0.8187
  C  C232  1  0.877480  0.037500  0.046650  1.0  0.8187
  C  C233  1  0.872520  0.212500  0.546650  1.0  0.8192
  C  C234  1  0.872520  0.712500  0.046650  1.0  0.8192
  C  C235  1  0.372520  0.212500  0.046650  1.0  0.8192
  C  C236  1  0.372520  0.712500  0.546650  1.0  0.8192
  C  C237  1  0.372520  0.037500  0.203350  1.0  0.8181
  C  C238  1  0.372520  0.537500  0.703350  1.0  0.8181
  C  C239  1  0.872520  0.037500  0.703350  1.0  0.8181
  C  C240  1  0.872520  0.537500  0.203350  1.0  0.8181
  C  C241  1  0.703350  0.537500  0.872520  1.0  0.8193
  C  C242  1  0.703350  0.037500  0.372520  1.0  0.8193
  C  C243  1  0.203350  0.537500  0.372520  1.0  0.8193
  C  C244  1  0.203350  0.037500  0.872520  1.0  0.8193
  C  C245  1  0.046650  0.712500  0.372520  1.0  0.8192
  C  C246  1  0.046650  0.212500  0.872520  1.0  0.8192
  C  C247  1  0.546650  0.712500  0.872520  1.0  0.8192
  C  C248  1  0.546650  0.212500  0.372520  1.0  0.8192
  C  C249  1  0.546650  0.037500  0.877480  1.0  0.8184
  C  C250  1  0.546650  0.537500  0.377480  1.0  0.8184
  C  C251  1  0.046650  0.037500  0.377480  1.0  0.8184
  C  C252  1  0.046650  0.537500  0.877480  1.0  0.8184
  C  C253  1  0.203350  0.212500  0.377480  1.0  0.8195
  C  C254  1  0.203350  0.712500  0.877480  1.0  0.8195
  C  C255  1  0.703350  0.212500  0.877480  1.0  0.8195
  C  C256  1  0.703350  0.712500  0.377480  1.0  0.8195
  C  C257  1  0.872520  0.703350  0.537500  1.0  0.8157
  C  C258  1  0.872520  0.203350  0.037500  1.0  0.8157
  C  C259  1  0.372520  0.703350  0.037500  1.0  0.8157
  C  C260  1  0.372520  0.203350  0.537500  1.0  0.8157
  C  C261  1  0.372520  0.046650  0.712500  1.0  0.8194
  C  C262  1  0.372520  0.546650  0.212500  1.0  0.8194
  C  C263  1  0.872520  0.046650  0.212500  1.0  0.8194
  C  C264  1  0.872520  0.546650  0.712500  1.0  0.8194
  C  C265  1  0.877480  0.546650  0.037500  1.0  0.8186
  C  C266  1  0.877480  0.046650  0.537500  1.0  0.8186
  C  C267  1  0.377480  0.546650  0.537500  1.0  0.8186
  C  C268  1  0.377480  0.046650  0.037500  1.0  0.8186
  C  C269  1  0.377480  0.203350  0.212500  1.0  0.8167
  C  C270  1  0.377480  0.703350  0.712500  1.0  0.8167
  C  C271  1  0.877480  0.203350  0.712500  1.0  0.8167
  C  C272  1  0.877480  0.703350  0.212500  1.0  0.8167
  C  C273  1  0.537500  0.872520  0.703350  1.0  0.8182
  C  C274  1  0.537500  0.372520  0.203350  1.0  0.8182
  C  C275  1  0.037500  0.872520  0.203350  1.0  0.8182
  C  C276  1  0.037500  0.372520  0.703350  1.0  0.8182
  C  C277  1  0.712500  0.372520  0.046650  1.0  0.819
  C  C278  1  0.712500  0.872520  0.546650  1.0  0.819
  C  C279  1  0.212500  0.372520  0.546650  1.0  0.819
  C  C280  1  0.212500  0.872520  0.046650  1.0  0.819
  C  C281  1  0.037500  0.877480  0.546650  1.0  0.8188
  C  C282  1  0.037500  0.377480  0.046650  1.0  0.8188
  C  C283  1  0.537500  0.877480  0.046650  1.0  0.8188
  C  C284  1  0.537500  0.377480  0.546650  1.0  0.8188
  C  C285  1  0.212500  0.377480  0.203350  1.0  0.8183
  C  C286  1  0.212500  0.877480  0.703350  1.0  0.8183
  C  C287  1  0.712500  0.377480  0.703350  1.0  0.8183
  C  C288  1  0.712500  0.877480  0.203350  1.0  0.8183
  C  C289  1  0.787500  0.453350  0.127480  1.0  0.8162
  C  C290  1  0.787500  0.953350  0.627480  1.0  0.8162
  C  C291  1  0.287500  0.453350  0.627480  1.0  0.8162
  C  C292  1  0.287500  0.953350  0.127480  1.0  0.8162
  C  C293  1  0.962500  0.796650  0.627480  1.0  0.8193
  C  C294  1  0.962500  0.296650  0.127480  1.0  0.8193
  C  C295  1  0.462500  0.796650  0.127480  1.0  0.8193
  C  C296  1  0.462500  0.296650  0.627480  1.0  0.8193
  C  C297  1  0.287500  0.296650  0.122520  1.0  0.8191
  C  C298  1  0.287500  0.796650  0.622520  1.0  0.8191
  C  C299  1  0.787500  0.296650  0.622520  1.0  0.8191
  C  C300  1  0.787500  0.796650  0.122520  1.0  0.8191
  C  C301  1  0.462500  0.953350  0.622520  1.0  0.8165
  C  C302  1  0.462500  0.453350  0.122520  1.0  0.8165
  C  C303  1  0.962500  0.953350  0.122520  1.0  0.8165
  C  C304  1  0.962500  0.453350  0.622520  1.0  0.8165
  C  C305  1  0.953350  0.622520  0.462500  1.0  0.8197
  C  C306  1  0.953350  0.122520  0.962500  1.0  0.8197
  C  C307  1  0.453350  0.622520  0.962500  1.0  0.8197
  C  C308  1  0.453350  0.122520  0.462500  1.0  0.8197
  C  C309  1  0.296650  0.122520  0.287500  1.0  0.8182
  C  C310  1  0.296650  0.622520  0.787500  1.0  0.8182
  C  C311  1  0.796650  0.122520  0.787500  1.0  0.8182
  C  C312  1  0.796650  0.622520  0.287500  1.0  0.8182
  C  C313  1  0.796650  0.627480  0.962500  1.0  0.8192
  C  C314  1  0.796650  0.127480  0.462500  1.0  0.8192
  C  C315  1  0.296650  0.627480  0.462500  1.0  0.8192
  C  C316  1  0.296650  0.127480  0.962500  1.0  0.8192
  C  C317  1  0.453350  0.127480  0.787500  1.0  0.8185
  C  C318  1  0.453350  0.627480  0.287500  1.0  0.8185
  C  C319  1  0.953350  0.127480  0.287500  1.0  0.8185
  C  C320  1  0.953350  0.627480  0.787500  1.0  0.8185
  C  C321  1  0.122520  0.287500  0.296650  1.0  0.8185
  C  C322  1  0.122520  0.787500  0.796650  1.0  0.8185
  C  C323  1  0.622520  0.287500  0.796650  1.0  0.8185
  C  C324  1  0.622520  0.787500  0.296650  1.0  0.8185
  C  C325  1  0.622520  0.462500  0.953350  1.0  0.8181
  C  C326  1  0.622520  0.962500  0.453350  1.0  0.8181
  C  C327  1  0.122520  0.462500  0.453350  1.0  0.8181
  C  C328  1  0.122520  0.962500  0.953350  1.0  0.8181
  C  C329  1  0.127480  0.787500  0.453350  1.0  0.8182
  C  C330  1  0.127480  0.287500  0.953350  1.0  0.8182
  C  C331  1  0.627480  0.787500  0.953350  1.0  0.8182
  C  C332  1  0.627480  0.287500  0.453350  1.0  0.8182
  C  C333  1  0.627480  0.962500  0.796650  1.0  0.8193
  C  C334  1  0.627480  0.462500  0.296650  1.0  0.8193
  C  C335  1  0.127480  0.962500  0.296650  1.0  0.8193
  C  C336  1  0.127480  0.462500  0.796650  1.0  0.8193
  O  O337  1  0.300260  0.507410  0.123430  1.0  -0.5215
  O  O338  1  0.256480  0.443250  0.125590  1.0  -0.504
  O  O339  1  0.333910  0.439270  0.131850  1.0  -0.5429
  O  O340  1  0.300260  0.007410  0.623430  1.0  -0.5215
  O  O341  1  0.256480  0.943250  0.625590  1.0  -0.504
  O  O342  1  0.333910  0.939270  0.631850  1.0  -0.5429
  O  O343  1  0.800260  0.507410  0.623430  1.0  -0.5215
  O  O344  1  0.756480  0.443250  0.625590  1.0  -0.504
  O  O345  1  0.833910  0.439270  0.631850  1.0  -0.5429
  O  O346  1  0.800260  0.007410  0.123430  1.0  -0.5215
  O  O347  1  0.756480  0.943250  0.125590  1.0  -0.504
  O  O348  1  0.833910  0.939270  0.131850  1.0  -0.5429
  O  O349  1  0.949740  0.242590  0.623430  1.0  -0.5205
  O  O350  1  0.993520  0.306750  0.625590  1.0  -0.5052
  O  O351  1  0.916090  0.310730  0.631850  1.0  -0.5433
  O  O352  1  0.949740  0.742590  0.123430  1.0  -0.5205
  O  O353  1  0.993520  0.806750  0.125590  1.0  -0.5052
  O  O354  1  0.916090  0.810730  0.131850  1.0  -0.5433
  O  O355  1  0.449740  0.242590  0.123430  1.0  -0.5205
  O  O356  1  0.493520  0.306750  0.125590  1.0  -0.5052
  O  O357  1  0.416090  0.310730  0.131850  1.0  -0.5433
  O  O358  1  0.449740  0.742590  0.623430  1.0  -0.5205
  O  O359  1  0.493520  0.806750  0.625590  1.0  -0.5052
  O  O360  1  0.416090  0.810730  0.631850  1.0  -0.5433
  O  O361  1  0.449740  0.007410  0.126570  1.0  -0.519
  O  O362  1  0.493520  0.943250  0.124410  1.0  -0.5043
  O  O363  1  0.416090  0.939270  0.118150  1.0  -0.5436
  O  O364  1  0.449740  0.507410  0.626570  1.0  -0.519
  O  O365  1  0.493520  0.443250  0.624410  1.0  -0.5043
  O  O366  1  0.416090  0.439270  0.618150  1.0  -0.5436
  O  O367  1  0.949740  0.007410  0.626570  1.0  -0.519
  O  O368  1  0.993520  0.943250  0.624410  1.0  -0.5043
  O  O369  1  0.916090  0.939270  0.618150  1.0  -0.5436
  O  O370  1  0.949740  0.507410  0.126570  1.0  -0.519
  O  O371  1  0.993520  0.443250  0.124410  1.0  -0.5043
  O  O372  1  0.916090  0.439270  0.118150  1.0  -0.5436
  O  O373  1  0.800260  0.742590  0.626570  1.0  -0.5189
  O  O374  1  0.756480  0.806750  0.624410  1.0  -0.5051
  O  O375  1  0.833910  0.810730  0.618150  1.0  -0.5436
  O  O376  1  0.800260  0.242590  0.126570  1.0  -0.5189
  O  O377  1  0.756480  0.306750  0.124410  1.0  -0.5051
  O  O378  1  0.833910  0.310730  0.118150  1.0  -0.5436
  O  O379  1  0.300260  0.742590  0.126570  1.0  -0.5189
  O  O380  1  0.256480  0.806750  0.124410  1.0  -0.5051
  O  O381  1  0.333910  0.810730  0.118150  1.0  -0.5436
  O  O382  1  0.300260  0.242590  0.626570  1.0  -0.5189
  O  O383  1  0.256480  0.306750  0.624410  1.0  -0.5051
  O  O384  1  0.333910  0.310730  0.618150  1.0  -0.5436
  O  O385  1  0.123430  0.300260  0.507410  1.0  -0.518
  O  O386  1  0.125590  0.256480  0.443250  1.0  -0.5026
  O  O387  1  0.131850  0.333910  0.439270  1.0  -0.5433
  O  O388  1  0.123430  0.800260  0.007410  1.0  -0.518
  O  O389  1  0.125590  0.756480  0.943250  1.0  -0.5026
  O  O390  1  0.131850  0.833910  0.939270  1.0  -0.5433
  O  O391  1  0.623430  0.300260  0.007410  1.0  -0.518
  O  O392  1  0.625590  0.256480  0.943250  1.0  -0.5026
  O  O393  1  0.631850  0.333910  0.939270  1.0  -0.5433
  O  O394  1  0.623430  0.800260  0.507410  1.0  -0.518
  O  O395  1  0.625590  0.756480  0.443250  1.0  -0.5026
  O  O396  1  0.631850  0.833910  0.439270  1.0  -0.5433
  O  O397  1  0.623430  0.949740  0.242590  1.0  -0.521
  O  O398  1  0.625590  0.993520  0.306750  1.0  -0.5021
  O  O399  1  0.631850  0.916090  0.310730  1.0  -0.5445
  O  O400  1  0.623430  0.449740  0.742590  1.0  -0.521
  O  O401  1  0.625590  0.493520  0.806750  1.0  -0.5021
  O  O402  1  0.631850  0.416090  0.810730  1.0  -0.5445
  O  O403  1  0.123430  0.949740  0.742590  1.0  -0.521
  O  O404  1  0.125590  0.993520  0.806750  1.0  -0.5021
  O  O405  1  0.131850  0.916090  0.810730  1.0  -0.5445
  O  O406  1  0.123430  0.449740  0.242590  1.0  -0.521
  O  O407  1  0.125590  0.493520  0.306750  1.0  -0.5021
  O  O408  1  0.131850  0.416090  0.310730  1.0  -0.5445
  O  O409  1  0.126570  0.449740  0.007410  1.0  -0.5184
  O  O410  1  0.124410  0.493520  0.943250  1.0  -0.5008
  O  O411  1  0.118150  0.416090  0.939270  1.0  -0.5443
  O  O412  1  0.126570  0.949740  0.507410  1.0  -0.5184
  O  O413  1  0.124410  0.993520  0.443250  1.0  -0.5008
  O  O414  1  0.118150  0.916090  0.439270  1.0  -0.5443
  O  O415  1  0.626570  0.449740  0.507410  1.0  -0.5184
  O  O416  1  0.624410  0.493520  0.443250  1.0  -0.5008
  O  O417  1  0.618150  0.416090  0.439270  1.0  -0.5443
  O  O418  1  0.626570  0.949740  0.007410  1.0  -0.5184
  O  O419  1  0.624410  0.993520  0.943250  1.0  -0.5008
  O  O420  1  0.618150  0.916090  0.939270  1.0  -0.5443
  O  O421  1  0.626570  0.800260  0.742590  1.0  -0.5182
  O  O422  1  0.624410  0.756480  0.806750  1.0  -0.5013
  O  O423  1  0.618150  0.833910  0.810730  1.0  -0.5449
  O  O424  1  0.626570  0.300260  0.242590  1.0  -0.5182
  O  O425  1  0.624410  0.256480  0.306750  1.0  -0.5013
  O  O426  1  0.618150  0.333910  0.310730  1.0  -0.5449
  O  O427  1  0.126570  0.800260  0.242590  1.0  -0.5182
  O  O428  1  0.124410  0.756480  0.306750  1.0  -0.5013
  O  O429  1  0.118150  0.833910  0.310730  1.0  -0.5449
  O  O430  1  0.126570  0.300260  0.742590  1.0  -0.5182
  O  O431  1  0.124410  0.256480  0.806750  1.0  -0.5013
  O  O432  1  0.118150  0.333910  0.810730  1.0  -0.5449
  O  O433  1  0.507410  0.123430  0.300260  1.0  -0.5195
  O  O434  1  0.443250  0.125590  0.256480  1.0  -0.5065
  O  O435  1  0.439270  0.131850  0.333910  1.0  -0.5428
  O  O436  1  0.507410  0.623430  0.800260  1.0  -0.5195
  O  O437  1  0.443250  0.625590  0.756480  1.0  -0.5065
  O  O438  1  0.439270  0.631850  0.833910  1.0  -0.5428
  O  O439  1  0.007410  0.123430  0.800260  1.0  -0.5195
  O  O440  1  0.943250  0.125590  0.756480  1.0  -0.5065
  O  O441  1  0.939270  0.131850  0.833910  1.0  -0.5428
  O  O442  1  0.007410  0.623430  0.300260  1.0  -0.5195
  O  O443  1  0.943250  0.625590  0.256480  1.0  -0.5065
  O  O444  1  0.939270  0.631850  0.333910  1.0  -0.5428
  O  O445  1  0.242590  0.623430  0.949740  1.0  -0.5207
  O  O446  1  0.306750  0.625590  0.993520  1.0  -0.5069
  O  O447  1  0.310730  0.631850  0.916090  1.0  -0.5426
  O  O448  1  0.242590  0.123430  0.449740  1.0  -0.5207
  O  O449  1  0.306750  0.125590  0.493520  1.0  -0.5069
  O  O450  1  0.310730  0.131850  0.416090  1.0  -0.5426
  O  O451  1  0.742590  0.623430  0.449740  1.0  -0.5207
  O  O452  1  0.806750  0.625590  0.493520  1.0  -0.5069
  O  O453  1  0.810730  0.631850  0.416090  1.0  -0.5426
  O  O454  1  0.742590  0.123430  0.949740  1.0  -0.5207
  O  O455  1  0.806750  0.125590  0.993520  1.0  -0.5069
  O  O456  1  0.810730  0.131850  0.916090  1.0  -0.5426
  O  O457  1  0.007410  0.126570  0.449740  1.0  -0.5185
  O  O458  1  0.943250  0.124410  0.493520  1.0  -0.5073
  O  O459  1  0.939270  0.118150  0.416090  1.0  -0.5427
  O  O460  1  0.007410  0.626570  0.949740  1.0  -0.5185
  O  O461  1  0.943250  0.624410  0.993520  1.0  -0.5073
  O  O462  1  0.939270  0.618150  0.916090  1.0  -0.5427
  O  O463  1  0.507410  0.126570  0.949740  1.0  -0.5185
  O  O464  1  0.443250  0.124410  0.993520  1.0  -0.5073
  O  O465  1  0.439270  0.118150  0.916090  1.0  -0.5427
  O  O466  1  0.507410  0.626570  0.449740  1.0  -0.5185
  O  O467  1  0.443250  0.624410  0.493520  1.0  -0.5073
  O  O468  1  0.439270  0.618150  0.416090  1.0  -0.5427
  O  O469  1  0.742590  0.626570  0.800260  1.0  -0.5199
  O  O470  1  0.806750  0.624410  0.756480  1.0  -0.5058
  O  O471  1  0.810730  0.618150  0.833910  1.0  -0.5437
  O  O472  1  0.742590  0.126570  0.300260  1.0  -0.5199
  O  O473  1  0.806750  0.124410  0.256480  1.0  -0.5058
  O  O474  1  0.810730  0.118150  0.333910  1.0  -0.5437
  O  O475  1  0.242590  0.626570  0.300260  1.0  -0.5199
  O  O476  1  0.306750  0.624410  0.256480  1.0  -0.5058
  O  O477  1  0.310730  0.618150  0.333910  1.0  -0.5437
  O  O478  1  0.242590  0.126570  0.800260  1.0  -0.5199
  O  O479  1  0.306750  0.124410  0.756480  1.0  -0.5058
  O  O480  1  0.310730  0.118150  0.833910  1.0  -0.5437
  O  O481  1  0.257410  0.550260  0.876570  1.0  -0.5208
  O  O482  1  0.193250  0.506480  0.874410  1.0  -0.5062
  O  O483  1  0.189270  0.583910  0.868150  1.0  -0.5436
  O  O484  1  0.257410  0.050260  0.376570  1.0  -0.5208
  O  O485  1  0.193250  0.006480  0.374410  1.0  -0.5062
  O  O486  1  0.189270  0.083910  0.368150  1.0  -0.5436
  O  O487  1  0.757410  0.550260  0.376570  1.0  -0.5208
  O  O488  1  0.693250  0.506480  0.374410  1.0  -0.5062
  O  O489  1  0.689270  0.583910  0.368150  1.0  -0.5436
  O  O490  1  0.757410  0.050260  0.876570  1.0  -0.5208
  O  O491  1  0.693250  0.006480  0.874410  1.0  -0.5062
  O  O492  1  0.689270  0.083910  0.868150  1.0  -0.5436
  O  O493  1  0.992590  0.199740  0.376570  1.0  -0.5229
  O  O494  1  0.056750  0.243520  0.374410  1.0  -0.5051
  O  O495  1  0.060730  0.166090  0.368150  1.0  -0.5441
  O  O496  1  0.992590  0.699740  0.876570  1.0  -0.5229
  O  O497  1  0.056750  0.743520  0.874410  1.0  -0.5051
  O  O498  1  0.060730  0.666090  0.868150  1.0  -0.5441
  O  O499  1  0.492590  0.199740  0.876570  1.0  -0.5229
  O  O500  1  0.556750  0.243520  0.874410  1.0  -0.5051
  O  O501  1  0.560730  0.166090  0.868150  1.0  -0.5441
  O  O502  1  0.492590  0.699740  0.376570  1.0  -0.5229
  O  O503  1  0.556750  0.743520  0.374410  1.0  -0.5051
  O  O504  1  0.560730  0.666090  0.368150  1.0  -0.5441
  O  O505  1  0.757410  0.699740  0.873430  1.0  -0.5208
  O  O506  1  0.693250  0.743520  0.875590  1.0  -0.5044
  O  O507  1  0.689270  0.666090  0.881850  1.0  -0.5437
  O  O508  1  0.757410  0.199740  0.373430  1.0  -0.5208
  O  O509  1  0.693250  0.243520  0.375590  1.0  -0.5044
  O  O510  1  0.689270  0.166090  0.381850  1.0  -0.5437
  O  O511  1  0.257410  0.699740  0.373430  1.0  -0.5208
  O  O512  1  0.193250  0.743520  0.375590  1.0  -0.5044
  O  O513  1  0.189270  0.666090  0.381850  1.0  -0.5437
  O  O514  1  0.257410  0.199740  0.873430  1.0  -0.5208
  O  O515  1  0.193250  0.243520  0.875590  1.0  -0.5044
  O  O516  1  0.189270  0.166090  0.881850  1.0  -0.5437
  O  O517  1  0.492590  0.050260  0.373430  1.0  -0.5211
  O  O518  1  0.556750  0.006480  0.375590  1.0  -0.5052
  O  O519  1  0.560730  0.083910  0.381850  1.0  -0.5434
  O  O520  1  0.492590  0.550260  0.873430  1.0  -0.5211
  O  O521  1  0.556750  0.506480  0.875590  1.0  -0.5052
  O  O522  1  0.560730  0.583910  0.881850  1.0  -0.5434
  O  O523  1  0.992590  0.050260  0.873430  1.0  -0.5211
  O  O524  1  0.056750  0.006480  0.875590  1.0  -0.5052
  O  O525  1  0.060730  0.083910  0.881850  1.0  -0.5434
  O  O526  1  0.992590  0.550260  0.373430  1.0  -0.5211
  O  O527  1  0.056750  0.506480  0.375590  1.0  -0.5052
  O  O528  1  0.060730  0.583910  0.381850  1.0  -0.5434
  O  O529  1  0.050260  0.373430  0.492590  1.0  -0.5174
  O  O530  1  0.006480  0.375590  0.556750  1.0  -0.5039
  O  O531  1  0.083910  0.381850  0.560730  1.0  -0.5429
  O  O532  1  0.050260  0.873430  0.992590  1.0  -0.5174
  O  O533  1  0.006480  0.875590  0.056750  1.0  -0.5039
  O  O534  1  0.083910  0.881850  0.060730  1.0  -0.5429
  O  O535  1  0.550260  0.373430  0.992590  1.0  -0.5174
  O  O536  1  0.506480  0.375590  0.056750  1.0  -0.5039
  O  O537  1  0.583910  0.381850  0.060730  1.0  -0.5429
  O  O538  1  0.550260  0.873430  0.492590  1.0  -0.5174
  O  O539  1  0.506480  0.875590  0.556750  1.0  -0.5039
  O  O540  1  0.583910  0.881850  0.560730  1.0  -0.5429
  O  O541  1  0.699740  0.873430  0.757410  1.0  -0.5149
  O  O542  1  0.743520  0.875590  0.693250  1.0  -0.5046
  O  O543  1  0.666090  0.881850  0.689270  1.0  -0.5417
  O  O544  1  0.699740  0.373430  0.257410  1.0  -0.5149
  O  O545  1  0.743520  0.375590  0.193250  1.0  -0.5046
  O  O546  1  0.666090  0.381850  0.189270  1.0  -0.5417
  O  O547  1  0.199740  0.873430  0.257410  1.0  -0.5149
  O  O548  1  0.243520  0.875590  0.193250  1.0  -0.5046
  O  O549  1  0.166090  0.881850  0.189270  1.0  -0.5417
  O  O550  1  0.199740  0.373430  0.757410  1.0  -0.5149
  O  O551  1  0.243520  0.375590  0.693250  1.0  -0.5046
  O  O552  1  0.166090  0.381850  0.689270  1.0  -0.5417
  O  O553  1  0.199740  0.376570  0.992590  1.0  -0.5171
  O  O554  1  0.243520  0.374410  0.056750  1.0  -0.5043
  O  O555  1  0.166090  0.368150  0.060730  1.0  -0.5434
  O  O556  1  0.199740  0.876570  0.492590  1.0  -0.5171
  O  O557  1  0.243520  0.874410  0.556750  1.0  -0.5043
  O  O558  1  0.166090  0.868150  0.560730  1.0  -0.5434
  O  O559  1  0.699740  0.376570  0.492590  1.0  -0.5171
  O  O560  1  0.743520  0.374410  0.556750  1.0  -0.5043
  O  O561  1  0.666090  0.368150  0.560730  1.0  -0.5434
  O  O562  1  0.699740  0.876570  0.992590  1.0  -0.5171
  O  O563  1  0.743520  0.874410  0.056750  1.0  -0.5043
  O  O564  1  0.666090  0.868150  0.060730  1.0  -0.5434
  O  O565  1  0.550260  0.876570  0.257410  1.0  -0.5157
  O  O566  1  0.506480  0.874410  0.193250  1.0  -0.5046
  O  O567  1  0.583910  0.868150  0.189270  1.0  -0.543
  O  O568  1  0.550260  0.376570  0.757410  1.0  -0.5157
  O  O569  1  0.506480  0.374410  0.693250  1.0  -0.5046
  O  O570  1  0.583910  0.368150  0.689270  1.0  -0.543
  O  O571  1  0.050260  0.876570  0.757410  1.0  -0.5157
  O  O572  1  0.006480  0.874410  0.693250  1.0  -0.5046
  O  O573  1  0.083910  0.868150  0.689270  1.0  -0.543
  O  O574  1  0.050260  0.376570  0.257410  1.0  -0.5157
  O  O575  1  0.006480  0.374410  0.193250  1.0  -0.5046
  O  O576  1  0.083910  0.368150  0.189270  1.0  -0.543
  O  O577  1  0.873430  0.757410  0.699740  1.0  -0.5201
  O  O578  1  0.875590  0.693250  0.743520  1.0  -0.5038
  O  O579  1  0.881850  0.689270  0.666090  1.0  -0.5435
  O  O580  1  0.873430  0.257410  0.199740  1.0  -0.5201
  O  O581  1  0.875590  0.193250  0.243520  1.0  -0.5038
  O  O582  1  0.881850  0.189270  0.166090  1.0  -0.5435
  O  O583  1  0.373430  0.757410  0.199740  1.0  -0.5201
  O  O584  1  0.375590  0.693250  0.243520  1.0  -0.5038
  O  O585  1  0.381850  0.689270  0.166090  1.0  -0.5435
  O  O586  1  0.373430  0.257410  0.699740  1.0  -0.5201
  O  O587  1  0.375590  0.193250  0.743520  1.0  -0.5038
  O  O588  1  0.381850  0.189270  0.666090  1.0  -0.5435
  O  O589  1  0.373430  0.492590  0.050260  1.0  -0.52
  O  O590  1  0.375590  0.556750  0.006480  1.0  -0.503
  O  O591  1  0.381850  0.560730  0.083910  1.0  -0.5447
  O  O592  1  0.373430  0.992590  0.550260  1.0  -0.52
  O  O593  1  0.375590  0.056750  0.506480  1.0  -0.503
  O  O594  1  0.381850  0.060730  0.583910  1.0  -0.5447
  O  O595  1  0.873430  0.492590  0.550260  1.0  -0.52
  O  O596  1  0.875590  0.556750  0.506480  1.0  -0.503
  O  O597  1  0.881850  0.560730  0.583910  1.0  -0.5447
  O  O598  1  0.873430  0.992590  0.050260  1.0  -0.52
  O  O599  1  0.875590  0.056750  0.006480  1.0  -0.503
  O  O600  1  0.881850  0.060730  0.083910  1.0  -0.5447
  O  O601  1  0.876570  0.257410  0.550260  1.0  -0.5218
  O  O602  1  0.874410  0.193250  0.506480  1.0  -0.5031
  O  O603  1  0.868150  0.189270  0.583910  1.0  -0.5449
  O  O604  1  0.876570  0.757410  0.050260  1.0  -0.5218
  O  O605  1  0.874410  0.693250  0.006480  1.0  -0.5031
  O  O606  1  0.868150  0.689270  0.083910  1.0  -0.5449
  O  O607  1  0.376570  0.257410  0.050260  1.0  -0.5218
  O  O608  1  0.374410  0.193250  0.006480  1.0  -0.5031
  O  O609  1  0.368150  0.189270  0.083910  1.0  -0.5449
  O  O610  1  0.376570  0.757410  0.550260  1.0  -0.5218
  O  O611  1  0.374410  0.693250  0.506480  1.0  -0.5031
  O  O612  1  0.368150  0.689270  0.583910  1.0  -0.5449
  O  O613  1  0.376570  0.992590  0.199740  1.0  -0.5208
  O  O614  1  0.374410  0.056750  0.243520  1.0  -0.5046
  O  O615  1  0.368150  0.060730  0.166090  1.0  -0.5442
  O  O616  1  0.376570  0.492590  0.699740  1.0  -0.5208
  O  O617  1  0.374410  0.556750  0.743520  1.0  -0.5046
  O  O618  1  0.368150  0.560730  0.666090  1.0  -0.5442
  O  O619  1  0.876570  0.992590  0.699740  1.0  -0.5208
  O  O620  1  0.874410  0.056750  0.743520  1.0  -0.5046
  O  O621  1  0.868150  0.060730  0.666090  1.0  -0.5442
  O  O622  1  0.876570  0.492590  0.199740  1.0  -0.5208
  O  O623  1  0.874410  0.556750  0.243520  1.0  -0.5046
  O  O624  1  0.868150  0.560730  0.166090  1.0  -0.5442
  O  O625  1  0.699740  0.492590  0.876570  1.0  -0.5203
  O  O626  1  0.743520  0.556750  0.874410  1.0  -0.5054
  O  O627  1  0.666090  0.560730  0.868150  1.0  -0.5435
  O  O628  1  0.699740  0.992590  0.376570  1.0  -0.5203
  O  O629  1  0.743520  0.056750  0.374410  1.0  -0.5054
  O  O630  1  0.666090  0.060730  0.368150  1.0  -0.5435
  O  O631  1  0.199740  0.492590  0.376570  1.0  -0.5203
  O  O632  1  0.243520  0.556750  0.374410  1.0  -0.5054
  O  O633  1  0.166090  0.560730  0.368150  1.0  -0.5435
  O  O634  1  0.199740  0.992590  0.876570  1.0  -0.5203
  O  O635  1  0.243520  0.056750  0.874410  1.0  -0.5054
  O  O636  1  0.166090  0.060730  0.868150  1.0  -0.5435
  O  O637  1  0.050260  0.757410  0.376570  1.0  -0.5214
  O  O638  1  0.006480  0.693250  0.374410  1.0  -0.5042
  O  O639  1  0.083910  0.689270  0.368150  1.0  -0.5432
  O  O640  1  0.050260  0.257410  0.876570  1.0  -0.5214
  O  O641  1  0.006480  0.193250  0.874410  1.0  -0.5042
  O  O642  1  0.083910  0.189270  0.868150  1.0  -0.5432
  O  O643  1  0.550260  0.757410  0.876570  1.0  -0.5214
  O  O644  1  0.506480  0.693250  0.874410  1.0  -0.5042
  O  O645  1  0.583910  0.689270  0.868150  1.0  -0.5432
  O  O646  1  0.550260  0.257410  0.376570  1.0  -0.5214
  O  O647  1  0.506480  0.193250  0.374410  1.0  -0.5042
  O  O648  1  0.583910  0.189270  0.368150  1.0  -0.5432
  O  O649  1  0.550260  0.992590  0.873430  1.0  -0.5187
  O  O650  1  0.506480  0.056750  0.875590  1.0  -0.5049
  O  O651  1  0.583910  0.060730  0.881850  1.0  -0.5435
  O  O652  1  0.550260  0.492590  0.373430  1.0  -0.5187
  O  O653  1  0.506480  0.556750  0.375590  1.0  -0.5049
  O  O654  1  0.583910  0.560730  0.381850  1.0  -0.5435
  O  O655  1  0.050260  0.992590  0.373430  1.0  -0.5187
  O  O656  1  0.006480  0.056750  0.375590  1.0  -0.5049
  O  O657  1  0.083910  0.060730  0.381850  1.0  -0.5435
  O  O658  1  0.050260  0.492590  0.873430  1.0  -0.5187
  O  O659  1  0.006480  0.556750  0.875590  1.0  -0.5049
  O  O660  1  0.083910  0.560730  0.881850  1.0  -0.5435
  O  O661  1  0.199740  0.257410  0.373430  1.0  -0.5183
  O  O662  1  0.243520  0.193250  0.375590  1.0  -0.5041
  O  O663  1  0.166090  0.189270  0.381850  1.0  -0.5433
  O  O664  1  0.199740  0.757410  0.873430  1.0  -0.5183
  O  O665  1  0.243520  0.693250  0.875590  1.0  -0.5041
  O  O666  1  0.166090  0.689270  0.881850  1.0  -0.5433
  O  O667  1  0.699740  0.257410  0.873430  1.0  -0.5183
  O  O668  1  0.743520  0.193250  0.875590  1.0  -0.5041
  O  O669  1  0.666090  0.189270  0.881850  1.0  -0.5433
  O  O670  1  0.699740  0.757410  0.373430  1.0  -0.5183
  O  O671  1  0.743520  0.693250  0.375590  1.0  -0.5041
  O  O672  1  0.666090  0.689270  0.381850  1.0  -0.5433
  O  O673  1  0.876570  0.699740  0.492590  1.0  -0.5214
  O  O674  1  0.874410  0.743520  0.556750  1.0  -0.5021
  O  O675  1  0.868150  0.666090  0.560730  1.0  -0.5448
  O  O676  1  0.876570  0.199740  0.992590  1.0  -0.5214
  O  O677  1  0.874410  0.243520  0.056750  1.0  -0.5021
  O  O678  1  0.868150  0.166090  0.060730  1.0  -0.5448
  O  O679  1  0.376570  0.699740  0.992590  1.0  -0.5214
  O  O680  1  0.374410  0.743520  0.056750  1.0  -0.5021
  O  O681  1  0.368150  0.666090  0.060730  1.0  -0.5448
  O  O682  1  0.376570  0.199740  0.492590  1.0  -0.5214
  O  O683  1  0.374410  0.243520  0.556750  1.0  -0.5021
  O  O684  1  0.368150  0.166090  0.560730  1.0  -0.5448
  O  O685  1  0.376570  0.050260  0.757410  1.0  -0.5175
  O  O686  1  0.374410  0.006480  0.693250  1.0  -0.5027
  O  O687  1  0.368150  0.083910  0.689270  1.0  -0.544
  O  O688  1  0.376570  0.550260  0.257410  1.0  -0.5175
  O  O689  1  0.374410  0.506480  0.193250  1.0  -0.5027
  O  O690  1  0.368150  0.583910  0.189270  1.0  -0.544
  O  O691  1  0.876570  0.050260  0.257410  1.0  -0.5175
  O  O692  1  0.874410  0.006480  0.193250  1.0  -0.5027
  O  O693  1  0.868150  0.083910  0.189270  1.0  -0.544
  O  O694  1  0.876570  0.550260  0.757410  1.0  -0.5175
  O  O695  1  0.874410  0.506480  0.693250  1.0  -0.5027
  O  O696  1  0.868150  0.583910  0.689270  1.0  -0.544
  O  O697  1  0.873430  0.550260  0.992590  1.0  -0.5179
  O  O698  1  0.875590  0.506480  0.056750  1.0  -0.5013
  O  O699  1  0.881850  0.583910  0.060730  1.0  -0.5443
  O  O700  1  0.873430  0.050260  0.492590  1.0  -0.5179
  O  O701  1  0.875590  0.006480  0.556750  1.0  -0.5013
  O  O702  1  0.881850  0.083910  0.560730  1.0  -0.5443
  O  O703  1  0.373430  0.550260  0.492590  1.0  -0.5179
  O  O704  1  0.375590  0.506480  0.556750  1.0  -0.5013
  O  O705  1  0.381850  0.583910  0.560730  1.0  -0.5443
  O  O706  1  0.373430  0.050260  0.992590  1.0  -0.5179
  O  O707  1  0.375590  0.006480  0.056750  1.0  -0.5013
  O  O708  1  0.381850  0.083910  0.060730  1.0  -0.5443
  O  O709  1  0.373430  0.199740  0.257410  1.0  -0.518
  O  O710  1  0.375590  0.243520  0.193250  1.0  -0.5006
  O  O711  1  0.381850  0.166090  0.189270  1.0  -0.5439
  O  O712  1  0.373430  0.699740  0.757410  1.0  -0.518
  O  O713  1  0.375590  0.743520  0.693250  1.0  -0.5006
  O  O714  1  0.381850  0.666090  0.689270  1.0  -0.5439
  O  O715  1  0.873430  0.199740  0.757410  1.0  -0.518
  O  O716  1  0.875590  0.243520  0.693250  1.0  -0.5006
  O  O717  1  0.881850  0.166090  0.689270  1.0  -0.5439
  O  O718  1  0.873430  0.699740  0.257410  1.0  -0.518
  O  O719  1  0.875590  0.743520  0.193250  1.0  -0.5006
  O  O720  1  0.881850  0.666090  0.189270  1.0  -0.5439
  O  O721  1  0.492590  0.876570  0.699740  1.0  -0.5205
  O  O722  1  0.556750  0.874410  0.743520  1.0  -0.507
  O  O723  1  0.560730  0.868150  0.666090  1.0  -0.5434
  O  O724  1  0.492590  0.376570  0.199740  1.0  -0.5205
  O  O725  1  0.556750  0.374410  0.243520  1.0  -0.507
  O  O726  1  0.560730  0.368150  0.166090  1.0  -0.5434
  O  O727  1  0.992590  0.876570  0.199740  1.0  -0.5205
  O  O728  1  0.056750  0.874410  0.243520  1.0  -0.507
  O  O729  1  0.060730  0.868150  0.166090  1.0  -0.5434
  O  O730  1  0.992590  0.376570  0.699740  1.0  -0.5205
  O  O731  1  0.056750  0.374410  0.743520  1.0  -0.507
  O  O732  1  0.060730  0.368150  0.666090  1.0  -0.5434
  O  O733  1  0.757410  0.376570  0.050260  1.0  -0.5193
  O  O734  1  0.693250  0.374410  0.006480  1.0  -0.5061
  O  O735  1  0.689270  0.368150  0.083910  1.0  -0.5434
  O  O736  1  0.757410  0.876570  0.550260  1.0  -0.5193
  O  O737  1  0.693250  0.874410  0.506480  1.0  -0.5061
  O  O738  1  0.689270  0.868150  0.583910  1.0  -0.5434
  O  O739  1  0.257410  0.376570  0.550260  1.0  -0.5193
  O  O740  1  0.193250  0.374410  0.506480  1.0  -0.5061
  O  O741  1  0.189270  0.368150  0.583910  1.0  -0.5434
  O  O742  1  0.257410  0.876570  0.050260  1.0  -0.5193
  O  O743  1  0.193250  0.874410  0.006480  1.0  -0.5061
  O  O744  1  0.189270  0.868150  0.083910  1.0  -0.5434
  O  O745  1  0.992590  0.873430  0.550260  1.0  -0.5195
  O  O746  1  0.056750  0.875590  0.506480  1.0  -0.5059
  O  O747  1  0.060730  0.881850  0.583910  1.0  -0.5431
  O  O748  1  0.992590  0.373430  0.050260  1.0  -0.5195
  O  O749  1  0.056750  0.375590  0.006480  1.0  -0.5059
  O  O750  1  0.060730  0.381850  0.083910  1.0  -0.5431
  O  O751  1  0.492590  0.873430  0.050260  1.0  -0.5195
  O  O752  1  0.556750  0.875590  0.006480  1.0  -0.5059
  O  O753  1  0.560730  0.881850  0.083910  1.0  -0.5431
  O  O754  1  0.492590  0.373430  0.550260  1.0  -0.5195
  O  O755  1  0.556750  0.375590  0.506480  1.0  -0.5059
  O  O756  1  0.560730  0.381850  0.583910  1.0  -0.5431
  O  O757  1  0.257410  0.373430  0.199740  1.0  -0.518
  O  O758  1  0.193250  0.375590  0.243520  1.0  -0.5073
  O  O759  1  0.189270  0.381850  0.166090  1.0  -0.5418
  O  O760  1  0.257410  0.873430  0.699740  1.0  -0.518
  O  O761  1  0.193250  0.875590  0.743520  1.0  -0.5073
  O  O762  1  0.189270  0.881850  0.666090  1.0  -0.5418
  O  O763  1  0.757410  0.373430  0.699740  1.0  -0.518
  O  O764  1  0.693250  0.375590  0.743520  1.0  -0.5073
  O  O765  1  0.689270  0.381850  0.666090  1.0  -0.5418
  O  O766  1  0.757410  0.873430  0.199740  1.0  -0.518
  O  O767  1  0.693250  0.875590  0.243520  1.0  -0.5073
  O  O768  1  0.689270  0.881850  0.166090  1.0  -0.5418
  O  O769  1  0.742590  0.449740  0.123430  1.0  -0.5226
  O  O770  1  0.806750  0.493520  0.125590  1.0  -0.5047
  O  O771  1  0.810730  0.416090  0.131850  1.0  -0.5437
  O  O772  1  0.742590  0.949740  0.623430  1.0  -0.5226
  O  O773  1  0.806750  0.993520  0.625590  1.0  -0.5047
  O  O774  1  0.810730  0.916090  0.631850  1.0  -0.5437
  O  O775  1  0.242590  0.449740  0.623430  1.0  -0.5226
  O  O776  1  0.306750  0.493520  0.625590  1.0  -0.5047
  O  O777  1  0.310730  0.416090  0.631850  1.0  -0.5437
  O  O778  1  0.242590  0.949740  0.123430  1.0  -0.5226
  O  O779  1  0.306750  0.993520  0.125590  1.0  -0.5047
  O  O780  1  0.310730  0.916090  0.131850  1.0  -0.5437
  O  O781  1  0.007410  0.800260  0.623430  1.0  -0.5202
  O  O782  1  0.943250  0.756480  0.625590  1.0  -0.5058
  O  O783  1  0.939270  0.833910  0.631850  1.0  -0.5433
  O  O784  1  0.007410  0.300260  0.123430  1.0  -0.5202
  O  O785  1  0.943250  0.256480  0.125590  1.0  -0.5058
  O  O786  1  0.939270  0.333910  0.131850  1.0  -0.5433
  O  O787  1  0.507410  0.800260  0.123430  1.0  -0.5202
  O  O788  1  0.443250  0.756480  0.125590  1.0  -0.5058
  O  O789  1  0.439270  0.833910  0.131850  1.0  -0.5433
  O  O790  1  0.507410  0.300260  0.623430  1.0  -0.5202
  O  O791  1  0.443250  0.256480  0.625590  1.0  -0.5058
  O  O792  1  0.439270  0.333910  0.631850  1.0  -0.5433
  O  O793  1  0.242590  0.300260  0.126570  1.0  -0.5213
  O  O794  1  0.306750  0.256480  0.124410  1.0  -0.5046
  O  O795  1  0.310730  0.333910  0.118150  1.0  -0.5437
  O  O796  1  0.242590  0.800260  0.626570  1.0  -0.5213
  O  O797  1  0.306750  0.756480  0.624410  1.0  -0.5046
  O  O798  1  0.310730  0.833910  0.618150  1.0  -0.5437
  O  O799  1  0.742590  0.300260  0.626570  1.0  -0.5213
  O  O800  1  0.806750  0.256480  0.624410  1.0  -0.5046
  O  O801  1  0.810730  0.333910  0.618150  1.0  -0.5437
  O  O802  1  0.742590  0.800260  0.126570  1.0  -0.5213
  O  O803  1  0.806750  0.756480  0.124410  1.0  -0.5046
  O  O804  1  0.810730  0.833910  0.118150  1.0  -0.5437
  O  O805  1  0.507410  0.949740  0.626570  1.0  -0.5209
  O  O806  1  0.443250  0.993520  0.624410  1.0  -0.5044
  O  O807  1  0.439270  0.916090  0.618150  1.0  -0.5441
  O  O808  1  0.507410  0.449740  0.126570  1.0  -0.5209
  O  O809  1  0.443250  0.493520  0.124410  1.0  -0.5044
  O  O810  1  0.439270  0.416090  0.118150  1.0  -0.5441
  O  O811  1  0.007410  0.949740  0.126570  1.0  -0.5209
  O  O812  1  0.943250  0.993520  0.124410  1.0  -0.5044
  O  O813  1  0.939270  0.916090  0.118150  1.0  -0.5441
  O  O814  1  0.007410  0.449740  0.626570  1.0  -0.5209
  O  O815  1  0.943250  0.493520  0.624410  1.0  -0.5044
  O  O816  1  0.939270  0.416090  0.618150  1.0  -0.5441
  O  O817  1  0.949740  0.626570  0.507410  1.0  -0.5149
  O  O818  1  0.993520  0.624410  0.443250  1.0  -0.5043
  O  O819  1  0.916090  0.618150  0.439270  1.0  -0.5427
  O  O820  1  0.949740  0.126570  0.007410  1.0  -0.5149
  O  O821  1  0.993520  0.124410  0.943250  1.0  -0.5043
  O  O822  1  0.916090  0.118150  0.939270  1.0  -0.5427
  O  O823  1  0.449740  0.626570  0.007410  1.0  -0.5149
  O  O824  1  0.493520  0.624410  0.943250  1.0  -0.5043
  O  O825  1  0.416090  0.618150  0.939270  1.0  -0.5427
  O  O826  1  0.449740  0.126570  0.507410  1.0  -0.5149
  O  O827  1  0.493520  0.124410  0.443250  1.0  -0.5043
  O  O828  1  0.416090  0.118150  0.439270  1.0  -0.5427
  O  O829  1  0.300260  0.126570  0.242590  1.0  -0.5173
  O  O830  1  0.256480  0.124410  0.306750  1.0  -0.5036
  O  O831  1  0.333910  0.118150  0.310730  1.0  -0.5434
  O  O832  1  0.300260  0.626570  0.742590  1.0  -0.5173
  O  O833  1  0.256480  0.624410  0.806750  1.0  -0.5036
  O  O834  1  0.333910  0.618150  0.810730  1.0  -0.5434
  O  O835  1  0.800260  0.126570  0.742590  1.0  -0.5173
  O  O836  1  0.756480  0.124410  0.806750  1.0  -0.5036
  O  O837  1  0.833910  0.118150  0.810730  1.0  -0.5434
  O  O838  1  0.800260  0.626570  0.242590  1.0  -0.5173
  O  O839  1  0.756480  0.624410  0.306750  1.0  -0.5036
  O  O840  1  0.833910  0.618150  0.310730  1.0  -0.5434
  O  O841  1  0.800260  0.623430  0.007410  1.0  -0.5151
  O  O842  1  0.756480  0.625590  0.943250  1.0  -0.5042
  O  O843  1  0.833910  0.631850  0.939270  1.0  -0.5422
  O  O844  1  0.800260  0.123430  0.507410  1.0  -0.5151
  O  O845  1  0.756480  0.125590  0.443250  1.0  -0.5042
  O  O846  1  0.833910  0.131850  0.439270  1.0  -0.5422
  O  O847  1  0.300260  0.623430  0.507410  1.0  -0.5151
  O  O848  1  0.256480  0.625590  0.443250  1.0  -0.5042
  O  O849  1  0.333910  0.631850  0.439270  1.0  -0.5422
  O  O850  1  0.300260  0.123430  0.007410  1.0  -0.5151
  O  O851  1  0.256480  0.125590  0.943250  1.0  -0.5042
  O  O852  1  0.333910  0.131850  0.939270  1.0  -0.5422
  O  O853  1  0.449740  0.123430  0.742590  1.0  -0.517
  O  O854  1  0.493520  0.125590  0.806750  1.0  -0.5041
  O  O855  1  0.416090  0.131850  0.810730  1.0  -0.5428
  O  O856  1  0.449740  0.623430  0.242590  1.0  -0.517
  O  O857  1  0.493520  0.625590  0.306750  1.0  -0.5041
  O  O858  1  0.416090  0.631850  0.310730  1.0  -0.5428
  O  O859  1  0.949740  0.123430  0.242590  1.0  -0.517
  O  O860  1  0.993520  0.125590  0.306750  1.0  -0.5041
  O  O861  1  0.916090  0.131850  0.310730  1.0  -0.5428
  O  O862  1  0.949740  0.623430  0.742590  1.0  -0.517
  O  O863  1  0.993520  0.625590  0.806750  1.0  -0.5041
  O  O864  1  0.916090  0.631850  0.810730  1.0  -0.5428
  O  O865  1  0.126570  0.242590  0.300260  1.0  -0.5202
  O  O866  1  0.124410  0.306750  0.256480  1.0  -0.5029
  O  O867  1  0.118150  0.310730  0.333910  1.0  -0.5449
  O  O868  1  0.126570  0.742590  0.800260  1.0  -0.5202
  O  O869  1  0.124410  0.806750  0.756480  1.0  -0.5029
  O  O870  1  0.118150  0.810730  0.833910  1.0  -0.5449
  O  O871  1  0.626570  0.242590  0.800260  1.0  -0.5202
  O  O872  1  0.624410  0.306750  0.756480  1.0  -0.5029
  O  O873  1  0.618150  0.310730  0.833910  1.0  -0.5449
  O  O874  1  0.626570  0.742590  0.300260  1.0  -0.5202
  O  O875  1  0.624410  0.806750  0.256480  1.0  -0.5029
  O  O876  1  0.618150  0.810730  0.333910  1.0  -0.5449
  O  O877  1  0.626570  0.507410  0.949740  1.0  -0.5201
  O  O878  1  0.624410  0.443250  0.993520  1.0  -0.5036
  O  O879  1  0.618150  0.439270  0.916090  1.0  -0.5438
  O  O880  1  0.626570  0.007410  0.449740  1.0  -0.5201
  O  O881  1  0.624410  0.943250  0.493520  1.0  -0.5036
  O  O882  1  0.618150  0.939270  0.416090  1.0  -0.5438
  O  O883  1  0.126570  0.507410  0.449740  1.0  -0.5201
  O  O884  1  0.124410  0.443250  0.493520  1.0  -0.5036
  O  O885  1  0.118150  0.439270  0.416090  1.0  -0.5438
  O  O886  1  0.126570  0.007410  0.949740  1.0  -0.5201
  O  O887  1  0.124410  0.943250  0.993520  1.0  -0.5036
  O  O888  1  0.118150  0.939270  0.916090  1.0  -0.5438
  O  O889  1  0.123430  0.742590  0.449740  1.0  -0.5206
  O  O890  1  0.125590  0.806750  0.493520  1.0  -0.5041
  O  O891  1  0.131850  0.810730  0.416090  1.0  -0.5438
  O  O892  1  0.123430  0.242590  0.949740  1.0  -0.5206
  O  O893  1  0.125590  0.306750  0.993520  1.0  -0.5041
  O  O894  1  0.131850  0.310730  0.916090  1.0  -0.5438
  O  O895  1  0.623430  0.742590  0.949740  1.0  -0.5206
  O  O896  1  0.625590  0.806750  0.993520  1.0  -0.5041
  O  O897  1  0.631850  0.810730  0.916090  1.0  -0.5438
  O  O898  1  0.623430  0.242590  0.449740  1.0  -0.5206
  O  O899  1  0.625590  0.306750  0.493520  1.0  -0.5041
  O  O900  1  0.631850  0.310730  0.416090  1.0  -0.5438
  O  O901  1  0.623430  0.007410  0.800260  1.0  -0.5214
  O  O902  1  0.625590  0.943250  0.756480  1.0  -0.5027
  O  O903  1  0.631850  0.939270  0.833910  1.0  -0.5447
  O  O904  1  0.623430  0.507410  0.300260  1.0  -0.5214
  O  O905  1  0.625590  0.443250  0.256480  1.0  -0.5027
  O  O906  1  0.631850  0.439270  0.333910  1.0  -0.5447
  O  O907  1  0.123430  0.007410  0.300260  1.0  -0.5214
  O  O908  1  0.125590  0.943250  0.256480  1.0  -0.5027
  O  O909  1  0.131850  0.939270  0.333910  1.0  -0.5447
  O  O910  1  0.123430  0.507410  0.800260  1.0  -0.5214
  O  O911  1  0.125590  0.443250  0.756480  1.0  -0.5027
  O  O912  1  0.131850  0.439270  0.833910  1.0  -0.5447
