# generated using pymatgen
data_NaFe2(CO3)4
_symmetry_space_group_name_H-M   'P 1'
_cell_length_a   29.01910000
_cell_length_b   29.01910000
_cell_length_c   29.01910000
_cell_angle_alpha   90.00000000
_cell_angle_beta   90.00000000
_cell_angle_gamma   90.00000000
_symmetry_Int_Tables_number   1
_chemical_formula_structural   NaFe2(CO3)4
_chemical_formula_sum   'Na48 Fe96 C192 O576'
_cell_volume   24437.22104544
_cell_formula_units_Z   48
loop_
 _symmetry_equiv_pos_site_id
 _symmetry_equiv_pos_as_xyz
  1  'x, y, z'
loop_
 _atom_site_type_symbol
 _atom_site_label
 _atom_site_symmetry_multiplicity
 _atom_site_fract_x
 _atom_site_fract_y
 _atom_site_fract_z
 _atom_site_occupancy
 _atom_site_charge
  Na  Na1  1  0.625000  0.625000  0.875000  1.0  1.0618
  Na  Na2  1  0.625000  0.125000  0.375000  1.0  1.0618
  Na  Na3  1  0.125000  0.125000  0.375000  1.0  1.0618
  Na  Na4  1  0.125000  0.625000  0.875000  1.0  1.0618
  Na  Na5  1  0.875000  0.625000  0.625000  1.0  1.0618
  Na  Na6  1  0.875000  0.125000  0.125000  1.0  1.0618
  Na  Na7  1  0.375000  0.625000  0.125000  1.0  1.0618
  Na  Na8  1  0.375000  0.125000  0.125000  1.0  1.0618
  Na  Na9  1  0.375000  0.625000  0.625000  1.0  1.0618
  Na  Na10  1  0.875000  0.125000  0.625000  1.0  1.0618
  Na  Na11  1  0.625000  0.875000  0.625000  1.0  1.0618
  Na  Na12  1  0.125000  0.375000  0.625000  1.0  1.0618
  Na  Na13  1  0.125000  0.875000  0.125000  1.0  1.0618
  Na  Na14  1  0.125000  0.375000  0.125000  1.0  1.0618
  Na  Na15  1  0.625000  0.875000  0.125000  1.0  1.0618
  Na  Na16  1  0.625000  0.375000  0.625000  1.0  1.0618
  Na  Na17  1  0.375000  0.875000  0.125000  1.0  1.0618
  Na  Na18  1  0.375000  0.375000  0.625000  1.0  1.0618
  Na  Na19  1  0.875000  0.875000  0.625000  1.0  1.0618
  Na  Na20  1  0.875000  0.375000  0.625000  1.0  1.0618
  Na  Na21  1  0.875000  0.875000  0.125000  1.0  1.0618
  Na  Na22  1  0.375000  0.375000  0.125000  1.0  1.0618
  Na  Na23  1  0.375000  0.125000  0.375000  1.0  1.0618
  Na  Na24  1  0.375000  0.625000  0.875000  1.0  1.0618
  Na  Na25  1  0.875000  0.625000  0.875000  1.0  1.0618
  Na  Na26  1  0.875000  0.125000  0.375000  1.0  1.0618
  Na  Na27  1  0.625000  0.875000  0.375000  1.0  1.0618
  Na  Na28  1  0.125000  0.375000  0.375000  1.0  1.0618
  Na  Na29  1  0.125000  0.875000  0.875000  1.0  1.0618
  Na  Na30  1  0.125000  0.375000  0.875000  1.0  1.0618
  Na  Na31  1  0.625000  0.875000  0.875000  1.0  1.0618
  Na  Na32  1  0.625000  0.375000  0.375000  1.0  1.0618
  Na  Na33  1  0.375000  0.875000  0.625000  1.0  1.0618
  Na  Na34  1  0.875000  0.375000  0.125000  1.0  1.0618
  Na  Na35  1  0.625000  0.375000  0.875000  1.0  1.0618
  Na  Na36  1  0.125000  0.875000  0.375000  1.0  1.0618
  Na  Na37  1  0.875000  0.625000  0.375000  1.0  1.0618
  Na  Na38  1  0.875000  0.125000  0.875000  1.0  1.0618
  Na  Na39  1  0.375000  0.125000  0.875000  1.0  1.0618
  Na  Na40  1  0.375000  0.625000  0.375000  1.0  1.0618
  Na  Na41  1  0.625000  0.125000  0.875000  1.0  1.0618
  Na  Na42  1  0.625000  0.625000  0.375000  1.0  1.0618
  Na  Na43  1  0.125000  0.625000  0.375000  1.0  1.0618
  Na  Na44  1  0.125000  0.125000  0.875000  1.0  1.0618
  Na  Na45  1  0.625000  0.375000  0.125000  1.0  1.0618
  Na  Na46  1  0.125000  0.875000  0.625000  1.0  1.0618
  Na  Na47  1  0.375000  0.125000  0.625000  1.0  1.0618
  Na  Na48  1  0.875000  0.625000  0.125000  1.0  1.0618
  Fe  Fe49  1  0.750000  0.626500  0.873500  1.0  1.0108
  Fe  Fe50  1  0.750000  0.126500  0.373500  1.0  1.0108
  Fe  Fe51  1  0.250000  0.626500  0.373500  1.0  1.0108
  Fe  Fe52  1  0.250000  0.126500  0.873500  1.0  1.0108
  Fe  Fe53  1  0.500000  0.123500  0.373500  1.0  1.0105
  Fe  Fe54  1  0.500000  0.623500  0.873500  1.0  1.0105
  Fe  Fe55  1  0.000000  0.123500  0.873500  1.0  1.0105
  Fe  Fe56  1  0.000000  0.623500  0.373500  1.0  1.0105
  Fe  Fe57  1  0.000000  0.126500  0.376500  1.0  1.0102
  Fe  Fe58  1  0.000000  0.626500  0.876500  1.0  1.0102
  Fe  Fe59  1  0.500000  0.126500  0.876500  1.0  1.0102
  Fe  Fe60  1  0.500000  0.626500  0.376500  1.0  1.0102
  Fe  Fe61  1  0.250000  0.623500  0.876500  1.0  1.0108
  Fe  Fe62  1  0.250000  0.123500  0.376500  1.0  1.0108
  Fe  Fe63  1  0.750000  0.623500  0.376500  1.0  1.0108
  Fe  Fe64  1  0.750000  0.123500  0.876500  1.0  1.0108
  Fe  Fe65  1  0.873500  0.750000  0.626500  1.0  1.0093
  Fe  Fe66  1  0.873500  0.250000  0.126500  1.0  1.0093
  Fe  Fe67  1  0.373500  0.750000  0.126500  1.0  1.0093
  Fe  Fe68  1  0.373500  0.250000  0.626500  1.0  1.0093
  Fe  Fe69  1  0.373500  0.500000  0.123500  1.0  1.0093
  Fe  Fe70  1  0.373500  0.000000  0.623500  1.0  1.0093
  Fe  Fe71  1  0.873500  0.500000  0.623500  1.0  1.0093
  Fe  Fe72  1  0.873500  0.000000  0.123500  1.0  1.0093
  Fe  Fe73  1  0.376500  0.000000  0.126500  1.0  1.0099
  Fe  Fe74  1  0.376500  0.500000  0.626500  1.0  1.0099
  Fe  Fe75  1  0.876500  0.000000  0.626500  1.0  1.0099
  Fe  Fe76  1  0.876500  0.500000  0.126500  1.0  1.0099
  Fe  Fe77  1  0.876500  0.250000  0.623500  1.0  1.0102
  Fe  Fe78  1  0.876500  0.750000  0.123500  1.0  1.0102
  Fe  Fe79  1  0.376500  0.250000  0.123500  1.0  1.0102
  Fe  Fe80  1  0.376500  0.750000  0.623500  1.0  1.0102
  Fe  Fe81  1  0.626500  0.873500  0.750000  1.0  1.0098
  Fe  Fe82  1  0.626500  0.373500  0.250000  1.0  1.0098
  Fe  Fe83  1  0.126500  0.873500  0.250000  1.0  1.0098
  Fe  Fe84  1  0.126500  0.373500  0.750000  1.0  1.0098
  Fe  Fe85  1  0.123500  0.373500  0.500000  1.0  1.0078
  Fe  Fe86  1  0.123500  0.873500  0.000000  1.0  1.0078
  Fe  Fe87  1  0.623500  0.373500  0.000000  1.0  1.0078
  Fe  Fe88  1  0.623500  0.873500  0.500000  1.0  1.0078
  Fe  Fe89  1  0.126500  0.376500  0.000000  1.0  1.0094
  Fe  Fe90  1  0.126500  0.876500  0.500000  1.0  1.0094
  Fe  Fe91  1  0.626500  0.376500  0.500000  1.0  1.0094
  Fe  Fe92  1  0.626500  0.876500  0.000000  1.0  1.0094
  Fe  Fe93  1  0.623500  0.876500  0.250000  1.0  1.0091
  Fe  Fe94  1  0.623500  0.376500  0.750000  1.0  1.0091
  Fe  Fe95  1  0.123500  0.876500  0.750000  1.0  1.0091
  Fe  Fe96  1  0.123500  0.376500  0.250000  1.0  1.0091
  Fe  Fe97  1  0.250000  0.373500  0.126500  1.0  1.0108
  Fe  Fe98  1  0.250000  0.873500  0.626500  1.0  1.0108
  Fe  Fe99  1  0.750000  0.373500  0.626500  1.0  1.0108
  Fe  Fe100  1  0.750000  0.873500  0.126500  1.0  1.0108
  Fe  Fe101  1  0.500000  0.876500  0.626500  1.0  1.0102
  Fe  Fe102  1  0.500000  0.376500  0.126500  1.0  1.0102
  Fe  Fe103  1  0.000000  0.876500  0.126500  1.0  1.0102
  Fe  Fe104  1  0.000000  0.376500  0.626500  1.0  1.0102
  Fe  Fe105  1  0.000000  0.873500  0.623500  1.0  1.0105
  Fe  Fe106  1  0.000000  0.373500  0.123500  1.0  1.0105
  Fe  Fe107  1  0.500000  0.873500  0.123500  1.0  1.0105
  Fe  Fe108  1  0.500000  0.373500  0.623500  1.0  1.0105
  Fe  Fe109  1  0.750000  0.376500  0.123500  1.0  1.0108
  Fe  Fe110  1  0.750000  0.876500  0.623500  1.0  1.0108
  Fe  Fe111  1  0.250000  0.376500  0.623500  1.0  1.0108
  Fe  Fe112  1  0.250000  0.876500  0.123500  1.0  1.0108
  Fe  Fe113  1  0.126500  0.250000  0.373500  1.0  1.0102
  Fe  Fe114  1  0.126500  0.750000  0.873500  1.0  1.0102
  Fe  Fe115  1  0.626500  0.250000  0.873500  1.0  1.0102
  Fe  Fe116  1  0.626500  0.750000  0.373500  1.0  1.0102
  Fe  Fe117  1  0.626500  0.500000  0.876500  1.0  1.0099
  Fe  Fe118  1  0.626500  0.000000  0.376500  1.0  1.0099
  Fe  Fe119  1  0.126500  0.500000  0.376500  1.0  1.0099
  Fe  Fe120  1  0.126500  0.000000  0.876500  1.0  1.0099
  Fe  Fe121  1  0.623500  0.000000  0.873500  1.0  1.0082
  Fe  Fe122  1  0.623500  0.500000  0.373500  1.0  1.0082
  Fe  Fe123  1  0.123500  0.000000  0.373500  1.0  1.0082
  Fe  Fe124  1  0.123500  0.500000  0.873500  1.0  1.0082
  Fe  Fe125  1  0.123500  0.750000  0.376500  1.0  1.0096
  Fe  Fe126  1  0.123500  0.250000  0.876500  1.0  1.0096
  Fe  Fe127  1  0.623500  0.750000  0.876500  1.0  1.0096
  Fe  Fe128  1  0.623500  0.250000  0.376500  1.0  1.0096
  Fe  Fe129  1  0.373500  0.126500  0.250000  1.0  1.0091
  Fe  Fe130  1  0.373500  0.626500  0.750000  1.0  1.0091
  Fe  Fe131  1  0.873500  0.126500  0.750000  1.0  1.0091
  Fe  Fe132  1  0.873500  0.626500  0.250000  1.0  1.0091
  Fe  Fe133  1  0.876500  0.626500  0.500000  1.0  1.0094
  Fe  Fe134  1  0.876500  0.126500  0.000000  1.0  1.0094
  Fe  Fe135  1  0.376500  0.626500  0.000000  1.0  1.0094
  Fe  Fe136  1  0.376500  0.126500  0.500000  1.0  1.0094
  Fe  Fe137  1  0.873500  0.623500  0.000000  1.0  1.0078
  Fe  Fe138  1  0.873500  0.123500  0.500000  1.0  1.0078
  Fe  Fe139  1  0.373500  0.623500  0.500000  1.0  1.0078
  Fe  Fe140  1  0.373500  0.123500  0.000000  1.0  1.0078
  Fe  Fe141  1  0.376500  0.123500  0.750000  1.0  1.0098
  Fe  Fe142  1  0.376500  0.623500  0.250000  1.0  1.0098
  Fe  Fe143  1  0.876500  0.123500  0.250000  1.0  1.0098
  Fe  Fe144  1  0.876500  0.623500  0.750000  1.0  1.0098
  C  C145  1  0.787150  0.624750  0.792510  1.0  0.8815
  C  C146  1  0.787150  0.124750  0.292510  1.0  0.8815
  C  C147  1  0.287150  0.624750  0.292510  1.0  0.8815
  C  C148  1  0.287150  0.124750  0.792510  1.0  0.8815
  C  C149  1  0.462850  0.125250  0.292510  1.0  0.882
  C  C150  1  0.462850  0.625250  0.792510  1.0  0.882
  C  C151  1  0.962850  0.125250  0.792510  1.0  0.882
  C  C152  1  0.962850  0.625250  0.292510  1.0  0.882
  C  C153  1  0.962850  0.124750  0.457490  1.0  0.8815
  C  C154  1  0.962850  0.624750  0.957490  1.0  0.8815
  C  C155  1  0.462850  0.124750  0.957490  1.0  0.8815
  C  C156  1  0.462850  0.624750  0.457490  1.0  0.8815
  C  C157  1  0.287150  0.625250  0.957490  1.0  0.881
  C  C158  1  0.287150  0.125250  0.457490  1.0  0.881
  C  C159  1  0.787150  0.625250  0.457490  1.0  0.881
  C  C160  1  0.787150  0.125250  0.957490  1.0  0.881
  C  C161  1  0.792510  0.787150  0.624750  1.0  0.8814
  C  C162  1  0.792510  0.287150  0.124750  1.0  0.8814
  C  C163  1  0.292510  0.787150  0.124750  1.0  0.8814
  C  C164  1  0.292510  0.287150  0.624750  1.0  0.8814
  C  C165  1  0.292510  0.462850  0.125250  1.0  0.8813
  C  C166  1  0.292510  0.962850  0.625250  1.0  0.8813
  C  C167  1  0.792510  0.462850  0.625250  1.0  0.8813
  C  C168  1  0.792510  0.962850  0.125250  1.0  0.8813
  C  C169  1  0.457490  0.962850  0.124750  1.0  0.8816
  C  C170  1  0.457490  0.462850  0.624750  1.0  0.8816
  C  C171  1  0.957490  0.962850  0.624750  1.0  0.8816
  C  C172  1  0.957490  0.462850  0.124750  1.0  0.8816
  C  C173  1  0.957490  0.287150  0.625250  1.0  0.8821
  C  C174  1  0.957490  0.787150  0.125250  1.0  0.8821
  C  C175  1  0.457490  0.287150  0.125250  1.0  0.8821
  C  C176  1  0.457490  0.787150  0.625250  1.0  0.8821
  C  C177  1  0.624750  0.792510  0.787150  1.0  0.8824
  C  C178  1  0.624750  0.292510  0.287150  1.0  0.8824
  C  C179  1  0.124750  0.792510  0.287150  1.0  0.8824
  C  C180  1  0.124750  0.292510  0.787150  1.0  0.8824
  C  C181  1  0.125250  0.292510  0.462850  1.0  0.8816
  C  C182  1  0.125250  0.792510  0.962850  1.0  0.8816
  C  C183  1  0.625250  0.292510  0.962850  1.0  0.8816
  C  C184  1  0.625250  0.792510  0.462850  1.0  0.8816
  C  C185  1  0.124750  0.457490  0.962850  1.0  0.8812
  C  C186  1  0.124750  0.957490  0.462850  1.0  0.8812
  C  C187  1  0.624750  0.457490  0.462850  1.0  0.8812
  C  C188  1  0.624750  0.957490  0.962850  1.0  0.8812
  C  C189  1  0.625250  0.957490  0.287150  1.0  0.8822
  C  C190  1  0.625250  0.457490  0.787150  1.0  0.8822
  C  C191  1  0.125250  0.957490  0.787150  1.0  0.8822
  C  C192  1  0.125250  0.457490  0.287150  1.0  0.8822
  C  C193  1  0.374750  0.037150  0.207490  1.0  0.8818
  C  C194  1  0.374750  0.537150  0.707490  1.0  0.8818
  C  C195  1  0.874750  0.037150  0.707490  1.0  0.8818
  C  C196  1  0.874750  0.537150  0.207490  1.0  0.8818
  C  C197  1  0.875250  0.712850  0.707490  1.0  0.8814
  C  C198  1  0.875250  0.212850  0.207490  1.0  0.8814
  C  C199  1  0.375250  0.712850  0.207490  1.0  0.8814
  C  C200  1  0.375250  0.212850  0.707490  1.0  0.8814
  C  C201  1  0.874750  0.212850  0.542510  1.0  0.8822
  C  C202  1  0.874750  0.712850  0.042510  1.0  0.8822
  C  C203  1  0.374750  0.212850  0.042510  1.0  0.8822
  C  C204  1  0.374750  0.712850  0.542510  1.0  0.8822
  C  C205  1  0.375250  0.537150  0.042510  1.0  0.8821
  C  C206  1  0.375250  0.037150  0.542510  1.0  0.8821
  C  C207  1  0.875250  0.537150  0.542510  1.0  0.8821
  C  C208  1  0.875250  0.037150  0.042510  1.0  0.8821
  C  C209  1  0.537150  0.042510  0.375250  1.0  0.8816
  C  C210  1  0.537150  0.542510  0.875250  1.0  0.8816
  C  C211  1  0.037150  0.042510  0.875250  1.0  0.8816
  C  C212  1  0.037150  0.542510  0.375250  1.0  0.8816
  C  C213  1  0.212850  0.542510  0.874750  1.0  0.8819
  C  C214  1  0.212850  0.042510  0.374750  1.0  0.8819
  C  C215  1  0.712850  0.542510  0.374750  1.0  0.8819
  C  C216  1  0.712850  0.042510  0.874750  1.0  0.8819
  C  C217  1  0.712850  0.707490  0.875250  1.0  0.8817
  C  C218  1  0.712850  0.207490  0.375250  1.0  0.8817
  C  C219  1  0.212850  0.707490  0.375250  1.0  0.8817
  C  C220  1  0.212850  0.207490  0.875250  1.0  0.8817
  C  C221  1  0.037150  0.207490  0.374750  1.0  0.8811
  C  C222  1  0.037150  0.707490  0.874750  1.0  0.8811
  C  C223  1  0.537150  0.207490  0.874750  1.0  0.8811
  C  C224  1  0.537150  0.707490  0.374750  1.0  0.8811
  C  C225  1  0.542510  0.874750  0.212850  1.0  0.8811
  C  C226  1  0.542510  0.374750  0.712850  1.0  0.8811
  C  C227  1  0.042510  0.874750  0.712850  1.0  0.8811
  C  C228  1  0.042510  0.374750  0.212850  1.0  0.8811
  C  C229  1  0.042510  0.375250  0.537150  1.0  0.882
  C  C230  1  0.042510  0.875250  0.037150  1.0  0.882
  C  C231  1  0.542510  0.375250  0.037150  1.0  0.882
  C  C232  1  0.542510  0.875250  0.537150  1.0  0.882
  C  C233  1  0.207490  0.374750  0.037150  1.0  0.8825
  C  C234  1  0.207490  0.874750  0.537150  1.0  0.8825
  C  C235  1  0.707490  0.374750  0.537150  1.0  0.8825
  C  C236  1  0.707490  0.874750  0.037150  1.0  0.8825
  C  C237  1  0.707490  0.875250  0.712850  1.0  0.8815
  C  C238  1  0.707490  0.375250  0.212850  1.0  0.8815
  C  C239  1  0.207490  0.875250  0.212850  1.0  0.8815
  C  C240  1  0.207490  0.375250  0.712850  1.0  0.8815
  C  C241  1  0.212850  0.375250  0.207490  1.0  0.8815
  C  C242  1  0.212850  0.875250  0.707490  1.0  0.8815
  C  C243  1  0.712850  0.375250  0.707490  1.0  0.8815
  C  C244  1  0.712850  0.875250  0.207490  1.0  0.8815
  C  C245  1  0.537150  0.874750  0.707490  1.0  0.881
  C  C246  1  0.537150  0.374750  0.207490  1.0  0.881
  C  C247  1  0.037150  0.874750  0.207490  1.0  0.881
  C  C248  1  0.037150  0.374750  0.707490  1.0  0.881
  C  C249  1  0.037150  0.875250  0.542510  1.0  0.8815
  C  C250  1  0.037150  0.375250  0.042510  1.0  0.8815
  C  C251  1  0.537150  0.875250  0.042510  1.0  0.8815
  C  C252  1  0.537150  0.375250  0.542510  1.0  0.8815
  C  C253  1  0.712850  0.374750  0.042510  1.0  0.8819
  C  C254  1  0.712850  0.874750  0.542510  1.0  0.8819
  C  C255  1  0.212850  0.374750  0.542510  1.0  0.8819
  C  C256  1  0.212850  0.874750  0.042510  1.0  0.8819
  C  C257  1  0.207490  0.212850  0.375250  1.0  0.8817
  C  C258  1  0.207490  0.712850  0.875250  1.0  0.8817
  C  C259  1  0.707490  0.212850  0.875250  1.0  0.8817
  C  C260  1  0.707490  0.712850  0.375250  1.0  0.8817
  C  C261  1  0.707490  0.537150  0.874750  1.0  0.8821
  C  C262  1  0.707490  0.037150  0.374750  1.0  0.8821
  C  C263  1  0.207490  0.537150  0.374750  1.0  0.8821
  C  C264  1  0.207490  0.037150  0.874750  1.0  0.8821
  C  C265  1  0.542510  0.037150  0.875250  1.0  0.8815
  C  C266  1  0.542510  0.537150  0.375250  1.0  0.8815
  C  C267  1  0.042510  0.037150  0.375250  1.0  0.8815
  C  C268  1  0.042510  0.537150  0.875250  1.0  0.8815
  C  C269  1  0.042510  0.712850  0.374750  1.0  0.8813
  C  C270  1  0.042510  0.212850  0.874750  1.0  0.8813
  C  C271  1  0.542510  0.712850  0.874750  1.0  0.8813
  C  C272  1  0.542510  0.212850  0.374750  1.0  0.8813
  C  C273  1  0.375250  0.207490  0.212850  1.0  0.8811
  C  C274  1  0.375250  0.707490  0.712850  1.0  0.8811
  C  C275  1  0.875250  0.207490  0.712850  1.0  0.8811
  C  C276  1  0.875250  0.707490  0.212850  1.0  0.8811
  C  C277  1  0.874750  0.707490  0.537150  1.0  0.8823
  C  C278  1  0.874750  0.207490  0.037150  1.0  0.8823
  C  C279  1  0.374750  0.707490  0.037150  1.0  0.8823
  C  C280  1  0.374750  0.207490  0.537150  1.0  0.8823
  C  C281  1  0.875250  0.542510  0.037150  1.0  0.8823
  C  C282  1  0.875250  0.042510  0.537150  1.0  0.8823
  C  C283  1  0.375250  0.542510  0.537150  1.0  0.8823
  C  C284  1  0.375250  0.042510  0.037150  1.0  0.8823
  C  C285  1  0.374750  0.042510  0.712850  1.0  0.8817
  C  C286  1  0.374750  0.542510  0.212850  1.0  0.8817
  C  C287  1  0.874750  0.042510  0.212850  1.0  0.8817
  C  C288  1  0.874750  0.542510  0.712850  1.0  0.8817
  C  C289  1  0.625250  0.962850  0.792510  1.0  0.8821
  C  C290  1  0.625250  0.462850  0.292510  1.0  0.8821
  C  C291  1  0.125250  0.962850  0.292510  1.0  0.8821
  C  C292  1  0.125250  0.462850  0.792510  1.0  0.8821
  C  C293  1  0.124750  0.287150  0.292510  1.0  0.8822
  C  C294  1  0.124750  0.787150  0.792510  1.0  0.8822
  C  C295  1  0.624750  0.287150  0.792510  1.0  0.8822
  C  C296  1  0.624750  0.787150  0.292510  1.0  0.8822
  C  C297  1  0.125250  0.787150  0.457490  1.0  0.8817
  C  C298  1  0.125250  0.287150  0.957490  1.0  0.8817
  C  C299  1  0.625250  0.787150  0.957490  1.0  0.8817
  C  C300  1  0.625250  0.287150  0.457490  1.0  0.8817
  C  C301  1  0.624750  0.462850  0.957490  1.0  0.8814
  C  C302  1  0.624750  0.962850  0.457490  1.0  0.8814
  C  C303  1  0.124750  0.462850  0.457490  1.0  0.8814
  C  C304  1  0.124750  0.962850  0.957490  1.0  0.8814
  C  C305  1  0.462850  0.957490  0.624750  1.0  0.8816
  C  C306  1  0.462850  0.457490  0.124750  1.0  0.8816
  C  C307  1  0.962850  0.957490  0.124750  1.0  0.8816
  C  C308  1  0.962850  0.457490  0.624750  1.0  0.8816
  C  C309  1  0.787150  0.457490  0.125250  1.0  0.8812
  C  C310  1  0.787150  0.957490  0.625250  1.0  0.8812
  C  C311  1  0.287150  0.457490  0.625250  1.0  0.8812
  C  C312  1  0.287150  0.957490  0.125250  1.0  0.8812
  C  C313  1  0.287150  0.292510  0.124750  1.0  0.8815
  C  C314  1  0.287150  0.792510  0.624750  1.0  0.8815
  C  C315  1  0.787150  0.292510  0.624750  1.0  0.8815
  C  C316  1  0.787150  0.792510  0.124750  1.0  0.8815
  C  C317  1  0.962850  0.792510  0.625250  1.0  0.8821
  C  C318  1  0.962850  0.292510  0.125250  1.0  0.8821
  C  C319  1  0.462850  0.792510  0.125250  1.0  0.8821
  C  C320  1  0.462850  0.292510  0.625250  1.0  0.8821
  C  C321  1  0.457490  0.125250  0.787150  1.0  0.8825
  C  C322  1  0.457490  0.625250  0.287150  1.0  0.8825
  C  C323  1  0.957490  0.125250  0.287150  1.0  0.8825
  C  C324  1  0.957490  0.625250  0.787150  1.0  0.8825
  C  C325  1  0.957490  0.624750  0.462850  1.0  0.8815
  C  C326  1  0.957490  0.124750  0.962850  1.0  0.8815
  C  C327  1  0.457490  0.624750  0.962850  1.0  0.8815
  C  C328  1  0.457490  0.124750  0.462850  1.0  0.8815
  C  C329  1  0.792510  0.625250  0.962850  1.0  0.881
  C  C330  1  0.792510  0.125250  0.462850  1.0  0.881
  C  C331  1  0.292510  0.625250  0.462850  1.0  0.881
  C  C332  1  0.292510  0.125250  0.962850  1.0  0.881
  C  C333  1  0.292510  0.124750  0.287150  1.0  0.882
  C  C334  1  0.292510  0.624750  0.787150  1.0  0.882
  C  C335  1  0.792510  0.124750  0.787150  1.0  0.882
  C  C336  1  0.792510  0.624750  0.287150  1.0  0.882
  O  O337  1  0.742800  0.625810  0.797860  1.0  -0.5508
  O  O338  1  0.804600  0.624330  0.751770  1.0  -0.5205
  O  O339  1  0.811550  0.624230  0.828900  1.0  -0.5829
  O  O340  1  0.742800  0.125810  0.297860  1.0  -0.5508
  O  O341  1  0.804600  0.124330  0.251770  1.0  -0.5205
  O  O342  1  0.811550  0.124230  0.328900  1.0  -0.5829
  O  O343  1  0.242800  0.625810  0.297860  1.0  -0.5508
  O  O344  1  0.304600  0.624330  0.251770  1.0  -0.5205
  O  O345  1  0.311550  0.624230  0.328900  1.0  -0.5829
  O  O346  1  0.242800  0.125810  0.797860  1.0  -0.5508
  O  O347  1  0.304600  0.124330  0.751770  1.0  -0.5205
  O  O348  1  0.311550  0.124230  0.828900  1.0  -0.5829
  O  O349  1  0.507200  0.124190  0.297860  1.0  -0.5505
  O  O350  1  0.445400  0.125670  0.251770  1.0  -0.5173
  O  O351  1  0.438450  0.125770  0.328900  1.0  -0.5848
  O  O352  1  0.507200  0.624190  0.797860  1.0  -0.5505
  O  O353  1  0.445400  0.625670  0.751770  1.0  -0.5173
  O  O354  1  0.438450  0.625770  0.828900  1.0  -0.5848
  O  O355  1  0.007200  0.124190  0.797860  1.0  -0.5505
  O  O356  1  0.945400  0.125670  0.751770  1.0  -0.5173
  O  O357  1  0.938450  0.125770  0.828900  1.0  -0.5839
  O  O358  1  0.007200  0.624190  0.297860  1.0  -0.5505
  O  O359  1  0.945400  0.625670  0.251770  1.0  -0.5173
  O  O360  1  0.938450  0.625770  0.328900  1.0  -0.5839
  O  O361  1  0.007200  0.125810  0.452140  1.0  -0.5534
  O  O362  1  0.945400  0.124330  0.498230  1.0  -0.5158
  O  O363  1  0.938450  0.124230  0.421100  1.0  -0.5826
  O  O364  1  0.007200  0.625810  0.952140  1.0  -0.5534
  O  O365  1  0.945400  0.624330  0.998230  1.0  -0.5158
  O  O366  1  0.938450  0.624230  0.921100  1.0  -0.5826
  O  O367  1  0.507200  0.125810  0.952140  1.0  -0.5542
  O  O368  1  0.445400  0.124330  0.998230  1.0  -0.5158
  O  O369  1  0.438450  0.124230  0.921100  1.0  -0.5826
  O  O370  1  0.507200  0.625810  0.452140  1.0  -0.5542
  O  O371  1  0.445400  0.624330  0.498230  1.0  -0.5158
  O  O372  1  0.438450  0.624230  0.421100  1.0  -0.5826
  O  O373  1  0.242800  0.624190  0.952140  1.0  -0.5519
  O  O374  1  0.304600  0.625670  0.998230  1.0  -0.5174
  O  O375  1  0.311550  0.625770  0.921100  1.0  -0.5826
  O  O376  1  0.242800  0.124190  0.452140  1.0  -0.5519
  O  O377  1  0.304600  0.125670  0.498230  1.0  -0.5174
  O  O378  1  0.311550  0.125770  0.421100  1.0  -0.5826
  O  O379  1  0.742800  0.624190  0.452140  1.0  -0.5519
  O  O380  1  0.804600  0.625670  0.498230  1.0  -0.5174
  O  O381  1  0.811550  0.625770  0.421100  1.0  -0.5826
  O  O382  1  0.742800  0.124190  0.952140  1.0  -0.5519
  O  O383  1  0.804600  0.125670  0.998230  1.0  -0.5174
  O  O384  1  0.811550  0.125770  0.921100  1.0  -0.5826
  O  O385  1  0.797860  0.742800  0.625810  1.0  -0.5536
  O  O386  1  0.751770  0.804600  0.624330  1.0  -0.5178
  O  O387  1  0.828900  0.811550  0.624230  1.0  -0.5851
  O  O388  1  0.797860  0.242800  0.125810  1.0  -0.5536
  O  O389  1  0.751770  0.304600  0.124330  1.0  -0.5178
  O  O390  1  0.828900  0.311550  0.124230  1.0  -0.5851
  O  O391  1  0.297860  0.742800  0.125810  1.0  -0.5536
  O  O392  1  0.251770  0.804600  0.124330  1.0  -0.5178
  O  O393  1  0.328900  0.811550  0.124230  1.0  -0.5851
  O  O394  1  0.297860  0.242800  0.625810  1.0  -0.5536
  O  O395  1  0.251770  0.304600  0.624330  1.0  -0.5178
  O  O396  1  0.328900  0.311550  0.624230  1.0  -0.5851
  O  O397  1  0.297860  0.507200  0.124190  1.0  -0.5528
  O  O398  1  0.251770  0.445400  0.125670  1.0  -0.5185
  O  O399  1  0.328900  0.438450  0.125770  1.0  -0.5841
  O  O400  1  0.297860  0.007200  0.624190  1.0  -0.5528
  O  O401  1  0.251770  0.945400  0.625670  1.0  -0.5185
  O  O402  1  0.328900  0.938450  0.625770  1.0  -0.5841
  O  O403  1  0.797860  0.507200  0.624190  1.0  -0.5528
  O  O404  1  0.751770  0.445400  0.625670  1.0  -0.5185
  O  O405  1  0.828900  0.438450  0.625770  1.0  -0.5841
  O  O406  1  0.797860  0.007200  0.124190  1.0  -0.5528
  O  O407  1  0.751770  0.945400  0.125670  1.0  -0.5185
  O  O408  1  0.828900  0.938450  0.125770  1.0  -0.5841
  O  O409  1  0.452140  0.007200  0.125810  1.0  -0.5521
  O  O410  1  0.498230  0.945400  0.124330  1.0  -0.5174
  O  O411  1  0.421100  0.938450  0.124230  1.0  -0.584
  O  O412  1  0.452140  0.507200  0.625810  1.0  -0.553
  O  O413  1  0.498230  0.445400  0.624330  1.0  -0.5174
  O  O414  1  0.421100  0.438450  0.624230  1.0  -0.584
  O  O415  1  0.952140  0.007200  0.625810  1.0  -0.5521
  O  O416  1  0.998230  0.945400  0.624330  1.0  -0.5174
  O  O417  1  0.921100  0.938450  0.624230  1.0  -0.584
  O  O418  1  0.952140  0.507200  0.125810  1.0  -0.553
  O  O419  1  0.998230  0.445400  0.124330  1.0  -0.5174
  O  O420  1  0.921100  0.438450  0.124230  1.0  -0.584
  O  O421  1  0.952140  0.242800  0.624190  1.0  -0.5533
  O  O422  1  0.998230  0.304600  0.625670  1.0  -0.5178
  O  O423  1  0.921100  0.311550  0.625770  1.0  -0.5843
  O  O424  1  0.952140  0.742800  0.124190  1.0  -0.5533
  O  O425  1  0.998230  0.804600  0.125670  1.0  -0.5178
  O  O426  1  0.921100  0.811550  0.125770  1.0  -0.5843
  O  O427  1  0.452140  0.242800  0.124190  1.0  -0.5533
  O  O428  1  0.498230  0.304600  0.125670  1.0  -0.5178
  O  O429  1  0.421100  0.311550  0.125770  1.0  -0.5843
  O  O430  1  0.452140  0.742800  0.624190  1.0  -0.5533
  O  O431  1  0.498230  0.804600  0.625670  1.0  -0.5178
  O  O432  1  0.421100  0.811550  0.625770  1.0  -0.5843
  O  O433  1  0.625810  0.797860  0.742800  1.0  -0.5488
  O  O434  1  0.624330  0.751770  0.804600  1.0  -0.5127
  O  O435  1  0.624230  0.828900  0.811550  1.0  -0.5845
  O  O436  1  0.625810  0.297860  0.242800  1.0  -0.5488
  O  O437  1  0.624330  0.251770  0.304600  1.0  -0.5127
  O  O438  1  0.624230  0.328900  0.311550  1.0  -0.5845
  O  O439  1  0.125810  0.797860  0.242800  1.0  -0.5488
  O  O440  1  0.124330  0.751770  0.304600  1.0  -0.5127
  O  O441  1  0.124230  0.828900  0.311550  1.0  -0.5845
  O  O442  1  0.125810  0.297860  0.742800  1.0  -0.5488
  O  O443  1  0.124330  0.251770  0.804600  1.0  -0.5127
  O  O444  1  0.124230  0.328900  0.811550  1.0  -0.5845
  O  O445  1  0.124190  0.297860  0.507200  1.0  -0.5475
  O  O446  1  0.125670  0.251770  0.445400  1.0  -0.5138
  O  O447  1  0.125770  0.328900  0.438450  1.0  -0.5849
  O  O448  1  0.124190  0.797860  0.007200  1.0  -0.5475
  O  O449  1  0.125670  0.751770  0.945400  1.0  -0.5138
  O  O450  1  0.125770  0.828900  0.938450  1.0  -0.5851
  O  O451  1  0.624190  0.297860  0.007200  1.0  -0.5475
  O  O452  1  0.625670  0.251770  0.945400  1.0  -0.5138
  O  O453  1  0.625770  0.328900  0.938450  1.0  -0.5851
  O  O454  1  0.624190  0.797860  0.507200  1.0  -0.5475
  O  O455  1  0.625670  0.751770  0.445400  1.0  -0.5138
  O  O456  1  0.625770  0.828900  0.438450  1.0  -0.5849
  O  O457  1  0.125810  0.452140  0.007200  1.0  -0.5494
  O  O458  1  0.124330  0.498230  0.945400  1.0  -0.5145
  O  O459  1  0.124230  0.421100  0.938450  1.0  -0.5846
  O  O460  1  0.125810  0.952140  0.507200  1.0  -0.5498
  O  O461  1  0.124330  0.998230  0.445400  1.0  -0.5145
  O  O462  1  0.124230  0.921100  0.438450  1.0  -0.5846
  O  O463  1  0.625810  0.452140  0.507200  1.0  -0.5498
  O  O464  1  0.624330  0.498230  0.445400  1.0  -0.5145
  O  O465  1  0.624230  0.421100  0.438450  1.0  -0.5846
  O  O466  1  0.625810  0.952140  0.007200  1.0  -0.5494
  O  O467  1  0.624330  0.998230  0.945400  1.0  -0.5145
  O  O468  1  0.624230  0.921100  0.938450  1.0  -0.5846
  O  O469  1  0.624190  0.952140  0.242800  1.0  -0.549
  O  O470  1  0.625670  0.998230  0.304600  1.0  -0.516
  O  O471  1  0.625770  0.921100  0.311550  1.0  -0.585
  O  O472  1  0.624190  0.452140  0.742800  1.0  -0.549
  O  O473  1  0.625670  0.498230  0.804600  1.0  -0.516
  O  O474  1  0.625770  0.421100  0.811550  1.0  -0.585
  O  O475  1  0.124190  0.952140  0.742800  1.0  -0.549
  O  O476  1  0.125670  0.998230  0.804600  1.0  -0.516
  O  O477  1  0.125770  0.921100  0.811550  1.0  -0.585
  O  O478  1  0.124190  0.452140  0.242800  1.0  -0.549
  O  O479  1  0.125670  0.498230  0.304600  1.0  -0.516
  O  O480  1  0.125770  0.421100  0.311550  1.0  -0.585
  O  O481  1  0.375810  0.992800  0.202140  1.0  -0.5556
  O  O482  1  0.374330  0.054600  0.248230  1.0  -0.515
  O  O483  1  0.374230  0.061550  0.171100  1.0  -0.5859
  O  O484  1  0.375810  0.492800  0.702140  1.0  -0.5556
  O  O485  1  0.374330  0.554600  0.748230  1.0  -0.515
  O  O486  1  0.374230  0.561550  0.671100  1.0  -0.5859
  O  O487  1  0.875810  0.992800  0.702140  1.0  -0.5556
  O  O488  1  0.874330  0.054600  0.748230  1.0  -0.515
  O  O489  1  0.874230  0.061550  0.671100  1.0  -0.5859
  O  O490  1  0.875810  0.492800  0.202140  1.0  -0.5556
  O  O491  1  0.874330  0.554600  0.248230  1.0  -0.515
  O  O492  1  0.874230  0.561550  0.171100  1.0  -0.5859
  O  O493  1  0.874190  0.757200  0.702140  1.0  -0.5525
  O  O494  1  0.875670  0.695400  0.748230  1.0  -0.515
  O  O495  1  0.875770  0.688450  0.671100  1.0  -0.5848
  O  O496  1  0.874190  0.257200  0.202140  1.0  -0.5525
  O  O497  1  0.875670  0.195400  0.248230  1.0  -0.515
  O  O498  1  0.875770  0.188450  0.171100  1.0  -0.5848
  O  O499  1  0.374190  0.757200  0.202140  1.0  -0.5525
  O  O500  1  0.375670  0.695400  0.248230  1.0  -0.515
  O  O501  1  0.375770  0.688450  0.171100  1.0  -0.5848
  O  O502  1  0.374190  0.257200  0.702140  1.0  -0.5525
  O  O503  1  0.375670  0.195400  0.748230  1.0  -0.515
  O  O504  1  0.375770  0.188450  0.671100  1.0  -0.5848
  O  O505  1  0.875810  0.257200  0.547860  1.0  -0.5538
  O  O506  1  0.874330  0.195400  0.501770  1.0  -0.5174
  O  O507  1  0.874230  0.188450  0.578900  1.0  -0.5848
  O  O508  1  0.875810  0.757200  0.047860  1.0  -0.5538
  O  O509  1  0.874330  0.695400  0.001770  1.0  -0.5175
  O  O510  1  0.874230  0.688450  0.078900  1.0  -0.5848
  O  O511  1  0.375810  0.257200  0.047860  1.0  -0.5538
  O  O512  1  0.374330  0.195400  0.001770  1.0  -0.5175
  O  O513  1  0.374230  0.188450  0.078900  1.0  -0.5848
  O  O514  1  0.375810  0.757200  0.547860  1.0  -0.5538
  O  O515  1  0.374330  0.695400  0.501770  1.0  -0.5174
  O  O516  1  0.374230  0.688450  0.578900  1.0  -0.5848
  O  O517  1  0.374190  0.492800  0.047860  1.0  -0.5496
  O  O518  1  0.375670  0.554600  0.001770  1.0  -0.5167
  O  O519  1  0.375770  0.561550  0.078900  1.0  -0.5854
  O  O520  1  0.374190  0.992800  0.547860  1.0  -0.5496
  O  O521  1  0.375670  0.054600  0.501770  1.0  -0.516
  O  O522  1  0.375770  0.061550  0.578900  1.0  -0.5856
  O  O523  1  0.874190  0.492800  0.547860  1.0  -0.5496
  O  O524  1  0.875670  0.554600  0.501770  1.0  -0.5167
  O  O525  1  0.875770  0.561550  0.578900  1.0  -0.5854
  O  O526  1  0.874190  0.992800  0.047860  1.0  -0.5496
  O  O527  1  0.875670  0.054600  0.001770  1.0  -0.5163
  O  O528  1  0.875770  0.061550  0.078900  1.0  -0.5856
  O  O529  1  0.492800  0.047860  0.374190  1.0  -0.5511
  O  O530  1  0.554600  0.001770  0.375670  1.0  -0.5173
  O  O531  1  0.561550  0.078900  0.375770  1.0  -0.5835
  O  O532  1  0.492800  0.547860  0.874190  1.0  -0.5511
  O  O533  1  0.554600  0.501770  0.875670  1.0  -0.5173
  O  O534  1  0.561550  0.578900  0.875770  1.0  -0.5835
  O  O535  1  0.992800  0.047860  0.874190  1.0  -0.5511
  O  O536  1  0.054600  0.001770  0.875670  1.0  -0.5174
  O  O537  1  0.061550  0.078900  0.875770  1.0  -0.5835
  O  O538  1  0.992800  0.547860  0.374190  1.0  -0.5511
  O  O539  1  0.054600  0.501770  0.375670  1.0  -0.5169
  O  O540  1  0.061550  0.578900  0.375770  1.0  -0.5835
  O  O541  1  0.257200  0.547860  0.875810  1.0  -0.5548
  O  O542  1  0.195400  0.501770  0.874330  1.0  -0.5156
  O  O543  1  0.188450  0.578900  0.874230  1.0  -0.5849
  O  O544  1  0.257200  0.047860  0.375810  1.0  -0.5548
  O  O545  1  0.195400  0.001770  0.374330  1.0  -0.5156
  O  O546  1  0.188450  0.078900  0.374230  1.0  -0.5849
  O  O547  1  0.757200  0.547860  0.375810  1.0  -0.5548
  O  O548  1  0.695400  0.501770  0.374330  1.0  -0.5156
  O  O549  1  0.688450  0.578900  0.374230  1.0  -0.5849
  O  O550  1  0.757200  0.047860  0.875810  1.0  -0.5548
  O  O551  1  0.695400  0.001770  0.874330  1.0  -0.5156
  O  O552  1  0.688450  0.078900  0.874230  1.0  -0.5849
  O  O553  1  0.757200  0.702140  0.874190  1.0  -0.5531
  O  O554  1  0.695400  0.748230  0.875670  1.0  -0.5167
  O  O555  1  0.688450  0.671100  0.875770  1.0  -0.5842
  O  O556  1  0.757200  0.202140  0.374190  1.0  -0.5531
  O  O557  1  0.695400  0.248230  0.375670  1.0  -0.5167
  O  O558  1  0.688450  0.171100  0.375770  1.0  -0.5842
  O  O559  1  0.257200  0.702140  0.374190  1.0  -0.5531
  O  O560  1  0.195400  0.748230  0.375670  1.0  -0.5167
  O  O561  1  0.188450  0.671100  0.375770  1.0  -0.5842
  O  O562  1  0.257200  0.202140  0.874190  1.0  -0.5531
  O  O563  1  0.195400  0.248230  0.875670  1.0  -0.5167
  O  O564  1  0.188450  0.171100  0.875770  1.0  -0.5842
  O  O565  1  0.992800  0.202140  0.375810  1.0  -0.5539
  O  O566  1  0.054600  0.248230  0.374330  1.0  -0.5201
  O  O567  1  0.061550  0.171100  0.374230  1.0  -0.5835
  O  O568  1  0.992800  0.702140  0.875810  1.0  -0.5539
  O  O569  1  0.054600  0.748230  0.874330  1.0  -0.5201
  O  O570  1  0.061550  0.671100  0.874230  1.0  -0.5835
  O  O571  1  0.492800  0.202140  0.875810  1.0  -0.5539
  O  O572  1  0.554600  0.248230  0.874330  1.0  -0.5201
  O  O573  1  0.561550  0.171100  0.874230  1.0  -0.5835
  O  O574  1  0.492800  0.702140  0.375810  1.0  -0.5539
  O  O575  1  0.554600  0.748230  0.374330  1.0  -0.5201
  O  O576  1  0.561550  0.671100  0.374230  1.0  -0.5835
  O  O577  1  0.547860  0.875810  0.257200  1.0  -0.5481
  O  O578  1  0.501770  0.874330  0.195400  1.0  -0.518
  O  O579  1  0.578900  0.874230  0.188450  1.0  -0.5833
  O  O580  1  0.547860  0.375810  0.757200  1.0  -0.5481
  O  O581  1  0.501770  0.374330  0.695400  1.0  -0.518
  O  O582  1  0.578900  0.374230  0.688450  1.0  -0.5833
  O  O583  1  0.047860  0.875810  0.757200  1.0  -0.5481
  O  O584  1  0.001770  0.874330  0.695400  1.0  -0.518
  O  O585  1  0.078900  0.874230  0.688450  1.0  -0.5833
  O  O586  1  0.047860  0.375810  0.257200  1.0  -0.5481
  O  O587  1  0.001770  0.374330  0.195400  1.0  -0.518
  O  O588  1  0.078900  0.374230  0.188450  1.0  -0.5833
  O  O589  1  0.047860  0.374190  0.492800  1.0  -0.5452
  O  O590  1  0.001770  0.375670  0.554600  1.0  -0.5175
  O  O591  1  0.078900  0.375770  0.561550  1.0  -0.5837
  O  O592  1  0.047860  0.874190  0.992800  1.0  -0.5452
  O  O593  1  0.001770  0.875670  0.054600  1.0  -0.5175
  O  O594  1  0.078900  0.875770  0.061550  1.0  -0.5837
  O  O595  1  0.547860  0.374190  0.992800  1.0  -0.5452
  O  O596  1  0.501770  0.375670  0.054600  1.0  -0.5175
  O  O597  1  0.578900  0.375770  0.061550  1.0  -0.5837
  O  O598  1  0.547860  0.874190  0.492800  1.0  -0.5452
  O  O599  1  0.501770  0.875670  0.554600  1.0  -0.5175
  O  O600  1  0.578900  0.875770  0.561550  1.0  -0.5837
  O  O601  1  0.202140  0.375810  0.992800  1.0  -0.548
  O  O602  1  0.248230  0.374330  0.054600  1.0  -0.5175
  O  O603  1  0.171100  0.374230  0.061550  1.0  -0.5831
  O  O604  1  0.202140  0.875810  0.492800  1.0  -0.548
  O  O605  1  0.248230  0.874330  0.554600  1.0  -0.5173
  O  O606  1  0.171100  0.874230  0.561550  1.0  -0.5831
  O  O607  1  0.702140  0.375810  0.492800  1.0  -0.548
  O  O608  1  0.748230  0.374330  0.554600  1.0  -0.5173
  O  O609  1  0.671100  0.374230  0.561550  1.0  -0.5831
  O  O610  1  0.702140  0.875810  0.992800  1.0  -0.548
  O  O611  1  0.748230  0.874330  0.054600  1.0  -0.5175
  O  O612  1  0.671100  0.874230  0.061550  1.0  -0.5831
  O  O613  1  0.702140  0.874190  0.757200  1.0  -0.5456
  O  O614  1  0.748230  0.875670  0.695400  1.0  -0.5171
  O  O615  1  0.671100  0.875770  0.688450  1.0  -0.5834
  O  O616  1  0.702140  0.374190  0.257200  1.0  -0.5456
  O  O617  1  0.748230  0.375670  0.195400  1.0  -0.5171
  O  O618  1  0.671100  0.375770  0.188450  1.0  -0.5834
  O  O619  1  0.202140  0.874190  0.257200  1.0  -0.5456
  O  O620  1  0.248230  0.875670  0.195400  1.0  -0.5171
  O  O621  1  0.171100  0.875770  0.188450  1.0  -0.5834
  O  O622  1  0.202140  0.374190  0.757200  1.0  -0.5456
  O  O623  1  0.248230  0.375670  0.695400  1.0  -0.5171
  O  O624  1  0.171100  0.375770  0.688450  1.0  -0.5834
  O  O625  1  0.257200  0.374190  0.202140  1.0  -0.5518
  O  O626  1  0.195400  0.375670  0.248230  1.0  -0.516
  O  O627  1  0.188450  0.375770  0.171100  1.0  -0.5825
  O  O628  1  0.257200  0.874190  0.702140  1.0  -0.5518
  O  O629  1  0.195400  0.875670  0.748230  1.0  -0.516
  O  O630  1  0.188450  0.875770  0.671100  1.0  -0.5825
  O  O631  1  0.757200  0.374190  0.702140  1.0  -0.5518
  O  O632  1  0.695400  0.375670  0.748230  1.0  -0.516
  O  O633  1  0.688450  0.375770  0.671100  1.0  -0.5825
  O  O634  1  0.757200  0.874190  0.202140  1.0  -0.5518
  O  O635  1  0.695400  0.875670  0.248230  1.0  -0.516
  O  O636  1  0.688450  0.875770  0.171100  1.0  -0.5825
  O  O637  1  0.492800  0.875810  0.702140  1.0  -0.555
  O  O638  1  0.554600  0.874330  0.748230  1.0  -0.5177
  O  O639  1  0.561550  0.874230  0.671100  1.0  -0.5827
  O  O640  1  0.492800  0.375810  0.202140  1.0  -0.555
  O  O641  1  0.554600  0.374330  0.248230  1.0  -0.5177
  O  O642  1  0.561550  0.374230  0.171100  1.0  -0.5827
  O  O643  1  0.992800  0.875810  0.202140  1.0  -0.555
  O  O644  1  0.054600  0.874330  0.248230  1.0  -0.5173
  O  O645  1  0.061550  0.874230  0.171100  1.0  -0.5827
  O  O646  1  0.992800  0.375810  0.702140  1.0  -0.555
  O  O647  1  0.054600  0.374330  0.748230  1.0  -0.5173
  O  O648  1  0.061550  0.374230  0.671100  1.0  -0.5827
  O  O649  1  0.992800  0.874190  0.547860  1.0  -0.5481
  O  O650  1  0.054600  0.875670  0.501770  1.0  -0.5203
  O  O651  1  0.061550  0.875770  0.578900  1.0  -0.5828
  O  O652  1  0.992800  0.374190  0.047860  1.0  -0.5481
  O  O653  1  0.054600  0.375670  0.001770  1.0  -0.5204
  O  O654  1  0.061550  0.375770  0.078900  1.0  -0.5828
  O  O655  1  0.492800  0.874190  0.047860  1.0  -0.5481
  O  O656  1  0.554600  0.875670  0.001770  1.0  -0.5205
  O  O657  1  0.561550  0.875770  0.078900  1.0  -0.5828
  O  O658  1  0.492800  0.374190  0.547860  1.0  -0.5481
  O  O659  1  0.554600  0.375670  0.501770  1.0  -0.5205
  O  O660  1  0.561550  0.375770  0.578900  1.0  -0.5828
  O  O661  1  0.757200  0.375810  0.047860  1.0  -0.5525
  O  O662  1  0.695400  0.374330  0.001770  1.0  -0.5178
  O  O663  1  0.688450  0.374230  0.078900  1.0  -0.5844
  O  O664  1  0.757200  0.875810  0.547860  1.0  -0.5525
  O  O665  1  0.695400  0.874330  0.501770  1.0  -0.5178
  O  O666  1  0.688450  0.874230  0.578900  1.0  -0.5844
  O  O667  1  0.257200  0.375810  0.547860  1.0  -0.5525
  O  O668  1  0.195400  0.374330  0.501770  1.0  -0.5178
  O  O669  1  0.188450  0.374230  0.578900  1.0  -0.5844
  O  O670  1  0.257200  0.875810  0.047860  1.0  -0.5525
  O  O671  1  0.195400  0.874330  0.001770  1.0  -0.5178
  O  O672  1  0.188450  0.874230  0.078900  1.0  -0.5844
  O  O673  1  0.202140  0.257200  0.374190  1.0  -0.5516
  O  O674  1  0.248230  0.195400  0.375670  1.0  -0.5177
  O  O675  1  0.171100  0.188450  0.375770  1.0  -0.5837
  O  O676  1  0.202140  0.757200  0.874190  1.0  -0.5516
  O  O677  1  0.248230  0.695400  0.875670  1.0  -0.5177
  O  O678  1  0.171100  0.688450  0.875770  1.0  -0.5837
  O  O679  1  0.702140  0.257200  0.874190  1.0  -0.5516
  O  O680  1  0.748230  0.195400  0.875670  1.0  -0.5177
  O  O681  1  0.671100  0.188450  0.875770  1.0  -0.5837
  O  O682  1  0.702140  0.757200  0.374190  1.0  -0.5516
  O  O683  1  0.748230  0.695400  0.375670  1.0  -0.5177
  O  O684  1  0.671100  0.688450  0.375770  1.0  -0.5837
  O  O685  1  0.702140  0.492800  0.875810  1.0  -0.5547
  O  O686  1  0.748230  0.554600  0.874330  1.0  -0.5176
  O  O687  1  0.671100  0.561550  0.874230  1.0  -0.5844
  O  O688  1  0.702140  0.992800  0.375810  1.0  -0.5547
  O  O689  1  0.748230  0.054600  0.374330  1.0  -0.5171
  O  O690  1  0.671100  0.061550  0.374230  1.0  -0.5844
  O  O691  1  0.202140  0.492800  0.375810  1.0  -0.5547
  O  O692  1  0.248230  0.554600  0.374330  1.0  -0.5176
  O  O693  1  0.171100  0.561550  0.374230  1.0  -0.5844
  O  O694  1  0.202140  0.992800  0.875810  1.0  -0.5547
  O  O695  1  0.248230  0.054600  0.874330  1.0  -0.5171
  O  O696  1  0.171100  0.061550  0.874230  1.0  -0.5844
  O  O697  1  0.547860  0.992800  0.874190  1.0  -0.5513
  O  O698  1  0.501770  0.054600  0.875670  1.0  -0.518
  O  O699  1  0.578900  0.061550  0.875770  1.0  -0.5851
  O  O700  1  0.547860  0.492800  0.374190  1.0  -0.5513
  O  O701  1  0.501770  0.554600  0.375670  1.0  -0.5179
  O  O702  1  0.578900  0.561550  0.375770  1.0  -0.5851
  O  O703  1  0.047860  0.992800  0.374190  1.0  -0.5513
  O  O704  1  0.001770  0.054600  0.375670  1.0  -0.5181
  O  O705  1  0.078900  0.061550  0.375770  1.0  -0.5851
  O  O706  1  0.047860  0.492800  0.874190  1.0  -0.5513
  O  O707  1  0.001770  0.554600  0.875670  1.0  -0.5179
  O  O708  1  0.078900  0.561550  0.875770  1.0  -0.5851
  O  O709  1  0.047860  0.757200  0.375810  1.0  -0.5552
  O  O710  1  0.001770  0.695400  0.374330  1.0  -0.5185
  O  O711  1  0.078900  0.688450  0.374230  1.0  -0.5851
  O  O712  1  0.047860  0.257200  0.875810  1.0  -0.5552
  O  O713  1  0.001770  0.195400  0.874330  1.0  -0.5185
  O  O714  1  0.078900  0.188450  0.874230  1.0  -0.5851
  O  O715  1  0.547860  0.757200  0.875810  1.0  -0.5552
  O  O716  1  0.501770  0.695400  0.874330  1.0  -0.5188
  O  O717  1  0.578900  0.688450  0.874230  1.0  -0.5851
  O  O718  1  0.547860  0.257200  0.375810  1.0  -0.5552
  O  O719  1  0.501770  0.195400  0.374330  1.0  -0.5188
  O  O720  1  0.578900  0.188450  0.374230  1.0  -0.5851
  O  O721  1  0.374190  0.202140  0.257200  1.0  -0.5478
  O  O722  1  0.375670  0.248230  0.195400  1.0  -0.5146
  O  O723  1  0.375770  0.171100  0.188450  1.0  -0.5852
  O  O724  1  0.374190  0.702140  0.757200  1.0  -0.5478
  O  O725  1  0.375670  0.748230  0.695400  1.0  -0.5146
  O  O726  1  0.375770  0.671100  0.688450  1.0  -0.5852
  O  O727  1  0.874190  0.202140  0.757200  1.0  -0.5478
  O  O728  1  0.875670  0.248230  0.695400  1.0  -0.5146
  O  O729  1  0.875770  0.171100  0.688450  1.0  -0.5852
  O  O730  1  0.874190  0.702140  0.257200  1.0  -0.5478
  O  O731  1  0.875670  0.748230  0.195400  1.0  -0.5146
  O  O732  1  0.875770  0.671100  0.188450  1.0  -0.5852
  O  O733  1  0.875810  0.702140  0.492800  1.0  -0.5515
  O  O734  1  0.874330  0.748230  0.554600  1.0  -0.5159
  O  O735  1  0.874230  0.671100  0.561550  1.0  -0.5848
  O  O736  1  0.875810  0.202140  0.992800  1.0  -0.5515
  O  O737  1  0.874330  0.248230  0.054600  1.0  -0.5161
  O  O738  1  0.874230  0.171100  0.061550  1.0  -0.5848
  O  O739  1  0.375810  0.702140  0.992800  1.0  -0.5515
  O  O740  1  0.374330  0.748230  0.054600  1.0  -0.5161
  O  O741  1  0.374230  0.671100  0.061550  1.0  -0.5848
  O  O742  1  0.375810  0.202140  0.492800  1.0  -0.5515
  O  O743  1  0.374330  0.248230  0.554600  1.0  -0.5159
  O  O744  1  0.374230  0.171100  0.561550  1.0  -0.5848
  O  O745  1  0.874190  0.547860  0.992800  1.0  -0.5464
  O  O746  1  0.875670  0.501770  0.054600  1.0  -0.5127
  O  O747  1  0.875770  0.578900  0.061550  1.0  -0.5856
  O  O748  1  0.874190  0.047860  0.492800  1.0  -0.5464
  O  O749  1  0.875670  0.001770  0.554600  1.0  -0.5122
  O  O750  1  0.875770  0.078900  0.561550  1.0  -0.5846
  O  O751  1  0.374190  0.547860  0.492800  1.0  -0.5464
  O  O752  1  0.375670  0.501770  0.554600  1.0  -0.5127
  O  O753  1  0.375770  0.578900  0.561550  1.0  -0.5846
  O  O754  1  0.374190  0.047860  0.992800  1.0  -0.5464
  O  O755  1  0.375670  0.001770  0.054600  1.0  -0.5131
  O  O756  1  0.375770  0.078900  0.061550  1.0  -0.5856
  O  O757  1  0.375810  0.047860  0.757200  1.0  -0.5491
  O  O758  1  0.374330  0.001770  0.695400  1.0  -0.5137
  O  O759  1  0.374230  0.078900  0.688450  1.0  -0.5842
  O  O760  1  0.375810  0.547860  0.257200  1.0  -0.5491
  O  O761  1  0.374330  0.501770  0.195400  1.0  -0.5137
  O  O762  1  0.374230  0.578900  0.188450  1.0  -0.5842
  O  O763  1  0.875810  0.047860  0.257200  1.0  -0.5491
  O  O764  1  0.874330  0.001770  0.195400  1.0  -0.5137
  O  O765  1  0.874230  0.078900  0.188450  1.0  -0.5842
  O  O766  1  0.875810  0.547860  0.757200  1.0  -0.5491
  O  O767  1  0.874330  0.501770  0.695400  1.0  -0.5137
  O  O768  1  0.874230  0.578900  0.688450  1.0  -0.5842
  O  O769  1  0.624190  0.007200  0.797860  1.0  -0.5511
  O  O770  1  0.625670  0.945400  0.751770  1.0  -0.5175
  O  O771  1  0.625770  0.938450  0.828900  1.0  -0.5858
  O  O772  1  0.624190  0.507200  0.297860  1.0  -0.5511
  O  O773  1  0.625670  0.445400  0.251770  1.0  -0.5175
  O  O774  1  0.625770  0.438450  0.328900  1.0  -0.5858
  O  O775  1  0.124190  0.007200  0.297860  1.0  -0.5511
  O  O776  1  0.125670  0.945400  0.251770  1.0  -0.5175
  O  O777  1  0.125770  0.938450  0.328900  1.0  -0.5858
  O  O778  1  0.124190  0.507200  0.797860  1.0  -0.5511
  O  O779  1  0.125670  0.445400  0.751770  1.0  -0.5175
  O  O780  1  0.125770  0.438450  0.828900  1.0  -0.5858
  O  O781  1  0.125810  0.242800  0.297860  1.0  -0.552
  O  O782  1  0.124330  0.304600  0.251770  1.0  -0.5167
  O  O783  1  0.124230  0.311550  0.328900  1.0  -0.5853
  O  O784  1  0.125810  0.742800  0.797860  1.0  -0.552
  O  O785  1  0.124330  0.804600  0.751770  1.0  -0.5167
  O  O786  1  0.124230  0.811550  0.828900  1.0  -0.5853
  O  O787  1  0.625810  0.242800  0.797860  1.0  -0.552
  O  O788  1  0.624330  0.304600  0.751770  1.0  -0.5167
  O  O789  1  0.624230  0.311550  0.828900  1.0  -0.5853
  O  O790  1  0.625810  0.742800  0.297860  1.0  -0.552
  O  O791  1  0.624330  0.804600  0.251770  1.0  -0.5167
  O  O792  1  0.624230  0.811550  0.328900  1.0  -0.5853
  O  O793  1  0.124190  0.742800  0.452140  1.0  -0.5529
  O  O794  1  0.125670  0.804600  0.498230  1.0  -0.515
  O  O795  1  0.125770  0.811550  0.421100  1.0  -0.586
  O  O796  1  0.124190  0.242800  0.952140  1.0  -0.5529
  O  O797  1  0.125670  0.304600  0.998230  1.0  -0.515
  O  O798  1  0.125770  0.311550  0.921100  1.0  -0.586
  O  O799  1  0.624190  0.742800  0.952140  1.0  -0.5529
  O  O800  1  0.625670  0.804600  0.998230  1.0  -0.515
  O  O801  1  0.625770  0.811550  0.921100  1.0  -0.586
  O  O802  1  0.624190  0.242800  0.452140  1.0  -0.5529
  O  O803  1  0.625670  0.304600  0.498230  1.0  -0.515
  O  O804  1  0.625770  0.311550  0.421100  1.0  -0.586
  O  O805  1  0.625810  0.507200  0.952140  1.0  -0.5548
  O  O806  1  0.624330  0.445400  0.998230  1.0  -0.5146
  O  O807  1  0.624230  0.438450  0.921100  1.0  -0.5843
  O  O808  1  0.625810  0.007200  0.452140  1.0  -0.5542
  O  O809  1  0.624330  0.945400  0.498230  1.0  -0.5146
  O  O810  1  0.624230  0.938450  0.421100  1.0  -0.5843
  O  O811  1  0.125810  0.507200  0.452140  1.0  -0.5548
  O  O812  1  0.124330  0.445400  0.498230  1.0  -0.5146
  O  O813  1  0.124230  0.438450  0.421100  1.0  -0.5843
  O  O814  1  0.125810  0.007200  0.952140  1.0  -0.5542
  O  O815  1  0.124330  0.945400  0.998230  1.0  -0.5146
  O  O816  1  0.124230  0.938450  0.921100  1.0  -0.5843
  O  O817  1  0.507200  0.952140  0.625810  1.0  -0.5535
  O  O818  1  0.445400  0.998230  0.624330  1.0  -0.5162
  O  O819  1  0.438450  0.921100  0.624230  1.0  -0.5843
  O  O820  1  0.507200  0.452140  0.125810  1.0  -0.5535
  O  O821  1  0.445400  0.498230  0.124330  1.0  -0.5162
  O  O822  1  0.438450  0.421100  0.124230  1.0  -0.5843
  O  O823  1  0.007200  0.952140  0.125810  1.0  -0.5535
  O  O824  1  0.945400  0.998230  0.124330  1.0  -0.5162
  O  O825  1  0.938450  0.921100  0.124230  1.0  -0.5843
  O  O826  1  0.007200  0.452140  0.625810  1.0  -0.5535
  O  O827  1  0.945400  0.498230  0.624330  1.0  -0.5162
  O  O828  1  0.938450  0.421100  0.624230  1.0  -0.5843
  O  O829  1  0.742800  0.452140  0.124190  1.0  -0.5521
  O  O830  1  0.804600  0.498230  0.125670  1.0  -0.5202
  O  O831  1  0.811550  0.421100  0.125770  1.0  -0.5838
  O  O832  1  0.742800  0.952140  0.624190  1.0  -0.5521
  O  O833  1  0.804600  0.998230  0.625670  1.0  -0.5202
  O  O834  1  0.811550  0.921100  0.625770  1.0  -0.5838
  O  O835  1  0.242800  0.452140  0.624190  1.0  -0.5521
  O  O836  1  0.304600  0.498230  0.625670  1.0  -0.5202
  O  O837  1  0.311550  0.421100  0.625770  1.0  -0.5838
  O  O838  1  0.242800  0.952140  0.124190  1.0  -0.5521
  O  O839  1  0.304600  0.998230  0.125670  1.0  -0.5202
  O  O840  1  0.311550  0.921100  0.125770  1.0  -0.5838
  O  O841  1  0.242800  0.297860  0.125810  1.0  -0.5541
  O  O842  1  0.304600  0.251770  0.124330  1.0  -0.5174
  O  O843  1  0.311550  0.328900  0.124230  1.0  -0.5834
  O  O844  1  0.242800  0.797860  0.625810  1.0  -0.5541
  O  O845  1  0.304600  0.751770  0.624330  1.0  -0.5174
  O  O846  1  0.311550  0.828900  0.624230  1.0  -0.5834
  O  O847  1  0.742800  0.297860  0.625810  1.0  -0.5541
  O  O848  1  0.804600  0.251770  0.624330  1.0  -0.5174
  O  O849  1  0.811550  0.328900  0.624230  1.0  -0.5834
  O  O850  1  0.742800  0.797860  0.125810  1.0  -0.5541
  O  O851  1  0.804600  0.751770  0.124330  1.0  -0.5174
  O  O852  1  0.811550  0.828900  0.124230  1.0  -0.5834
  O  O853  1  0.007200  0.797860  0.624190  1.0  -0.5523
  O  O854  1  0.945400  0.751770  0.625670  1.0  -0.5159
  O  O855  1  0.938450  0.828900  0.625770  1.0  -0.584
  O  O856  1  0.007200  0.297860  0.124190  1.0  -0.5523
  O  O857  1  0.945400  0.251770  0.125670  1.0  -0.5159
  O  O858  1  0.938450  0.328900  0.125770  1.0  -0.584
  O  O859  1  0.507200  0.797860  0.124190  1.0  -0.5523
  O  O860  1  0.445400  0.751770  0.125670  1.0  -0.5159
  O  O861  1  0.438450  0.828900  0.125770  1.0  -0.585
  O  O862  1  0.507200  0.297860  0.624190  1.0  -0.5523
  O  O863  1  0.445400  0.251770  0.625670  1.0  -0.5159
  O  O864  1  0.438450  0.328900  0.625770  1.0  -0.585
  O  O865  1  0.452140  0.124190  0.742800  1.0  -0.5467
  O  O866  1  0.498230  0.125670  0.804600  1.0  -0.5172
  O  O867  1  0.421100  0.125770  0.811550  1.0  -0.583
  O  O868  1  0.452140  0.624190  0.242800  1.0  -0.5467
  O  O869  1  0.498230  0.625670  0.304600  1.0  -0.5172
  O  O870  1  0.421100  0.625770  0.311550  1.0  -0.583
  O  O871  1  0.952140  0.124190  0.242800  1.0  -0.5467
  O  O872  1  0.998230  0.125670  0.304600  1.0  -0.5172
  O  O873  1  0.921100  0.125770  0.311550  1.0  -0.583
  O  O874  1  0.952140  0.624190  0.742800  1.0  -0.5467
  O  O875  1  0.998230  0.625670  0.804600  1.0  -0.5172
  O  O876  1  0.921100  0.625770  0.811550  1.0  -0.583
  O  O877  1  0.952140  0.625810  0.507200  1.0  -0.5465
  O  O878  1  0.998230  0.624330  0.445400  1.0  -0.5175
  O  O879  1  0.921100  0.624230  0.438450  1.0  -0.5825
  O  O880  1  0.952140  0.125810  0.007200  1.0  -0.5459
  O  O881  1  0.998230  0.124330  0.945400  1.0  -0.5175
  O  O882  1  0.921100  0.124230  0.938450  1.0  -0.5825
  O  O883  1  0.452140  0.625810  0.007200  1.0  -0.5459
  O  O884  1  0.498230  0.624330  0.945400  1.0  -0.5175
  O  O885  1  0.421100  0.624230  0.938450  1.0  -0.5825
  O  O886  1  0.452140  0.125810  0.507200  1.0  -0.5465
  O  O887  1  0.498230  0.124330  0.445400  1.0  -0.5175
  O  O888  1  0.421100  0.124230  0.438450  1.0  -0.5825
  O  O889  1  0.797860  0.624190  0.007200  1.0  -0.546
  O  O890  1  0.751770  0.625670  0.945400  1.0  -0.5176
  O  O891  1  0.828900  0.625770  0.938450  1.0  -0.5832
  O  O892  1  0.797860  0.124190  0.507200  1.0  -0.546
  O  O893  1  0.751770  0.125670  0.445400  1.0  -0.5176
  O  O894  1  0.828900  0.125770  0.438450  1.0  -0.5836
  O  O895  1  0.297860  0.624190  0.507200  1.0  -0.546
  O  O896  1  0.251770  0.625670  0.445400  1.0  -0.5176
  O  O897  1  0.328900  0.625770  0.438450  1.0  -0.5836
  O  O898  1  0.297860  0.124190  0.007200  1.0  -0.546
  O  O899  1  0.251770  0.125670  0.945400  1.0  -0.5176
  O  O900  1  0.328900  0.125770  0.938450  1.0  -0.5832
  O  O901  1  0.297860  0.125810  0.242800  1.0  -0.5479
  O  O902  1  0.251770  0.124330  0.304600  1.0  -0.5175
  O  O903  1  0.328900  0.124230  0.311550  1.0  -0.5837
  O  O904  1  0.297860  0.625810  0.742800  1.0  -0.5479
  O  O905  1  0.251770  0.624330  0.804600  1.0  -0.5175
  O  O906  1  0.328900  0.624230  0.811550  1.0  -0.5837
  O  O907  1  0.797860  0.125810  0.742800  1.0  -0.5479
  O  O908  1  0.751770  0.124330  0.804600  1.0  -0.5175
  O  O909  1  0.828900  0.124230  0.811550  1.0  -0.5837
  O  O910  1  0.797860  0.625810  0.242800  1.0  -0.5479
  O  O911  1  0.751770  0.624330  0.304600  1.0  -0.5175
  O  O912  1  0.828900  0.624230  0.311550  1.0  -0.5837
