# generated using pymatgen
data_NaZn2(CO3)4
_symmetry_space_group_name_H-M   'P 1'
_cell_length_a   28.97360000
_cell_length_b   28.97360000
_cell_length_c   28.97360000
_cell_angle_alpha   90.00000000
_cell_angle_beta   90.00000000
_cell_angle_gamma   90.00000000
_symmetry_Int_Tables_number   1
_chemical_formula_structural   NaZn2(CO3)4
_chemical_formula_sum   'Na48 Zn96 C192 O576'
_cell_volume   24322.45341712
_cell_formula_units_Z   48
loop_
 _symmetry_equiv_pos_site_id
 _symmetry_equiv_pos_as_xyz
  1  'x, y, z'
loop_
 _atom_site_type_symbol
 _atom_site_label
 _atom_site_symmetry_multiplicity
 _atom_site_fract_x
 _atom_site_fract_y
 _atom_site_fract_z
 _atom_site_occupancy
 _atom_site_charge
  Na  Na1  1  0.125000  0.375000  0.125000  1.0  1.0558
  Na  Na2  1  0.625000  0.875000  0.125000  1.0  1.0558
  Na  Na3  1  0.125000  0.375000  0.625000  1.0  1.0558
  Na  Na4  1  0.125000  0.875000  0.125000  1.0  1.0558
  Na  Na5  1  0.625000  0.375000  0.625000  1.0  1.0558
  Na  Na6  1  0.625000  0.875000  0.625000  1.0  1.0558
  Na  Na7  1  0.125000  0.125000  0.375000  1.0  1.0558
  Na  Na8  1  0.125000  0.625000  0.875000  1.0  1.0558
  Na  Na9  1  0.625000  0.625000  0.375000  1.0  1.0558
  Na  Na10  1  0.625000  0.125000  0.375000  1.0  1.0558
  Na  Na11  1  0.625000  0.625000  0.875000  1.0  1.0558
  Na  Na12  1  0.375000  0.125000  0.125000  1.0  1.0558
  Na  Na13  1  0.375000  0.625000  0.625000  1.0  1.0558
  Na  Na14  1  0.875000  0.125000  0.625000  1.0  1.0558
  Na  Na15  1  0.375000  0.625000  0.125000  1.0  1.0558
  Na  Na16  1  0.875000  0.625000  0.625000  1.0  1.0558
  Na  Na17  1  0.875000  0.125000  0.125000  1.0  1.0558
  Na  Na18  1  0.125000  0.375000  0.875000  1.0  1.0558
  Na  Na19  1  0.125000  0.375000  0.375000  1.0  1.0558
  Na  Na20  1  0.125000  0.875000  0.875000  1.0  1.0558
  Na  Na21  1  0.625000  0.375000  0.875000  1.0  1.0558
  Na  Na22  1  0.625000  0.875000  0.875000  1.0  1.0558
  Na  Na23  1  0.625000  0.375000  0.375000  1.0  1.0558
  Na  Na24  1  0.625000  0.875000  0.375000  1.0  1.0558
  Na  Na25  1  0.875000  0.375000  0.625000  1.0  1.0558
  Na  Na26  1  0.875000  0.875000  0.125000  1.0  1.0558
  Na  Na27  1  0.875000  0.875000  0.625000  1.0  1.0558
  Na  Na28  1  0.375000  0.375000  0.125000  1.0  1.0558
  Na  Na29  1  0.375000  0.875000  0.625000  1.0  1.0558
  Na  Na30  1  0.375000  0.875000  0.125000  1.0  1.0558
  Na  Na31  1  0.375000  0.375000  0.625000  1.0  1.0558
  Na  Na32  1  0.875000  0.625000  0.875000  1.0  1.0558
  Na  Na33  1  0.375000  0.625000  0.875000  1.0  1.0558
  Na  Na34  1  0.875000  0.125000  0.375000  1.0  1.0558
  Na  Na35  1  0.375000  0.125000  0.375000  1.0  1.0558
  Na  Na36  1  0.875000  0.625000  0.375000  1.0  1.0558
  Na  Na37  1  0.875000  0.125000  0.875000  1.0  1.0558
  Na  Na38  1  0.375000  0.125000  0.875000  1.0  1.0558
  Na  Na39  1  0.375000  0.625000  0.375000  1.0  1.0558
  Na  Na40  1  0.875000  0.375000  0.125000  1.0  1.0558
  Na  Na41  1  0.125000  0.875000  0.375000  1.0  1.0558
  Na  Na42  1  0.875000  0.625000  0.125000  1.0  1.0558
  Na  Na43  1  0.375000  0.125000  0.625000  1.0  1.0558
  Na  Na44  1  0.125000  0.625000  0.375000  1.0  1.0558
  Na  Na45  1  0.125000  0.125000  0.875000  1.0  1.0558
  Na  Na46  1  0.625000  0.125000  0.875000  1.0  1.0558
  Na  Na47  1  0.625000  0.375000  0.125000  1.0  1.0558
  Na  Na48  1  0.125000  0.875000  0.625000  1.0  1.0558
  Zn  Zn49  1  0.000000  0.374720  0.124720  1.0  1.1097
  Zn  Zn50  1  0.000000  0.874720  0.624720  1.0  1.1097
  Zn  Zn51  1  0.500000  0.374720  0.624720  1.0  1.1097
  Zn  Zn52  1  0.250000  0.375280  0.624720  1.0  1.1094
  Zn  Zn53  1  0.750000  0.375280  0.124720  1.0  1.1094
  Zn  Zn54  1  0.750000  0.874720  0.125280  1.0  1.11
  Zn  Zn55  1  0.250000  0.874720  0.625280  1.0  1.11
  Zn  Zn56  1  0.500000  0.875280  0.625280  1.0  1.1096
  Zn  Zn57  1  0.000000  0.875280  0.125280  1.0  1.1096
  Zn  Zn58  1  0.000000  0.375280  0.625280  1.0  1.1096
  Zn  Zn59  1  0.124720  0.000000  0.374720  1.0  1.1085
  Zn  Zn60  1  0.124720  0.500000  0.874720  1.0  1.1085
  Zn  Zn61  1  0.624720  0.000000  0.874720  1.0  1.1085
  Zn  Zn62  1  0.624720  0.250000  0.375280  1.0  1.1088
  Zn  Zn63  1  0.624720  0.750000  0.875280  1.0  1.1088
  Zn  Zn64  1  0.124720  0.750000  0.375280  1.0  1.1088
  Zn  Zn65  1  0.125280  0.750000  0.874720  1.0  1.1076
  Zn  Zn66  1  0.125280  0.250000  0.374720  1.0  1.1076
  Zn  Zn67  1  0.625280  0.500000  0.875280  1.0  1.1079
  Zn  Zn68  1  0.625280  0.000000  0.375280  1.0  1.1079
  Zn  Zn69  1  0.374720  0.124720  0.000000  1.0  1.1087
  Zn  Zn70  1  0.374720  0.624720  0.500000  1.0  1.1087
  Zn  Zn71  1  0.874720  0.624720  0.000000  1.0  1.1087
  Zn  Zn72  1  0.375280  0.624720  0.250000  1.0  1.1078
  Zn  Zn73  1  0.375280  0.124720  0.750000  1.0  1.1078
  Zn  Zn74  1  0.874720  0.125280  0.750000  1.0  1.1084
  Zn  Zn75  1  0.874720  0.625280  0.250000  1.0  1.1084
  Zn  Zn76  1  0.875280  0.625280  0.500000  1.0  1.1075
  Zn  Zn77  1  0.875280  0.125280  0.000000  1.0  1.1075
  Zn  Zn78  1  0.375280  0.625280  0.000000  1.0  1.1075
  Zn  Zn79  1  0.124720  0.250000  0.875280  1.0  1.1088
  Zn  Zn80  1  0.125280  0.500000  0.375280  1.0  1.1079
  Zn  Zn81  1  0.125280  0.000000  0.875280  1.0  1.1079
  Zn  Zn82  1  0.624720  0.500000  0.374720  1.0  1.1085
  Zn  Zn83  1  0.625280  0.750000  0.374720  1.0  1.1076
  Zn  Zn84  1  0.625280  0.250000  0.874720  1.0  1.1076
  Zn  Zn85  1  0.750000  0.374720  0.625280  1.0  1.11
  Zn  Zn86  1  0.250000  0.374720  0.125280  1.0  1.11
  Zn  Zn87  1  0.500000  0.874720  0.124720  1.0  1.1097
  Zn  Zn88  1  0.500000  0.375280  0.125280  1.0  1.1096
  Zn  Zn89  1  0.250000  0.875280  0.124720  1.0  1.1094
  Zn  Zn90  1  0.750000  0.875280  0.624720  1.0  1.1094
  Zn  Zn91  1  0.874720  0.124720  0.500000  1.0  1.1087
  Zn  Zn92  1  0.374720  0.625280  0.750000  1.0  1.1084
  Zn  Zn93  1  0.374720  0.125280  0.250000  1.0  1.1084
  Zn  Zn94  1  0.875280  0.124720  0.250000  1.0  1.1078
  Zn  Zn95  1  0.875280  0.624720  0.750000  1.0  1.1078
  Zn  Zn96  1  0.375280  0.125280  0.500000  1.0  1.1075
  Zn  Zn97  1  0.000000  0.625280  0.875280  1.0  1.1095
  Zn  Zn98  1  0.000000  0.125280  0.375280  1.0  1.1095
  Zn  Zn99  1  0.500000  0.625280  0.375280  1.0  1.1095
  Zn  Zn100  1  0.750000  0.624720  0.375280  1.0  1.1098
  Zn  Zn101  1  0.250000  0.624720  0.875280  1.0  1.1098
  Zn  Zn102  1  0.250000  0.125280  0.874720  1.0  1.1093
  Zn  Zn103  1  0.750000  0.125280  0.374720  1.0  1.1093
  Zn  Zn104  1  0.750000  0.625280  0.874720  1.0  1.1093
  Zn  Zn105  1  0.500000  0.124720  0.374720  1.0  1.1096
  Zn  Zn106  1  0.000000  0.124720  0.874720  1.0  1.1096
  Zn  Zn107  1  0.875280  0.000000  0.625280  1.0  1.1078
  Zn  Zn108  1  0.875280  0.500000  0.125280  1.0  1.1078
  Zn  Zn109  1  0.375280  0.000000  0.125280  1.0  1.1078
  Zn  Zn110  1  0.375280  0.750000  0.624720  1.0  1.1075
  Zn  Zn111  1  0.375280  0.250000  0.124720  1.0  1.1075
  Zn  Zn112  1  0.874720  0.250000  0.125280  1.0  1.1087
  Zn  Zn113  1  0.874720  0.750000  0.625280  1.0  1.1087
  Zn  Zn114  1  0.374720  0.500000  0.124720  1.0  1.1084
  Zn  Zn115  1  0.374720  0.000000  0.624720  1.0  1.1084
  Zn  Zn116  1  0.874720  0.000000  0.124720  1.0  1.1084
  Zn  Zn117  1  0.625280  0.875280  0.000000  1.0  1.1074
  Zn  Zn118  1  0.625280  0.375280  0.500000  1.0  1.1074
  Zn  Zn119  1  0.125280  0.375280  0.000000  1.0  1.1074
  Zn  Zn120  1  0.624720  0.375280  0.750000  1.0  1.1083
  Zn  Zn121  1  0.624720  0.875280  0.250000  1.0  1.1083
  Zn  Zn122  1  0.125280  0.874720  0.250000  1.0  1.1077
  Zn  Zn123  1  0.125280  0.374720  0.750000  1.0  1.1077
  Zn  Zn124  1  0.625280  0.874720  0.750000  1.0  1.1077
  Zn  Zn125  1  0.124720  0.374720  0.500000  1.0  1.1086
  Zn  Zn126  1  0.124720  0.874720  0.000000  1.0  1.1086
  Zn  Zn127  1  0.875280  0.750000  0.124720  1.0  1.1075
  Zn  Zn128  1  0.875280  0.250000  0.624720  1.0  1.1075
  Zn  Zn129  1  0.874720  0.500000  0.624720  1.0  1.1084
  Zn  Zn130  1  0.375280  0.500000  0.625280  1.0  1.1078
  Zn  Zn131  1  0.374720  0.250000  0.625280  1.0  1.1087
  Zn  Zn132  1  0.374720  0.750000  0.125280  1.0  1.1087
  Zn  Zn133  1  0.250000  0.625280  0.374720  1.0  1.1093
  Zn  Zn134  1  0.500000  0.125280  0.875280  1.0  1.1095
  Zn  Zn135  1  0.500000  0.624720  0.874720  1.0  1.1096
  Zn  Zn136  1  0.000000  0.624720  0.374720  1.0  1.1096
  Zn  Zn137  1  0.750000  0.124720  0.875280  1.0  1.1098
  Zn  Zn138  1  0.250000  0.124720  0.375280  1.0  1.1098
  Zn  Zn139  1  0.125280  0.875280  0.500000  1.0  1.1074
  Zn  Zn140  1  0.625280  0.374720  0.250000  1.0  1.1077
  Zn  Zn141  1  0.124720  0.875280  0.750000  1.0  1.1083
  Zn  Zn142  1  0.124720  0.375280  0.250000  1.0  1.1083
  Zn  Zn143  1  0.624720  0.874720  0.500000  1.0  1.1086
  Zn  Zn144  1  0.624720  0.374720  0.000000  1.0  1.1086
  C  C145  1  0.954900  0.285700  0.125870  1.0  0.8552
  C  C146  1  0.954900  0.785700  0.625870  1.0  0.8552
  C  C147  1  0.454900  0.285700  0.625870  1.0  0.8552
  C  C148  1  0.454900  0.785700  0.125870  1.0  0.8552
  C  C149  1  0.295100  0.464300  0.625870  1.0  0.8556
  C  C150  1  0.295100  0.964300  0.125870  1.0  0.8556
  C  C151  1  0.795100  0.464300  0.125870  1.0  0.8556
  C  C152  1  0.795100  0.964300  0.625870  1.0  0.8556
  C  C153  1  0.795100  0.785700  0.124130  1.0  0.8557
  C  C154  1  0.795100  0.285700  0.624130  1.0  0.8557
  C  C155  1  0.295100  0.785700  0.624130  1.0  0.8557
  C  C156  1  0.295100  0.285700  0.124130  1.0  0.8557
  C  C157  1  0.454900  0.964300  0.624130  1.0  0.8548
  C  C158  1  0.454900  0.464300  0.124130  1.0  0.8548
  C  C159  1  0.954900  0.964300  0.124130  1.0  0.8548
  C  C160  1  0.954900  0.464300  0.624130  1.0  0.8548
  C  C161  1  0.125870  0.954900  0.285700  1.0  0.854
  C  C162  1  0.125870  0.454900  0.785700  1.0  0.854
  C  C163  1  0.625870  0.954900  0.785700  1.0  0.854
  C  C164  1  0.625870  0.454900  0.285700  1.0  0.854
  C  C165  1  0.625870  0.295100  0.464300  1.0  0.8564
  C  C166  1  0.625870  0.795100  0.964300  1.0  0.8564
  C  C167  1  0.125870  0.295100  0.964300  1.0  0.8564
  C  C168  1  0.125870  0.795100  0.464300  1.0  0.8564
  C  C169  1  0.124130  0.795100  0.785700  1.0  0.856
  C  C170  1  0.124130  0.295100  0.285700  1.0  0.856
  C  C171  1  0.624130  0.795100  0.285700  1.0  0.856
  C  C172  1  0.624130  0.295100  0.785700  1.0  0.856
  C  C173  1  0.624130  0.454900  0.964300  1.0  0.8542
  C  C174  1  0.624130  0.954900  0.464300  1.0  0.8542
  C  C175  1  0.124130  0.454900  0.464300  1.0  0.8542
  C  C176  1  0.124130  0.954900  0.964300  1.0  0.8542
  C  C177  1  0.285700  0.125870  0.954900  1.0  0.8561
  C  C178  1  0.285700  0.625870  0.454900  1.0  0.8561
  C  C179  1  0.785700  0.125870  0.454900  1.0  0.8561
  C  C180  1  0.785700  0.625870  0.954900  1.0  0.8561
  C  C181  1  0.464300  0.625870  0.295100  1.0  0.8566
  C  C182  1  0.464300  0.125870  0.795100  1.0  0.8566
  C  C183  1  0.964300  0.625870  0.795100  1.0  0.8566
  C  C184  1  0.964300  0.125870  0.295100  1.0  0.8566
  C  C185  1  0.785700  0.124130  0.795100  1.0  0.8563
  C  C186  1  0.785700  0.624130  0.295100  1.0  0.8563
  C  C187  1  0.285700  0.124130  0.295100  1.0  0.8563
  C  C188  1  0.285700  0.624130  0.795100  1.0  0.8563
  C  C189  1  0.964300  0.624130  0.454900  1.0  0.8561
  C  C190  1  0.964300  0.124130  0.954900  1.0  0.8561
  C  C191  1  0.464300  0.624130  0.954900  1.0  0.8561
  C  C192  1  0.464300  0.124130  0.454900  1.0  0.8561
  C  C193  1  0.035700  0.204900  0.874130  1.0  0.8538
  C  C194  1  0.035700  0.704900  0.374130  1.0  0.8538
  C  C195  1  0.535700  0.204900  0.374130  1.0  0.8538
  C  C196  1  0.535700  0.704900  0.874130  1.0  0.8538
  C  C197  1  0.214300  0.545100  0.374130  1.0  0.856
  C  C198  1  0.214300  0.045100  0.874130  1.0  0.856
  C  C199  1  0.714300  0.545100  0.874130  1.0  0.856
  C  C200  1  0.714300  0.045100  0.374130  1.0  0.856
  C  C201  1  0.535700  0.045100  0.875870  1.0  0.8563
  C  C202  1  0.535700  0.545100  0.375870  1.0  0.8563
  C  C203  1  0.035700  0.045100  0.375870  1.0  0.8563
  C  C204  1  0.035700  0.545100  0.875870  1.0  0.8563
  C  C205  1  0.714300  0.704900  0.375870  1.0  0.8541
  C  C206  1  0.714300  0.204900  0.875870  1.0  0.8541
  C  C207  1  0.214300  0.704900  0.875870  1.0  0.8541
  C  C208  1  0.214300  0.204900  0.375870  1.0  0.8541
  C  C209  1  0.704900  0.375870  0.714300  1.0  0.8553
  C  C210  1  0.704900  0.875870  0.214300  1.0  0.8553
  C  C211  1  0.204900  0.375870  0.214300  1.0  0.8553
  C  C212  1  0.204900  0.875870  0.714300  1.0  0.8553
  C  C213  1  0.045100  0.875870  0.535700  1.0  0.8558
  C  C214  1  0.045100  0.375870  0.035700  1.0  0.8558
  C  C215  1  0.545100  0.875870  0.035700  1.0  0.8558
  C  C216  1  0.545100  0.375870  0.535700  1.0  0.8558
  C  C217  1  0.545100  0.374130  0.214300  1.0  0.8553
  C  C218  1  0.545100  0.874130  0.714300  1.0  0.8553
  C  C219  1  0.045100  0.374130  0.714300  1.0  0.8553
  C  C220  1  0.045100  0.874130  0.214300  1.0  0.8553
  C  C221  1  0.204900  0.874130  0.035700  1.0  0.855
  C  C222  1  0.204900  0.374130  0.535700  1.0  0.855
  C  C223  1  0.704900  0.874130  0.535700  1.0  0.855
  C  C224  1  0.704900  0.374130  0.035700  1.0  0.855
  C  C225  1  0.875870  0.535700  0.045100  1.0  0.8564
  C  C226  1  0.875870  0.035700  0.545100  1.0  0.8564
  C  C227  1  0.375870  0.535700  0.545100  1.0  0.8564
  C  C228  1  0.375870  0.035700  0.045100  1.0  0.8564
  C  C229  1  0.375870  0.714300  0.704900  1.0  0.8563
  C  C230  1  0.375870  0.214300  0.204900  1.0  0.8563
  C  C231  1  0.875870  0.714300  0.204900  1.0  0.8563
  C  C232  1  0.875870  0.214300  0.704900  1.0  0.8563
  C  C233  1  0.874130  0.035700  0.204900  1.0  0.8568
  C  C234  1  0.874130  0.535700  0.704900  1.0  0.8568
  C  C235  1  0.374130  0.035700  0.704900  1.0  0.8568
  C  C236  1  0.374130  0.535700  0.204900  1.0  0.8568
  C  C237  1  0.374130  0.214300  0.545100  1.0  0.8565
  C  C238  1  0.374130  0.714300  0.045100  1.0  0.8565
  C  C239  1  0.874130  0.214300  0.045100  1.0  0.8565
  C  C240  1  0.874130  0.714300  0.545100  1.0  0.8565
  C  C241  1  0.045100  0.714300  0.874130  1.0  0.8553
  C  C242  1  0.045100  0.214300  0.374130  1.0  0.8553
  C  C243  1  0.545100  0.714300  0.374130  1.0  0.8553
  C  C244  1  0.545100  0.214300  0.874130  1.0  0.8553
  C  C245  1  0.704900  0.535700  0.374130  1.0  0.855
  C  C246  1  0.704900  0.035700  0.874130  1.0  0.855
  C  C247  1  0.204900  0.535700  0.874130  1.0  0.855
  C  C248  1  0.204900  0.035700  0.374130  1.0  0.855
  C  C249  1  0.204900  0.214300  0.875870  1.0  0.855
  C  C250  1  0.204900  0.714300  0.375870  1.0  0.855
  C  C251  1  0.704900  0.214300  0.375870  1.0  0.855
  C  C252  1  0.704900  0.714300  0.875870  1.0  0.855
  C  C253  1  0.545100  0.035700  0.375870  1.0  0.8559
  C  C254  1  0.545100  0.535700  0.875870  1.0  0.8559
  C  C255  1  0.045100  0.035700  0.875870  1.0  0.8559
  C  C256  1  0.045100  0.535700  0.375870  1.0  0.8559
  C  C257  1  0.874130  0.045100  0.714300  1.0  0.8563
  C  C258  1  0.874130  0.545100  0.214300  1.0  0.8563
  C  C259  1  0.374130  0.045100  0.214300  1.0  0.8563
  C  C260  1  0.374130  0.545100  0.714300  1.0  0.8563
  C  C261  1  0.374130  0.704900  0.535700  1.0  0.8541
  C  C262  1  0.374130  0.204900  0.035700  1.0  0.8541
  C  C263  1  0.874130  0.704900  0.035700  1.0  0.8541
  C  C264  1  0.874130  0.204900  0.535700  1.0  0.8541
  C  C265  1  0.875870  0.204900  0.214300  1.0  0.8543
  C  C266  1  0.875870  0.704900  0.714300  1.0  0.8543
  C  C267  1  0.375870  0.204900  0.714300  1.0  0.8543
  C  C268  1  0.375870  0.704900  0.214300  1.0  0.8543
  C  C269  1  0.375870  0.545100  0.035700  1.0  0.8559
  C  C270  1  0.375870  0.045100  0.535700  1.0  0.8559
  C  C271  1  0.875870  0.545100  0.535700  1.0  0.8559
  C  C272  1  0.875870  0.045100  0.035700  1.0  0.8559
  C  C273  1  0.714300  0.874130  0.045100  1.0  0.8562
  C  C274  1  0.714300  0.374130  0.545100  1.0  0.8562
  C  C275  1  0.214300  0.874130  0.545100  1.0  0.8562
  C  C276  1  0.214300  0.374130  0.045100  1.0  0.8562
  C  C277  1  0.535700  0.374130  0.704900  1.0  0.8557
  C  C278  1  0.535700  0.874130  0.204900  1.0  0.8557
  C  C279  1  0.035700  0.374130  0.204900  1.0  0.8557
  C  C280  1  0.035700  0.874130  0.704900  1.0  0.8557
  C  C281  1  0.214300  0.875870  0.204900  1.0  0.8564
  C  C282  1  0.214300  0.375870  0.704900  1.0  0.8564
  C  C283  1  0.714300  0.875870  0.704900  1.0  0.8564
  C  C284  1  0.714300  0.375870  0.204900  1.0  0.8564
  C  C285  1  0.035700  0.375870  0.545100  1.0  0.8566
  C  C286  1  0.035700  0.875870  0.045100  1.0  0.8566
  C  C287  1  0.535700  0.375870  0.045100  1.0  0.8566
  C  C288  1  0.535700  0.875870  0.545100  1.0  0.8566
  C  C289  1  0.964300  0.795100  0.125870  1.0  0.8563
  C  C290  1  0.964300  0.295100  0.625870  1.0  0.8563
  C  C291  1  0.464300  0.795100  0.625870  1.0  0.8563
  C  C292  1  0.464300  0.295100  0.125870  1.0  0.8563
  C  C293  1  0.785700  0.454900  0.625870  1.0  0.854
  C  C294  1  0.785700  0.954900  0.125870  1.0  0.854
  C  C295  1  0.285700  0.454900  0.125870  1.0  0.854
  C  C296  1  0.285700  0.954900  0.625870  1.0  0.854
  C  C297  1  0.464300  0.954900  0.124130  1.0  0.8539
  C  C298  1  0.464300  0.454900  0.624130  1.0  0.8539
  C  C299  1  0.964300  0.954900  0.624130  1.0  0.8539
  C  C300  1  0.964300  0.454900  0.124130  1.0  0.8539
  C  C301  1  0.285700  0.295100  0.624130  1.0  0.8561
  C  C302  1  0.285700  0.795100  0.124130  1.0  0.8561
  C  C303  1  0.785700  0.295100  0.124130  1.0  0.8561
  C  C304  1  0.785700  0.795100  0.624130  1.0  0.8561
  C  C305  1  0.295100  0.624130  0.285700  1.0  0.8554
  C  C306  1  0.295100  0.124130  0.785700  1.0  0.8554
  C  C307  1  0.795100  0.624130  0.785700  1.0  0.8554
  C  C308  1  0.795100  0.124130  0.285700  1.0  0.8554
  C  C309  1  0.954900  0.124130  0.464300  1.0  0.855
  C  C310  1  0.954900  0.624130  0.964300  1.0  0.855
  C  C311  1  0.454900  0.124130  0.964300  1.0  0.855
  C  C312  1  0.454900  0.624130  0.464300  1.0  0.855
  C  C313  1  0.454900  0.625870  0.785700  1.0  0.8553
  C  C314  1  0.454900  0.125870  0.285700  1.0  0.8553
  C  C315  1  0.954900  0.625870  0.285700  1.0  0.8553
  C  C316  1  0.954900  0.125870  0.785700  1.0  0.8553
  C  C317  1  0.795100  0.125870  0.964300  1.0  0.8556
  C  C318  1  0.795100  0.625870  0.464300  1.0  0.8556
  C  C319  1  0.295100  0.125870  0.464300  1.0  0.8556
  C  C320  1  0.295100  0.625870  0.964300  1.0  0.8556
  C  C321  1  0.124130  0.464300  0.954900  1.0  0.8562
  C  C322  1  0.124130  0.964300  0.454900  1.0  0.8562
  C  C323  1  0.624130  0.464300  0.454900  1.0  0.8562
  C  C324  1  0.624130  0.964300  0.954900  1.0  0.8562
  C  C325  1  0.624130  0.285700  0.295100  1.0  0.8565
  C  C326  1  0.624130  0.785700  0.795100  1.0  0.8565
  C  C327  1  0.124130  0.285700  0.795100  1.0  0.8565
  C  C328  1  0.124130  0.785700  0.295100  1.0  0.8565
  C  C329  1  0.125870  0.964300  0.795100  1.0  0.8564
  C  C330  1  0.125870  0.464300  0.295100  1.0  0.8564
  C  C331  1  0.625870  0.964300  0.295100  1.0  0.8564
  C  C332  1  0.625870  0.464300  0.795100  1.0  0.8564
  C  C333  1  0.625870  0.785700  0.454900  1.0  0.8568
  C  C334  1  0.625870  0.285700  0.954900  1.0  0.8568
  C  C335  1  0.125870  0.785700  0.954900  1.0  0.8568
  C  C336  1  0.125870  0.285700  0.454900  1.0  0.8568
  O  O337  1  0.994790  0.305070  0.125120  1.0  -0.526
  O  O338  1  0.952060  0.241190  0.124900  1.0  -0.5811
  O  O339  1  0.917590  0.308850  0.127630  1.0  -0.5713
  O  O340  1  0.994790  0.805070  0.625120  1.0  -0.526
  O  O341  1  0.952060  0.741190  0.624900  1.0  -0.5811
  O  O342  1  0.917590  0.808850  0.627630  1.0  -0.5713
  O  O343  1  0.494790  0.305070  0.625120  1.0  -0.526
  O  O344  1  0.452060  0.241190  0.624900  1.0  -0.5811
  O  O345  1  0.417590  0.308850  0.627630  1.0  -0.5713
  O  O346  1  0.494790  0.805070  0.125120  1.0  -0.526
  O  O347  1  0.452060  0.741190  0.124900  1.0  -0.5811
  O  O348  1  0.417590  0.808850  0.127630  1.0  -0.5713
  O  O349  1  0.255210  0.444930  0.625120  1.0  -0.5254
  O  O350  1  0.297940  0.508810  0.624900  1.0  -0.5808
  O  O351  1  0.332410  0.441150  0.627630  1.0  -0.5707
  O  O352  1  0.255210  0.944930  0.125120  1.0  -0.5254
  O  O353  1  0.297940  0.008810  0.124900  1.0  -0.5808
  O  O354  1  0.332410  0.941150  0.127630  1.0  -0.5707
  O  O355  1  0.755210  0.444930  0.125120  1.0  -0.5254
  O  O356  1  0.797940  0.508810  0.124900  1.0  -0.5808
  O  O357  1  0.832410  0.441150  0.127630  1.0  -0.5707
  O  O358  1  0.755210  0.944930  0.625120  1.0  -0.5254
  O  O359  1  0.797940  0.008810  0.624900  1.0  -0.5808
  O  O360  1  0.832410  0.941150  0.627630  1.0  -0.5707
  O  O361  1  0.755210  0.805070  0.124880  1.0  -0.526
  O  O362  1  0.797940  0.741190  0.125100  1.0  -0.5781
  O  O363  1  0.832410  0.808850  0.122370  1.0  -0.5717
  O  O364  1  0.755210  0.305070  0.624880  1.0  -0.526
  O  O365  1  0.797940  0.241190  0.625100  1.0  -0.5781
  O  O366  1  0.832410  0.308850  0.622370  1.0  -0.5717
  O  O367  1  0.255210  0.805070  0.624880  1.0  -0.526
  O  O368  1  0.297940  0.741190  0.625100  1.0  -0.5781
  O  O369  1  0.332410  0.808850  0.622370  1.0  -0.5717
  O  O370  1  0.255210  0.305070  0.124880  1.0  -0.526
  O  O371  1  0.297940  0.241190  0.125100  1.0  -0.5781
  O  O372  1  0.332410  0.308850  0.122370  1.0  -0.5717
  O  O373  1  0.494790  0.944930  0.624880  1.0  -0.5255
  O  O374  1  0.452060  0.008810  0.625100  1.0  -0.5796
  O  O375  1  0.417590  0.941150  0.622370  1.0  -0.5719
  O  O376  1  0.494790  0.444930  0.124880  1.0  -0.5255
  O  O377  1  0.452060  0.508810  0.125100  1.0  -0.5796
  O  O378  1  0.417590  0.441150  0.122370  1.0  -0.5719
  O  O379  1  0.994790  0.944930  0.124880  1.0  -0.5255
  O  O380  1  0.952060  0.008810  0.125100  1.0  -0.5796
  O  O381  1  0.917590  0.941150  0.122370  1.0  -0.5719
  O  O382  1  0.994790  0.444930  0.624880  1.0  -0.5255
  O  O383  1  0.952060  0.508810  0.625100  1.0  -0.5796
  O  O384  1  0.917590  0.441150  0.622370  1.0  -0.5719
  O  O385  1  0.125120  0.994790  0.305070  1.0  -0.5244
  O  O386  1  0.124900  0.952060  0.241190  1.0  -0.5782
  O  O387  1  0.127630  0.917590  0.308850  1.0  -0.5708
  O  O388  1  0.125120  0.494790  0.805070  1.0  -0.5244
  O  O389  1  0.124900  0.452060  0.741190  1.0  -0.5782
  O  O390  1  0.127630  0.417590  0.808850  1.0  -0.5708
  O  O391  1  0.625120  0.994790  0.805070  1.0  -0.5244
  O  O392  1  0.624900  0.952060  0.741190  1.0  -0.5782
  O  O393  1  0.627630  0.917590  0.808850  1.0  -0.5708
  O  O394  1  0.625120  0.494790  0.305070  1.0  -0.5244
  O  O395  1  0.624900  0.452060  0.241190  1.0  -0.5782
  O  O396  1  0.627630  0.417590  0.308850  1.0  -0.5708
  O  O397  1  0.625120  0.255210  0.444930  1.0  -0.5238
  O  O398  1  0.624900  0.297940  0.508810  1.0  -0.5749
  O  O399  1  0.627630  0.332410  0.441150  1.0  -0.5709
  O  O400  1  0.625120  0.755210  0.944930  1.0  -0.5238
  O  O401  1  0.624900  0.797940  0.008810  1.0  -0.5749
  O  O402  1  0.627630  0.832410  0.941150  1.0  -0.5709
  O  O403  1  0.125120  0.255210  0.944930  1.0  -0.5238
  O  O404  1  0.124900  0.297940  0.008810  1.0  -0.5749
  O  O405  1  0.127630  0.332410  0.941150  1.0  -0.5709
  O  O406  1  0.125120  0.755210  0.444930  1.0  -0.5238
  O  O407  1  0.124900  0.797940  0.508810  1.0  -0.5749
  O  O408  1  0.127630  0.832410  0.441150  1.0  -0.5709
  O  O409  1  0.124880  0.755210  0.805070  1.0  -0.5236
  O  O410  1  0.125100  0.797940  0.741190  1.0  -0.5749
  O  O411  1  0.122370  0.832410  0.808850  1.0  -0.5717
  O  O412  1  0.124880  0.255210  0.305070  1.0  -0.5236
  O  O413  1  0.125100  0.297940  0.241190  1.0  -0.5749
  O  O414  1  0.122370  0.332410  0.308850  1.0  -0.5717
  O  O415  1  0.624880  0.755210  0.305070  1.0  -0.5236
  O  O416  1  0.625100  0.797940  0.241190  1.0  -0.5749
  O  O417  1  0.622370  0.832410  0.308850  1.0  -0.5717
  O  O418  1  0.624880  0.255210  0.805070  1.0  -0.5236
  O  O419  1  0.625100  0.297940  0.741190  1.0  -0.5749
  O  O420  1  0.622370  0.332410  0.808850  1.0  -0.5717
  O  O421  1  0.624880  0.494790  0.944930  1.0  -0.5234
  O  O422  1  0.625100  0.452060  0.008810  1.0  -0.5748
  O  O423  1  0.622370  0.417590  0.941150  1.0  -0.5715
  O  O424  1  0.624880  0.994790  0.444930  1.0  -0.5234
  O  O425  1  0.625100  0.952060  0.508810  1.0  -0.5748
  O  O426  1  0.622370  0.917590  0.441150  1.0  -0.5715
  O  O427  1  0.124880  0.494790  0.444930  1.0  -0.5234
  O  O428  1  0.125100  0.452060  0.508810  1.0  -0.5748
  O  O429  1  0.122370  0.417590  0.441150  1.0  -0.5715
  O  O430  1  0.124880  0.994790  0.944930  1.0  -0.5234
  O  O431  1  0.125100  0.952060  0.008810  1.0  -0.5748
  O  O432  1  0.122370  0.917590  0.941150  1.0  -0.5715
  O  O433  1  0.305070  0.125120  0.994790  1.0  -0.5271
  O  O434  1  0.241190  0.124900  0.952060  1.0  -0.5789
  O  O435  1  0.308850  0.127630  0.917590  1.0  -0.572
  O  O436  1  0.305070  0.625120  0.494790  1.0  -0.5271
  O  O437  1  0.241190  0.624900  0.452060  1.0  -0.5789
  O  O438  1  0.308850  0.627630  0.417590  1.0  -0.572
  O  O439  1  0.805070  0.125120  0.494790  1.0  -0.5271
  O  O440  1  0.741190  0.124900  0.452060  1.0  -0.5789
  O  O441  1  0.808850  0.127630  0.417590  1.0  -0.572
  O  O442  1  0.805070  0.625120  0.994790  1.0  -0.5271
  O  O443  1  0.741190  0.624900  0.952060  1.0  -0.5789
  O  O444  1  0.808850  0.627630  0.917590  1.0  -0.572
  O  O445  1  0.444930  0.625120  0.255210  1.0  -0.5265
  O  O446  1  0.508810  0.624900  0.297940  1.0  -0.5771
  O  O447  1  0.441150  0.627630  0.332410  1.0  -0.5709
  O  O448  1  0.444930  0.125120  0.755210  1.0  -0.5265
  O  O449  1  0.508810  0.124900  0.797940  1.0  -0.5771
  O  O450  1  0.441150  0.127630  0.832410  1.0  -0.5709
  O  O451  1  0.944930  0.625120  0.755210  1.0  -0.5265
  O  O452  1  0.008810  0.624900  0.797940  1.0  -0.5771
  O  O453  1  0.941150  0.627630  0.832410  1.0  -0.5709
  O  O454  1  0.944930  0.125120  0.255210  1.0  -0.5265
  O  O455  1  0.008810  0.124900  0.297940  1.0  -0.5771
  O  O456  1  0.941150  0.127630  0.332410  1.0  -0.5709
  O  O457  1  0.805070  0.124880  0.755210  1.0  -0.5274
  O  O458  1  0.741190  0.125100  0.797940  1.0  -0.5767
  O  O459  1  0.808850  0.122370  0.832410  1.0  -0.5711
  O  O460  1  0.805070  0.624880  0.255210  1.0  -0.5274
  O  O461  1  0.741190  0.625100  0.297940  1.0  -0.5767
  O  O462  1  0.808850  0.622370  0.332410  1.0  -0.5711
  O  O463  1  0.305070  0.124880  0.255210  1.0  -0.5274
  O  O464  1  0.241190  0.125100  0.297940  1.0  -0.5767
  O  O465  1  0.308850  0.122370  0.332410  1.0  -0.5711
  O  O466  1  0.305070  0.624880  0.755210  1.0  -0.5274
  O  O467  1  0.241190  0.625100  0.797940  1.0  -0.5767
  O  O468  1  0.308850  0.622370  0.832410  1.0  -0.5711
  O  O469  1  0.944930  0.624880  0.494790  1.0  -0.5261
  O  O470  1  0.008810  0.625100  0.452060  1.0  -0.5781
  O  O471  1  0.941150  0.622370  0.417590  1.0  -0.5716
  O  O472  1  0.944930  0.124880  0.994790  1.0  -0.5261
  O  O473  1  0.008810  0.125100  0.952060  1.0  -0.5781
  O  O474  1  0.941150  0.122370  0.917590  1.0  -0.5716
  O  O475  1  0.444930  0.624880  0.994790  1.0  -0.5261
  O  O476  1  0.508810  0.625100  0.952060  1.0  -0.5781
  O  O477  1  0.441150  0.622370  0.917590  1.0  -0.5716
  O  O478  1  0.444930  0.124880  0.494790  1.0  -0.5261
  O  O479  1  0.508810  0.125100  0.452060  1.0  -0.5781
  O  O480  1  0.441150  0.122370  0.417590  1.0  -0.5716
  O  O481  1  0.055070  0.244790  0.874880  1.0  -0.5277
  O  O482  1  0.991190  0.202060  0.875100  1.0  -0.5799
  O  O483  1  0.058850  0.167590  0.872370  1.0  -0.5722
  O  O484  1  0.055070  0.744790  0.374880  1.0  -0.5277
  O  O485  1  0.991190  0.702060  0.375100  1.0  -0.5799
  O  O486  1  0.058850  0.667590  0.372370  1.0  -0.5722
  O  O487  1  0.555070  0.244790  0.374880  1.0  -0.5277
  O  O488  1  0.491190  0.202060  0.375100  1.0  -0.5799
  O  O489  1  0.558850  0.167590  0.372370  1.0  -0.5722
  O  O490  1  0.555070  0.744790  0.874880  1.0  -0.5277
  O  O491  1  0.491190  0.702060  0.875100  1.0  -0.5799
  O  O492  1  0.558850  0.667590  0.872370  1.0  -0.5722
  O  O493  1  0.194930  0.505210  0.374880  1.0  -0.5266
  O  O494  1  0.258810  0.547940  0.375100  1.0  -0.5793
  O  O495  1  0.191150  0.582410  0.372370  1.0  -0.5725
  O  O496  1  0.194930  0.005210  0.874880  1.0  -0.5266
  O  O497  1  0.258810  0.047940  0.875100  1.0  -0.5793
  O  O498  1  0.191150  0.082410  0.872370  1.0  -0.5725
  O  O499  1  0.694930  0.505210  0.874880  1.0  -0.5266
  O  O500  1  0.758810  0.547940  0.875100  1.0  -0.5793
  O  O501  1  0.691150  0.582410  0.872370  1.0  -0.5725
  O  O502  1  0.694930  0.005210  0.374880  1.0  -0.5266
  O  O503  1  0.758810  0.047940  0.375100  1.0  -0.5793
  O  O504  1  0.691150  0.082410  0.372370  1.0  -0.5725
  O  O505  1  0.555070  0.005210  0.875120  1.0  -0.5266
  O  O506  1  0.491190  0.047940  0.874900  1.0  -0.5788
  O  O507  1  0.558850  0.082410  0.877630  1.0  -0.5719
  O  O508  1  0.555070  0.505210  0.375120  1.0  -0.5266
  O  O509  1  0.491190  0.547940  0.374900  1.0  -0.5788
  O  O510  1  0.558850  0.582410  0.377630  1.0  -0.5719
  O  O511  1  0.055070  0.005210  0.375120  1.0  -0.5266
  O  O512  1  0.991190  0.047940  0.374900  1.0  -0.5788
  O  O513  1  0.058850  0.082410  0.377630  1.0  -0.5719
  O  O514  1  0.055070  0.505210  0.875120  1.0  -0.5266
  O  O515  1  0.991190  0.547940  0.874900  1.0  -0.5788
  O  O516  1  0.058850  0.582410  0.877630  1.0  -0.5719
  O  O517  1  0.694930  0.744790  0.375120  1.0  -0.5254
  O  O518  1  0.758810  0.702060  0.374900  1.0  -0.5802
  O  O519  1  0.691150  0.667590  0.377630  1.0  -0.572
  O  O520  1  0.694930  0.244790  0.875120  1.0  -0.5254
  O  O521  1  0.758810  0.202060  0.874900  1.0  -0.5802
  O  O522  1  0.691150  0.167590  0.877630  1.0  -0.572
  O  O523  1  0.194930  0.744790  0.875120  1.0  -0.5254
  O  O524  1  0.258810  0.702060  0.874900  1.0  -0.5802
  O  O525  1  0.191150  0.667590  0.877630  1.0  -0.572
  O  O526  1  0.194930  0.244790  0.375120  1.0  -0.5254
  O  O527  1  0.258810  0.202060  0.374900  1.0  -0.5802
  O  O528  1  0.191150  0.167590  0.377630  1.0  -0.572
  O  O529  1  0.744790  0.375120  0.694930  1.0  -0.5251
  O  O530  1  0.702060  0.374900  0.758810  1.0  -0.572
  O  O531  1  0.667590  0.377630  0.691150  1.0  -0.5703
  O  O532  1  0.744790  0.875120  0.194930  1.0  -0.5251
  O  O533  1  0.702060  0.874900  0.258810  1.0  -0.572
  O  O534  1  0.667590  0.877630  0.191150  1.0  -0.5703
  O  O535  1  0.244790  0.375120  0.194930  1.0  -0.5251
  O  O536  1  0.202060  0.374900  0.258810  1.0  -0.572
  O  O537  1  0.167590  0.377630  0.191150  1.0  -0.5703
  O  O538  1  0.244790  0.875120  0.694930  1.0  -0.5251
  O  O539  1  0.202060  0.874900  0.758810  1.0  -0.572
  O  O540  1  0.167590  0.877630  0.691150  1.0  -0.5703
  O  O541  1  0.005210  0.875120  0.555070  1.0  -0.5249
  O  O542  1  0.047940  0.874900  0.491190  1.0  -0.5739
  O  O543  1  0.082410  0.877630  0.558850  1.0  -0.5704
  O  O544  1  0.005210  0.375120  0.055070  1.0  -0.5249
  O  O545  1  0.047940  0.374900  0.991190  1.0  -0.5739
  O  O546  1  0.082410  0.377630  0.058850  1.0  -0.5704
  O  O547  1  0.505210  0.875120  0.055070  1.0  -0.5249
  O  O548  1  0.547940  0.874900  0.991190  1.0  -0.5739
  O  O549  1  0.582410  0.877630  0.058850  1.0  -0.5704
  O  O550  1  0.505210  0.375120  0.555070  1.0  -0.5249
  O  O551  1  0.547940  0.374900  0.491190  1.0  -0.5739
  O  O552  1  0.582410  0.377630  0.558850  1.0  -0.5704
  O  O553  1  0.505210  0.374880  0.194930  1.0  -0.5251
  O  O554  1  0.547940  0.375100  0.258810  1.0  -0.5731
  O  O555  1  0.582410  0.372370  0.191150  1.0  -0.5706
  O  O556  1  0.505210  0.874880  0.694930  1.0  -0.5251
  O  O557  1  0.547940  0.875100  0.758810  1.0  -0.5731
  O  O558  1  0.582410  0.872370  0.691150  1.0  -0.5706
  O  O559  1  0.005210  0.374880  0.694930  1.0  -0.5251
  O  O560  1  0.047940  0.375100  0.758810  1.0  -0.5731
  O  O561  1  0.082410  0.372370  0.691150  1.0  -0.5706
  O  O562  1  0.005210  0.874880  0.194930  1.0  -0.5251
  O  O563  1  0.047940  0.875100  0.258810  1.0  -0.5731
  O  O564  1  0.082410  0.872370  0.191150  1.0  -0.5706
  O  O565  1  0.244790  0.874880  0.055070  1.0  -0.5249
  O  O566  1  0.202060  0.875100  0.991190  1.0  -0.5747
  O  O567  1  0.167590  0.872370  0.058850  1.0  -0.5708
  O  O568  1  0.244790  0.374880  0.555070  1.0  -0.5249
  O  O569  1  0.202060  0.375100  0.491190  1.0  -0.5747
  O  O570  1  0.167590  0.372370  0.558850  1.0  -0.5708
  O  O571  1  0.744790  0.874880  0.555070  1.0  -0.5249
  O  O572  1  0.702060  0.875100  0.491190  1.0  -0.5747
  O  O573  1  0.667590  0.872370  0.558850  1.0  -0.5708
  O  O574  1  0.744790  0.374880  0.055070  1.0  -0.5249
  O  O575  1  0.702060  0.375100  0.991190  1.0  -0.5747
  O  O576  1  0.667590  0.372370  0.058850  1.0  -0.5708
  O  O577  1  0.875120  0.555070  0.005210  1.0  -0.5249
  O  O578  1  0.874900  0.491190  0.047940  1.0  -0.5774
  O  O579  1  0.877630  0.558850  0.082410  1.0  -0.5703
  O  O580  1  0.875120  0.055070  0.505210  1.0  -0.5249
  O  O581  1  0.874900  0.991190  0.547940  1.0  -0.5774
  O  O582  1  0.877630  0.058850  0.582410  1.0  -0.5703
  O  O583  1  0.375120  0.555070  0.505210  1.0  -0.5249
  O  O584  1  0.374900  0.491190  0.547940  1.0  -0.5774
  O  O585  1  0.377630  0.558850  0.582410  1.0  -0.5703
  O  O586  1  0.375120  0.055070  0.005210  1.0  -0.5249
  O  O587  1  0.374900  0.991190  0.047940  1.0  -0.5774
  O  O588  1  0.377630  0.058850  0.082410  1.0  -0.5703
  O  O589  1  0.375120  0.694930  0.744790  1.0  -0.5247
  O  O590  1  0.374900  0.758810  0.702060  1.0  -0.5794
  O  O591  1  0.377630  0.691150  0.667590  1.0  -0.5709
  O  O592  1  0.375120  0.194930  0.244790  1.0  -0.5247
  O  O593  1  0.374900  0.258810  0.202060  1.0  -0.5794
  O  O594  1  0.377630  0.191150  0.167590  1.0  -0.5709
  O  O595  1  0.875120  0.694930  0.244790  1.0  -0.5247
  O  O596  1  0.874900  0.758810  0.202060  1.0  -0.5794
  O  O597  1  0.877630  0.691150  0.167590  1.0  -0.5709
  O  O598  1  0.875120  0.194930  0.744790  1.0  -0.5247
  O  O599  1  0.874900  0.258810  0.702060  1.0  -0.5794
  O  O600  1  0.877630  0.191150  0.667590  1.0  -0.5709
  O  O601  1  0.874880  0.055070  0.244790  1.0  -0.5245
  O  O602  1  0.875100  0.991190  0.202060  1.0  -0.5793
  O  O603  1  0.872370  0.058850  0.167590  1.0  -0.5719
  O  O604  1  0.874880  0.555070  0.744790  1.0  -0.5245
  O  O605  1  0.875100  0.491190  0.702060  1.0  -0.5793
  O  O606  1  0.872370  0.558850  0.667590  1.0  -0.5719
  O  O607  1  0.374880  0.055070  0.744790  1.0  -0.5245
  O  O608  1  0.375100  0.991190  0.702060  1.0  -0.5793
  O  O609  1  0.372370  0.058850  0.667590  1.0  -0.5719
  O  O610  1  0.374880  0.555070  0.244790  1.0  -0.5245
  O  O611  1  0.375100  0.491190  0.202060  1.0  -0.5793
  O  O612  1  0.372370  0.558850  0.167590  1.0  -0.5719
  O  O613  1  0.374880  0.194930  0.505210  1.0  -0.5246
  O  O614  1  0.375100  0.258810  0.547940  1.0  -0.5796
  O  O615  1  0.372370  0.191150  0.582410  1.0  -0.5705
  O  O616  1  0.374880  0.694930  0.005210  1.0  -0.5246
  O  O617  1  0.375100  0.758810  0.047940  1.0  -0.5796
  O  O618  1  0.372370  0.691150  0.082410  1.0  -0.5705
  O  O619  1  0.874880  0.194930  0.005210  1.0  -0.5246
  O  O620  1  0.875100  0.258810  0.047940  1.0  -0.5796
  O  O621  1  0.872370  0.191150  0.082410  1.0  -0.5705
  O  O622  1  0.874880  0.694930  0.505210  1.0  -0.5246
  O  O623  1  0.875100  0.758810  0.547940  1.0  -0.5796
  O  O624  1  0.872370  0.691150  0.582410  1.0  -0.5705
  O  O625  1  0.005210  0.694930  0.874880  1.0  -0.5256
  O  O626  1  0.047940  0.758810  0.875100  1.0  -0.5798
  O  O627  1  0.082410  0.691150  0.872370  1.0  -0.5711
  O  O628  1  0.005210  0.194930  0.374880  1.0  -0.5256
  O  O629  1  0.047940  0.258810  0.375100  1.0  -0.5798
  O  O630  1  0.082410  0.191150  0.372370  1.0  -0.5711
  O  O631  1  0.505210  0.694930  0.374880  1.0  -0.5256
  O  O632  1  0.547940  0.758810  0.375100  1.0  -0.5798
  O  O633  1  0.582410  0.691150  0.372370  1.0  -0.5711
  O  O634  1  0.505210  0.194930  0.874880  1.0  -0.5256
  O  O635  1  0.547940  0.258810  0.875100  1.0  -0.5798
  O  O636  1  0.582410  0.191150  0.872370  1.0  -0.5711
  O  O637  1  0.744790  0.555070  0.374880  1.0  -0.5263
  O  O638  1  0.702060  0.491190  0.375100  1.0  -0.5801
  O  O639  1  0.667590  0.558850  0.372370  1.0  -0.5716
  O  O640  1  0.744790  0.055070  0.874880  1.0  -0.5263
  O  O641  1  0.702060  0.991190  0.875100  1.0  -0.5801
  O  O642  1  0.667590  0.058850  0.872370  1.0  -0.5716
  O  O643  1  0.244790  0.555070  0.874880  1.0  -0.5263
  O  O644  1  0.202060  0.491190  0.875100  1.0  -0.5801
  O  O645  1  0.167590  0.558850  0.872370  1.0  -0.5716
  O  O646  1  0.244790  0.055070  0.374880  1.0  -0.5263
  O  O647  1  0.202060  0.991190  0.375100  1.0  -0.5801
  O  O648  1  0.167590  0.058850  0.372370  1.0  -0.5716
  O  O649  1  0.244790  0.194930  0.875120  1.0  -0.525
  O  O650  1  0.202060  0.258810  0.874900  1.0  -0.5783
  O  O651  1  0.167590  0.191150  0.877630  1.0  -0.5713
  O  O652  1  0.244790  0.694930  0.375120  1.0  -0.525
  O  O653  1  0.202060  0.758810  0.374900  1.0  -0.5783
  O  O654  1  0.167590  0.691150  0.377630  1.0  -0.5713
  O  O655  1  0.744790  0.194930  0.375120  1.0  -0.525
  O  O656  1  0.702060  0.258810  0.374900  1.0  -0.5783
  O  O657  1  0.667590  0.191150  0.377630  1.0  -0.5713
  O  O658  1  0.744790  0.694930  0.875120  1.0  -0.525
  O  O659  1  0.702060  0.758810  0.874900  1.0  -0.5783
  O  O660  1  0.667590  0.691150  0.877630  1.0  -0.5713
  O  O661  1  0.505210  0.055070  0.375120  1.0  -0.5253
  O  O662  1  0.547940  0.991190  0.374900  1.0  -0.5769
  O  O663  1  0.582410  0.058850  0.377630  1.0  -0.5712
  O  O664  1  0.505210  0.555070  0.875120  1.0  -0.5253
  O  O665  1  0.547940  0.491190  0.874900  1.0  -0.5769
  O  O666  1  0.582410  0.558850  0.877630  1.0  -0.5712
  O  O667  1  0.005210  0.055070  0.875120  1.0  -0.5253
  O  O668  1  0.047940  0.991190  0.874900  1.0  -0.5769
  O  O669  1  0.082410  0.058850  0.877630  1.0  -0.5712
  O  O670  1  0.005210  0.555070  0.375120  1.0  -0.5253
  O  O671  1  0.047940  0.491190  0.374900  1.0  -0.5769
  O  O672  1  0.082410  0.558850  0.377630  1.0  -0.5712
  O  O673  1  0.874880  0.005210  0.694930  1.0  -0.5238
  O  O674  1  0.875100  0.047940  0.758810  1.0  -0.5739
  O  O675  1  0.872370  0.082410  0.691150  1.0  -0.5715
  O  O676  1  0.874880  0.505210  0.194930  1.0  -0.5238
  O  O677  1  0.875100  0.547940  0.258810  1.0  -0.5739
  O  O678  1  0.872370  0.582410  0.191150  1.0  -0.5715
  O  O679  1  0.374880  0.005210  0.194930  1.0  -0.5238
  O  O680  1  0.375100  0.047940  0.258810  1.0  -0.5739
  O  O681  1  0.372370  0.082410  0.191150  1.0  -0.5715
  O  O682  1  0.374880  0.505210  0.694930  1.0  -0.5238
  O  O683  1  0.375100  0.547940  0.758810  1.0  -0.5739
  O  O684  1  0.372370  0.582410  0.691150  1.0  -0.5715
  O  O685  1  0.374880  0.744790  0.555070  1.0  -0.5241
  O  O686  1  0.375100  0.702060  0.491190  1.0  -0.5772
  O  O687  1  0.372370  0.667590  0.558850  1.0  -0.5712
  O  O688  1  0.374880  0.244790  0.055070  1.0  -0.5241
  O  O689  1  0.375100  0.202060  0.991190  1.0  -0.5772
  O  O690  1  0.372370  0.167590  0.058850  1.0  -0.5712
  O  O691  1  0.874880  0.744790  0.055070  1.0  -0.5241
  O  O692  1  0.875100  0.702060  0.991190  1.0  -0.5772
  O  O693  1  0.872370  0.667590  0.058850  1.0  -0.5712
  O  O694  1  0.874880  0.244790  0.555070  1.0  -0.5241
  O  O695  1  0.875100  0.202060  0.491190  1.0  -0.5772
  O  O696  1  0.872370  0.167590  0.558850  1.0  -0.5712
  O  O697  1  0.875120  0.244790  0.194930  1.0  -0.5232
  O  O698  1  0.874900  0.202060  0.258810  1.0  -0.5737
  O  O699  1  0.877630  0.167590  0.191150  1.0  -0.5713
  O  O700  1  0.875120  0.744790  0.694930  1.0  -0.5232
  O  O701  1  0.874900  0.702060  0.758810  1.0  -0.5737
  O  O702  1  0.877630  0.667590  0.691150  1.0  -0.5713
  O  O703  1  0.375120  0.244790  0.694930  1.0  -0.5232
  O  O704  1  0.374900  0.202060  0.758810  1.0  -0.5737
  O  O705  1  0.377630  0.167590  0.691150  1.0  -0.5713
  O  O706  1  0.375120  0.744790  0.194930  1.0  -0.5232
  O  O707  1  0.374900  0.702060  0.258810  1.0  -0.5737
  O  O708  1  0.377630  0.667590  0.191150  1.0  -0.5713
  O  O709  1  0.375120  0.505210  0.055070  1.0  -0.5235
  O  O710  1  0.374900  0.547940  0.991190  1.0  -0.5739
  O  O711  1  0.377630  0.582410  0.058850  1.0  -0.5712
  O  O712  1  0.375120  0.005210  0.555070  1.0  -0.5235
  O  O713  1  0.374900  0.047940  0.491190  1.0  -0.5739
  O  O714  1  0.377630  0.082410  0.558850  1.0  -0.5712
  O  O715  1  0.875120  0.505210  0.555070  1.0  -0.5235
  O  O716  1  0.874900  0.547940  0.491190  1.0  -0.5739
  O  O717  1  0.877630  0.582410  0.558850  1.0  -0.5712
  O  O718  1  0.875120  0.005210  0.055070  1.0  -0.5235
  O  O719  1  0.874900  0.047940  0.991190  1.0  -0.5739
  O  O720  1  0.877630  0.082410  0.058850  1.0  -0.5712
  O  O721  1  0.694930  0.874880  0.005210  1.0  -0.526
  O  O722  1  0.758810  0.875100  0.047940  1.0  -0.576
  O  O723  1  0.691150  0.872370  0.082410  1.0  -0.5713
  O  O724  1  0.694930  0.374880  0.505210  1.0  -0.526
  O  O725  1  0.758810  0.375100  0.547940  1.0  -0.576
  O  O726  1  0.691150  0.372370  0.582410  1.0  -0.5713
  O  O727  1  0.194930  0.874880  0.505210  1.0  -0.526
  O  O728  1  0.258810  0.875100  0.547940  1.0  -0.576
  O  O729  1  0.191150  0.872370  0.582410  1.0  -0.5713
  O  O730  1  0.194930  0.374880  0.005210  1.0  -0.526
  O  O731  1  0.258810  0.375100  0.047940  1.0  -0.576
  O  O732  1  0.191150  0.372370  0.082410  1.0  -0.5713
  O  O733  1  0.555070  0.374880  0.744790  1.0  -0.527
  O  O734  1  0.491190  0.375100  0.702060  1.0  -0.5778
  O  O735  1  0.558850  0.372370  0.667590  1.0  -0.5724
  O  O736  1  0.555070  0.874880  0.244790  1.0  -0.527
  O  O737  1  0.491190  0.875100  0.202060  1.0  -0.5778
  O  O738  1  0.558850  0.872370  0.167590  1.0  -0.5724
  O  O739  1  0.055070  0.374880  0.244790  1.0  -0.527
  O  O740  1  0.991190  0.375100  0.202060  1.0  -0.5778
  O  O741  1  0.058850  0.372370  0.167590  1.0  -0.5724
  O  O742  1  0.055070  0.874880  0.744790  1.0  -0.527
  O  O743  1  0.991190  0.875100  0.702060  1.0  -0.5778
  O  O744  1  0.058850  0.872370  0.667590  1.0  -0.5724
  O  O745  1  0.194930  0.875120  0.244790  1.0  -0.5259
  O  O746  1  0.258810  0.874900  0.202060  1.0  -0.5767
  O  O747  1  0.191150  0.877630  0.167590  1.0  -0.5717
  O  O748  1  0.194930  0.375120  0.744790  1.0  -0.5259
  O  O749  1  0.258810  0.374900  0.702060  1.0  -0.5767
  O  O750  1  0.191150  0.377630  0.667590  1.0  -0.5717
  O  O751  1  0.694930  0.875120  0.744790  1.0  -0.5259
  O  O752  1  0.758810  0.874900  0.702060  1.0  -0.5767
  O  O753  1  0.691150  0.877630  0.667590  1.0  -0.5717
  O  O754  1  0.694930  0.375120  0.244790  1.0  -0.5259
  O  O755  1  0.758810  0.374900  0.202060  1.0  -0.5767
  O  O756  1  0.691150  0.377630  0.167590  1.0  -0.5717
  O  O757  1  0.055070  0.375120  0.505210  1.0  -0.5275
  O  O758  1  0.991190  0.374900  0.547940  1.0  -0.5753
  O  O759  1  0.058850  0.377630  0.582410  1.0  -0.5711
  O  O760  1  0.055070  0.875120  0.005210  1.0  -0.5275
  O  O761  1  0.991190  0.874900  0.047940  1.0  -0.5753
  O  O762  1  0.058850  0.877630  0.082410  1.0  -0.5711
  O  O763  1  0.555070  0.375120  0.005210  1.0  -0.5275
  O  O764  1  0.491190  0.374900  0.047940  1.0  -0.5753
  O  O765  1  0.558850  0.377630  0.082410  1.0  -0.5711
  O  O766  1  0.555070  0.875120  0.505210  1.0  -0.5275
  O  O767  1  0.491190  0.874900  0.547940  1.0  -0.5753
  O  O768  1  0.558850  0.877630  0.582410  1.0  -0.5711
  O  O769  1  0.944930  0.755210  0.125120  1.0  -0.5262
  O  O770  1  0.008810  0.797940  0.124900  1.0  -0.578
  O  O771  1  0.941150  0.832410  0.127630  1.0  -0.573
  O  O772  1  0.944930  0.255210  0.625120  1.0  -0.5262
  O  O773  1  0.008810  0.297940  0.624900  1.0  -0.578
  O  O774  1  0.941150  0.332410  0.627630  1.0  -0.573
  O  O775  1  0.444930  0.755210  0.625120  1.0  -0.5262
  O  O776  1  0.508810  0.797940  0.624900  1.0  -0.578
  O  O777  1  0.441150  0.832410  0.627630  1.0  -0.573
  O  O778  1  0.444930  0.255210  0.125120  1.0  -0.5262
  O  O779  1  0.508810  0.297940  0.124900  1.0  -0.578
  O  O780  1  0.441150  0.332410  0.127630  1.0  -0.573
  O  O781  1  0.805070  0.494790  0.625120  1.0  -0.5274
  O  O782  1  0.741190  0.452060  0.624900  1.0  -0.5783
  O  O783  1  0.808850  0.417590  0.627630  1.0  -0.5727
  O  O784  1  0.805070  0.994790  0.125120  1.0  -0.5274
  O  O785  1  0.741190  0.952060  0.124900  1.0  -0.5783
  O  O786  1  0.808850  0.917590  0.127630  1.0  -0.5727
  O  O787  1  0.305070  0.494790  0.125120  1.0  -0.5274
  O  O788  1  0.241190  0.452060  0.124900  1.0  -0.5783
  O  O789  1  0.308850  0.417590  0.127630  1.0  -0.5727
  O  O790  1  0.305070  0.994790  0.625120  1.0  -0.5274
  O  O791  1  0.241190  0.952060  0.624900  1.0  -0.5783
  O  O792  1  0.308850  0.917590  0.627630  1.0  -0.5727
  O  O793  1  0.444930  0.994790  0.124880  1.0  -0.5257
  O  O794  1  0.508810  0.952060  0.125100  1.0  -0.5793
  O  O795  1  0.441150  0.917590  0.122370  1.0  -0.5733
  O  O796  1  0.444930  0.494790  0.624880  1.0  -0.5257
  O  O797  1  0.508810  0.452060  0.625100  1.0  -0.5793
  O  O798  1  0.441150  0.417590  0.622370  1.0  -0.5733
  O  O799  1  0.944930  0.994790  0.624880  1.0  -0.5257
  O  O800  1  0.008810  0.952060  0.625100  1.0  -0.5793
  O  O801  1  0.941150  0.917590  0.622370  1.0  -0.5733
  O  O802  1  0.944930  0.494790  0.124880  1.0  -0.5257
  O  O803  1  0.008810  0.452060  0.125100  1.0  -0.5793
  O  O804  1  0.941150  0.417590  0.122370  1.0  -0.5733
  O  O805  1  0.305070  0.255210  0.624880  1.0  -0.527
  O  O806  1  0.241190  0.297940  0.625100  1.0  -0.5779
  O  O807  1  0.308850  0.332410  0.622370  1.0  -0.573
  O  O808  1  0.305070  0.755210  0.124880  1.0  -0.527
  O  O809  1  0.241190  0.797940  0.125100  1.0  -0.5779
  O  O810  1  0.308850  0.832410  0.122370  1.0  -0.573
  O  O811  1  0.805070  0.255210  0.124880  1.0  -0.527
  O  O812  1  0.741190  0.297940  0.125100  1.0  -0.5779
  O  O813  1  0.808850  0.332410  0.122370  1.0  -0.573
  O  O814  1  0.805070  0.755210  0.624880  1.0  -0.527
  O  O815  1  0.741190  0.797940  0.625100  1.0  -0.5779
  O  O816  1  0.808850  0.832410  0.622370  1.0  -0.573
  O  O817  1  0.255210  0.624880  0.305070  1.0  -0.5247
  O  O818  1  0.297940  0.625100  0.241190  1.0  -0.5729
  O  O819  1  0.332410  0.622370  0.308850  1.0  -0.5714
  O  O820  1  0.255210  0.124880  0.805070  1.0  -0.5247
  O  O821  1  0.297940  0.125100  0.741190  1.0  -0.5729
  O  O822  1  0.332410  0.122370  0.808850  1.0  -0.5714
  O  O823  1  0.755210  0.624880  0.805070  1.0  -0.5247
  O  O824  1  0.797940  0.625100  0.741190  1.0  -0.5729
  O  O825  1  0.832410  0.622370  0.808850  1.0  -0.5714
  O  O826  1  0.755210  0.124880  0.305070  1.0  -0.5247
  O  O827  1  0.797940  0.125100  0.241190  1.0  -0.5729
  O  O828  1  0.832410  0.122370  0.308850  1.0  -0.5714
  O  O829  1  0.994790  0.124880  0.444930  1.0  -0.5251
  O  O830  1  0.952060  0.125100  0.508810  1.0  -0.5713
  O  O831  1  0.917590  0.122370  0.441150  1.0  -0.5714
  O  O832  1  0.994790  0.624880  0.944930  1.0  -0.5251
  O  O833  1  0.952060  0.625100  0.008810  1.0  -0.5713
  O  O834  1  0.917590  0.622370  0.941150  1.0  -0.5714
  O  O835  1  0.494790  0.124880  0.944930  1.0  -0.5251
  O  O836  1  0.452060  0.125100  0.008810  1.0  -0.5713
  O  O837  1  0.417590  0.122370  0.941150  1.0  -0.5714
  O  O838  1  0.494790  0.624880  0.444930  1.0  -0.5251
  O  O839  1  0.452060  0.625100  0.508810  1.0  -0.5713
  O  O840  1  0.417590  0.622370  0.441150  1.0  -0.5714
  O  O841  1  0.494790  0.625120  0.805070  1.0  -0.5251
  O  O842  1  0.452060  0.624900  0.741190  1.0  -0.5736
  O  O843  1  0.417590  0.627630  0.808850  1.0  -0.5715
  O  O844  1  0.494790  0.125120  0.305070  1.0  -0.5251
  O  O845  1  0.452060  0.124900  0.241190  1.0  -0.5736
  O  O846  1  0.417590  0.127630  0.308850  1.0  -0.5715
  O  O847  1  0.994790  0.625120  0.305070  1.0  -0.5251
  O  O848  1  0.952060  0.624900  0.241190  1.0  -0.5736
  O  O849  1  0.917590  0.627630  0.308850  1.0  -0.5715
  O  O850  1  0.994790  0.125120  0.805070  1.0  -0.5251
  O  O851  1  0.952060  0.124900  0.741190  1.0  -0.5736
  O  O852  1  0.917590  0.127630  0.808850  1.0  -0.5715
  O  O853  1  0.755210  0.125120  0.944930  1.0  -0.525
  O  O854  1  0.797940  0.124900  0.008810  1.0  -0.5719
  O  O855  1  0.832410  0.127630  0.941150  1.0  -0.5712
  O  O856  1  0.755210  0.625120  0.444930  1.0  -0.525
  O  O857  1  0.797940  0.624900  0.508810  1.0  -0.5719
  O  O858  1  0.832410  0.627630  0.441150  1.0  -0.5712
  O  O859  1  0.255210  0.125120  0.444930  1.0  -0.525
  O  O860  1  0.297940  0.124900  0.508810  1.0  -0.5719
  O  O861  1  0.332410  0.127630  0.441150  1.0  -0.5712
  O  O862  1  0.255210  0.625120  0.944930  1.0  -0.525
  O  O863  1  0.297940  0.624900  0.008810  1.0  -0.5719
  O  O864  1  0.332410  0.627630  0.941150  1.0  -0.5712
  O  O865  1  0.124880  0.444930  0.994790  1.0  -0.5246
  O  O866  1  0.125100  0.508810  0.952060  1.0  -0.5781
  O  O867  1  0.122370  0.441150  0.917590  1.0  -0.5719
  O  O868  1  0.124880  0.944930  0.494790  1.0  -0.5246
  O  O869  1  0.125100  0.008810  0.452060  1.0  -0.5781
  O  O870  1  0.122370  0.941150  0.417590  1.0  -0.5719
  O  O871  1  0.624880  0.444930  0.494790  1.0  -0.5246
  O  O872  1  0.625100  0.508810  0.452060  1.0  -0.5781
  O  O873  1  0.622370  0.441150  0.417590  1.0  -0.5719
  O  O874  1  0.624880  0.944930  0.994790  1.0  -0.5246
  O  O875  1  0.625100  0.008810  0.952060  1.0  -0.5781
  O  O876  1  0.622370  0.941150  0.917590  1.0  -0.5719
  O  O877  1  0.624880  0.305070  0.255210  1.0  -0.5248
  O  O878  1  0.625100  0.241190  0.297940  1.0  -0.5762
  O  O879  1  0.622370  0.308850  0.332410  1.0  -0.5713
  O  O880  1  0.624880  0.805070  0.755210  1.0  -0.5248
  O  O881  1  0.625100  0.741190  0.797940  1.0  -0.5762
  O  O882  1  0.622370  0.808850  0.832410  1.0  -0.5713
  O  O883  1  0.124880  0.305070  0.755210  1.0  -0.5248
  O  O884  1  0.125100  0.241190  0.797940  1.0  -0.5762
  O  O885  1  0.122370  0.308850  0.832410  1.0  -0.5713
  O  O886  1  0.124880  0.805070  0.255210  1.0  -0.5248
  O  O887  1  0.125100  0.741190  0.297940  1.0  -0.5762
  O  O888  1  0.122370  0.808850  0.332410  1.0  -0.5713
  O  O889  1  0.125120  0.944930  0.755210  1.0  -0.5246
  O  O890  1  0.124900  0.008810  0.797940  1.0  -0.5785
  O  O891  1  0.127630  0.941150  0.832410  1.0  -0.5712
  O  O892  1  0.125120  0.444930  0.255210  1.0  -0.5246
  O  O893  1  0.124900  0.508810  0.297940  1.0  -0.5785
  O  O894  1  0.127630  0.441150  0.332410  1.0  -0.5712
  O  O895  1  0.625120  0.944930  0.255210  1.0  -0.5246
  O  O896  1  0.624900  0.008810  0.297940  1.0  -0.5785
  O  O897  1  0.627630  0.941150  0.332410  1.0  -0.5712
  O  O898  1  0.625120  0.444930  0.755210  1.0  -0.5246
  O  O899  1  0.624900  0.508810  0.797940  1.0  -0.5785
  O  O900  1  0.627630  0.441150  0.832410  1.0  -0.5712
  O  O901  1  0.625120  0.805070  0.494790  1.0  -0.5246
  O  O902  1  0.624900  0.741190  0.452060  1.0  -0.5782
  O  O903  1  0.627630  0.808850  0.417590  1.0  -0.5723
  O  O904  1  0.625120  0.305070  0.994790  1.0  -0.5246
  O  O905  1  0.624900  0.241190  0.952060  1.0  -0.5782
  O  O906  1  0.627630  0.308850  0.917590  1.0  -0.5723
  O  O907  1  0.125120  0.805070  0.994790  1.0  -0.5246
  O  O908  1  0.124900  0.741190  0.952060  1.0  -0.5782
  O  O909  1  0.127630  0.808850  0.917590  1.0  -0.5723
  O  O910  1  0.125120  0.305070  0.494790  1.0  -0.5246
  O  O911  1  0.124900  0.241190  0.452060  1.0  -0.5782
  O  O912  1  0.127630  0.308850  0.417590  1.0  -0.5723
