# generated using pymatgen
data_FeH68C66(S5N3)2
_symmetry_space_group_name_H-M   'P 1'
_cell_length_a   12.07020000
_cell_length_b   24.95100000
_cell_length_c   50.62300000
_cell_angle_alpha   90.00000000
_cell_angle_beta   95.77400000
_cell_angle_gamma   90.00000000
_symmetry_Int_Tables_number   1
_chemical_formula_structural   FeH68C66(S5N3)2
_chemical_formula_sum   'Fe8 H544 C528 S80 N48'
_cell_volume   15168.45278247
_cell_formula_units_Z   8
loop_
 _symmetry_equiv_pos_site_id
 _symmetry_equiv_pos_as_xyz
  1  'x, y, z'
loop_
 _atom_site_type_symbol
 _atom_site_label
 _atom_site_symmetry_multiplicity
 _atom_site_fract_x
 _atom_site_fract_y
 _atom_site_fract_z
 _atom_site_occupancy
 _atom_site_charge
  Fe  Fe1  1  0.000000  0.928590  0.250000  1.0  0.8258
  Fe  Fe2  1  0.500000  0.428590  0.250000  1.0  0.8258
  Fe  Fe3  1  0.000000  0.071410  0.750000  1.0  0.826
  Fe  Fe4  1  0.500000  0.571410  0.750000  1.0  0.826
  Fe  Fe5  1  0.750000  0.750000  0.000000  1.0  0.8255
  Fe  Fe6  1  0.250000  0.750000  0.500000  1.0  0.8255
  Fe  Fe7  1  0.250000  0.250000  0.000000  1.0  0.8255
  Fe  Fe8  1  0.750000  0.250000  0.500000  1.0  0.8255
  H  H9  1  0.295700  0.861200  0.184900  1.0  0.0927
  H  H10  1  0.591600  0.810400  0.166100  1.0  0.1337
  H  H11  1  0.613600  0.038900  0.218900  1.0  0.1511
  H  H12  1  0.502000  0.004600  0.219600  1.0  0.1335
  H  H13  1  0.793900  0.997200  0.228200  1.0  0.0839
  H  H14  1  0.807500  0.850500  0.255800  1.0  0.079
  H  H15  1  0.618300  0.839400  0.247600  1.0  0.1144
  H  H16  1  0.513700  0.908300  0.224400  1.0  0.1058
  H  H17  1  0.390300  0.781000  0.219300  1.0  0.1002
  H  H18  1  0.507800  0.755600  0.213900  1.0  0.1036
  H  H19  1  0.398900  0.718700  0.212200  1.0  0.0979
  H  H20  1  0.545700  0.732400  0.168300  1.0  0.1027
  H  H21  1  0.444800  0.735600  0.145300  1.0  0.0983
  H  H22  1  0.443700  0.691400  0.168200  1.0  0.1092
  H  H23  1  0.268300  0.722800  0.170100  1.0  0.0912
  H  H24  1  0.257800  0.783600  0.160000  1.0  0.0766
  H  H25  1  0.247300  0.769600  0.190600  1.0  0.09
  H  H26  1  0.229600  0.088900  0.093500  1.0  0.1013
  H  H27  1  0.354200  0.075900  0.169800  1.0  0.1321
  H  H28  1  0.021600  0.967000  0.150100  1.0  0.174
  H  H29  1  0.970300  0.926200  0.127200  1.0  0.1801
  H  H30  1  0.033600  0.949800  0.189000  1.0  0.1178
  H  H31  1  0.968300  0.810000  0.225100  1.0  0.1124
  H  H32  1  0.967100  0.765100  0.184500  1.0  0.1154
  H  H33  1  0.999200  0.812600  0.146100  1.0  0.104
  H  H34  1  0.279400  0.171800  0.094300  1.0  0.1012
  H  H35  1  0.401400  0.146000  0.097600  1.0  0.1075
  H  H36  1  0.383300  0.206600  0.106700  1.0  0.1025
  H  H37  1  0.177200  0.183000  0.130700  1.0  0.1013
  H  H38  1  0.269600  0.220200  0.146400  1.0  0.1004
  H  H39  1  0.223900  0.168500  0.160500  1.0  0.0915
  H  H40  1  0.458400  0.196200  0.154100  1.0  0.1071
  H  H41  1  0.501400  0.139300  0.144700  1.0  0.1065
  H  H42  1  0.431300  0.143000  0.169800  1.0  0.0964
  H  H43  1  0.445500  0.833200  0.052300  1.0  0.1031
  H  H44  1  0.145200  0.877300  0.073800  1.0  0.1026
  H  H45  1  0.399000  0.007000  0.017300  1.0  0.1309
  H  H46  1  0.284300  0.035200  0.023100  1.0  0.1425
  H  H47  1  0.262600  0.128300  0.019900  1.0  0.0884
  H  H48  1  0.507200  0.225900  0.005400  1.0  0.0955
  H  H49  1  0.636300  0.155800  0.012200  1.0  0.1085
  H  H50  1  0.573300  0.069500  0.021100  1.0  0.1197
  H  H51  1  0.271000  0.718500  0.041800  1.0  0.0996
  H  H52  1  0.360200  0.763600  0.036300  1.0  0.1044
  H  H53  1  0.232800  0.770400  0.024600  1.0  0.0983
  H  H54  1  0.332400  0.787600  0.104000  1.0  0.1138
  H  H55  1  0.410400  0.760000  0.084200  1.0  0.1056
  H  H56  1  0.306400  0.728000  0.093600  1.0  0.106
  H  H57  1  0.094000  0.800900  0.056100  1.0  0.0845
  H  H58  1  0.126500  0.784500  0.086500  1.0  0.0876
  H  H59  1  0.120600  0.739700  0.063800  1.0  0.1013
  H  H60  1  0.781400  0.003900  0.145400  1.0  0.1001
  H  H61  1  0.664900  0.023000  0.069100  1.0  0.1077
  H  H62  1  0.795300  0.833100  0.120300  1.0  0.1355
  H  H63  1  0.741400  0.779100  0.107700  1.0  0.1396
  H  H64  1  0.733600  0.764300  0.060800  1.0  0.0772
  H  H65  1  0.912300  0.850000  0.016000  1.0  0.0998
  H  H66  1  0.945500  0.913300  0.049800  1.0  0.1169
  H  H67  1  0.878200  0.898300  0.090500  1.0  0.1025
  H  H68  1  0.708800  0.092500  0.144100  1.0  0.0996
  H  H69  1  0.646300  0.128100  0.120900  1.0  0.1053
  H  H70  1  0.766300  0.145800  0.134400  1.0  0.0881
  H  H71  1  0.834100  0.113700  0.073600  1.0  0.1027
  H  H72  1  0.734100  0.148400  0.083200  1.0  0.1011
  H  H73  1  0.708600  0.092500  0.068300  1.0  0.1084
  H  H74  1  0.931500  0.047000  0.106700  1.0  0.1037
  H  H75  1  0.912000  0.068200  0.135700  1.0  0.1054
  H  H76  1  0.939300  0.109800  0.113200  1.0  0.1152
  H  H77  1  0.795700  0.361200  0.184900  1.0  0.0927
  H  H78  1  0.091600  0.310400  0.166100  1.0  0.1337
  H  H79  1  0.113600  0.538900  0.218900  1.0  0.1511
  H  H80  1  0.002000  0.504600  0.219600  1.0  0.1335
  H  H81  1  0.293900  0.497200  0.228200  1.0  0.0839
  H  H82  1  0.307500  0.350500  0.255800  1.0  0.079
  H  H83  1  0.118300  0.339400  0.247600  1.0  0.1144
  H  H84  1  0.013700  0.408300  0.224400  1.0  0.1058
  H  H85  1  0.890300  0.281000  0.219300  1.0  0.1002
  H  H86  1  0.007800  0.255600  0.213900  1.0  0.1036
  H  H87  1  0.898900  0.218700  0.212200  1.0  0.0979
  H  H88  1  0.045700  0.232400  0.168300  1.0  0.1027
  H  H89  1  0.944800  0.235600  0.145300  1.0  0.0983
  H  H90  1  0.943700  0.191400  0.168200  1.0  0.1092
  H  H91  1  0.768300  0.222800  0.170100  1.0  0.0912
  H  H92  1  0.757800  0.283600  0.160000  1.0  0.0766
  H  H93  1  0.747300  0.269600  0.190600  1.0  0.09
  H  H94  1  0.729600  0.588900  0.093500  1.0  0.1013
  H  H95  1  0.854200  0.575900  0.169800  1.0  0.1321
  H  H96  1  0.521600  0.467000  0.150100  1.0  0.174
  H  H97  1  0.470300  0.426200  0.127200  1.0  0.1801
  H  H98  1  0.533600  0.449800  0.189000  1.0  0.1178
  H  H99  1  0.468300  0.310000  0.225100  1.0  0.1124
  H  H100  1  0.467100  0.265100  0.184500  1.0  0.1154
  H  H101  1  0.499200  0.312600  0.146100  1.0  0.1047
  H  H102  1  0.779400  0.671800  0.094300  1.0  0.1012
  H  H103  1  0.901400  0.646000  0.097600  1.0  0.1075
  H  H104  1  0.883300  0.706600  0.106700  1.0  0.1025
  H  H105  1  0.677200  0.683000  0.130700  1.0  0.1013
  H  H106  1  0.769600  0.720200  0.146400  1.0  0.1004
  H  H107  1  0.723900  0.668500  0.160500  1.0  0.0915
  H  H108  1  0.958400  0.696200  0.154100  1.0  0.1071
  H  H109  1  0.001400  0.639300  0.144700  1.0  0.1065
  H  H110  1  0.931300  0.643000  0.169800  1.0  0.0964
  H  H111  1  0.945500  0.333200  0.052300  1.0  0.1031
  H  H112  1  0.645200  0.377300  0.073800  1.0  0.1026
  H  H113  1  0.899000  0.507000  0.017300  1.0  0.1309
  H  H114  1  0.784300  0.535200  0.023100  1.0  0.1425
  H  H115  1  0.762600  0.628300  0.019900  1.0  0.0884
  H  H116  1  0.007200  0.725900  0.005400  1.0  0.0955
  H  H117  1  0.136300  0.655800  0.012200  1.0  0.1085
  H  H118  1  0.073300  0.569500  0.021100  1.0  0.1197
  H  H119  1  0.771000  0.218500  0.041800  1.0  0.0996
  H  H120  1  0.860200  0.263600  0.036300  1.0  0.1044
  H  H121  1  0.732800  0.270400  0.024600  1.0  0.0983
  H  H122  1  0.832400  0.287600  0.104000  1.0  0.1138
  H  H123  1  0.910400  0.260000  0.084200  1.0  0.1056
  H  H124  1  0.806400  0.228000  0.093600  1.0  0.106
  H  H125  1  0.594000  0.300900  0.056100  1.0  0.0845
  H  H126  1  0.626500  0.284500  0.086500  1.0  0.0876
  H  H127  1  0.620600  0.239700  0.063800  1.0  0.1013
  H  H128  1  0.281400  0.503900  0.145400  1.0  0.1001
  H  H129  1  0.164900  0.523000  0.069100  1.0  0.1077
  H  H130  1  0.295300  0.333100  0.120300  1.0  0.1355
  H  H131  1  0.241400  0.279100  0.107700  1.0  0.1396
  H  H132  1  0.233600  0.264300  0.060800  1.0  0.0772
  H  H133  1  0.412300  0.350000  0.016000  1.0  0.0998
  H  H134  1  0.445500  0.413300  0.049800  1.0  0.1169
  H  H135  1  0.378200  0.398300  0.090500  1.0  0.1025
  H  H136  1  0.208800  0.592500  0.144100  1.0  0.0996
  H  H137  1  0.146300  0.628100  0.120900  1.0  0.1053
  H  H138  1  0.266300  0.645800  0.134400  1.0  0.0881
  H  H139  1  0.334100  0.613700  0.073600  1.0  0.1027
  H  H140  1  0.234100  0.648400  0.083200  1.0  0.1011
  H  H141  1  0.208600  0.592500  0.068300  1.0  0.1084
  H  H142  1  0.431500  0.547000  0.106700  1.0  0.1037
  H  H143  1  0.412000  0.568200  0.135700  1.0  0.1054
  H  H144  1  0.439300  0.609800  0.113200  1.0  0.1152
  H  H145  1  0.704300  0.861200  0.315100  1.0  0.093
  H  H146  1  0.408400  0.810400  0.333900  1.0  0.1331
  H  H147  1  0.386400  0.038900  0.281100  1.0  0.1515
  H  H148  1  0.498000  0.004600  0.280400  1.0  0.1337
  H  H149  1  0.206100  0.997200  0.271800  1.0  0.0839
  H  H150  1  0.192500  0.850500  0.244200  1.0  0.0788
  H  H151  1  0.381700  0.839400  0.252400  1.0  0.1151
  H  H152  1  0.486300  0.908300  0.275600  1.0  0.107
  H  H153  1  0.609700  0.781000  0.280700  1.0  0.0984
  H  H154  1  0.492200  0.755600  0.286100  1.0  0.1046
  H  H155  1  0.601100  0.718700  0.287800  1.0  0.0968
  H  H156  1  0.454300  0.732400  0.331700  1.0  0.1004
  H  H157  1  0.555200  0.735600  0.354700  1.0  0.1
  H  H158  1  0.556300  0.691400  0.331800  1.0  0.1091
  H  H159  1  0.731700  0.722800  0.329900  1.0  0.0936
  H  H160  1  0.742200  0.783600  0.340000  1.0  0.0762
  H  H161  1  0.752700  0.769600  0.309400  1.0  0.0897
  H  H162  1  0.770400  0.088900  0.406500  1.0  0.1008
  H  H163  1  0.645800  0.075900  0.330200  1.0  0.1304
  H  H164  1  0.978400  0.967000  0.349900  1.0  0.1743
  H  H165  1  0.029700  0.926200  0.372800  1.0  0.1809
  H  H166  1  0.966400  0.949800  0.311000  1.0  0.1181
  H  H167  1  0.031700  0.810000  0.274900  1.0  0.1121
  H  H168  1  0.032900  0.765100  0.315500  1.0  0.115
  H  H169  1  0.000800  0.812600  0.353900  1.0  0.1036
  H  H170  1  0.720600  0.171800  0.405700  1.0  0.103
  H  H171  1  0.598600  0.146000  0.402400  1.0  0.1074
  H  H172  1  0.616700  0.206600  0.393300  1.0  0.1019
  H  H173  1  0.822800  0.183000  0.369300  1.0  0.1003
  H  H174  1  0.730400  0.220200  0.353600  1.0  0.1007
  H  H175  1  0.776100  0.168500  0.339500  1.0  0.0913
  H  H176  1  0.541600  0.196200  0.345900  1.0  0.1081
  H  H177  1  0.498600  0.139300  0.355300  1.0  0.104
  H  H178  1  0.568700  0.143000  0.330200  1.0  0.0953
  H  H179  1  0.554500  0.833200  0.447700  1.0  0.1032
  H  H180  1  0.854800  0.877300  0.426200  1.0  0.1027
  H  H181  1  0.601000  0.007000  0.482700  1.0  0.1313
  H  H182  1  0.715700  0.035200  0.476900  1.0  0.1427
  H  H183  1  0.737400  0.128300  0.480100  1.0  0.088
  H  H184  1  0.492800  0.225900  0.494600  1.0  0.0955
  H  H185  1  0.363700  0.155800  0.487800  1.0  0.1098
  H  H186  1  0.426700  0.069500  0.478900  1.0  0.1194
  H  H187  1  0.729000  0.718500  0.458200  1.0  0.0987
  H  H188  1  0.639800  0.763600  0.463700  1.0  0.1023
  H  H189  1  0.767200  0.770400  0.475400  1.0  0.098
  H  H190  1  0.667600  0.787600  0.396000  1.0  0.1134
  H  H191  1  0.589600  0.760000  0.415800  1.0  0.1023
  H  H192  1  0.693600  0.728000  0.406400  1.0  0.1056
  H  H193  1  0.906000  0.800900  0.443900  1.0  0.0841
  H  H194  1  0.873500  0.784500  0.413500  1.0  0.0871
  H  H195  1  0.879400  0.739700  0.436200  1.0  0.1037
  H  H196  1  0.218600  0.003900  0.354600  1.0  0.1007
  H  H197  1  0.335100  0.023000  0.430900  1.0  0.1079
  H  H198  1  0.204700  0.833100  0.379700  1.0  0.1355
  H  H199  1  0.258600  0.779100  0.392300  1.0  0.1383
  H  H200  1  0.266400  0.764300  0.439200  1.0  0.0773
  H  H201  1  0.087700  0.850000  0.484000  1.0  0.1006
  H  H202  1  0.054500  0.913300  0.450200  1.0  0.1175
  H  H203  1  0.121800  0.898300  0.409500  1.0  0.1031
  H  H204  1  0.291200  0.092500  0.355900  1.0  0.1
  H  H205  1  0.353700  0.128100  0.379100  1.0  0.104
  H  H206  1  0.233700  0.145800  0.365600  1.0  0.0892
  H  H207  1  0.165900  0.113700  0.426400  1.0  0.1014
  H  H208  1  0.265900  0.148400  0.416800  1.0  0.1008
  H  H209  1  0.291400  0.092500  0.431700  1.0  0.1081
  H  H210  1  0.068500  0.047000  0.393300  1.0  0.1051
  H  H211  1  0.088000  0.068200  0.364300  1.0  0.1048
  H  H212  1  0.060700  0.109800  0.386800  1.0  0.1153
  H  H213  1  0.204300  0.361200  0.315100  1.0  0.093
  H  H214  1  0.908400  0.310400  0.333900  1.0  0.1331
  H  H215  1  0.886400  0.538900  0.281100  1.0  0.1515
  H  H216  1  0.998000  0.504600  0.280400  1.0  0.1337
  H  H217  1  0.706100  0.497200  0.271800  1.0  0.0839
  H  H218  1  0.692500  0.350500  0.244200  1.0  0.0788
  H  H219  1  0.881700  0.339400  0.252400  1.0  0.1151
  H  H220  1  0.986300  0.408300  0.275600  1.0  0.107
  H  H221  1  0.109700  0.281000  0.280700  1.0  0.0984
  H  H222  1  0.992200  0.255600  0.286100  1.0  0.1046
  H  H223  1  0.101100  0.218700  0.287800  1.0  0.0968
  H  H224  1  0.954300  0.232400  0.331700  1.0  0.1004
  H  H225  1  0.055200  0.235600  0.354700  1.0  0.1
  H  H226  1  0.056300  0.191400  0.331800  1.0  0.1091
  H  H227  1  0.231700  0.222800  0.329900  1.0  0.0936
  H  H228  1  0.242200  0.283600  0.340000  1.0  0.0762
  H  H229  1  0.252700  0.269600  0.309400  1.0  0.0897
  H  H230  1  0.270400  0.588900  0.406500  1.0  0.1008
  H  H231  1  0.145800  0.575900  0.330200  1.0  0.1304
  H  H232  1  0.478400  0.467000  0.349900  1.0  0.1743
  H  H233  1  0.529700  0.426200  0.372800  1.0  0.1809
  H  H234  1  0.466400  0.449800  0.311000  1.0  0.1181
  H  H235  1  0.531700  0.310000  0.274900  1.0  0.1121
  H  H236  1  0.532900  0.265100  0.315500  1.0  0.115
  H  H237  1  0.500800  0.312600  0.353900  1.0  0.1043
  H  H238  1  0.220600  0.671800  0.405700  1.0  0.103
  H  H239  1  0.098600  0.646000  0.402400  1.0  0.1074
  H  H240  1  0.116700  0.706600  0.393300  1.0  0.1019
  H  H241  1  0.322800  0.683000  0.369300  1.0  0.1003
  H  H242  1  0.230400  0.720200  0.353600  1.0  0.1007
  H  H243  1  0.276100  0.668500  0.339500  1.0  0.0913
  H  H244  1  0.041600  0.696200  0.345900  1.0  0.1081
  H  H245  1  0.998600  0.639300  0.355300  1.0  0.104
  H  H246  1  0.068700  0.643000  0.330200  1.0  0.0953
  H  H247  1  0.054500  0.333200  0.447700  1.0  0.1032
  H  H248  1  0.354800  0.377300  0.426200  1.0  0.1027
  H  H249  1  0.101000  0.507000  0.482700  1.0  0.1313
  H  H250  1  0.215700  0.535200  0.476900  1.0  0.1427
  H  H251  1  0.237400  0.628300  0.480100  1.0  0.088
  H  H252  1  0.992800  0.725900  0.494600  1.0  0.0955
  H  H253  1  0.863700  0.655800  0.487800  1.0  0.1098
  H  H254  1  0.926700  0.569500  0.478900  1.0  0.1194
  H  H255  1  0.229000  0.218500  0.458200  1.0  0.0987
  H  H256  1  0.139800  0.263600  0.463700  1.0  0.1023
  H  H257  1  0.267200  0.270400  0.475400  1.0  0.098
  H  H258  1  0.167600  0.287600  0.396000  1.0  0.1134
  H  H259  1  0.089600  0.260000  0.415800  1.0  0.1023
  H  H260  1  0.193600  0.228000  0.406400  1.0  0.1056
  H  H261  1  0.406000  0.300900  0.443900  1.0  0.0841
  H  H262  1  0.373500  0.284500  0.413500  1.0  0.0871
  H  H263  1  0.379400  0.239700  0.436200  1.0  0.1037
  H  H264  1  0.718600  0.503900  0.354600  1.0  0.1007
  H  H265  1  0.835100  0.523000  0.430900  1.0  0.1079
  H  H266  1  0.704700  0.333100  0.379700  1.0  0.1355
  H  H267  1  0.758600  0.279100  0.392300  1.0  0.1383
  H  H268  1  0.766400  0.264300  0.439200  1.0  0.0773
  H  H269  1  0.587700  0.350000  0.484000  1.0  0.1006
  H  H270  1  0.554500  0.413300  0.450200  1.0  0.1175
  H  H271  1  0.621800  0.398300  0.409500  1.0  0.1031
  H  H272  1  0.791200  0.592500  0.355900  1.0  0.1
  H  H273  1  0.853700  0.628100  0.379100  1.0  0.104
  H  H274  1  0.733700  0.645800  0.365600  1.0  0.0892
  H  H275  1  0.665900  0.613700  0.426400  1.0  0.1014
  H  H276  1  0.765900  0.648400  0.416800  1.0  0.1008
  H  H277  1  0.791400  0.592500  0.431700  1.0  0.1081
  H  H278  1  0.568500  0.547000  0.393300  1.0  0.1051
  H  H279  1  0.588000  0.568200  0.364300  1.0  0.1048
  H  H280  1  0.560700  0.609800  0.386800  1.0  0.1153
  H  H281  1  0.704300  0.138800  0.815100  1.0  0.0935
  H  H282  1  0.408400  0.189600  0.833900  1.0  0.133
  H  H283  1  0.386400  0.961100  0.781100  1.0  0.1509
  H  H284  1  0.498000  0.995400  0.780400  1.0  0.1331
  H  H285  1  0.206100  0.002800  0.771800  1.0  0.0839
  H  H286  1  0.192500  0.149500  0.744200  1.0  0.079
  H  H287  1  0.381700  0.160600  0.752400  1.0  0.1149
  H  H288  1  0.486300  0.091700  0.775600  1.0  0.107
  H  H289  1  0.609700  0.219000  0.780700  1.0  0.0989
  H  H290  1  0.492200  0.244400  0.786100  1.0  0.1048
  H  H291  1  0.601100  0.281300  0.787800  1.0  0.0988
  H  H292  1  0.454300  0.267600  0.831700  1.0  0.1012
  H  H293  1  0.555200  0.264400  0.854700  1.0  0.0996
  H  H294  1  0.556300  0.308600  0.831800  1.0  0.1106
  H  H295  1  0.731700  0.277200  0.829900  1.0  0.0912
  H  H296  1  0.742200  0.216400  0.840000  1.0  0.0761
  H  H297  1  0.752700  0.230400  0.809400  1.0  0.0896
  H  H298  1  0.770400  0.911100  0.906500  1.0  0.1006
  H  H299  1  0.645800  0.924100  0.830200  1.0  0.1304
  H  H300  1  0.978400  0.033000  0.849900  1.0  0.1738
  H  H301  1  0.029700  0.073800  0.872800  1.0  0.1807
  H  H302  1  0.966400  0.050200  0.811000  1.0  0.1178
  H  H303  1  0.031700  0.190000  0.774900  1.0  0.1119
  H  H304  1  0.032900  0.234900  0.815500  1.0  0.1145
  H  H305  1  0.000800  0.187400  0.853900  1.0  0.1032
  H  H306  1  0.720600  0.828200  0.905700  1.0  0.1031
  H  H307  1  0.598600  0.854000  0.902400  1.0  0.1071
  H  H308  1  0.616700  0.793400  0.893300  1.0  0.1014
  H  H309  1  0.822800  0.817000  0.869300  1.0  0.1004
  H  H310  1  0.730400  0.779800  0.853600  1.0  0.0987
  H  H311  1  0.776100  0.831500  0.839500  1.0  0.0911
  H  H312  1  0.541600  0.803800  0.845900  1.0  0.1075
  H  H313  1  0.498600  0.860700  0.855300  1.0  0.1044
  H  H314  1  0.568700  0.857000  0.830200  1.0  0.0954
  H  H315  1  0.554500  0.166800  0.947700  1.0  0.1027
  H  H316  1  0.854800  0.122700  0.926200  1.0  0.1032
  H  H317  1  0.601000  0.993000  0.982700  1.0  0.1309
  H  H318  1  0.715700  0.964800  0.976900  1.0  0.1428
  H  H319  1  0.737400  0.871700  0.980100  1.0  0.0883
  H  H320  1  0.492800  0.774100  0.994600  1.0  0.0955
  H  H321  1  0.363700  0.844200  0.987800  1.0  0.1097
  H  H322  1  0.426700  0.930500  0.978900  1.0  0.1193
  H  H323  1  0.729000  0.281500  0.958200  1.0  0.0987
  H  H324  1  0.639800  0.236400  0.963700  1.0  0.1022
  H  H325  1  0.767200  0.229600  0.975400  1.0  0.0987
  H  H326  1  0.667600  0.212400  0.896000  1.0  0.1133
  H  H327  1  0.589600  0.240000  0.915800  1.0  0.1024
  H  H328  1  0.693600  0.272000  0.906400  1.0  0.1056
  H  H329  1  0.906000  0.199100  0.943900  1.0  0.085
  H  H330  1  0.873500  0.215500  0.913500  1.0  0.0871
  H  H331  1  0.879400  0.260300  0.936200  1.0  0.1011
  H  H332  1  0.218600  0.996100  0.854600  1.0  0.1008
  H  H333  1  0.335100  0.977000  0.930900  1.0  0.1075
  H  H334  1  0.204700  0.166900  0.879700  1.0  0.1355
  H  H335  1  0.258600  0.220900  0.892300  1.0  0.1375
  H  H336  1  0.266400  0.235700  0.939200  1.0  0.0772
  H  H337  1  0.087700  0.150000  0.984000  1.0  0.1
  H  H338  1  0.054500  0.086700  0.950200  1.0  0.1168
  H  H339  1  0.121800  0.101700  0.909500  1.0  0.1027
  H  H340  1  0.291200  0.907500  0.855900  1.0  0.1003
  H  H341  1  0.353700  0.871900  0.879100  1.0  0.1039
  H  H342  1  0.233700  0.854200  0.865600  1.0  0.089
  H  H343  1  0.165900  0.886300  0.926400  1.0  0.1015
  H  H344  1  0.265900  0.851600  0.916800  1.0  0.101
  H  H345  1  0.291400  0.907500  0.931700  1.0  0.1072
  H  H346  1  0.068500  0.953000  0.893300  1.0  0.1041
  H  H347  1  0.088000  0.931800  0.864300  1.0  0.1046
  H  H348  1  0.060700  0.890200  0.886800  1.0  0.1156
  H  H349  1  0.204300  0.638800  0.815100  1.0  0.0935
  H  H350  1  0.908400  0.689600  0.833900  1.0  0.133
  H  H351  1  0.886400  0.461100  0.781100  1.0  0.1509
  H  H352  1  0.998000  0.495400  0.780400  1.0  0.1331
  H  H353  1  0.706100  0.502800  0.771800  1.0  0.0839
  H  H354  1  0.692500  0.649500  0.744200  1.0  0.079
  H  H355  1  0.881700  0.660600  0.752400  1.0  0.1149
  H  H356  1  0.986300  0.591700  0.775600  1.0  0.107
  H  H357  1  0.109700  0.719000  0.780700  1.0  0.0989
  H  H358  1  0.992200  0.744400  0.786100  1.0  0.1048
  H  H359  1  0.101100  0.781300  0.787800  1.0  0.0988
  H  H360  1  0.954300  0.767600  0.831700  1.0  0.1012
  H  H361  1  0.055200  0.764400  0.854700  1.0  0.0996
  H  H362  1  0.056300  0.808600  0.831800  1.0  0.1106
  H  H363  1  0.231700  0.777200  0.829900  1.0  0.0912
  H  H364  1  0.242200  0.716400  0.840000  1.0  0.0761
  H  H365  1  0.252700  0.730400  0.809400  1.0  0.0896
  H  H366  1  0.270400  0.411100  0.906500  1.0  0.1006
  H  H367  1  0.145800  0.424100  0.830200  1.0  0.1304
  H  H368  1  0.478400  0.533000  0.849900  1.0  0.1738
  H  H369  1  0.529700  0.573800  0.872800  1.0  0.1807
  H  H370  1  0.466400  0.550200  0.811000  1.0  0.1178
  H  H371  1  0.531700  0.690000  0.774900  1.0  0.1119
  H  H372  1  0.532900  0.734900  0.815500  1.0  0.1145
  H  H373  1  0.500800  0.687400  0.853900  1.0  0.1039
  H  H374  1  0.220600  0.328200  0.905700  1.0  0.1031
  H  H375  1  0.098600  0.354000  0.902400  1.0  0.1071
  H  H376  1  0.116700  0.293400  0.893300  1.0  0.1014
  H  H377  1  0.322800  0.317000  0.869300  1.0  0.1004
  H  H378  1  0.230400  0.279800  0.853600  1.0  0.0987
  H  H379  1  0.276100  0.331500  0.839500  1.0  0.0911
  H  H380  1  0.041600  0.303800  0.845900  1.0  0.1075
  H  H381  1  0.998600  0.360700  0.855300  1.0  0.1044
  H  H382  1  0.068700  0.357000  0.830200  1.0  0.0954
  H  H383  1  0.054500  0.666800  0.947700  1.0  0.1027
  H  H384  1  0.354800  0.622700  0.926200  1.0  0.1032
  H  H385  1  0.101000  0.493000  0.982700  1.0  0.1309
  H  H386  1  0.215700  0.464800  0.976900  1.0  0.1428
  H  H387  1  0.237400  0.371700  0.980100  1.0  0.0883
  H  H388  1  0.992800  0.274100  0.994600  1.0  0.0955
  H  H389  1  0.863700  0.344200  0.987800  1.0  0.1097
  H  H390  1  0.926700  0.430500  0.978900  1.0  0.1193
  H  H391  1  0.229000  0.781500  0.958200  1.0  0.0987
  H  H392  1  0.139800  0.736400  0.963700  1.0  0.1022
  H  H393  1  0.267200  0.729600  0.975400  1.0  0.0987
  H  H394  1  0.167600  0.712400  0.896000  1.0  0.1133
  H  H395  1  0.089600  0.740000  0.915800  1.0  0.1024
  H  H396  1  0.193600  0.772000  0.906400  1.0  0.1056
  H  H397  1  0.406000  0.699100  0.943900  1.0  0.085
  H  H398  1  0.373500  0.715500  0.913500  1.0  0.0871
  H  H399  1  0.379400  0.760300  0.936200  1.0  0.1011
  H  H400  1  0.718600  0.496100  0.854600  1.0  0.1008
  H  H401  1  0.835100  0.477000  0.930900  1.0  0.1075
  H  H402  1  0.704700  0.666900  0.879700  1.0  0.1355
  H  H403  1  0.758600  0.720900  0.892300  1.0  0.1374
  H  H404  1  0.766400  0.735700  0.939200  1.0  0.0772
  H  H405  1  0.587700  0.650000  0.984000  1.0  0.1
  H  H406  1  0.554500  0.586700  0.950200  1.0  0.1168
  H  H407  1  0.621800  0.601700  0.909500  1.0  0.1027
  H  H408  1  0.791200  0.407500  0.855900  1.0  0.1003
  H  H409  1  0.853700  0.371900  0.879100  1.0  0.1039
  H  H410  1  0.733700  0.354200  0.865600  1.0  0.089
  H  H411  1  0.665900  0.386300  0.926400  1.0  0.1015
  H  H412  1  0.765900  0.351600  0.916800  1.0  0.101
  H  H413  1  0.791400  0.407500  0.931700  1.0  0.1072
  H  H414  1  0.568500  0.453000  0.893300  1.0  0.1041
  H  H415  1  0.588000  0.431800  0.864300  1.0  0.1046
  H  H416  1  0.560700  0.390200  0.886800  1.0  0.1156
  H  H417  1  0.295700  0.138800  0.684900  1.0  0.0931
  H  H418  1  0.591600  0.189600  0.666100  1.0  0.1334
  H  H419  1  0.613600  0.961100  0.718900  1.0  0.1518
  H  H420  1  0.502000  0.995400  0.719600  1.0  0.1338
  H  H421  1  0.793900  0.002800  0.728200  1.0  0.0841
  H  H422  1  0.807500  0.149500  0.755800  1.0  0.0787
  H  H423  1  0.618300  0.160600  0.747600  1.0  0.1147
  H  H424  1  0.513700  0.091700  0.724400  1.0  0.1059
  H  H425  1  0.390300  0.219000  0.719300  1.0  0.1016
  H  H426  1  0.507800  0.244400  0.713900  1.0  0.1039
  H  H427  1  0.398900  0.281300  0.712200  1.0  0.0979
  H  H428  1  0.545700  0.267600  0.668300  1.0  0.1035
  H  H429  1  0.444800  0.264400  0.645300  1.0  0.0988
  H  H430  1  0.443700  0.308600  0.668200  1.0  0.1105
  H  H431  1  0.268300  0.277200  0.670100  1.0  0.0919
  H  H432  1  0.257800  0.216400  0.660000  1.0  0.0762
  H  H433  1  0.247300  0.230400  0.690600  1.0  0.09
  H  H434  1  0.229600  0.911100  0.593500  1.0  0.1015
  H  H435  1  0.354200  0.924100  0.669800  1.0  0.1317
  H  H436  1  0.021600  0.033000  0.650100  1.0  0.174
  H  H437  1  0.970300  0.073800  0.627200  1.0  0.18
  H  H438  1  0.033600  0.050200  0.689000  1.0  0.1176
  H  H439  1  0.968300  0.190000  0.725100  1.0  0.1125
  H  H440  1  0.967100  0.234900  0.684500  1.0  0.1145
  H  H441  1  0.999200  0.187400  0.646100  1.0  0.104
  H  H442  1  0.279400  0.828200  0.594300  1.0  0.1009
  H  H443  1  0.401400  0.854000  0.597600  1.0  0.108
  H  H444  1  0.383300  0.793400  0.606700  1.0  0.101
  H  H445  1  0.177200  0.817000  0.630700  1.0  0.1013
  H  H446  1  0.269600  0.779800  0.646400  1.0  0.0985
  H  H447  1  0.223900  0.831500  0.660500  1.0  0.091
  H  H448  1  0.458400  0.803800  0.654100  1.0  0.1079
  H  H449  1  0.501400  0.860700  0.644700  1.0  0.1066
  H  H450  1  0.431300  0.857000  0.669800  1.0  0.0963
  H  H451  1  0.445500  0.166800  0.552300  1.0  0.1022
  H  H452  1  0.145200  0.122700  0.573800  1.0  0.1031
  H  H453  1  0.399000  0.993000  0.517300  1.0  0.1309
  H  H454  1  0.284300  0.964800  0.523100  1.0  0.1426
  H  H455  1  0.262600  0.871700  0.519900  1.0  0.0882
  H  H456  1  0.507200  0.774100  0.505400  1.0  0.0952
  H  H457  1  0.636300  0.844200  0.512200  1.0  0.1087
  H  H458  1  0.573300  0.930500  0.521100  1.0  0.1193
  H  H459  1  0.271000  0.281500  0.541800  1.0  0.0994
  H  H460  1  0.360200  0.236400  0.536300  1.0  0.1045
  H  H461  1  0.232800  0.229600  0.524600  1.0  0.0984
  H  H462  1  0.332400  0.212400  0.604000  1.0  0.1142
  H  H463  1  0.410400  0.240000  0.584200  1.0  0.1054
  H  H464  1  0.306400  0.272000  0.593600  1.0  0.1058
  H  H465  1  0.094000  0.199100  0.556100  1.0  0.0843
  H  H466  1  0.126500  0.215500  0.586500  1.0  0.0875
  H  H467  1  0.120600  0.260300  0.563800  1.0  0.102
  H  H468  1  0.781400  0.996100  0.645400  1.0  0.1001
  H  H469  1  0.664900  0.977000  0.569100  1.0  0.1073
  H  H470  1  0.795300  0.166900  0.620300  1.0  0.1358
  H  H471  1  0.741400  0.220900  0.607700  1.0  0.1386
  H  H472  1  0.733600  0.235700  0.560800  1.0  0.0777
  H  H473  1  0.912300  0.150000  0.516000  1.0  0.0993
  H  H474  1  0.945500  0.086700  0.549800  1.0  0.1162
  H  H475  1  0.878200  0.101700  0.590500  1.0  0.1026
  H  H476  1  0.708800  0.907500  0.644100  1.0  0.0991
  H  H477  1  0.646300  0.871900  0.620900  1.0  0.105
  H  H478  1  0.766300  0.854200  0.634400  1.0  0.0895
  H  H479  1  0.834100  0.886300  0.573600  1.0  0.1029
  H  H480  1  0.734100  0.851600  0.583200  1.0  0.1008
  H  H481  1  0.708600  0.907500  0.568300  1.0  0.1088
  H  H482  1  0.931500  0.953000  0.606700  1.0  0.1042
  H  H483  1  0.912000  0.931800  0.635700  1.0  0.1055
  H  H484  1  0.939300  0.890200  0.613200  1.0  0.1155
  H  H485  1  0.795700  0.638800  0.684900  1.0  0.0931
  H  H486  1  0.091600  0.689600  0.666100  1.0  0.1334
  H  H487  1  0.113600  0.461100  0.718900  1.0  0.1518
  H  H488  1  0.002000  0.495400  0.719600  1.0  0.1338
  H  H489  1  0.293900  0.502800  0.728200  1.0  0.0841
  H  H490  1  0.307500  0.649500  0.755800  1.0  0.0787
  H  H491  1  0.118300  0.660600  0.747600  1.0  0.1147
  H  H492  1  0.013700  0.591700  0.724400  1.0  0.1059
  H  H493  1  0.890300  0.719000  0.719300  1.0  0.1016
  H  H494  1  0.007800  0.744400  0.713900  1.0  0.1039
  H  H495  1  0.898900  0.781300  0.712200  1.0  0.0979
  H  H496  1  0.045700  0.767600  0.668300  1.0  0.1035
  H  H497  1  0.944800  0.764400  0.645300  1.0  0.0988
  H  H498  1  0.943700  0.808600  0.668200  1.0  0.1105
  H  H499  1  0.768300  0.777200  0.670100  1.0  0.0919
  H  H500  1  0.757800  0.716400  0.660000  1.0  0.0762
  H  H501  1  0.747300  0.730400  0.690600  1.0  0.09
  H  H502  1  0.729600  0.411100  0.593500  1.0  0.1015
  H  H503  1  0.854200  0.424100  0.669800  1.0  0.1317
  H  H504  1  0.521600  0.533000  0.650100  1.0  0.174
  H  H505  1  0.470300  0.573800  0.627200  1.0  0.18
  H  H506  1  0.533600  0.550200  0.689000  1.0  0.1176
  H  H507  1  0.468300  0.690000  0.725100  1.0  0.1125
  H  H508  1  0.467100  0.734900  0.684500  1.0  0.1145
  H  H509  1  0.499200  0.687400  0.646100  1.0  0.1048
  H  H510  1  0.779400  0.328200  0.594300  1.0  0.1009
  H  H511  1  0.901400  0.354000  0.597600  1.0  0.108
  H  H512  1  0.883300  0.293400  0.606700  1.0  0.101
  H  H513  1  0.677200  0.317000  0.630700  1.0  0.1013
  H  H514  1  0.769600  0.279800  0.646400  1.0  0.0985
  H  H515  1  0.723900  0.331500  0.660500  1.0  0.091
  H  H516  1  0.958400  0.303800  0.654100  1.0  0.1079
  H  H517  1  0.001400  0.360700  0.644700  1.0  0.1066
  H  H518  1  0.931300  0.357000  0.669800  1.0  0.0963
  H  H519  1  0.945500  0.666800  0.552300  1.0  0.1022
  H  H520  1  0.645200  0.622700  0.573800  1.0  0.1031
  H  H521  1  0.899000  0.493000  0.517300  1.0  0.1309
  H  H522  1  0.784300  0.464800  0.523100  1.0  0.1426
  H  H523  1  0.762600  0.371700  0.519900  1.0  0.0882
  H  H524  1  0.007200  0.274100  0.505400  1.0  0.0952
  H  H525  1  0.136300  0.344200  0.512200  1.0  0.1087
  H  H526  1  0.073300  0.430500  0.521100  1.0  0.1193
  H  H527  1  0.771000  0.781500  0.541800  1.0  0.0994
  H  H528  1  0.860200  0.736400  0.536300  1.0  0.1045
  H  H529  1  0.732800  0.729600  0.524600  1.0  0.0984
  H  H530  1  0.832400  0.712400  0.604000  1.0  0.1142
  H  H531  1  0.910400  0.740000  0.584200  1.0  0.1054
  H  H532  1  0.806400  0.772000  0.593600  1.0  0.1058
  H  H533  1  0.594000  0.699100  0.556100  1.0  0.0843
  H  H534  1  0.626500  0.715500  0.586500  1.0  0.0875
  H  H535  1  0.620600  0.760300  0.563800  1.0  0.102
  H  H536  1  0.281400  0.496100  0.645400  1.0  0.1001
  H  H537  1  0.164900  0.477000  0.569100  1.0  0.1073
  H  H538  1  0.295300  0.666900  0.620300  1.0  0.1358
  H  H539  1  0.241400  0.720900  0.607700  1.0  0.1386
  H  H540  1  0.233600  0.735700  0.560800  1.0  0.0777
  H  H541  1  0.412300  0.650000  0.516000  1.0  0.0993
  H  H542  1  0.445500  0.586700  0.549800  1.0  0.1162
  H  H543  1  0.378200  0.601700  0.590500  1.0  0.1026
  H  H544  1  0.208800  0.407500  0.644100  1.0  0.0991
  H  H545  1  0.146300  0.371900  0.620900  1.0  0.105
  H  H546  1  0.266300  0.354200  0.634400  1.0  0.0895
  H  H547  1  0.334100  0.386300  0.573600  1.0  0.1029
  H  H548  1  0.234100  0.351600  0.583200  1.0  0.1008
  H  H549  1  0.208600  0.407500  0.568300  1.0  0.1088
  H  H550  1  0.431500  0.453000  0.606700  1.0  0.1042
  H  H551  1  0.412000  0.431800  0.635700  1.0  0.1055
  H  H552  1  0.439300  0.390200  0.613200  1.0  0.1155
  C  C553  1  0.578600  0.892100  0.167120  1.0  0.0201
  C  C554  1  0.510400  0.934900  0.172630  1.0  -0.0222
  C  C555  1  0.400600  0.922200  0.178590  1.0  -0.0148
  C  C556  1  0.369000  0.868700  0.180600  1.0  -0.0938
  C  C557  1  0.438200  0.826100  0.176700  1.0  0.0304
  C  C558  1  0.542400  0.838700  0.169520  1.0  -0.0978
  C  C559  1  0.577000  0.004700  0.213300  1.0  -0.2886
  C  C560  1  0.640800  0.961000  0.225500  1.0  0.1187
  C  C561  1  0.757400  0.964700  0.232000  1.0  0.1319
  C  C562  1  0.764100  0.879200  0.248000  1.0  0.1772
  C  C563  1  0.652800  0.871700  0.242800  1.0  -0.1712
  C  C564  1  0.590500  0.913300  0.230000  1.0  -0.1527
  C  C565  1  0.404900  0.767000  0.180800  1.0  0.1781
  C  C566  1  0.427300  0.754600  0.208800  1.0  -0.3458
  C  C567  1  0.465100  0.728100  0.164200  1.0  -0.3807
  C  C568  1  0.284700  0.760200  0.174900  1.0  -0.3712
  C  C569  1  0.279700  0.006500  0.155000  1.0  -0.0728
  C  C570  1  0.226800  0.983200  0.132070  1.0  -0.07
  C  C571  1  0.211300  0.013900  0.108600  1.0  -0.0116
  C  C572  1  0.243300  0.067900  0.109200  1.0  -0.0685
  C  C573  1  0.295600  0.092000  0.132500  1.0  0.043
  C  C574  1  0.315200  0.060900  0.154300  1.0  -0.1058
  C  C575  1  0.027700  0.930700  0.142400  1.0  -0.2203
  C  C576  1  0.019400  0.885700  0.163900  1.0  -0.0457
  C  C577  1  0.020100  0.912300  0.188100  1.0  0.0549
  C  C578  1  0.981300  0.829200  0.209500  1.0  0.1557
  C  C579  1  0.980600  0.802600  0.185400  1.0  -0.1049
  C  C580  1  0.999700  0.830800  0.162590  1.0  -0.0595
  C  C581  1  0.330800  0.150800  0.133700  1.0  0.204
  C  C582  1  0.350600  0.170600  0.105500  1.0  -0.3707
  C  C583  1  0.243200  0.183300  0.143700  1.0  -0.366
  C  C584  1  0.440600  0.158000  0.152300  1.0  -0.3713
  C  C585  1  0.251800  0.940400  0.069620  1.0  -0.0358
  C  C586  1  0.357100  0.954700  0.063870  1.0  -0.0414
  C  C587  1  0.432400  0.913400  0.058390  1.0  -0.062
  C  C588  1  0.396300  0.860300  0.057310  1.0  -0.0931
  C  C589  1  0.290500  0.845700  0.063350  1.0  -0.0158
  C  C590  1  0.217900  0.886200  0.069580  1.0  -0.0855
  C  C591  1  0.366000  0.035500  0.027640  1.0  -0.3624
  C  C592  1  0.413400  0.090000  0.020850  1.0  0.0828
  C  C593  1  0.338900  0.134000  0.017680  1.0  0.1037
  C  C594  1  0.482400  0.191100  0.009550  1.0  0.1651
  C  C595  1  0.559400  0.149300  0.013300  1.0  -0.1067
  C  C596  1  0.522100  0.098400  0.018780  1.0  -0.0035
  C  C597  1  0.258400  0.786100  0.064800  1.0  0.1817
  C  C598  1  0.282800  0.757100  0.039700  1.0  -0.3672
  C  C599  1  0.333900  0.763300  0.088900  1.0  -0.3581
  C  C600  1  0.140000  0.777000  0.068100  1.0  -0.3728
  C  C601  1  0.634300  0.949400  0.083330  1.0  0.0192
  C  C602  1  0.649000  0.916500  0.105700  1.0  -0.0616
  C  C603  1  0.699200  0.939000  0.129680  1.0  -0.0174
  C  C604  1  0.742500  0.990300  0.129550  1.0  -0.0933
  C  C605  1  0.731100  0.022600  0.106980  1.0  0.0334
  C  C606  1  0.675600  0.001300  0.084520  1.0  -0.0686
  C  C607  1  0.746900  0.818300  0.105100  1.0  -0.3127
  C  C608  1  0.799000  0.829000  0.080000  1.0  0.0687
  C  C609  1  0.777600  0.795200  0.058400  1.0  0.1125
  C  C610  1  0.880100  0.845200  0.032200  1.0  0.1254
  C  C611  1  0.902600  0.882200  0.052500  1.0  -0.1185
  C  C612  1  0.862400  0.873500  0.076400  1.0  -0.0654
  C  C613  1  0.774600  0.082300  0.107900  1.0  0.059
  C  C614  1  0.719000  0.115100  0.128700  1.0  -0.3442
  C  C615  1  0.762000  0.111900  0.080700  1.0  -0.3645
  C  C616  1  0.901000  0.076300  0.116700  1.0  -0.3196
  C  C617  1  0.019500  0.033400  0.213100  1.0  0.1612
  C  C618  1  0.905400  0.811600  0.961900  1.0  0.1745
  C  C619  1  0.078600  0.392100  0.167120  1.0  0.0201
  C  C620  1  0.010400  0.434900  0.172630  1.0  -0.0222
  C  C621  1  0.900600  0.422200  0.178590  1.0  -0.0148
  C  C622  1  0.869000  0.368700  0.180600  1.0  -0.0938
  C  C623  1  0.938200  0.326100  0.176700  1.0  0.0304
  C  C624  1  0.042400  0.338700  0.169520  1.0  -0.0978
  C  C625  1  0.077000  0.504700  0.213300  1.0  -0.2886
  C  C626  1  0.140800  0.461000  0.225500  1.0  0.1187
  C  C627  1  0.257400  0.464700  0.232000  1.0  0.1319
  C  C628  1  0.264100  0.379200  0.248000  1.0  0.1772
  C  C629  1  0.152800  0.371700  0.242800  1.0  -0.1712
  C  C630  1  0.090500  0.413300  0.230000  1.0  -0.1527
  C  C631  1  0.904900  0.267000  0.180800  1.0  0.1781
  C  C632  1  0.927300  0.254600  0.208800  1.0  -0.3458
  C  C633  1  0.965100  0.228100  0.164200  1.0  -0.3807
  C  C634  1  0.784700  0.260200  0.174900  1.0  -0.3712
  C  C635  1  0.779700  0.506500  0.155000  1.0  -0.0728
  C  C636  1  0.726800  0.483200  0.132070  1.0  -0.07
  C  C637  1  0.711300  0.513900  0.108600  1.0  -0.0116
  C  C638  1  0.743300  0.567900  0.109200  1.0  -0.0685
  C  C639  1  0.795600  0.592000  0.132500  1.0  0.043
  C  C640  1  0.815200  0.560900  0.154300  1.0  -0.1058
  C  C641  1  0.527700  0.430700  0.142400  1.0  -0.2203
  C  C642  1  0.519400  0.385700  0.163900  1.0  -0.0457
  C  C643  1  0.520100  0.412300  0.188100  1.0  0.0549
  C  C644  1  0.481300  0.329200  0.209500  1.0  0.1557
  C  C645  1  0.480600  0.302600  0.185400  1.0  -0.1049
  C  C646  1  0.499700  0.330800  0.162590  1.0  -0.0595
  C  C647  1  0.830800  0.650800  0.133700  1.0  0.204
  C  C648  1  0.850600  0.670600  0.105500  1.0  -0.3707
  C  C649  1  0.743200  0.683300  0.143700  1.0  -0.366
  C  C650  1  0.940600  0.658000  0.152300  1.0  -0.3713
  C  C651  1  0.751800  0.440400  0.069620  1.0  -0.0358
  C  C652  1  0.857100  0.454700  0.063870  1.0  -0.0414
  C  C653  1  0.932400  0.413400  0.058390  1.0  -0.062
  C  C654  1  0.896300  0.360300  0.057310  1.0  -0.0931
  C  C655  1  0.790500  0.345700  0.063350  1.0  -0.0158
  C  C656  1  0.717900  0.386200  0.069580  1.0  -0.0855
  C  C657  1  0.866000  0.535500  0.027640  1.0  -0.3624
  C  C658  1  0.913400  0.590000  0.020850  1.0  0.0828
  C  C659  1  0.838900  0.634000  0.017680  1.0  0.1037
  C  C660  1  0.982400  0.691100  0.009550  1.0  0.1651
  C  C661  1  0.059400  0.649300  0.013300  1.0  -0.1067
  C  C662  1  0.022100  0.598400  0.018780  1.0  -0.0035
  C  C663  1  0.758400  0.286100  0.064800  1.0  0.1817
  C  C664  1  0.782800  0.257100  0.039700  1.0  -0.3672
  C  C665  1  0.833900  0.263300  0.088900  1.0  -0.3581
  C  C666  1  0.640000  0.277000  0.068100  1.0  -0.3728
  C  C667  1  0.134300  0.449400  0.083330  1.0  0.0192
  C  C668  1  0.149000  0.416500  0.105700  1.0  -0.0616
  C  C669  1  0.199200  0.439000  0.129680  1.0  -0.0174
  C  C670  1  0.242500  0.490300  0.129550  1.0  -0.0933
  C  C671  1  0.231100  0.522600  0.106980  1.0  0.0334
  C  C672  1  0.175600  0.501300  0.084520  1.0  -0.0686
  C  C673  1  0.246900  0.318300  0.105100  1.0  -0.3127
  C  C674  1  0.299000  0.329000  0.080000  1.0  0.0687
  C  C675  1  0.277600  0.295200  0.058400  1.0  0.1125
  C  C676  1  0.380100  0.345200  0.032200  1.0  0.1254
  C  C677  1  0.402600  0.382200  0.052500  1.0  -0.1185
  C  C678  1  0.362400  0.373500  0.076400  1.0  -0.0654
  C  C679  1  0.274600  0.582300  0.107900  1.0  0.059
  C  C680  1  0.219000  0.615100  0.128700  1.0  -0.3442
  C  C681  1  0.262000  0.611900  0.080700  1.0  -0.3645
  C  C682  1  0.401000  0.576300  0.116700  1.0  -0.3196
  C  C683  1  0.519500  0.533400  0.213100  1.0  0.1612
  C  C684  1  0.405400  0.311600  0.961900  1.0  0.1745
  C  C685  1  0.421400  0.892100  0.332880  1.0  0.021
  C  C686  1  0.489600  0.934900  0.327370  1.0  -0.0219
  C  C687  1  0.599400  0.922200  0.321410  1.0  -0.0146
  C  C688  1  0.631000  0.868700  0.319400  1.0  -0.0927
  C  C689  1  0.561800  0.826100  0.323300  1.0  0.0287
  C  C690  1  0.457600  0.838700  0.330480  1.0  -0.0996
  C  C691  1  0.423000  0.004700  0.286700  1.0  -0.2853
  C  C692  1  0.359200  0.961000  0.274500  1.0  0.1193
  C  C693  1  0.242600  0.964700  0.268000  1.0  0.1317
  C  C694  1  0.235900  0.879200  0.252000  1.0  0.1769
  C  C695  1  0.347200  0.871700  0.257200  1.0  -0.1704
  C  C696  1  0.409500  0.913300  0.270000  1.0  -0.1539
  C  C697  1  0.595100  0.767000  0.319200  1.0  0.1786
  C  C698  1  0.572700  0.754600  0.291200  1.0  -0.3438
  C  C699  1  0.534900  0.728100  0.335800  1.0  -0.3804
  C  C700  1  0.715300  0.760200  0.325100  1.0  -0.3697
  C  C701  1  0.720300  0.006500  0.345000  1.0  -0.0745
  C  C702  1  0.773200  0.983200  0.367930  1.0  -0.0704
  C  C703  1  0.788700  0.013900  0.391400  1.0  -0.0088
  C  C704  1  0.756700  0.067900  0.390800  1.0  -0.0676
  C  C705  1  0.704400  0.092000  0.367500  1.0  0.0433
  C  C706  1  0.684800  0.060900  0.345700  1.0  -0.1068
  C  C707  1  0.972300  0.930700  0.357600  1.0  -0.22
  C  C708  1  0.980600  0.885700  0.336100  1.0  -0.0462
  C  C709  1  0.979900  0.912300  0.311900  1.0  0.0533
  C  C710  1  0.018700  0.829200  0.290500  1.0  0.1553
  C  C711  1  0.019400  0.802600  0.314600  1.0  -0.1048
  C  C712  1  0.000300  0.830800  0.337410  1.0  -0.0588
  C  C713  1  0.669200  0.150800  0.366300  1.0  0.2033
  C  C714  1  0.649400  0.170600  0.394500  1.0  -0.3678
  C  C715  1  0.756800  0.183300  0.356300  1.0  -0.3665
  C  C716  1  0.559400  0.158000  0.347700  1.0  -0.3731
  C  C717  1  0.748200  0.940400  0.430380  1.0  -0.0356
  C  C718  1  0.642900  0.954700  0.436130  1.0  -0.0411
  C  C719  1  0.567600  0.913400  0.441610  1.0  -0.0624
  C  C720  1  0.603700  0.860300  0.442690  1.0  -0.0947
  C  C721  1  0.709500  0.845700  0.436650  1.0  -0.0155
  C  C722  1  0.782100  0.886200  0.430420  1.0  -0.086
  C  C723  1  0.634000  0.035500  0.472360  1.0  -0.3611
  C  C724  1  0.586600  0.090000  0.479150  1.0  0.0818
  C  C725  1  0.661100  0.134000  0.482320  1.0  0.1023
  C  C726  1  0.517600  0.191100  0.490450  1.0  0.1653
  C  C727  1  0.440600  0.149300  0.486700  1.0  -0.1085
  C  C728  1  0.477900  0.098400  0.481220  1.0  -0.004
  C  C729  1  0.741600  0.786100  0.435200  1.0  0.1821
  C  C730  1  0.717200  0.757100  0.460300  1.0  -0.3675
  C  C731  1  0.666100  0.763300  0.411100  1.0  -0.3568
  C  C732  1  0.860000  0.777000  0.431900  1.0  -0.3723
  C  C733  1  0.365700  0.949400  0.416670  1.0  0.0212
  C  C734  1  0.351000  0.916500  0.394300  1.0  -0.0599
  C  C735  1  0.300800  0.939000  0.370320  1.0  -0.0186
  C  C736  1  0.257500  0.990300  0.370450  1.0  -0.094
  C  C737  1  0.268900  0.022600  0.393020  1.0  0.0343
  C  C738  1  0.324400  0.001300  0.415480  1.0  -0.0689
  C  C739  1  0.253100  0.818300  0.394900  1.0  -0.3119
  C  C740  1  0.201000  0.829000  0.420000  1.0  0.0689
  C  C741  1  0.222400  0.795200  0.441600  1.0  0.1127
  C  C742  1  0.119900  0.845200  0.467800  1.0  0.1247
  C  C743  1  0.097400  0.882200  0.447500  1.0  -0.1204
  C  C744  1  0.137600  0.873500  0.423600  1.0  -0.0647
  C  C745  1  0.225400  0.082300  0.392100  1.0  0.0583
  C  C746  1  0.281000  0.115100  0.371300  1.0  -0.344
  C  C747  1  0.238000  0.111900  0.419300  1.0  -0.3644
  C  C748  1  0.099000  0.076300  0.383300  1.0  -0.3225
  C  C749  1  0.980500  0.033400  0.286900  1.0  0.163
  C  C750  1  0.094600  0.811600  0.538100  1.0  0.174
  C  C751  1  0.921400  0.392100  0.332880  1.0  0.021
  C  C752  1  0.989600  0.434900  0.327370  1.0  -0.0219
  C  C753  1  0.099400  0.422200  0.321410  1.0  -0.0146
  C  C754  1  0.131000  0.368700  0.319400  1.0  -0.0927
  C  C755  1  0.061800  0.326100  0.323300  1.0  0.0287
  C  C756  1  0.957600  0.338700  0.330480  1.0  -0.0996
  C  C757  1  0.923000  0.504700  0.286700  1.0  -0.2853
  C  C758  1  0.859200  0.461000  0.274500  1.0  0.1193
  C  C759  1  0.742600  0.464700  0.268000  1.0  0.1317
  C  C760  1  0.735900  0.379200  0.252000  1.0  0.1769
  C  C761  1  0.847200  0.371700  0.257200  1.0  -0.1704
  C  C762  1  0.909500  0.413300  0.270000  1.0  -0.1539
  C  C763  1  0.095100  0.267000  0.319200  1.0  0.1786
  C  C764  1  0.072700  0.254600  0.291200  1.0  -0.3438
  C  C765  1  0.034900  0.228100  0.335800  1.0  -0.3804
  C  C766  1  0.215300  0.260200  0.325100  1.0  -0.3697
  C  C767  1  0.220300  0.506500  0.345000  1.0  -0.0745
  C  C768  1  0.273200  0.483200  0.367930  1.0  -0.0704
  C  C769  1  0.288700  0.513900  0.391400  1.0  -0.0088
  C  C770  1  0.256700  0.567900  0.390800  1.0  -0.0676
  C  C771  1  0.204400  0.592000  0.367500  1.0  0.0433
  C  C772  1  0.184800  0.560900  0.345700  1.0  -0.1068
  C  C773  1  0.472300  0.430700  0.357600  1.0  -0.22
  C  C774  1  0.480600  0.385700  0.336100  1.0  -0.0462
  C  C775  1  0.479900  0.412300  0.311900  1.0  0.0533
  C  C776  1  0.518700  0.329200  0.290500  1.0  0.1553
  C  C777  1  0.519400  0.302600  0.314600  1.0  -0.1048
  C  C778  1  0.500300  0.330800  0.337410  1.0  -0.0588
  C  C779  1  0.169200  0.650800  0.366300  1.0  0.2033
  C  C780  1  0.149400  0.670600  0.394500  1.0  -0.3678
  C  C781  1  0.256800  0.683300  0.356300  1.0  -0.3665
  C  C782  1  0.059400  0.658000  0.347700  1.0  -0.3731
  C  C783  1  0.248200  0.440400  0.430380  1.0  -0.0356
  C  C784  1  0.142900  0.454700  0.436130  1.0  -0.0411
  C  C785  1  0.067600  0.413400  0.441610  1.0  -0.0624
  C  C786  1  0.103700  0.360300  0.442690  1.0  -0.0947
  C  C787  1  0.209500  0.345700  0.436650  1.0  -0.0155
  C  C788  1  0.282100  0.386200  0.430420  1.0  -0.086
  C  C789  1  0.134000  0.535500  0.472360  1.0  -0.3611
  C  C790  1  0.086600  0.590000  0.479150  1.0  0.0818
  C  C791  1  0.161100  0.634000  0.482320  1.0  0.1023
  C  C792  1  0.017600  0.691100  0.490450  1.0  0.1653
  C  C793  1  0.940600  0.649300  0.486700  1.0  -0.1085
  C  C794  1  0.977900  0.598400  0.481220  1.0  -0.004
  C  C795  1  0.241600  0.286100  0.435200  1.0  0.1821
  C  C796  1  0.217200  0.257100  0.460300  1.0  -0.3675
  C  C797  1  0.166100  0.263300  0.411100  1.0  -0.3568
  C  C798  1  0.360000  0.277000  0.431900  1.0  -0.3723
  C  C799  1  0.865700  0.449400  0.416670  1.0  0.0212
  C  C800  1  0.851000  0.416500  0.394300  1.0  -0.0599
  C  C801  1  0.800800  0.439000  0.370320  1.0  -0.0186
  C  C802  1  0.757500  0.490300  0.370450  1.0  -0.094
  C  C803  1  0.768900  0.522600  0.393020  1.0  0.0343
  C  C804  1  0.824400  0.501300  0.415480  1.0  -0.0689
  C  C805  1  0.753100  0.318300  0.394900  1.0  -0.3119
  C  C806  1  0.701000  0.329000  0.420000  1.0  0.0689
  C  C807  1  0.722400  0.295200  0.441600  1.0  0.1127
  C  C808  1  0.619900  0.345200  0.467800  1.0  0.1247
  C  C809  1  0.597400  0.382200  0.447500  1.0  -0.1204
  C  C810  1  0.637600  0.373500  0.423600  1.0  -0.0647
  C  C811  1  0.725400  0.582300  0.392100  1.0  0.0583
  C  C812  1  0.781000  0.615100  0.371300  1.0  -0.344
  C  C813  1  0.738000  0.611900  0.419300  1.0  -0.3644
  C  C814  1  0.599000  0.576300  0.383300  1.0  -0.3225
  C  C815  1  0.480500  0.533400  0.286900  1.0  0.163
  C  C816  1  0.594600  0.311600  0.538100  1.0  0.174
  C  C817  1  0.421400  0.107900  0.832880  1.0  0.0207
  C  C818  1  0.489600  0.065100  0.827370  1.0  -0.0233
  C  C819  1  0.599400  0.077800  0.821410  1.0  -0.0165
  C  C820  1  0.631000  0.131300  0.819400  1.0  -0.0939
  C  C821  1  0.561800  0.173900  0.823300  1.0  0.0288
  C  C822  1  0.457600  0.161300  0.830480  1.0  -0.0996
  C  C823  1  0.423000  0.995300  0.786700  1.0  -0.2863
  C  C824  1  0.359200  0.039000  0.774500  1.0  0.1177
  C  C825  1  0.242600  0.035300  0.768000  1.0  0.1336
  C  C826  1  0.235900  0.120800  0.752000  1.0  0.1762
  C  C827  1  0.347200  0.128300  0.757200  1.0  -0.1697
  C  C828  1  0.409500  0.086700  0.770000  1.0  -0.1541
  C  C829  1  0.595100  0.233000  0.819200  1.0  0.1784
  C  C830  1  0.572700  0.245400  0.791200  1.0  -0.3434
  C  C831  1  0.534900  0.271900  0.835800  1.0  -0.3804
  C  C832  1  0.715300  0.239800  0.825100  1.0  -0.3697
  C  C833  1  0.720300  0.993500  0.845000  1.0  -0.0742
  C  C834  1  0.773200  0.016800  0.867930  1.0  -0.0715
  C  C835  1  0.788700  0.986100  0.891400  1.0  -0.0097
  C  C836  1  0.756700  0.932100  0.890800  1.0  -0.07
  C  C837  1  0.704400  0.908000  0.867500  1.0  0.0432
  C  C838  1  0.684800  0.939100  0.845700  1.0  -0.1067
  C  C839  1  0.972300  0.069300  0.857600  1.0  -0.2195
  C  C840  1  0.980600  0.114300  0.836100  1.0  -0.046
  C  C841  1  0.979900  0.087700  0.811900  1.0  0.054
  C  C842  1  0.018700  0.170800  0.790500  1.0  0.1562
  C  C843  1  0.019400  0.197400  0.814600  1.0  -0.104
  C  C844  1  0.000300  0.169200  0.837410  1.0  -0.0591
  C  C845  1  0.669200  0.849200  0.866300  1.0  0.2036
  C  C846  1  0.649400  0.829400  0.894500  1.0  -0.3679
  C  C847  1  0.756800  0.816700  0.856300  1.0  -0.366
  C  C848  1  0.559400  0.842000  0.847700  1.0  -0.3732
  C  C849  1  0.748200  0.059600  0.930380  1.0  -0.0374
  C  C850  1  0.642900  0.045300  0.936130  1.0  -0.0414
  C  C851  1  0.567600  0.086600  0.941610  1.0  -0.0624
  C  C852  1  0.603700  0.139700  0.942690  1.0  -0.0934
  C  C853  1  0.709500  0.154300  0.936650  1.0  -0.0154
  C  C854  1  0.782100  0.113800  0.930420  1.0  -0.0873
  C  C855  1  0.634000  0.964500  0.972360  1.0  -0.3606
  C  C856  1  0.586600  0.910000  0.979150  1.0  0.0815
  C  C857  1  0.661100  0.866000  0.982320  1.0  0.102
  C  C858  1  0.517600  0.808900  0.990450  1.0  0.1648
  C  C859  1  0.440600  0.850700  0.986700  1.0  -0.1084
  C  C860  1  0.477900  0.901600  0.981220  1.0  -0.0042
  C  C861  1  0.741600  0.213900  0.935200  1.0  0.182
  C  C862  1  0.717200  0.242900  0.960300  1.0  -0.3683
  C  C863  1  0.666100  0.236700  0.911100  1.0  -0.3566
  C  C864  1  0.860000  0.223000  0.931900  1.0  -0.372
  C  C865  1  0.365700  0.050600  0.916670  1.0  0.0215
  C  C866  1  0.351000  0.083500  0.894300  1.0  -0.0596
  C  C867  1  0.300800  0.061000  0.870320  1.0  -0.0187
  C  C868  1  0.257500  0.009700  0.870450  1.0  -0.0944
  C  C869  1  0.268900  0.977400  0.893020  1.0  0.0341
  C  C870  1  0.324400  0.998700  0.915480  1.0  -0.0694
  C  C871  1  0.253100  0.181700  0.894900  1.0  -0.3121
  C  C872  1  0.201000  0.171000  0.920000  1.0  0.0689
  C  C873  1  0.222400  0.204800  0.941600  1.0  0.1134
  C  C874  1  0.119900  0.154800  0.967800  1.0  0.1249
  C  C875  1  0.097400  0.117800  0.947500  1.0  -0.1209
  C  C876  1  0.137600  0.126500  0.923600  1.0  -0.0639
  C  C877  1  0.225400  0.917700  0.892100  1.0  0.058
  C  C878  1  0.281000  0.884900  0.871300  1.0  -0.3434
  C  C879  1  0.238000  0.888100  0.919300  1.0  -0.365
  C  C880  1  0.099000  0.923700  0.883300  1.0  -0.3226
  C  C881  1  0.980500  0.966600  0.786900  1.0  0.1628
  C  C882  1  0.094600  0.188400  0.038100  1.0  0.176
  C  C883  1  0.921400  0.607900  0.832880  1.0  0.0207
  C  C884  1  0.989600  0.565100  0.827370  1.0  -0.0233
  C  C885  1  0.099400  0.577800  0.821410  1.0  -0.0165
  C  C886  1  0.131000  0.631300  0.819400  1.0  -0.0939
  C  C887  1  0.061800  0.673900  0.823300  1.0  0.0288
  C  C888  1  0.957600  0.661300  0.830480  1.0  -0.0996
  C  C889  1  0.923000  0.495300  0.786700  1.0  -0.2863
  C  C890  1  0.859200  0.539000  0.774500  1.0  0.1177
  C  C891  1  0.742600  0.535300  0.768000  1.0  0.1336
  C  C892  1  0.735900  0.620800  0.752000  1.0  0.1762
  C  C893  1  0.847200  0.628300  0.757200  1.0  -0.1697
  C  C894  1  0.909500  0.586700  0.770000  1.0  -0.1541
  C  C895  1  0.095100  0.733000  0.819200  1.0  0.1784
  C  C896  1  0.072700  0.745400  0.791200  1.0  -0.3434
  C  C897  1  0.034900  0.771900  0.835800  1.0  -0.3804
  C  C898  1  0.215300  0.739800  0.825100  1.0  -0.3697
  C  C899  1  0.220300  0.493500  0.845000  1.0  -0.0742
  C  C900  1  0.273200  0.516800  0.867930  1.0  -0.0715
  C  C901  1  0.288700  0.486100  0.891400  1.0  -0.0097
  C  C902  1  0.256700  0.432100  0.890800  1.0  -0.07
  C  C903  1  0.204400  0.408000  0.867500  1.0  0.0432
  C  C904  1  0.184800  0.439100  0.845700  1.0  -0.1067
  C  C905  1  0.472300  0.569300  0.857600  1.0  -0.2195
  C  C906  1  0.480600  0.614300  0.836100  1.0  -0.046
  C  C907  1  0.479900  0.587700  0.811900  1.0  0.054
  C  C908  1  0.518700  0.670800  0.790500  1.0  0.1562
  C  C909  1  0.519400  0.697400  0.814600  1.0  -0.104
  C  C910  1  0.500300  0.669200  0.837410  1.0  -0.0591
  C  C911  1  0.169200  0.349200  0.866300  1.0  0.2036
  C  C912  1  0.149400  0.329400  0.894500  1.0  -0.3679
  C  C913  1  0.256800  0.316700  0.856300  1.0  -0.366
  C  C914  1  0.059400  0.342000  0.847700  1.0  -0.3732
  C  C915  1  0.248200  0.559600  0.930380  1.0  -0.0374
  C  C916  1  0.142900  0.545300  0.936130  1.0  -0.0414
  C  C917  1  0.067600  0.586600  0.941610  1.0  -0.0624
  C  C918  1  0.103700  0.639700  0.942690  1.0  -0.0934
  C  C919  1  0.209500  0.654300  0.936650  1.0  -0.0154
  C  C920  1  0.282100  0.613800  0.930420  1.0  -0.0873
  C  C921  1  0.134000  0.464500  0.972360  1.0  -0.3606
  C  C922  1  0.086600  0.410000  0.979150  1.0  0.0815
  C  C923  1  0.161100  0.366000  0.982320  1.0  0.102
  C  C924  1  0.017600  0.308900  0.990450  1.0  0.1648
  C  C925  1  0.940600  0.350700  0.986700  1.0  -0.1084
  C  C926  1  0.977900  0.401600  0.981220  1.0  -0.0042
  C  C927  1  0.241600  0.713900  0.935200  1.0  0.182
  C  C928  1  0.217200  0.742900  0.960300  1.0  -0.3683
  C  C929  1  0.166100  0.736700  0.911100  1.0  -0.3566
  C  C930  1  0.360000  0.723000  0.931900  1.0  -0.372
  C  C931  1  0.865700  0.550600  0.916670  1.0  0.0215
  C  C932  1  0.851000  0.583500  0.894300  1.0  -0.0596
  C  C933  1  0.800800  0.561000  0.870320  1.0  -0.0187
  C  C934  1  0.757500  0.509700  0.870450  1.0  -0.0944
  C  C935  1  0.768900  0.477400  0.893020  1.0  0.0341
  C  C936  1  0.824400  0.498700  0.915480  1.0  -0.0694
  C  C937  1  0.753100  0.681700  0.894900  1.0  -0.3121
  C  C938  1  0.701000  0.671000  0.920000  1.0  0.0689
  C  C939  1  0.722400  0.704800  0.941600  1.0  0.1134
  C  C940  1  0.619900  0.654800  0.967800  1.0  0.1249
  C  C941  1  0.597400  0.617800  0.947500  1.0  -0.1209
  C  C942  1  0.637600  0.626500  0.923600  1.0  -0.0639
  C  C943  1  0.725400  0.417700  0.892100  1.0  0.058
  C  C944  1  0.781000  0.384900  0.871300  1.0  -0.3434
  C  C945  1  0.738000  0.388100  0.919300  1.0  -0.365
  C  C946  1  0.599000  0.423700  0.883300  1.0  -0.3226
  C  C947  1  0.480500  0.466600  0.786900  1.0  0.1628
  C  C948  1  0.594600  0.688400  0.038100  1.0  0.1759
  C  C949  1  0.578600  0.107900  0.667120  1.0  0.0197
  C  C950  1  0.510400  0.065100  0.672630  1.0  -0.0235
  C  C951  1  0.400600  0.077800  0.678590  1.0  -0.0171
  C  C952  1  0.369000  0.131300  0.680600  1.0  -0.0932
  C  C953  1  0.438200  0.173900  0.676700  1.0  0.0297
  C  C954  1  0.542400  0.161300  0.669520  1.0  -0.0987
  C  C955  1  0.577000  0.995300  0.713300  1.0  -0.2871
  C  C956  1  0.640800  0.039000  0.725500  1.0  0.1175
  C  C957  1  0.757400  0.035300  0.732000  1.0  0.1325
  C  C958  1  0.764100  0.120800  0.748000  1.0  0.1765
  C  C959  1  0.652800  0.128300  0.742800  1.0  -0.1707
  C  C960  1  0.590500  0.086700  0.730000  1.0  -0.1528
  C  C961  1  0.404900  0.233000  0.680800  1.0  0.1781
  C  C962  1  0.427300  0.245400  0.708800  1.0  -0.3446
  C  C963  1  0.465100  0.271900  0.664200  1.0  -0.3804
  C  C964  1  0.284700  0.239800  0.674900  1.0  -0.3715
  C  C965  1  0.279700  0.993500  0.655000  1.0  -0.0726
  C  C966  1  0.226800  0.016800  0.632070  1.0  -0.0709
  C  C967  1  0.211300  0.986100  0.608600  1.0  -0.0103
  C  C968  1  0.243300  0.932100  0.609200  1.0  -0.0699
  C  C969  1  0.295600  0.908000  0.632500  1.0  0.0429
  C  C970  1  0.315200  0.939100  0.654300  1.0  -0.1046
  C  C971  1  0.027700  0.069300  0.642400  1.0  -0.2198
  C  C972  1  0.019400  0.114300  0.663900  1.0  -0.0456
  C  C973  1  0.020100  0.087700  0.688100  1.0  0.0552
  C  C974  1  0.981300  0.170800  0.709500  1.0  0.1551
  C  C975  1  0.980600  0.197400  0.685400  1.0  -0.1038
  C  C976  1  0.999700  0.169200  0.662590  1.0  -0.0593
  C  C977  1  0.330800  0.849200  0.633700  1.0  0.2045
  C  C978  1  0.350600  0.829400  0.605500  1.0  -0.3703
  C  C979  1  0.243200  0.816700  0.643700  1.0  -0.3659
  C  C980  1  0.440600  0.842000  0.652300  1.0  -0.3714
  C  C981  1  0.251800  0.059600  0.569620  1.0  -0.038
  C  C982  1  0.357100  0.045300  0.563870  1.0  -0.0418
  C  C983  1  0.432400  0.086600  0.558390  1.0  -0.0618
  C  C984  1  0.396300  0.139700  0.557310  1.0  -0.0927
  C  C985  1  0.290500  0.154300  0.563350  1.0  -0.0156
  C  C986  1  0.217900  0.113800  0.569580  1.0  -0.0861
  C  C987  1  0.366000  0.964500  0.527640  1.0  -0.3616
  C  C988  1  0.413400  0.910000  0.520850  1.0  0.0826
  C  C989  1  0.338900  0.866000  0.517680  1.0  0.1035
  C  C990  1  0.482400  0.808900  0.509550  1.0  0.1646
  C  C991  1  0.559400  0.850700  0.513300  1.0  -0.1068
  C  C992  1  0.522100  0.901600  0.518780  1.0  -0.0033
  C  C993  1  0.258400  0.213900  0.564800  1.0  0.1817
  C  C994  1  0.282800  0.242900  0.539700  1.0  -0.3682
  C  C995  1  0.333900  0.236700  0.588900  1.0  -0.3576
  C  C996  1  0.140000  0.223000  0.568100  1.0  -0.3727
  C  C997  1  0.634300  0.050600  0.583330  1.0  0.0197
  C  C998  1  0.649000  0.083500  0.605700  1.0  -0.0612
  C  C999  1  0.699200  0.061000  0.629680  1.0  -0.0174
  C  C1000  1  0.742500  0.009700  0.629550  1.0  -0.094
  C  C1001  1  0.731100  0.977400  0.606980  1.0  0.0336
  C  C1002  1  0.675600  0.998700  0.584520  1.0  -0.0688
  C  C1003  1  0.746900  0.181700  0.605100  1.0  -0.312
  C  C1004  1  0.799000  0.171000  0.580000  1.0  0.0688
  C  C1005  1  0.777600  0.204800  0.558400  1.0  0.1124
  C  C1006  1  0.880100  0.154800  0.532200  1.0  0.1253
  C  C1007  1  0.902600  0.117800  0.552500  1.0  -0.1211
  C  C1008  1  0.862400  0.126500  0.576400  1.0  -0.0647
  C  C1009  1  0.774600  0.917700  0.607900  1.0  0.059
  C  C1010  1  0.719000  0.884900  0.628700  1.0  -0.3443
  C  C1011  1  0.762000  0.888100  0.580700  1.0  -0.3642
  C  C1012  1  0.901000  0.923700  0.616700  1.0  -0.3199
  C  C1013  1  0.019500  0.966600  0.713100  1.0  0.1605
  C  C1014  1  0.905400  0.188400  0.461900  1.0  0.1768
  C  C1015  1  0.078600  0.607900  0.667120  1.0  0.0197
  C  C1016  1  0.010400  0.565100  0.672630  1.0  -0.0235
  C  C1017  1  0.900600  0.577800  0.678590  1.0  -0.0171
  C  C1018  1  0.869000  0.631300  0.680600  1.0  -0.0932
  C  C1019  1  0.938200  0.673900  0.676700  1.0  0.0297
  C  C1020  1  0.042400  0.661300  0.669520  1.0  -0.0987
  C  C1021  1  0.077000  0.495300  0.713300  1.0  -0.2871
  C  C1022  1  0.140800  0.539000  0.725500  1.0  0.1175
  C  C1023  1  0.257400  0.535300  0.732000  1.0  0.1325
  C  C1024  1  0.264100  0.620800  0.748000  1.0  0.1765
  C  C1025  1  0.152800  0.628300  0.742800  1.0  -0.1707
  C  C1026  1  0.090500  0.586700  0.730000  1.0  -0.1528
  C  C1027  1  0.904900  0.733000  0.680800  1.0  0.1781
  C  C1028  1  0.927300  0.745400  0.708800  1.0  -0.3446
  C  C1029  1  0.965100  0.771900  0.664200  1.0  -0.3804
  C  C1030  1  0.784700  0.739800  0.674900  1.0  -0.3715
  C  C1031  1  0.779700  0.493500  0.655000  1.0  -0.0726
  C  C1032  1  0.726800  0.516800  0.632070  1.0  -0.0709
  C  C1033  1  0.711300  0.486100  0.608600  1.0  -0.0103
  C  C1034  1  0.743300  0.432100  0.609200  1.0  -0.0699
  C  C1035  1  0.795600  0.408000  0.632500  1.0  0.0429
  C  C1036  1  0.815200  0.439100  0.654300  1.0  -0.1046
  C  C1037  1  0.527700  0.569300  0.642400  1.0  -0.2198
  C  C1038  1  0.519400  0.614300  0.663900  1.0  -0.0456
  C  C1039  1  0.520100  0.587700  0.688100  1.0  0.0552
  C  C1040  1  0.481300  0.670800  0.709500  1.0  0.1551
  C  C1041  1  0.480600  0.697400  0.685400  1.0  -0.1038
  C  C1042  1  0.499700  0.669200  0.662590  1.0  -0.0593
  C  C1043  1  0.830800  0.349200  0.633700  1.0  0.2045
  C  C1044  1  0.850600  0.329400  0.605500  1.0  -0.3703
  C  C1045  1  0.743200  0.316700  0.643700  1.0  -0.3659
  C  C1046  1  0.940600  0.342000  0.652300  1.0  -0.3714
  C  C1047  1  0.751800  0.559600  0.569620  1.0  -0.038
  C  C1048  1  0.857100  0.545300  0.563870  1.0  -0.0418
  C  C1049  1  0.932400  0.586600  0.558390  1.0  -0.0618
  C  C1050  1  0.896300  0.639700  0.557310  1.0  -0.0927
  C  C1051  1  0.790500  0.654300  0.563350  1.0  -0.0156
  C  C1052  1  0.717900  0.613800  0.569580  1.0  -0.0861
  C  C1053  1  0.866000  0.464500  0.527640  1.0  -0.3616
  C  C1054  1  0.913400  0.410000  0.520850  1.0  0.0826
  C  C1055  1  0.838900  0.366000  0.517680  1.0  0.1035
  C  C1056  1  0.982400  0.308900  0.509550  1.0  0.1646
  C  C1057  1  0.059400  0.350700  0.513300  1.0  -0.1068
  C  C1058  1  0.022100  0.401600  0.518780  1.0  -0.0033
  C  C1059  1  0.758400  0.713900  0.564800  1.0  0.1817
  C  C1060  1  0.782800  0.742900  0.539700  1.0  -0.3682
  C  C1061  1  0.833900  0.736700  0.588900  1.0  -0.3576
  C  C1062  1  0.640000  0.723000  0.568100  1.0  -0.3727
  C  C1063  1  0.134300  0.550600  0.583330  1.0  0.0197
  C  C1064  1  0.149000  0.583500  0.605700  1.0  -0.0612
  C  C1065  1  0.199200  0.561000  0.629680  1.0  -0.0174
  C  C1066  1  0.242500  0.509700  0.629550  1.0  -0.094
  C  C1067  1  0.231100  0.477400  0.606980  1.0  0.0336
  C  C1068  1  0.175600  0.498700  0.584520  1.0  -0.0688
  C  C1069  1  0.246900  0.681700  0.605100  1.0  -0.312
  C  C1070  1  0.299000  0.671000  0.580000  1.0  0.0688
  C  C1071  1  0.277600  0.704800  0.558400  1.0  0.1124
  C  C1072  1  0.380100  0.654800  0.532200  1.0  0.1253
  C  C1073  1  0.402600  0.617800  0.552500  1.0  -0.1211
  C  C1074  1  0.362400  0.626500  0.576400  1.0  -0.0647
  C  C1075  1  0.274600  0.417700  0.607900  1.0  0.059
  C  C1076  1  0.219000  0.384900  0.628700  1.0  -0.3443
  C  C1077  1  0.262000  0.388100  0.580700  1.0  -0.3642
  C  C1078  1  0.401000  0.423700  0.616700  1.0  -0.3199
  C  C1079  1  0.519500  0.466600  0.713100  1.0  0.1605
  C  C1080  1  0.405400  0.688400  0.461900  1.0  0.1767
  S  S1081  1  0.718950  0.901770  0.159970  1.0  -0.0232
  S  S1082  1  0.562060  0.000840  0.175900  1.0  -0.0064
  S  S1083  1  0.302580  0.972020  0.185860  1.0  -0.0288
  S  S1084  1  0.170100  0.917460  0.132880  1.0  0.0129
  S  S1085  1  0.149000  0.988640  0.078000  1.0  -0.0232
  S  S1086  1  0.398400  0.023510  0.062690  1.0  -0.0048
  S  S1087  1  0.572020  0.926220  0.051740  1.0  -0.0342
  S  S1088  1  0.607830  0.847940  0.104660  1.0  0.0056
  S  S1089  1  0.010100  0.080910  0.191670  1.0  -0.3521
  S  S1090  1  0.954600  0.845650  0.938500  1.0  -0.3432
  S  S1091  1  0.218950  0.401770  0.159970  1.0  -0.0232
  S  S1092  1  0.062060  0.500840  0.175900  1.0  -0.0064
  S  S1093  1  0.802580  0.472020  0.185860  1.0  -0.0288
  S  S1094  1  0.670100  0.417460  0.132880  1.0  0.0129
  S  S1095  1  0.649000  0.488640  0.078000  1.0  -0.0232
  S  S1096  1  0.898400  0.523510  0.062690  1.0  -0.0048
  S  S1097  1  0.072020  0.426220  0.051740  1.0  -0.0342
  S  S1098  1  0.107830  0.347940  0.104660  1.0  0.0056
  S  S1099  1  0.510100  0.580910  0.191670  1.0  -0.3521
  S  S1100  1  0.454600  0.345650  0.938500  1.0  -0.3432
  S  S1101  1  0.281050  0.901770  0.340030  1.0  -0.0234
  S  S1102  1  0.437940  0.000840  0.324100  1.0  -0.0073
  S  S1103  1  0.697420  0.972020  0.314140  1.0  -0.0262
  S  S1104  1  0.829900  0.917460  0.367120  1.0  0.0126
  S  S1105  1  0.851000  0.988640  0.422000  1.0  -0.0241
  S  S1106  1  0.601600  0.023510  0.437310  1.0  -0.0045
  S  S1107  1  0.427980  0.926220  0.448260  1.0  -0.0353
  S  S1108  1  0.392170  0.847940  0.395340  1.0  0.0048
  S  S1109  1  0.989900  0.080910  0.308330  1.0  -0.3528
  S  S1110  1  0.045400  0.845650  0.561500  1.0  -0.3456
  S  S1111  1  0.781050  0.401770  0.340030  1.0  -0.0234
  S  S1112  1  0.937940  0.500840  0.324100  1.0  -0.0073
  S  S1113  1  0.197420  0.472020  0.314140  1.0  -0.0262
  S  S1114  1  0.329900  0.417460  0.367120  1.0  0.0126
  S  S1115  1  0.351000  0.488640  0.422000  1.0  -0.0241
  S  S1116  1  0.101600  0.523510  0.437310  1.0  -0.0045
  S  S1117  1  0.927980  0.426220  0.448260  1.0  -0.0353
  S  S1118  1  0.892170  0.347940  0.395340  1.0  0.0048
  S  S1119  1  0.489900  0.580910  0.308330  1.0  -0.3528
  S  S1120  1  0.545400  0.345650  0.561500  1.0  -0.3456
  S  S1121  1  0.281050  0.098230  0.840030  1.0  -0.0229
  S  S1122  1  0.437940  0.999160  0.824100  1.0  -0.0063
  S  S1123  1  0.697420  0.027980  0.814140  1.0  -0.0265
  S  S1124  1  0.829900  0.082540  0.867120  1.0  0.012
  S  S1125  1  0.851000  0.011360  0.922000  1.0  -0.0246
  S  S1126  1  0.601600  0.976490  0.937310  1.0  -0.0047
  S  S1127  1  0.427980  0.073780  0.948260  1.0  -0.0349
  S  S1128  1  0.392170  0.152060  0.895340  1.0  0.0054
  S  S1129  1  0.989900  0.919090  0.808330  1.0  -0.3536
  S  S1130  1  0.045400  0.154350  0.061500  1.0  -0.3463
  S  S1131  1  0.781050  0.598230  0.840030  1.0  -0.0229
  S  S1132  1  0.937940  0.499160  0.824100  1.0  -0.0063
  S  S1133  1  0.197420  0.527980  0.814140  1.0  -0.0265
  S  S1134  1  0.329900  0.582540  0.867120  1.0  0.012
  S  S1135  1  0.351000  0.511360  0.922000  1.0  -0.0246
  S  S1136  1  0.101600  0.476490  0.937310  1.0  -0.0047
  S  S1137  1  0.927980  0.573780  0.948260  1.0  -0.0349
  S  S1138  1  0.892170  0.652060  0.895340  1.0  0.0054
  S  S1139  1  0.489900  0.419090  0.808330  1.0  -0.3536
  S  S1140  1  0.545400  0.654350  0.061500  1.0  -0.3463
  S  S1141  1  0.718950  0.098230  0.659970  1.0  -0.0231
  S  S1142  1  0.562060  0.999160  0.675900  1.0  -0.0055
  S  S1143  1  0.302580  0.027980  0.685860  1.0  -0.0286
  S  S1144  1  0.170100  0.082540  0.632880  1.0  0.0122
  S  S1145  1  0.149000  0.011360  0.578000  1.0  -0.0242
  S  S1146  1  0.398400  0.976490  0.562690  1.0  -0.0048
  S  S1147  1  0.572020  0.073780  0.551740  1.0  -0.0339
  S  S1148  1  0.607830  0.152060  0.604660  1.0  0.0065
  S  S1149  1  0.010100  0.919090  0.691670  1.0  -0.3541
  S  S1150  1  0.954600  0.154350  0.438500  1.0  -0.3437
  S  S1151  1  0.218950  0.598230  0.659970  1.0  -0.0231
  S  S1152  1  0.062060  0.499160  0.675900  1.0  -0.0055
  S  S1153  1  0.802580  0.527980  0.685860  1.0  -0.0286
  S  S1154  1  0.670100  0.582540  0.632880  1.0  0.0122
  S  S1155  1  0.649000  0.511360  0.578000  1.0  -0.0242
  S  S1156  1  0.898400  0.476490  0.562690  1.0  -0.0048
  S  S1157  1  0.072020  0.573780  0.551740  1.0  -0.0339
  S  S1158  1  0.107830  0.652060  0.604660  1.0  0.0065
  S  S1159  1  0.510100  0.419090  0.691670  1.0  -0.3541
  S  S1160  1  0.454600  0.654350  0.438500  1.0  -0.3437
  N  N1161  1  0.816800  0.925300  0.242830  1.0  -0.3146
  N  N1162  1  0.001100  0.884100  0.210800  1.0  -0.3493
  N  N1163  1  0.371600  0.182600  0.011750  1.0  -0.3432
  N  N1164  1  0.813200  0.802200  0.035030  1.0  -0.3499
  N  N1165  1  0.007000  0.001800  0.229600  1.0  -0.4372
  N  N1166  1  0.865800  0.786600  0.977220  1.0  -0.4648
  N  N1167  1  0.316800  0.425300  0.242830  1.0  -0.3146
  N  N1168  1  0.501100  0.384100  0.210800  1.0  -0.3493
  N  N1169  1  0.871600  0.682600  0.011750  1.0  -0.3432
  N  N1170  1  0.313200  0.302200  0.035030  1.0  -0.3499
  N  N1171  1  0.507000  0.501800  0.229600  1.0  -0.4372
  N  N1172  1  0.365800  0.286600  0.977220  1.0  -0.4648
  N  N1173  1  0.183200  0.925300  0.257170  1.0  -0.3174
  N  N1174  1  0.998900  0.884100  0.289200  1.0  -0.3504
  N  N1175  1  0.628400  0.182600  0.488250  1.0  -0.3434
  N  N1176  1  0.186800  0.802200  0.464970  1.0  -0.3476
  N  N1177  1  0.993000  0.001800  0.270400  1.0  -0.439
  N  N1178  1  0.134200  0.786600  0.522780  1.0  -0.4635
  N  N1179  1  0.683200  0.425300  0.257170  1.0  -0.3174
  N  N1180  1  0.498900  0.384100  0.289200  1.0  -0.3504
  N  N1181  1  0.128400  0.682600  0.488250  1.0  -0.3434
  N  N1182  1  0.686800  0.302200  0.464970  1.0  -0.3476
  N  N1183  1  0.493000  0.501800  0.270400  1.0  -0.439
  N  N1184  1  0.634200  0.286600  0.522780  1.0  -0.4635
  N  N1185  1  0.183200  0.074700  0.757170  1.0  -0.3172
  N  N1186  1  0.998900  0.115900  0.789200  1.0  -0.3513
  N  N1187  1  0.628400  0.817400  0.988250  1.0  -0.343
  N  N1188  1  0.186800  0.197800  0.964970  1.0  -0.3483
  N  N1189  1  0.993000  0.998200  0.770400  1.0  -0.4391
  N  N1190  1  0.134200  0.213400  0.022780  1.0  -0.4644
  N  N1191  1  0.683200  0.574700  0.757170  1.0  -0.3172
  N  N1192  1  0.498900  0.615900  0.789200  1.0  -0.3513
  N  N1193  1  0.128400  0.317400  0.988250  1.0  -0.343
  N  N1194  1  0.686800  0.697800  0.964970  1.0  -0.3483
  N  N1195  1  0.493000  0.498200  0.770400  1.0  -0.4391
  N  N1196  1  0.634200  0.713400  0.022780  1.0  -0.4644
  N  N1197  1  0.816800  0.074700  0.742830  1.0  -0.3148
  N  N1198  1  0.001100  0.115900  0.710800  1.0  -0.349
  N  N1199  1  0.371600  0.817400  0.511750  1.0  -0.3435
  N  N1200  1  0.813200  0.197800  0.535030  1.0  -0.3484
  N  N1201  1  0.007000  0.998200  0.729600  1.0  -0.4377
  N  N1202  1  0.865800  0.213400  0.477220  1.0  -0.4654
  N  N1203  1  0.316800  0.574700  0.742830  1.0  -0.3148
  N  N1204  1  0.501100  0.615900  0.710800  1.0  -0.349
  N  N1205  1  0.871600  0.317400  0.511750  1.0  -0.3435
  N  N1206  1  0.313200  0.697800  0.535030  1.0  -0.3484
  N  N1207  1  0.507000  0.498200  0.729600  1.0  -0.4377
  N  N1208  1  0.365800  0.713400  0.477220  1.0  -0.4654
