# generated using pymatgen
data_In24H415C308(N14O45)4
_symmetry_space_group_name_H-M   'P 1'
_cell_length_a   29.75600000
_cell_length_b   14.52840000
_cell_length_c   29.73880000
_cell_angle_alpha   90.00000000
_cell_angle_beta   90.00000000
_cell_angle_gamma   90.00000000
_symmetry_Int_Tables_number   1
_chemical_formula_structural   In24H415C308(N14O45)4
_chemical_formula_sum   'In24 H415 C308 N56 O180'
_cell_volume   12856.29350521
_cell_formula_units_Z   1
loop_
 _symmetry_equiv_pos_site_id
 _symmetry_equiv_pos_as_xyz
  1  'x, y, z'
loop_
 _atom_site_type_symbol
 _atom_site_label
 _atom_site_symmetry_multiplicity
 _atom_site_fract_x
 _atom_site_fract_y
 _atom_site_fract_z
 _atom_site_occupancy
 _atom_site_charge
  In  In1  1  0.874230  0.132120  0.693760  1.0  1.6495
  In  In2  1  0.095320  0.123210  0.911910  1.0  1.6261
  In  In3  1  0.694200  0.870960  0.852130  1.0  1.6411
  In  In4  1  0.624060  0.869370  0.193750  1.0  1.6586
  In  In5  1  0.403050  0.876280  0.411700  1.0  1.6294
  In  In6  1  0.804210  0.130490  0.351930  1.0  1.6399
  In  In7  1  0.124490  0.631050  0.307190  1.0  1.658
  In  In8  1  0.903270  0.623050  0.088510  1.0  1.6278
  In  In9  1  0.304490  0.370080  0.148650  1.0  1.6401
  In  In10  1  0.374020  0.368860  0.807160  1.0  1.6665
  In  In11  1  0.594990  0.377030  0.588430  1.0  1.6208
  In  In12  1  0.193850  0.629700  0.648480  1.0  1.6426
  In  In13  1  0.124230  0.869940  0.306380  1.0  1.6543
  In  In14  1  0.903300  0.874720  0.088750  1.0  1.6229
  In  In15  1  0.304360  0.131180  0.148440  1.0  1.6423
  In  In16  1  0.374320  0.129730  0.806360  1.0  1.654
  In  In17  1  0.595130  0.125530  0.588730  1.0  1.6312
  In  In18  1  0.193930  0.868790  0.648240  1.0  1.6374
  In  In19  1  0.873960  0.370400  0.693830  1.0  1.6479
  In  In20  1  0.095290  0.374800  0.911930  1.0  1.6284
  In  In21  1  0.693900  0.631650  0.851750  1.0  1.6564
  In  In22  1  0.624220  0.630770  0.193520  1.0  1.6525
  In  In23  1  0.403270  0.624780  0.411870  1.0  1.6323
  In  In24  1  0.804260  0.369840  0.351960  1.0  1.6413
  H  H25  1  0.779120  0.102920  0.796490  1.0  0.1285
  H  H26  1  0.793920  0.899610  0.754200  1.0  0.1282
  H  H27  1  0.748510  0.119850  0.609940  1.0  0.1188
  H  H28  1  0.704320  0.133280  0.472180  1.0  0.124
  H  H29  1  0.991320  0.129710  0.795080  1.0  0.1219
  H  H30  1  0.845910  0.126210  0.502700  1.0  0.1269
  H  H31  1  0.013140  0.898150  0.998710  1.0  0.1243
  H  H32  1  0.115840  0.986150  0.770990  1.0  0.1188
  H  H33  1  0.014410  0.997220  0.667530  1.0  0.1003
  H  H34  1  0.719040  0.898260  0.295970  1.0  0.1263
  H  H35  1  0.704290  0.101900  0.254440  1.0  0.1289
  H  H36  1  0.749940  0.881070  0.110120  1.0  0.1328
  H  H37  1  0.794140  0.867280  0.972370  1.0  0.1242
  H  H38  1  0.507040  0.870900  0.294970  1.0  0.1222
  H  H39  1  0.652700  0.879580  0.002780  1.0  0.1217
  H  H40  1  0.485070  0.101310  0.498950  1.0  0.1249
  H  H41  1  0.382350  0.013750  0.270830  1.0  0.1171
  H  H42  1  0.484070  0.004220  0.167560  1.0  0.12
  H  H43  1  0.220200  0.602500  0.205000  1.0  0.125
  H  H44  1  0.203180  0.398780  0.245060  1.0  0.1183
  H  H45  1  0.249830  0.618680  0.390500  1.0  0.1261
  H  H46  1  0.294050  0.631500  0.528330  1.0  0.1257
  H  H47  1  0.007820  0.626380  0.204720  1.0  0.121
  H  H48  1  0.152490  0.627290  0.497690  1.0  0.1264
  H  H49  1  0.985550  0.397900  0.001920  1.0  0.122
  H  H50  1  0.882440  0.486580  0.229610  1.0  0.1188
  H  H51  1  0.984320  0.496050  0.332690  1.0  0.1155
  H  H52  1  0.278370  0.397170  0.705250  1.0  0.1255
  H  H53  1  0.294630  0.601170  0.744910  1.0  0.1222
  H  H54  1  0.248980  0.380950  0.890590  1.0  0.1313
  H  H55  1  0.204490  0.367290  0.028310  1.0  0.1277
  H  H56  1  0.490820  0.373010  0.704880  1.0  0.122
  H  H57  1  0.346110  0.372210  0.997980  1.0  0.1308
  H  H58  1  0.512930  0.602210  0.501730  1.0  0.1205
  H  H59  1  0.615730  0.514970  0.729210  1.0  0.119
  H  H60  1  0.513710  0.506600  0.832140  1.0  0.1168
  H  H61  1  0.220200  0.898930  0.204970  1.0  0.1221
  H  H62  1  0.204830  0.102460  0.246210  1.0  0.1234
  H  H63  1  0.249780  0.884150  0.390290  1.0  0.1286
  H  H64  1  0.293790  0.865600  0.527930  1.0  0.1271
  H  H65  1  0.007120  0.870240  0.205500  1.0  0.1252
  H  H66  1  0.152250  0.874500  0.497330  1.0  0.1235
  H  H67  1  0.985700  0.099690  0.002230  1.0  0.1199
  H  H68  1  0.882300  0.012700  0.229550  1.0  0.1201
  H  H69  1  0.983860  0.002860  0.333010  1.0  0.1243
  H  H70  1  0.278850  0.100560  0.704100  1.0  0.1316
  H  H71  1  0.294870  0.897660  0.744700  1.0  0.1169
  H  H72  1  0.248700  0.115280  0.890410  1.0  0.124
  H  H73  1  0.204780  0.132520  0.028140  1.0  0.1278
  H  H74  1  0.491440  0.130280  0.705460  1.0  0.1322
  H  H75  1  0.346310  0.124800  0.997420  1.0  0.1258
  H  H76  1  0.512350  0.900500  0.502490  1.0  0.1206
  H  H77  1  0.616350  0.988090  0.729350  1.0  0.1195
  H  H78  1  0.514800  0.996860  0.832710  1.0  0.1088
  H  H79  1  0.778520  0.399350  0.795920  1.0  0.1246
  H  H80  1  0.794030  0.603260  0.754630  1.0  0.1252
  H  H81  1  0.748270  0.383400  0.609900  1.0  0.1204
  H  H82  1  0.704290  0.367200  0.472150  1.0  0.1241
  H  H83  1  0.990950  0.370620  0.795260  1.0  0.1224
  H  H84  1  0.845830  0.375240  0.502840  1.0  0.1288
  H  H85  1  0.013150  0.599840  0.998650  1.0  0.1266
  H  H86  1  0.115860  0.512950  0.771350  1.0  0.1178
  H  H87  1  0.013840  0.505970  0.668390  1.0  0.1199
  H  H88  1  0.719510  0.601800  0.296040  1.0  0.1288
  H  H89  1  0.704430  0.398220  0.254420  1.0  0.1208
  H  H90  1  0.749890  0.619060  0.109690  1.0  0.1297
  H  H91  1  0.794130  0.631650  0.971910  1.0  0.1241
  H  H92  1  0.507470  0.629390  0.295230  1.0  0.1223
  H  H93  1  0.652570  0.626110  0.002480  1.0  0.1134
  H  H94  1  0.485230  0.399670  0.498530  1.0  0.1225
  H  H95  1  0.382750  0.486270  0.271530  1.0  0.117
  H  H96  1  0.484570  0.493970  0.168430  1.0  0.1194
  H  H97  1  0.688670  0.251170  0.882860  1.0  0.13
  H  H98  1  0.808900  0.750920  0.383190  1.0  0.1271
  H  H99  1  0.310510  0.750820  0.118510  1.0  0.1311
  H  H100  1  0.188110  0.249810  0.618390  1.0  0.125
  H  H101  1  0.114310  0.749050  0.925780  1.0  0.1277
  H  H102  1  0.384440  0.250410  0.425180  1.0  0.1246
  H  H103  1  0.884000  0.248890  0.074350  1.0  0.1325
  H  H104  1  0.613810  0.751290  0.575020  1.0  0.1326
  H  H105  1  0.772740  0.035640  0.143250  1.0  0.1454
  H  H106  1  0.820980  0.065310  0.170720  1.0  0.1368
  H  H107  1  0.798140  0.913930  0.192990  1.0  0.1339
  H  H108  1  0.743860  0.959730  0.208740  1.0  0.1303
  H  H109  1  0.793640  0.994310  0.239250  1.0  0.129
  H  H110  1  0.983110  0.010920  0.539530  1.0  0.1172
  H  H111  1  0.965210  0.034610  0.592780  1.0  0.1219
  H  H112  1  0.981060  0.847620  0.554680  1.0  0.1254
  H  H113  1  0.962970  0.873680  0.611350  1.0  0.1206
  H  H114  1  0.018140  0.908580  0.592390  1.0  0.1177
  H  H115  1  0.821840  0.880140  0.850380  1.0  0.145
  H  H116  1  0.810430  0.986760  0.871640  1.0  0.1398
  H  H117  1  0.841840  0.001760  0.798280  1.0  0.1194
  H  H118  1  0.889360  0.933520  0.815660  1.0  0.1201
  H  H119  1  0.879830  0.046240  0.840070  1.0  0.1181
  H  H120  1  0.551410  0.083450  0.910920  1.0  0.1276
  H  H121  1  0.563640  0.005020  0.951940  1.0  0.1177
  H  H122  1  0.613190  0.179540  0.934000  1.0  0.1228
  H  H123  1  0.626290  0.096210  0.977310  1.0  0.1284
  H  H124  1  0.573960  0.159490  0.979380  1.0  0.1245
  H  H125  1  0.787250  0.044160  0.946390  1.0  0.1456
  H  H126  1  0.824530  0.122770  0.967170  1.0  0.1382
  H  H127  1  0.772800  0.077300  0.024840  1.0  0.1194
  H  H128  1  0.726770  0.110410  0.988550  1.0  0.1235
  H  H129  1  0.765250  0.196730  0.009690  1.0  0.1262
  H  H130  1  0.016920  0.931070  0.096750  1.0  0.1385
  H  H131  1  0.070250  0.973880  0.095110  1.0  0.137
  H  H132  1  0.987770  0.079260  0.119750  1.0  0.1175
  H  H133  1  0.044610  0.123090  0.118940  1.0  0.1291
  H  H134  1  0.028810  0.034330  0.158640  1.0  0.1165
  H  H135  1  0.726150  0.964570  0.643850  1.0  0.1402
  H  H136  1  0.677480  0.936430  0.670950  1.0  0.1381
  H  H137  1  0.754710  0.041410  0.709150  1.0  0.1294
  H  H138  1  0.704590  0.008200  0.739460  1.0  0.1291
  H  H139  1  0.700720  0.087750  0.692790  1.0  0.1329
  H  H140  1  0.544680  0.980430  0.088810  1.0  0.1433
  H  H141  1  0.581800  0.052710  0.062800  1.0  0.1375
  H  H142  1  0.485220  0.090700  0.082140  1.0  0.1286
  H  H143  1  0.523310  0.166750  0.052870  1.0  0.1292
  H  H144  1  0.533080  0.138760  0.111360  1.0  0.1209
  H  H145  1  0.687490  0.003300  0.374250  1.0  0.1479
  H  H146  1  0.643020  0.066940  0.392990  1.0  0.1465
  H  H147  1  0.657420  0.000020  0.299400  1.0  0.1178
  H  H148  1  0.610810  0.069180  0.318240  1.0  0.1198
  H  H149  1  0.618240  0.953180  0.339480  1.0  0.121
  H  H150  1  0.951800  0.887340  0.476420  1.0  0.1164
  H  H151  1  0.945640  0.000610  0.462310  1.0  0.1179
  H  H152  1  0.875380  0.920570  0.455550  1.0  0.1197
  H  H153  1  0.901970  0.841070  0.416950  1.0  0.117
  H  H154  1  0.895780  0.960940  0.401710  1.0  0.115
  H  H155  1  0.733110  0.834110  0.442320  1.0  0.1428
  H  H156  1  0.715470  0.943510  0.453650  1.0  0.1433
  H  H157  1  0.787440  0.919220  0.487220  1.0  0.117
  H  H158  1  0.765600  0.818530  0.515440  1.0  0.1222
  H  H159  1  0.744520  0.931130  0.529940  1.0  0.1271
  H  H160  1  0.478010  0.946230  0.582450  1.0  0.1502
  H  H161  1  0.481980  0.020530  0.625510  1.0  0.1531
  H  H162  1  0.482900  0.816950  0.632200  1.0  0.1223
  H  H163  1  0.486620  0.896540  0.678740  1.0  0.1244
  H  H164  1  0.530710  0.893380  0.636870  1.0  0.1301
  H  H165  1  0.178120  0.561370  0.829020  1.0  0.1367
  H  H166  1  0.227380  0.607530  0.810090  1.0  0.1443
  H  H167  1  0.203440  0.486090  0.760950  1.0  0.1217
  H  H168  1  0.201840  0.409030  0.808720  1.0  0.1286
  H  H169  1  0.254830  0.456220  0.789920  1.0  0.1293
  H  H170  1  0.106300  0.465060  0.455580  1.0  0.1413
  H  H171  1  0.053730  0.495120  0.473280  1.0  0.1188
  H  H172  1  0.064100  0.331200  0.478690  1.0  0.1246
  H  H173  1  0.077840  0.329030  0.419500  1.0  0.119
  H  H174  1  0.021900  0.360870  0.437400  1.0  0.1214
  H  H175  1  0.145540  0.438610  0.109960  1.0  0.1492
  H  H176  1  0.183920  0.405200  0.149320  1.0  0.14
  H  H177  1  0.112270  0.429430  0.184190  1.0  0.1217
  H  H178  1  0.111960  0.545690  0.161970  1.0  0.1253
  H  H179  1  0.153230  0.512340  0.203080  1.0  0.1181
  H  H180  1  0.478890  0.516920  0.087890  1.0  0.1135
  H  H181  1  0.457990  0.623860  0.076580  1.0  0.1343
  H  H182  1  0.417230  0.445150  0.048670  1.0  0.1224
  H  H183  1  0.394810  0.558560  0.037320  1.0  0.116
  H  H184  1  0.398470  0.517400  0.094500  1.0  0.118
  H  H185  1  0.207420  0.652860  0.062450  1.0  0.1349
  H  H186  1  0.230030  0.545540  0.056950  1.0  0.1404
  H  H187  1  0.217110  0.682930  0.983620  1.0  0.1192
  H  H188  1  0.239990  0.568580  0.976980  1.0  0.1139
  H  H189  1  0.269820  0.652670  0.010280  1.0  0.1322
  H  H190  1  0.925040  0.467140  0.909530  1.0  0.1305
  H  H191  1  0.961740  0.517190  0.946080  1.0  0.1307
  H  H192  1  0.968090  0.522040  0.846070  1.0  0.1184
  H  H193  1  0.006550  0.575740  0.884990  1.0  0.1232
  H  H194  1  0.948990  0.614980  0.881830  1.0  0.1295
  H  H195  1  0.270700  0.390030  0.311390  1.0  0.1435
  H  H196  1  0.270800  0.464030  0.355940  1.0  0.1456
  H  H197  1  0.294650  0.508860  0.261020  1.0  0.1259
  H  H198  1  0.297270  0.587850  0.307990  1.0  0.1308
  H  H199  1  0.243750  0.541510  0.290160  1.0  0.1322
  H  H200  1  0.438550  0.521650  0.906710  1.0  0.1339
  H  H201  1  0.392640  0.541010  0.939970  1.0  0.1389
  H  H202  1  0.424860  0.684340  0.915670  1.0  0.1035
  H  H203  1  0.477750  0.649210  0.940100  1.0  0.11
  H  H204  1  0.429550  0.669240  0.975830  1.0  0.1154
  H  H205  1  0.353800  0.560610  0.607600  1.0  0.1474
  H  H206  1  0.316170  0.601420  0.646030  1.0  0.1541
  H  H207  1  0.383020  0.451760  0.661360  1.0  0.1221
  H  H208  1  0.342670  0.493590  0.701610  1.0  0.1249
  H  H209  1  0.386590  0.569000  0.681930  1.0  0.1162
  H  H210  1  0.057380  0.544620  0.577520  1.0  0.1499
  H  H211  1  0.022460  0.456560  0.588370  1.0  0.1385
  H  H212  1  0.115230  0.442450  0.553150  1.0  0.1205
  H  H213  1  0.077700  0.347140  0.563300  1.0  0.126
  H  H214  1  0.096300  0.417590  0.609900  1.0  0.121
  H  H215  1  0.263120  0.334080  0.559340  1.0  0.1459
  H  H216  1  0.280000  0.443620  0.547260  1.0  0.1472
  H  H217  1  0.228820  0.317030  0.487150  1.0  0.1231
  H  H218  1  0.249040  0.429840  0.471780  1.0  0.1203
  H  H219  1  0.207290  0.417710  0.515630  1.0  0.121
  H  H220  1  0.532690  0.482930  0.444380  1.0  0.1448
  H  H221  1  0.518760  0.569920  0.408300  1.0  0.1362
  H  H222  1  0.546980  0.380430  0.382010  1.0  0.125
  H  H223  1  0.530820  0.472470  0.344310  1.0  0.1181
  H  H224  1  0.489980  0.423460  0.382240  1.0  0.1203
  H  H225  1  0.178570  0.938850  0.828080  1.0  0.1414
  H  H226  1  0.228570  0.962710  0.853700  1.0  0.1425
  H  H227  1  0.202540  0.091000  0.808400  1.0  0.1302
  H  H228  1  0.203580  0.015440  0.760050  1.0  0.1243
  H  H229  1  0.255280  0.043820  0.788850  1.0  0.1307
  H  H230  1  0.033890  0.019720  0.461110  1.0  0.1192
  H  H231  1  0.081620  0.073020  0.442900  1.0  0.1386
  H  H232  1  0.989270  0.108010  0.407860  1.0  0.1211
  H  H233  1  0.040170  0.167570  0.391900  1.0  0.1223
  H  H234  1  0.018390  0.178550  0.448530  1.0  0.1251
  H  H235  1  0.190380  0.031070  0.125650  1.0  0.1353
  H  H236  1  0.172470  0.132020  0.148940  1.0  0.1431
  H  H237  1  0.160170  0.003870  0.199190  1.0  0.1201
  H  H238  1  0.126280  0.950380  0.156320  1.0  0.1203
  H  H239  1  0.108470  0.057630  0.181900  1.0  0.1184
  H  H240  1  0.437500  0.861400  0.013870  1.0  0.1279
  H  H241  1  0.471610  0.895680  0.056910  1.0  0.1265
  H  H242  1  0.396060  0.873030  0.083100  1.0  0.1255
  H  H243  1  0.376970  0.955110  0.041430  1.0  0.1183
  H  H244  1  0.412930  0.992320  0.086940  1.0  0.1201
  H  H245  1  0.177820  0.944490  0.029620  1.0  0.1545
  H  H246  1  0.192070  0.887870  0.077930  1.0  0.1361
  H  H247  1  0.238930  0.870020  0.989730  1.0  0.1289
  H  H248  1  0.254570  0.815000  0.042110  1.0  0.1243
  H  H249  1  0.257900  0.938470  0.036790  1.0  0.123
  H  H250  1  0.927000  0.027970  0.908760  1.0  0.1383
  H  H251  1  0.980530  0.069830  0.907860  1.0  0.1382
  H  H252  1  0.967950  0.973670  0.843530  1.0  0.1169
  H  H253  1  0.951670  0.881160  0.880920  1.0  0.1291
  H  H254  1  0.008800  0.923470  0.881100  1.0  0.1195
  H  H255  1  0.270870  0.036350  0.354770  1.0  0.1458
  H  H256  1  0.271630  0.107770  0.309250  1.0  0.1398
  H  H257  1  0.296350  0.908860  0.308640  1.0  0.1322
  H  H258  1  0.294730  0.985210  0.260610  1.0  0.1253
  H  H259  1  0.243380  0.956280  0.289900  1.0  0.1303
  H  H260  1  0.478330  0.003910  0.939730  1.0  0.1434
  H  H261  1  0.428260  0.962470  0.923640  1.0  0.127
  H  H262  1  0.517560  0.883090  0.903230  1.0  0.1203
  H  H263  1  0.464740  0.840330  0.881870  1.0  0.1195
  H  H264  1  0.475830  0.839130  0.941760  1.0  0.1194
  H  H265  1  0.358100  0.911550  0.612120  1.0  0.1436
  H  H266  1  0.311520  0.966820  0.632060  1.0  0.1358
  H  H267  1  0.380880  0.046330  0.651790  1.0  0.1265
  H  H268  1  0.397330  0.944080  0.682520  1.0  0.1145
  H  H269  1  0.348540  0.008890  0.699760  1.0  0.1199
  H  H270  1  0.097260  0.160100  0.574800  1.0  0.1569
  H  H271  1  0.046700  0.109930  0.579040  1.0  0.1268
  H  H272  1  0.126480  0.035370  0.532110  1.0  0.1188
  H  H273  1  0.071650  0.982360  0.533210  1.0  0.1273
  H  H274  1  0.102530  0.997350  0.585040  1.0  0.1136
  H  H275  1  0.320290  0.052200  0.534650  1.0  0.1499
  H  H276  1  0.273500  0.034670  0.566770  1.0  0.1299
  H  H277  1  0.252380  0.072140  0.491050  1.0  0.1183
  H  H278  1  0.284650  0.177090  0.495570  1.0  0.1157
  H  H279  1  0.235260  0.160500  0.530270  1.0  0.1127
  H  H280  1  0.528420  0.015530  0.440890  1.0  0.1327
  H  H281  1  0.569600  0.974430  0.406560  1.0  0.136
  H  H282  1  0.487620  0.077340  0.378030  1.0  0.1172
  H  H283  1  0.530290  0.031970  0.340990  1.0  0.1202
  H  H284  1  0.544250  0.122180  0.380570  1.0  0.1297
  H  H285  1  0.770880  0.392120  0.189770  1.0  0.1436
  H  H286  1  0.820240  0.438450  0.171260  1.0  0.1393
  H  H287  1  0.794450  0.511870  0.239830  1.0  0.126
  H  H288  1  0.743580  0.543670  0.210430  1.0  0.133
  H  H289  1  0.797060  0.590200  0.192590  1.0  0.1301
  H  H290  1  0.953870  0.516520  0.540700  1.0  0.1147
  H  H291  1  0.901640  0.549480  0.558110  1.0  0.1365
  H  H292  1  0.942910  0.680210  0.530800  1.0  0.1272
  H  H293  1  0.986700  0.654610  0.571170  1.0  0.1262
  H  H294  1  0.931560  0.688990  0.590370  1.0  0.1115
  H  H295  1  0.821610  0.617960  0.850150  1.0  0.1389
  H  H296  1  0.854500  0.570630  0.891130  1.0  0.1344
  H  H297  1  0.841680  0.496130  0.798700  1.0  0.1237
  H  H298  1  0.877400  0.448250  0.841650  1.0  0.124
  H  H299  1  0.889810  0.560280  0.817800  1.0  0.1262
  H  H300  1  0.520570  0.466660  0.910170  1.0  0.1004
  H  H301  1  0.542240  0.539520  0.949690  1.0  0.1259
  H  H302  1  0.581900  0.360190  0.921340  1.0  0.118
  H  H303  1  0.605070  0.439040  0.962340  1.0  0.1216
  H  H304  1  0.600870  0.473000  0.904060  1.0  0.122
  H  H305  1  0.844220  0.316970  0.969050  1.0  0.1467
  H  H306  1  0.852440  0.432400  0.961870  1.0  0.1408
  H  H307  1  0.765640  0.332730  0.949800  1.0  0.1218
  H  H308  1  0.774590  0.454890  0.943280  1.0  0.1285
  H  H309  1  0.781220  0.402050  0.997930  1.0  0.1241
  H  H310  1  0.068680  0.510290  0.094110  1.0  0.1346
  H  H311  1  0.018450  0.563630  0.103450  1.0  0.1414
  H  H312  1  0.031050  0.447960  0.159730  1.0  0.12
  H  H313  1  0.038000  0.363690  0.115400  1.0  0.1315
  H  H314  1  0.984140  0.418450  0.124100  1.0  0.1173
  H  H315  1  0.727770  0.538040  0.645320  1.0  0.1477
  H  H316  1  0.726240  0.610580  0.690420  1.0  0.145
  H  H317  1  0.754580  0.459700  0.710920  1.0  0.1308
  H  H318  1  0.701880  0.411470  0.691870  1.0  0.1318
  H  H319  1  0.702890  0.489000  0.739470  1.0  0.1181
  H  H320  1  0.607710  0.449900  0.057500  1.0  0.1308
  H  H321  1  0.563700  0.483630  0.090630  1.0  0.1355
  H  H322  1  0.566910  0.318650  0.086150  1.0  0.1092
  H  H323  1  0.563880  0.327510  0.025580  1.0  0.1217
  H  H324  1  0.516770  0.363790  0.059730  1.0  0.1253
  H  H325  1  0.640740  0.419260  0.388080  1.0  0.1437
  H  H326  1  0.687550  0.476420  0.370070  1.0  0.1268
  H  H327  1  0.607730  0.434400  0.313180  1.0  0.1131
  H  H328  1  0.656240  0.501720  0.297750  1.0  0.1163
  H  H329  1  0.618660  0.543760  0.340470  1.0  0.1191
  H  H330  1  0.956310  0.467020  0.457340  1.0  0.1306
  H  H331  1  0.975080  0.576850  0.465570  1.0  0.113
  H  H332  1  0.896060  0.521690  0.410280  1.0  0.1234
  H  H333  1  0.915590  0.638000  0.419680  1.0  0.1163
  H  H334  1  0.893960  0.570720  0.466110  1.0  0.123
  H  H335  1  0.723470  0.537650  0.437260  1.0  0.1309
  H  H336  1  0.692700  0.636180  0.432090  1.0  0.1426
  H  H337  1  0.759510  0.662620  0.475930  1.0  0.1164
  H  H338  1  0.741430  0.573390  0.514210  1.0  0.1226
  H  H339  1  0.708840  0.677790  0.508880  1.0  0.1146
  H  H340  1  0.470810  0.517740  0.559330  1.0  0.1339
  H  H341  1  0.429130  0.478940  0.593640  1.0  0.1334
  H  H342  1  0.454890  0.627330  0.618370  1.0  0.1218
  H  H343  1  0.511280  0.581560  0.621960  1.0  0.1207
  H  H344  1  0.468060  0.538600  0.659020  1.0  0.1189
  H  H345  1  0.906890  0.190710  0.209150  1.0  0.1484
  H  H346  1  0.906920  0.250070  0.258730  1.0  0.1556
  H  H347  1  0.833310  0.188890  0.242750  1.0  0.1197
  H  H348  1  0.833860  0.251120  0.190090  1.0  0.1165
  H  H349  1  0.833920  0.313440  0.242720  1.0  0.1194
  H  H350  1  0.589480  0.811400  0.706560  1.0  0.1499
  H  H351  1  0.587760  0.752620  0.756270  1.0  0.1442
  H  H352  1  0.663280  0.752100  0.690340  1.0  0.1179
  H  H353  1  0.661440  0.689280  0.742800  1.0  0.1228
  H  H354  1  0.661800  0.813820  0.743130  1.0  0.1203
  H  H355  1  0.090210  0.748950  0.743470  1.0  0.1438
  H  H356  1  0.091490  0.808130  0.793090  1.0  0.1503
  H  H357  1  0.163970  0.811320  0.757040  1.0  0.1184
  H  H358  1  0.163990  0.686780  0.757350  1.0  0.1208
  H  H359  1  0.165350  0.749600  0.809830  1.0  0.1137
  H  H360  1  0.406520  0.190440  0.293900  1.0  0.1426
  H  H361  1  0.406880  0.307950  0.293990  1.0  0.1459
  H  H362  1  0.334320  0.188100  0.257220  1.0  0.121
  H  H363  1  0.334670  0.312660  0.257580  1.0  0.1215
  H  H364  1  0.332740  0.249730  0.310020  1.0  0.1156
  H  H365  1  0.876280  0.750980  0.660070  1.0  0.1247
  H  H366  1  0.502400  0.742370  0.015700  1.0  0.1226
  H  H367  1  0.544450  0.763010  0.053420  1.0  0.1434
  H  H368  1  0.559100  0.844340  0.984950  1.0  0.1199
  H  H369  1  0.554680  0.736860  0.954450  1.0  0.1194
  H  H370  1  0.599960  0.754140  0.993970  1.0  0.1265
  H  H371  1  0.621710  0.250200  0.160400  1.0  0.1249
  H  H372  1  0.963180  0.208560  0.610490  1.0  0.1452
  H  H373  1  0.963860  0.325990  0.608720  1.0  0.1315
  H  H374  1  0.989120  0.200180  0.533570  1.0  0.1107
  H  H375  1  0.989120  0.324640  0.531860  1.0  0.1217
  H  H376  1  0.936900  0.262460  0.538560  1.0  0.126
  H  H377  1  0.120630  0.249930  0.339010  1.0  0.127
  H  H378  1  0.462960  0.204110  0.898190  1.0  0.1515
  H  H379  1  0.512230  0.251640  0.912820  1.0  0.1494
  H  H380  1  0.482580  0.161640  0.972620  1.0  0.1309
  H  H381  1  0.432530  0.232630  0.971880  1.0  0.1283
  H  H382  1  0.485820  0.282300  0.987330  1.0  0.1062
  H  H383  1  0.377920  0.749490  0.838310  1.0  0.1268
  H  H384  1  0.038350  0.788720  0.405170  1.0  0.1436
  H  H385  1  0.988800  0.751630  0.427750  1.0  0.1142
  H  H386  1  0.077220  0.753620  0.475110  1.0  0.1272
  H  H387  1  0.023770  0.719660  0.498520  1.0  0.1181
  H  H388  1  0.033190  0.837920  0.481890  1.0  0.1227
  H  H389  1  0.856110  0.926760  0.890380  1.0  0.1449
  H  H390  1  0.966570  0.982370  0.943660  1.0  0.1432
  H  H391  1  0.979210  0.429340  0.912070  1.0  0.1383
  H  H392  1  0.808630  0.512340  0.871650  1.0  0.1261
  H  H393  1  0.727290  0.890030  0.688180  1.0  0.142
  H  H394  1  0.942610  0.525480  0.596670  1.0  0.1332
  H  H395  1  0.012830  0.265820  0.604120  1.0  0.1394
  H  H396  1  0.976640  0.529440  0.413150  1.0  0.1248
  H  H397  1  0.970870  0.926210  0.425640  1.0  0.1187
  H  H398  1  0.770980  0.465500  0.144980  1.0  0.1467
  H  H399  1  0.559990  0.493000  0.033690  1.0  0.111
  H  H400  1  0.475980  0.554770  0.033740  1.0  0.1002
  H  H401  1  0.453850  0.973850  0.017820  1.0  0.1148
  H  H402  1  0.542170  0.660240  0.025670  1.0  0.1206
  H  H403  1  0.180240  0.571160  0.031300  1.0  0.1381
  H  H404  1  0.173820  0.827330  0.032240  1.0  0.1501
  H  H405  1  0.023590  0.484420  0.061340  1.0  0.1253
  H  H406  1  0.330370  0.869450  0.657990  1.0  0.152
  H  H407  1  0.692750  0.852640  0.482110  1.0  0.1482
  H  H408  1  0.675580  0.551590  0.468180  1.0  0.1527
  H  H409  1  0.677720  0.562620  0.670690  1.0  0.1427
  H  H410  1  0.589140  0.693890  0.706540  1.0  0.1392
  H  H411  1  0.320100  0.436260  0.329910  1.0  0.1379
  H  H412  1  0.311890  0.490810  0.627030  1.0  0.1489
  H  H413  1  0.302370  0.352810  0.518480  1.0  0.1528
  H  H414  1  0.320520  0.060790  0.328600  1.0  0.138
  H  H415  1  0.303210  0.134590  0.571960  1.0  0.1396
  H  H416  1  0.227500  0.535240  0.855310  1.0  0.146
  H  H417  1  0.091500  0.690620  0.793330  1.0  0.1465
  H  H418  1  0.031940  0.676040  0.420140  1.0  0.1332
  H  H419  1  0.227170  0.892020  0.807910  1.0  0.1419
  H  H420  1  0.065770  0.493250  0.417210  1.0  0.1374
  H  H421  1  0.408370  0.249330  0.244220  1.0  0.1494
  H  H422  1  0.516620  0.930300  0.403100  1.0  0.1386
  H  H423  1  0.673720  0.372710  0.346990  1.0  0.1397
  H  H424  1  0.572200  0.527430  0.409120  1.0  0.1366
  H  H425  1  0.679480  0.112670  0.354740  1.0  0.1393
  H  H426  1  0.930810  0.977010  0.556420  1.0  0.1361
  H  H427  1  0.184740  0.515130  0.129020  1.0  0.1407
  H  H428  1  0.141220  0.079840  0.108090  1.0  0.1432
  H  H429  1  0.481870  0.433980  0.598090  1.0  0.1411
  H  H430  1  0.523750  0.432620  0.964860  1.0  0.1139
  H  H431  1  0.442310  0.507220  0.963380  1.0  0.1106
  H  H432  1  0.837740  0.365190  0.917080  1.0  0.141
  H  H433  1  0.781670  0.157810  0.933010  1.0  0.1391
  H  H434  1  0.030690  0.014840  0.058860  1.0  0.1337
  H  H435  1  0.537210  0.009200  0.033660  1.0  0.1168
  H  H436  1  0.770760  0.111060  0.187190  1.0  0.1422
  H  H437  1  0.907460  0.308220  0.208810  1.0  0.1464
  H  H438  1  0.051580  0.004740  0.407030  1.0  0.1336
  H  H439  1  0.600710  0.023530  0.909160  1.0  0.142
  C  C440  1  0.069770  0.082070  0.836480  1.0  0.6385
  C  C441  1  0.720580  0.125390  0.542980  1.0  -0.0976
  C  C442  1  0.766590  0.167550  0.809490  1.0  -0.0841
  C  C443  1  0.088810  0.922430  0.945030  1.0  0.5708
  C  C444  1  0.806310  0.834970  0.741000  1.0  -0.1119
  C  C445  1  0.756280  0.122020  0.574380  1.0  -0.0815
  C  C446  1  0.731310  0.130560  0.496590  1.0  -0.1015
  C  C447  1  0.801750  0.123300  0.560560  1.0  -0.0952
  C  C448  1  0.787770  0.130900  0.431930  1.0  0.6255
  C  C449  1  0.837370  0.835940  0.705270  1.0  -0.088
  C  C450  1  0.012860  0.090330  0.772880  1.0  -0.0769
  C  C451  1  0.712640  0.077170  0.857680  1.0  0.5206
  C  C452  1  0.854300  0.925390  0.686960  1.0  0.5343
  C  C453  1  0.776600  0.129490  0.481460  1.0  -0.1011
  C  C454  1  0.811260  0.126080  0.513900  1.0  -0.0824
  C  C455  1  0.839190  0.123000  0.594790  1.0  0.5166
  C  C456  1  0.672530  0.123440  0.559370  1.0  0.5987
  C  C457  1  0.997310  0.067550  0.729210  1.0  -0.1014
  C  C458  1  0.065990  0.834390  0.960070  1.0  -0.0795
  C  C459  1  0.950710  0.095660  0.714070  1.0  0.6187
  C  C460  1  0.055120  0.059780  0.789000  1.0  -0.0738
  C  C461  1  0.099080  0.931790  0.683850  1.0  0.5059
  C  C462  1  0.027310  0.833290  0.987820  1.0  -0.0941
  C  C463  1  0.069210  0.986610  0.715130  1.0  -0.0505
  C  C464  1  0.732040  0.166470  0.841830  1.0  -0.0817
  C  C465  1  0.083170  0.008950  0.759420  1.0  -0.0753
  C  C466  1  0.025810  0.015000  0.700990  1.0  -0.074
  C  C467  1  0.780220  0.975910  0.205560  1.0  0.0123
  C  C468  1  0.982560  0.899380  0.582110  1.0  0.0115
  C  C469  1  0.863310  0.982910  0.827250  1.0  0.0148
  C  C470  1  0.598830  0.126360  0.956690  1.0  0.0095
  C  C471  1  0.762370  0.124710  0.997450  1.0  -0.0217
  C  C472  1  0.023700  0.060540  0.123930  1.0  0.0065
  C  C473  1  0.428460  0.917730  0.336280  1.0  0.6437
  C  C474  1  0.777870  0.875830  0.043160  1.0  -0.1135
  C  C475  1  0.731490  0.833730  0.309120  1.0  -0.0779
  C  C476  1  0.409630  0.077030  0.444880  1.0  0.5504
  C  C477  1  0.691870  0.166500  0.241220  1.0  -0.1047
  C  C478  1  0.742190  0.879550  0.074550  1.0  -0.0798
  C  C479  1  0.767160  0.870790  0.996760  1.0  -0.0997
  C  C480  1  0.696730  0.879300  0.060680  1.0  -0.077
  C  C481  1  0.710690  0.870850  0.932100  1.0  0.6272
  C  C482  1  0.660750  0.165440  0.205560  1.0  -0.089
  C  C483  1  0.485480  0.910320  0.272800  1.0  -0.0697
  C  C484  1  0.784510  0.924710  0.357920  1.0  0.5364
  C  C485  1  0.643860  0.076010  0.187260  1.0  0.5376
  C  C486  1  0.721900  0.872940  0.981610  1.0  -0.1081
  C  C487  1  0.687280  0.877700  0.014020  1.0  -0.0902
  C  C488  1  0.659250  0.879010  0.094830  1.0  0.4949
  C  C489  1  0.825900  0.877110  0.059550  1.0  0.5977
  C  C490  1  0.501070  0.933520  0.229200  1.0  -0.0915
  C  C491  1  0.432530  0.165090  0.459840  1.0  -0.0855
  C  C492  1  0.547660  0.905630  0.214090  1.0  0.6357
  C  C493  1  0.443150  0.940470  0.288870  1.0  -0.0782
  C  C494  1  0.399160  0.068250  0.183690  1.0  0.4793
  C  C495  1  0.471080  0.166200  0.487790  1.0  -0.0646
  C  C496  1  0.429130  0.014050  0.215080  1.0  -0.0614
  C  C497  1  0.765710  0.835160  0.341750  1.0  -0.0997
  C  C498  1  0.415090  0.991330  0.259310  1.0  -0.0779
  C  C499  1  0.472610  0.986130  0.201000  1.0  -0.0437
  C  C500  1  0.718320  0.025730  0.705780  1.0  0.0197
  C  C501  1  0.520950  0.111580  0.078590  1.0  0.0106
  C  C502  1  0.635920  0.016780  0.328670  1.0  0.0247
  C  C503  1  0.902340  0.912780  0.429960  1.0  -0.0151
  C  C504  1  0.756800  0.887410  0.501880  1.0  -0.0286
  C  C505  1  0.493930  0.886910  0.642430  1.0  -0.0596
  C  C506  1  0.928810  0.581110  0.163830  1.0  0.6265
  C  C507  1  0.277820  0.623900  0.457490  1.0  -0.1041
  C  C508  1  0.232650  0.667100  0.191910  1.0  -0.0806
  C  C509  1  0.909590  0.422280  0.055220  1.0  0.5728
  C  C510  1  0.191120  0.334090  0.258530  1.0  -0.1148
  C  C511  1  0.242140  0.620770  0.426080  1.0  -0.0745
  C  C512  1  0.267080  0.629130  0.503900  1.0  -0.1023
  C  C513  1  0.196710  0.623210  0.439910  1.0  -0.0947
  C  C514  1  0.210470  0.630140  0.568500  1.0  0.6234
  C  C515  1  0.159750  0.334930  0.293990  1.0  -0.0775
  C  C516  1  0.986100  0.587800  0.227080  1.0  -0.0749
  C  C517  1  0.286790  0.576780  0.143740  1.0  0.5252
  C  C518  1  0.142430  0.424080  0.312100  1.0  0.5435
  C  C519  1  0.221770  0.628770  0.519010  1.0  -0.1041
  C  C520  1  0.187160  0.626330  0.486540  1.0  -0.0859
  C  C521  1  0.159280  0.624760  0.405830  1.0  0.5005
  C  C522  1  0.325870  0.622230  0.441100  1.0  0.6022
  C  C523  1  0.001550  0.565520  0.270850  1.0  -0.0837
  C  C524  1  0.932480  0.334200  0.040280  1.0  -0.0858
  C  C525  1  0.048120  0.593570  0.286060  1.0  0.6427
  C  C526  1  0.943570  0.558320  0.211220  1.0  -0.0739
  C  C527  1  0.899200  0.433030  0.317030  1.0  0.4989
  C  C528  1  0.971310  0.333080  0.012750  1.0  -0.1078
  C  C529  1  0.929280  0.486380  0.285340  1.0  -0.075
  C  C530  1  0.267220  0.666010  0.159560  1.0  -0.0739
  C  C531  1  0.915300  0.508550  0.241020  1.0  -0.0831
  C  C532  1  0.972860  0.513980  0.299270  1.0  -0.0749
  C  C533  1  0.218460  0.470880  0.794340  1.0  0.0122
  C  C534  1  0.058210  0.365460  0.445820  1.0  0.0125
  C  C535  1  0.133670  0.488300  0.173680  1.0  0.0107
  C  C536  1  0.415230  0.517130  0.061160  1.0  0.031
  C  C537  1  0.235960  0.626950  0.000730  1.0  -0.0167
  C  C538  1  0.971190  0.553600  0.879950  1.0  0.0066
  C  C539  1  0.569490  0.419230  0.663700  1.0  0.6368
  C  C540  1  0.220840  0.375300  0.957510  1.0  -0.1099
  C  C541  1  0.265930  0.332670  0.692040  1.0  -0.06
  C  C542  1  0.588560  0.577890  0.555360  1.0  0.57
  C  C543  1  0.307090  0.665790  0.758070  1.0  -0.1149
  C  C544  1  0.256620  0.378670  0.926170  1.0  -0.0673
  C  C545  1  0.231500  0.369850  0.003930  1.0  -0.1199
  C  C546  1  0.302050  0.376210  0.940100  1.0  -0.0781
  C  C547  1  0.287940  0.369120  0.068670  1.0  0.6248
  C  C548  1  0.338580  0.664750  0.793370  1.0  -0.0902
  C  C549  1  0.512390  0.412340  0.727080  1.0  -0.0798
  C  C550  1  0.212340  0.423510  0.643570  1.0  0.5302
  C  C551  1  0.355710  0.575550  0.811530  1.0  0.5343
  C  C552  1  0.276770  0.370460  0.019140  1.0  -0.1071
  C  C553  1  0.311460  0.373080  0.986750  1.0  -0.0605
  C  C554  1  0.339630  0.374790  0.906110  1.0  0.4932
  C  C555  1  0.172780  0.377100  0.941110  1.0  0.6013
  C  C556  1  0.496850  0.435260  0.770710  1.0  -0.0879
  C  C557  1  0.565620  0.665960  0.540540  1.0  -0.0672
  C  C558  1  0.450360  0.406830  0.785970  1.0  0.629
  C  C559  1  0.554780  0.442250  0.711070  1.0  -0.0728
  C  C560  1  0.598900  0.569390  0.816430  1.0  0.499
  C  C561  1  0.526980  0.667060  0.512770  1.0  -0.0769
  C  C562  1  0.568880  0.515520  0.784910  1.0  -0.0669
  C  C563  1  0.231490  0.334080  0.659590  1.0  -0.084
  C  C564  1  0.582930  0.492790  0.740680  1.0  -0.072
  C  C565  1  0.525320  0.487880  0.798890  1.0  -0.0899
  C  C566  1  0.280060  0.525930  0.294390  1.0  0.0118
  C  C567  1  0.440670  0.642490  0.942650  1.0  -0.0085
  C  C568  1  0.363260  0.512830  0.672050  1.0  0.0274
  C  C569  1  0.086500  0.418180  0.573830  1.0  -0.0473
  C  C570  1  0.237670  0.386250  0.500280  1.0  -0.028
  C  C571  1  0.525840  0.443060  0.378410  1.0  0.0055
  C  C572  1  0.928600  0.916750  0.164130  1.0  0.6358
  C  C573  1  0.277590  0.876170  0.457210  1.0  -0.1003
  C  C574  1  0.232590  0.834330  0.191860  1.0  -0.0866
  C  C575  1  0.909710  0.075430  0.055420  1.0  0.5622
  C  C576  1  0.191910  0.166950  0.259050  1.0  -0.1053
  C  C577  1  0.241960  0.880840  0.425820  1.0  -0.0804
  C  C578  1  0.266820  0.869410  0.503540  1.0  -0.1166
  C  C579  1  0.196480  0.879420  0.439570  1.0  -0.098
  C  C580  1  0.210360  0.868070  0.568190  1.0  0.623
  C  C581  1  0.160460  0.165690  0.294390  1.0  -0.0916
  C  C582  1  0.985480  0.909450  0.227690  1.0  -0.0793
  C  C583  1  0.286770  0.924760  0.143950  1.0  0.5407
  C  C584  1  0.143780  0.076240  0.312690  1.0  0.5412
  C  C585  1  0.221530  0.870420  0.518650  1.0  -0.0916
  C  C586  1  0.186910  0.875070  0.486190  1.0  -0.0881
  C  C587  1  0.159150  0.881280  0.405270  1.0  0.514
  C  C588  1  0.325640  0.878130  0.440880  1.0  0.5992
  C  C589  1  0.000980  0.932490  0.271320  1.0  -0.1035
  C  C590  1  0.932560  0.163510  0.040420  1.0  -0.0697
  C  C591  1  0.047620  0.904940  0.286400  1.0  0.6303
  C  C592  1  0.943160  0.939560  0.211570  1.0  -0.0817
  C  C593  1  0.899040  0.067110  0.316820  1.0  0.4986
  C  C594  1  0.971410  0.164570  0.012910  1.0  -0.0705
  C  C595  1  0.928980  0.012830  0.285420  1.0  -0.0875
  C  C596  1  0.267190  0.835480  0.159600  1.0  -0.0893
  C  C597  1  0.915020  0.990270  0.241130  1.0  -0.0787
  C  C598  1  0.972440  0.984860  0.299540  1.0  -0.0103
  C  C599  1  0.218900  0.029430  0.793430  1.0  0.0111
  C  C600  1  0.022880  0.130760  0.419720  1.0  0.003
  C  C601  1  0.137900  0.017350  0.170100  1.0  0.0213
  C  C602  1  0.405570  0.935000  0.063370  1.0  -0.0246
  C  C603  1  0.238410  0.876560  0.026960  1.0  0.0144
  C  C604  1  0.972980  0.943590  0.877490  1.0  0.0055
  C  C605  1  0.570040  0.084060  0.664130  1.0  0.6457
  C  C606  1  0.220900  0.122650  0.957370  1.0  -0.0877
  C  C607  1  0.266150  0.165370  0.691420  1.0  -0.0857
  C  C608  1  0.588340  0.924690  0.555750  1.0  0.5626
  C  C609  1  0.307170  0.833000  0.758020  1.0  -0.1158
  C  C610  1  0.256540  0.118360  0.925930  1.0  -0.0713
  C  C611  1  0.231720  0.129140  0.003700  1.0  -0.1048
  C  C612  1  0.302040  0.120050  0.939650  1.0  -0.085
  C  C613  1  0.288210  0.131230  0.068320  1.0  0.6236
  C  C614  1  0.338420  0.834020  0.793540  1.0  -0.0824
  C  C615  1  0.513080  0.090980  0.727590  1.0  -0.0733
  C  C616  1  0.211630  0.075550  0.643480  1.0  0.5201
  C  C617  1  0.355080  0.923310  0.812020  1.0  0.5381
  C  C618  1  0.277040  0.128690  0.018770  1.0  -0.0719
  C  C619  1  0.311640  0.124240  0.986290  1.0  -0.0582
  C  C620  1  0.339410  0.118840  0.905340  1.0  0.522
  C  C621  1  0.172810  0.120920  0.941050  1.0  0.6036
  C  C622  1  0.497580  0.067620  0.771180  1.0  -0.1029
  C  C623  1  0.565460  0.836670  0.540760  1.0  -0.077
  C  C624  1  0.450940  0.095020  0.786320  1.0  0.6302
  C  C625  1  0.555460  0.061200  0.711500  1.0  -0.0737
  C  C626  1  0.599580  0.932720  0.816290  1.0  0.5017
  C  C627  1  0.526730  0.835590  0.513090  1.0  -0.0717
  C  C628  1  0.569620  0.987380  0.785130  1.0  -0.0612
  C  C629  1  0.231400  0.164620  0.659260  1.0  -0.091
  C  C630  1  0.583600  0.010370  0.740940  1.0  -0.0734
  C  C631  1  0.526160  0.015100  0.799290  1.0  -0.0466
  C  C632  1  0.279810  0.970660  0.294110  1.0  0.0066
  C  C633  1  0.480990  0.877930  0.910010  1.0  -0.0382
  C  C634  1  0.368280  0.985160  0.670350  1.0  -0.0045
  C  C635  1  0.094920  0.028360  0.551760  1.0  -0.0371
  C  C636  1  0.264660  0.125710  0.514700  1.0  -0.0062
  C  C637  1  0.523770  0.059140  0.375290  1.0  0.0048
  C  C638  1  0.069610  0.417050  0.836700  1.0  0.6348
  C  C639  1  0.720450  0.376750  0.542920  1.0  -0.1032
  C  C640  1  0.766290  0.334760  0.809190  1.0  -0.0831
  C  C641  1  0.088880  0.575620  0.945100  1.0  0.5719
  C  C642  1  0.806340  0.667810  0.741230  1.0  -0.11
  C  C643  1  0.756080  0.380640  0.574360  1.0  -0.0801
  C  C644  1  0.731250  0.370560  0.496580  1.0  -0.1242
  C  C645  1  0.801570  0.378970  0.560620  1.0  -0.0937
  C  C646  1  0.787790  0.369520  0.431950  1.0  0.626
  C  C647  1  0.837280  0.666530  0.705440  1.0  -0.0942
  C  C648  1  0.012540  0.410200  0.773190  1.0  -0.0821
  C  C649  1  0.712150  0.425170  0.857210  1.0  0.5294
  C  C650  1  0.853890  0.576950  0.687140  1.0  0.5239
  C  C651  1  0.776570  0.371600  0.481490  1.0  -0.1082
  C  C652  1  0.811160  0.375600  0.513980  1.0  -0.0587
  C  C653  1  0.838910  0.379310  0.594910  1.0  0.4946
  C  C654  1  0.672390  0.378840  0.559240  1.0  0.6004
  C  C655  1  0.996930  0.433980  0.729670  1.0  -0.0752
  C  C656  1  0.066020  0.663660  0.960090  1.0  -0.0661
  C  C657  1  0.950320  0.406430  0.714430  1.0  0.6288
  C  C658  1  0.054910  0.440070  0.789310  1.0  -0.0782
  C  C659  1  0.098930  0.568590  0.684370  1.0  0.5309
  C  C660  1  0.027320  0.664740  0.987800  1.0  -0.0715
  C  C661  1  0.068980  0.514150  0.715670  1.0  -0.0847
  C  C662  1  0.731770  0.335880  0.841570  1.0  -0.0919
  C  C663  1  0.083060  0.490870  0.759810  1.0  -0.0735
  C  C664  1  0.025400  0.486910  0.701640  1.0  -0.066
  C  C665  1  0.779930  0.528330  0.206350  1.0  0.0089
  C  C666  1  0.950090  0.649540  0.564270  1.0  -0.0005
  C  C667  1  0.862500  0.512930  0.828430  1.0  0.0223
  C  C668  1  0.584280  0.433680  0.931420  1.0  0.0274
  C  C669  1  0.786170  0.392180  0.961200  1.0  0.0124
  C  C670  1  0.021090  0.429050  0.124940  1.0  0.0072
  C  C671  1  0.428960  0.582480  0.336720  1.0  0.6371
  C  C672  1  0.777850  0.623610  0.042720  1.0  -0.0948
  C  C673  1  0.731790  0.666500  0.309180  1.0  -0.0879
  C  C674  1  0.409710  0.423870  0.444770  1.0  0.5634
  C  C675  1  0.691960  0.333650  0.241210  1.0  -0.1073
  C  C676  1  0.742150  0.621050  0.074120  1.0  -0.0641
  C  C677  1  0.767140  0.629160  0.996320  1.0  -0.095
  C  C678  1  0.696690  0.623490  0.060300  1.0  -0.0771
  C  C679  1  0.710530  0.631210  0.931700  1.0  0.629
  C  C680  1  0.660890  0.334790  0.205550  1.0  -0.0903
  C  C681  1  0.485910  0.589670  0.273180  1.0  -0.0709
  C  C682  1  0.785910  0.576490  0.357420  1.0  0.5234
  C  C683  1  0.644200  0.424240  0.187190  1.0  0.5413
  C  C684  1  0.721820  0.628970  0.981200  1.0  -0.1134
  C  C685  1  0.687200  0.625980  0.013660  1.0  -0.0644
  C  C686  1  0.659260  0.625170  0.094460  1.0  0.5007
  C  C687  1  0.825890  0.621370  0.059160  1.0  0.6041
  C  C688  1  0.501450  0.566120  0.229620  1.0  -0.0868
  C  C689  1  0.432540  0.335800  0.459760  1.0  -0.0744
  C  C690  1  0.547950  0.594230  0.214260  1.0  0.6139
  C  C691  1  0.443620  0.559490  0.289360  1.0  -0.0751
  C  C692  1  0.399500  0.431040  0.184470  1.0  0.4932
  C  C693  1  0.471130  0.334770  0.487610  1.0  -0.0725
  C  C694  1  0.429500  0.485400  0.215760  1.0  -0.0599
  C  C695  1  0.766210  0.665680  0.341690  1.0  -0.0848
  C  C696  1  0.415500  0.508520  0.259930  1.0  -0.0734
  C  C697  1  0.473020  0.512960  0.201660  1.0  -0.0854
  C  C698  1  0.718180  0.473720  0.706220  1.0  0.012
  C  C699  1  0.554040  0.360780  0.057750  1.0  -0.0052
  C  C700  1  0.634380  0.480960  0.326100  1.0  0.0242
  C  C701  1  0.913590  0.567760  0.434350  1.0  0.0105
  C  C702  1  0.729740  0.627070  0.490320  1.0  -0.0048
  C  C703  1  0.475020  0.564140  0.624520  1.0  0.006
  C  C704  1  0.820300  0.251180  0.757850  1.0  0.6923
  C  C705  1  0.784620  0.251160  0.793340  1.0  -0.0849
  C  C706  1  0.715430  0.251180  0.858150  1.0  -0.058
  C  C707  1  0.846450  0.250890  0.225260  1.0  0.0085
  C  C708  1  0.677970  0.749900  0.257560  1.0  0.6911
  C  C709  1  0.713570  0.750000  0.293080  1.0  -0.0817
  C  C710  1  0.782330  0.750590  0.358280  1.0  -0.051
  C  C711  1  0.649420  0.751900  0.725040  1.0  0.0007
  C  C712  1  0.178670  0.751060  0.243270  1.0  0.6991
  C  C713  1  0.214450  0.750740  0.207880  1.0  -0.0854
  C  C714  1  0.283720  0.750780  0.143190  1.0  -0.0548
  C  C715  1  0.151690  0.749230  0.775060  1.0  0.0035
  C  C716  1  0.319860  0.248520  0.743270  1.0  0.7003
  C  C717  1  0.284130  0.248880  0.707810  1.0  -0.0764
  C  C718  1  0.214900  0.249520  0.643070  1.0  -0.061
  C  C719  1  0.346650  0.250020  0.275340  1.0  0.0043
  C  C720  1  0.852280  0.751140  0.687460  1.0  -0.0295
  C  C721  1  0.007760  0.749000  0.002760  1.0  -0.1119
  C  C722  1  0.790150  0.751460  0.759020  1.0  -0.086
  C  C723  1  0.755070  0.751490  0.794990  1.0  0.697
  C  C724  1  0.967970  0.748920  0.034830  1.0  0.6935
  C  C725  1  0.084740  0.749040  0.947050  1.0  -0.0268
  C  C726  1  0.564010  0.768680  0.987130  1.0  0.0057
  C  C727  1  0.645790  0.250150  0.187730  1.0  -0.0268
  C  C728  1  0.490640  0.250560  0.502640  1.0  -0.1157
  C  C729  1  0.708090  0.250070  0.259120  1.0  -0.0865
  C  C730  1  0.743160  0.250120  0.295080  1.0  0.6865
  C  C731  1  0.530390  0.250750  0.534740  1.0  0.6888
  C  C732  1  0.413900  0.250440  0.446620  1.0  -0.0267
  C  C733  1  0.973170  0.263230  0.547400  1.0  0.0075
  C  C734  1  0.144920  0.250190  0.311870  1.0  -0.0342
  C  C735  1  0.990950  0.248800  0.997930  1.0  -0.1144
  C  C736  1  0.207860  0.250590  0.241030  1.0  -0.0874
  C  C737  1  0.243160  0.250700  0.205280  1.0  0.6812
  C  C738  1  0.030780  0.248740  0.965910  1.0  0.6816
  C  C739  1  0.913700  0.248860  0.053260  1.0  -0.0331
  C  C740  1  0.469210  0.231370  0.965070  1.0  -0.008
  C  C741  1  0.353660  0.749410  0.811140  1.0  -0.0363
  C  C742  1  0.507330  0.751310  0.497970  1.0  -0.1168
  C  C743  1  0.290730  0.749390  0.740370  1.0  -0.0963
  C  C744  1  0.255280  0.749340  0.704830  1.0  0.6817
  C  C745  1  0.467630  0.751200  0.465820  1.0  0.6785
  C  C746  1  0.584250  0.751310  0.553720  1.0  -0.0176
  C  C747  1  0.040340  0.764910  0.473420  1.0  0.0155
  N  N748  1  0.786620  0.052380  0.174480  1.0  -0.4937
  N  N749  1  0.964100  0.986680  0.566610  1.0  -0.4267
  N  N750  1  0.835990  0.941180  0.862430  1.0  -0.4593
  N  N751  1  0.577090  0.054520  0.930300  1.0  -0.4521
  N  N752  1  0.791000  0.111440  0.958220  1.0  -0.3946
  N  N753  1  0.036250  0.990100  0.091370  1.0  -0.4214
  N  N754  1  0.711850  0.948760  0.675020  1.0  -0.4952
  N  N755  1  0.548100  0.032890  0.065010  1.0  -0.4768
  N  N756  1  0.663430  0.052420  0.365280  1.0  -0.4627
  N  N757  1  0.945810  0.933200  0.450030  1.0  -0.4119
  N  N758  1  0.722070  0.878820  0.467560  1.0  -0.4802
  N  N759  1  0.469780  0.955750  0.616290  1.0  -0.4582
  N  N760  1  0.212440  0.549290  0.824310  1.0  -0.4919
  N  N761  1  0.072000  0.461550  0.448150  1.0  -0.4487
  N  N762  1  0.164120  0.459810  0.137930  1.0  -0.4347
  N  N763  1  0.460190  0.555990  0.065110  1.0  -0.4715
  N  N764  1  0.211670  0.597010  0.040680  1.0  -0.4051
  N  N765  1  0.958420  0.487110  0.914340  1.0  -0.4155
  N  N766  1  0.285820  0.448600  0.325080  1.0  -0.4927
  N  N767  1  0.427610  0.546310  0.937850  1.0  -0.4031
  N  N768  1  0.334220  0.543550  0.635570  1.0  -0.4697
  N  N769  1  0.048130  0.478640  0.566970  1.0  -0.4859
  N  N770  1  0.273320  0.378660  0.533710  1.0  -0.4812
  N  N771  1  0.538210  0.510630  0.412450  1.0  -0.4285
  N  N772  1  0.212870  0.950160  0.822860  1.0  -0.4934
  N  N773  1  0.049400  0.051430  0.433670  1.0  -0.4551
  N  N774  1  0.162210  0.068720  0.135750  1.0  -0.4654
  N  N775  1  0.444980  0.915070  0.036030  1.0  -0.4846
  N  N776  1  0.192240  0.884670  0.042810  1.0  -0.4821
  N  N777  1  0.960930  0.010700  0.911870  1.0  -0.4283
  N  N778  1  0.286160  0.049450  0.323780  1.0  -0.4928
  N  N779  1  0.461750  0.969740  0.913650  1.0  -0.4849
  N  N780  1  0.340090  0.929250  0.641040  1.0  -0.4346
  N  N781  1  0.074310  0.118390  0.557690  1.0  -0.472
  N  N782  1  0.292420  0.083830  0.549490  1.0  -0.4303
  N  N783  1  0.535410  0.989940  0.408810  1.0  -0.4228
  N  N784  1  0.785930  0.450620  0.175940  1.0  -0.4947
  N  N785  1  0.936040  0.553470  0.564990  1.0  -0.4534
  N  N786  1  0.834860  0.556570  0.862800  1.0  -0.4779
  N  N787  1  0.539550  0.470780  0.939640  1.0  -0.4006
  N  N788  1  0.833510  0.375500  0.951620  1.0  -0.419
  N  N789  1  0.033820  0.502040  0.093800  1.0  -0.4233
  N  N790  1  0.712040  0.551750  0.676020  1.0  -0.5006
  N  N791  1  0.572700  0.453350  0.060060  1.0  -0.4497
  N  N792  1  0.660960  0.433980  0.360250  1.0  -0.4352
  N  N793  1  0.958600  0.532770  0.443240  1.0  -0.4536
  N  N794  1  0.703460  0.585140  0.454410  1.0  -0.4061
  N  N795  1  0.463420  0.493720  0.591590  1.0  -0.4241
  N  N796  1  0.895410  0.249910  0.225510  1.0  -0.4839
  N  N797  1  0.600470  0.752500  0.723500  1.0  -0.4887
  N  N798  1  0.102740  0.749230  0.776320  1.0  -0.5095
  N  N799  1  0.395590  0.249390  0.276960  1.0  -0.5059
  N  N800  1  0.536280  0.730920  0.023040  1.0  -0.4536
  N  N801  1  0.978640  0.266060  0.596110  1.0  -0.4824
  N  N802  1  0.477560  0.255130  0.918230  1.0  -0.3997
  N  N803  1  0.023720  0.743880  0.428440  1.0  -0.4229
  O  O804  1  0.721730  0.995200  0.834200  1.0  -0.595
  O  O805  1  0.128190  0.918840  0.933780  1.0  -0.5014
  O  O806  1  0.082250  0.875900  0.658350  1.0  -0.517
  O  O807  1  0.066050  0.007780  0.942510  1.0  -0.6042
  O  O808  1  0.145910  0.946480  0.682720  1.0  -0.609
  O  O809  1  0.096700  0.034190  0.859650  1.0  -0.6084
  O  O810  1  0.847380  0.007180  0.711220  1.0  -0.6093
  O  O811  1  0.931690  0.067100  0.678400  1.0  -0.5516
  O  O812  1  0.826510  0.116780  0.415520  1.0  -0.5765
  O  O813  1  0.056860  0.152070  0.858140  1.0  -0.5946
  O  O814  1  0.759230  0.145630  0.401430  1.0  -0.5621
  O  O815  1  0.740340  0.828600  0.809390  1.0  -0.5826
  O  O816  1  0.925340  0.148930  0.736370  1.0  -0.5571
  O  O817  1  0.834580  0.173950  0.742910  1.0  -0.6037
  O  O818  1  0.951920  0.826880  0.048080  1.0  -0.6024
  O  O819  1  0.638610  0.148180  0.537100  1.0  -0.5764
  O  O820  1  0.688390  0.075820  0.890700  1.0  -0.4788
  O  O821  1  0.660910  0.097870  0.598030  1.0  -0.5963
  O  O822  1  0.829460  0.116120  0.640970  1.0  -0.6542
  O  O823  1  0.878140  0.129390  0.582520  1.0  -0.4974
  O  O824  1  0.874370  0.927030  0.651210  1.0  -0.4914
  O  O825  1  0.777000  0.006150  0.333460  1.0  -0.5852
  O  O826  1  0.370220  0.080660  0.433760  1.0  -0.4994
  O  O827  1  0.415900  0.122890  0.157490  1.0  -0.5058
  O  O828  1  0.432350  0.991680  0.442320  1.0  -0.6105
  O  O829  1  0.352300  0.054190  0.183230  1.0  -0.6096
  O  O830  1  0.401580  0.965530  0.359550  1.0  -0.607
  O  O831  1  0.650800  0.994210  0.211500  1.0  -0.6119
  O  O832  1  0.566610  0.934240  0.178390  1.0  -0.5468
  O  O833  1  0.671960  0.885070  0.915690  1.0  -0.5759
  O  O834  1  0.441340  0.847510  0.357790  1.0  -0.5878
  O  O835  1  0.739160  0.855330  0.901610  1.0  -0.5665
  O  O836  1  0.757970  0.173020  0.309400  1.0  -0.5759
  O  O837  1  0.573050  0.852430  0.236400  1.0  -0.5575
  O  O838  1  0.663630  0.827180  0.242760  1.0  -0.6141
  O  O839  1  0.546450  0.172860  0.548040  1.0  -0.6098
  O  O840  1  0.859770  0.852760  0.037130  1.0  -0.5784
  O  O841  1  0.806700  0.926760  0.392300  1.0  -0.4894
  O  O842  1  0.837540  0.901920  0.098330  1.0  -0.6002
  O  O843  1  0.668880  0.885810  0.141030  1.0  -0.6388
  O  O844  1  0.620350  0.871830  0.082490  1.0  -0.495
  O  O845  1  0.623790  0.074380  0.151530  1.0  -0.4931
  O  O846  1  0.276970  0.494390  0.166570  1.0  -0.5854
  O  O847  1  0.870170  0.418730  0.066290  1.0  -0.515
  O  O848  1  0.915910  0.379600  0.343840  1.0  -0.5134
  O  O849  1  0.932360  0.507540  0.057840  1.0  -0.6055
  O  O850  1  0.852300  0.446680  0.317150  1.0  -0.6065
  O  O851  1  0.901740  0.533630  0.140620  1.0  -0.6028
  O  O852  1  0.151570  0.506700  0.289330  1.0  -0.599
  O  O853  1  0.065860  0.570710  0.323280  1.0  -0.5706
  O  O854  1  0.171680  0.616020  0.584820  1.0  -0.5885
  O  O855  1  0.941790  0.651190  0.142290  1.0  -0.5928
  O  O856  1  0.238920  0.644930  0.599060  1.0  -0.5662
  O  O857  1  0.258260  0.327810  0.191300  1.0  -0.5813
  O  O858  1  0.074740  0.641290  0.262410  1.0  -0.567
  O  O859  1  0.165210  0.674090  0.259160  1.0  -0.6082
  O  O860  1  0.046840  0.326700  0.952700  1.0  -0.6006
  O  O861  1  0.359800  0.645930  0.463620  1.0  -0.5805
  O  O862  1  0.311800  0.575800  0.111280  1.0  -0.5021
  O  O863  1  0.337450  0.598080  0.402200  1.0  -0.5994
  O  O864  1  0.167700  0.604570  0.360340  1.0  -0.6295
  O  O865  1  0.121230  0.643640  0.417740  1.0  -0.5013
  O  O866  1  0.120280  0.424850  0.346590  1.0  -0.4884
  O  O867  1  0.221270  0.505600  0.667010  1.0  -0.5854
  O  O868  1  0.627960  0.581470  0.566490  1.0  -0.5033
  O  O869  1  0.582180  0.623700  0.842810  1.0  -0.504
  O  O870  1  0.565830  0.492520  0.557800  1.0  -0.6046
  O  O871  1  0.645760  0.555080  0.816950  1.0  -0.6062
  O  O872  1  0.596490  0.466690  0.640420  1.0  -0.6085
  O  O873  1  0.346560  0.492740  0.788890  1.0  -0.6046
  O  O874  1  0.432560  0.429720  0.823150  1.0  -0.5635
  O  O875  1  0.326670  0.383450  0.085040  1.0  -0.5796
  O  O876  1  0.556510  0.349010  0.642260  1.0  -0.5968
  O  O877  1  0.259430  0.354340  0.099210  1.0  -0.5676
  O  O878  1  0.240210  0.672200  0.690850  1.0  -0.5793
  O  O879  1  0.423850  0.358670  0.762420  1.0  -0.5602
  O  O880  1  0.333260  0.325520  0.759200  1.0  -0.5893
  O  O881  1  0.451640  0.673180  0.452650  1.0  -0.6111
  O  O882  1  0.138850  0.353260  0.963590  1.0  -0.5739
  O  O883  1  0.188510  0.424890  0.610260  1.0  -0.4885
  O  O884  1  0.161150  0.401580  0.902260  1.0  -0.5965
  O  O885  1  0.331260  0.395660  0.860650  1.0  -0.6183
  O  O886  1  0.377680  0.355700  0.918060  1.0  -0.4992
  O  O887  1  0.377770  0.574930  0.846040  1.0  -0.5084
  O  O888  1  0.276440  0.007280  0.166430  1.0  -0.5902
  O  O889  1  0.870270  0.078940  0.066410  1.0  -0.511
  O  O890  1  0.915830  0.121750  0.342980  1.0  -0.5014
  O  O891  1  0.932560  0.990230  0.058190  1.0  -0.6062
  O  O892  1  0.852180  0.052940  0.317450  1.0  -0.607
  O  O893  1  0.901750  0.964390  0.140750  1.0  -0.6043
  O  O894  1  0.150620  0.994660  0.288280  1.0  -0.6131
  O  O895  1  0.066680  0.934250  0.321890  1.0  -0.5492
  O  O896  1  0.171620  0.881600  0.584650  1.0  -0.578
  O  O897  1  0.941570  0.846500  0.142710  1.0  -0.5923
  O  O898  1  0.238920  0.853480  0.598690  1.0  -0.57
  O  O899  1  0.257890  0.173610  0.190830  1.0  -0.5861
  O  O900  1  0.073000  0.851550  0.264160  1.0  -0.562
  O  O901  1  0.163700  0.828400  0.257250  1.0  -0.6152
  O  O902  1  0.046810  0.170740  0.952740  1.0  -0.6022
  O  O903  1  0.359430  0.852320  0.463020  1.0  -0.5769
  O  O904  1  0.312320  0.925670  0.111960  1.0  -0.4801
  O  O905  1  0.337360  0.904820  0.402420  1.0  -0.5961
  O  O906  1  0.169030  0.886850  0.359080  1.0  -0.6485
  O  O907  1  0.120120  0.877540  0.417490  1.0  -0.4951
  O  O908  1  0.123950  0.074390  0.348550  1.0  -0.4885
  O  O909  1  0.221570  0.993030  0.666130  1.0  -0.5915
  O  O910  1  0.627810  0.921140  0.566690  1.0  -0.4974
  O  O911  1  0.582960  0.875730  0.841320  1.0  -0.5087
  O  O912  1  0.565530  0.009930  0.558570  1.0  -0.6078
  O  O913  1  0.646250  0.948810  0.817850  1.0  -0.6013
  O  O914  1  0.597000  0.036460  0.640860  1.0  -0.5974
  O  O915  1  0.347860  0.005230  0.788030  1.0  -0.6108
  O  O916  1  0.431910  0.065500  0.821790  1.0  -0.5572
  O  O917  1  0.326810  0.116330  0.084910  1.0  -0.5801
  O  O918  1  0.556900  0.154070  0.642620  1.0  -0.5898
  O  O919  1  0.259720  0.147420  0.098700  1.0  -0.5624
  O  O920  1  0.240400  0.826410  0.690560  1.0  -0.5849
  O  O921  1  0.425540  0.148500  0.764170  1.0  -0.5585
  O  O922  1  0.334810  0.171200  0.757240  1.0  -0.6119
  O  O923  1  0.451590  0.829080  0.452540  1.0  -0.6153
  O  O924  1  0.139020  0.146620  0.963250  1.0  -0.5803
  O  O925  1  0.186290  0.074860  0.611270  1.0  -0.4815
  O  O926  1  0.161030  0.094660  0.902540  1.0  -0.6005
  O  O927  1  0.329620  0.112280  0.859150  1.0  -0.6493
  O  O928  1  0.378410  0.124120  0.917550  1.0  -0.5044
  O  O929  1  0.375100  0.924750  0.847790  1.0  -0.49
  O  O930  1  0.720970  0.507060  0.833530  1.0  -0.5905
  O  O931  1  0.128300  0.579160  0.933980  1.0  -0.4963
  O  O932  1  0.082260  0.625340  0.659220  1.0  -0.503
  O  O933  1  0.066090  0.490320  0.942510  1.0  -0.6051
  O  O934  1  0.145610  0.552370  0.682730  1.0  -0.6072
  O  O935  1  0.096710  0.464400  0.859930  1.0  -0.6111
  O  O936  1  0.847300  0.495330  0.711640  1.0  -0.6117
  O  O937  1  0.931370  0.435790  0.678880  1.0  -0.5504
  O  O938  1  0.826510  0.383890  0.415530  1.0  -0.5796
  O  O939  1  0.056610  0.346920  0.858190  1.0  -0.5863
  O  O940  1  0.759290  0.354170  0.401460  1.0  -0.5678
  O  O941  1  0.740150  0.674360  0.809190  1.0  -0.585
  O  O942  1  0.924940  0.352730  0.736460  1.0  -0.557
  O  O943  1  0.834250  0.328470  0.742760  1.0  -0.6052
  O  O944  1  0.951910  0.670890  0.047910  1.0  -0.5975
  O  O945  1  0.638500  0.354400  0.536860  1.0  -0.5851
  O  O946  1  0.687990  0.426570  0.890300  1.0  -0.4889
  O  O947  1  0.660770  0.404230  0.597930  1.0  -0.5953
  O  O948  1  0.829180  0.386680  0.641060  1.0  -0.6454
  O  O949  1  0.877850  0.372490  0.582710  1.0  -0.5021
  O  O950  1  0.873340  0.574960  0.651100  1.0  -0.4954
  O  O951  1  0.776790  0.494320  0.334070  1.0  -0.5856
  O  O952  1  0.370350  0.420310  0.433500  1.0  -0.5019
  O  O953  1  0.416160  0.374820  0.159020  1.0  -0.5172
  O  O954  1  0.432470  0.509200  0.442360  1.0  -0.6017
  O  O955  1  0.352780  0.446960  0.183080  1.0  -0.6073
  O  O956  1  0.401810  0.535180  0.359910  1.0  -0.6102
  O  O957  1  0.651190  0.506150  0.211320  1.0  -0.6179
  O  O958  1  0.566790  0.565450  0.178530  1.0  -0.5476
  O  O959  1  0.671710  0.617650  0.915340  1.0  -0.5746
  O  O960  1  0.442030  0.652570  0.358220  1.0  -0.5857
  O  O961  1  0.739030  0.646150  0.901160  1.0  -0.5716
  O  O962  1  0.758030  0.327260  0.309330  1.0  -0.5815
  O  O963  1  0.573340  0.647860  0.236330  1.0  -0.5616
  O  O964  1  0.664100  0.672650  0.242350  1.0  -0.6125
  O  O965  1  0.546460  0.328810  0.547790  1.0  -0.6049
  O  O966  1  0.859840  0.645940  0.036900  1.0  -0.5739
  O  O967  1  0.810380  0.575400  0.390270  1.0  -0.4926
  O  O968  1  0.837440  0.595800  0.097860  1.0  -0.6013
  O  O969  1  0.668640  0.613910  0.140500  1.0  -0.6472
  O  O970  1  0.620620  0.637460  0.082270  1.0  -0.504
  O  O971  1  0.624290  0.425820  0.151400  1.0  -0.4934
  O  O972  1  0.109010  0.249010  0.887790  1.0  -0.6598
  O  O973  1  0.882820  0.251380  0.660610  1.0  -0.598
  O  O974  1  0.389470  0.750410  0.387620  1.0  -0.6637
  O  O975  1  0.615330  0.750230  0.160580  1.0  -0.6231
  O  O976  1  0.889670  0.748800  0.112760  1.0  -0.6842
  O  O977  1  0.116530  0.751090  0.339740  1.0  -0.5753
  O  O978  1  0.608690  0.251440  0.612740  1.0  -0.6821
  O  O979  1  0.381840  0.248690  0.839650  1.0  -0.5702
  O  O980  1  0.661630  0.751550  0.838210  1.0  -0.5139
  O  O981  1  0.836640  0.250130  0.338090  1.0  -0.5152
  O  O982  1  0.336790  0.250520  0.162520  1.0  -0.4987
  O  O983  1  0.161610  0.749350  0.662530  1.0  -0.5013
