# generated using pymatgen
data_In6H62C89(NO17)2
_symmetry_space_group_name_H-M   'P 1'
_cell_length_a   22.13860000
_cell_length_b   22.13860000
_cell_length_c   36.26510000
_cell_angle_alpha   90.00000000
_cell_angle_beta   90.00000000
_cell_angle_gamma   90.00000000
_symmetry_Int_Tables_number   1
_chemical_formula_structural   In6H62C89(NO17)2
_chemical_formula_sum   'In24 H248 C356 N8 O136'
_cell_volume   17774.16413696
_cell_formula_units_Z   4
loop_
 _symmetry_equiv_pos_site_id
 _symmetry_equiv_pos_as_xyz
  1  'x, y, z'
loop_
 _atom_site_type_symbol
 _atom_site_label
 _atom_site_symmetry_multiplicity
 _atom_site_fract_x
 _atom_site_fract_y
 _atom_site_fract_z
 _atom_site_occupancy
 _atom_site_charge
  In  In1  1  0.216490  0.503440  0.654040  1.0  1.6796
  In  In2  1  0.156620  0.500440  0.738290  1.0  1.6155
  In  In3  1  0.808310  0.982840  0.521890  1.0  1.6852
  In  In4  1  0.783770  0.497030  0.154000  1.0  1.6674
  In  In5  1  0.843060  0.499530  0.238200  1.0  1.6187
  In  In6  1  0.191500  0.016560  0.021540  1.0  1.6835
  In  In7  1  0.997580  0.716050  0.404030  1.0  1.6667
  In  In8  1  0.999630  0.656750  0.488320  1.0  1.6461
  In  In9  1  0.516950  0.308750  0.271690  1.0  1.6701
  In  In10  1  0.003800  0.283670  0.903620  1.0  1.6653
  In  In11  1  0.001240  0.342980  0.988000  1.0  1.641
  In  In12  1  0.483440  0.691250  0.771630  1.0  1.6912
  In  In13  1  0.283500  0.003290  0.095670  1.0  1.6759
  In  In14  1  0.343150  0.000660  0.011490  1.0  1.6458
  In  In15  1  0.691890  0.483330  0.227960  1.0  1.6793
  In  In16  1  0.716240  0.996140  0.595920  1.0  1.6711
  In  In17  1  0.656550  0.999290  0.511640  1.0  1.6445
  In  In18  1  0.308180  0.516890  0.727960  1.0  1.6818
  In  In19  1  0.504110  0.216570  0.346110  1.0  1.6607
  In  In20  1  0.501290  0.156940  0.261850  1.0  1.6452
  In  In21  1  0.983290  0.808450  0.477940  1.0  1.6812
  In  In22  1  0.497300  0.783790  0.845590  1.0  1.6621
  In  In23  1  0.499540  0.843120  0.761370  1.0  1.6473
  In  In24  1  0.017170  0.191390  0.977820  1.0  1.6722
  H  H25  1  0.068190  0.610290  0.610240  1.0  0.1098
  H  H26  1  0.994420  0.687330  0.593180  1.0  0.1096
  H  H27  1  0.972890  0.735600  0.707660  1.0  0.1246
  H  H28  1  0.046570  0.657520  0.724760  1.0  0.1177
  H  H29  1  0.998090  0.794960  0.592040  1.0  0.1079
  H  H30  1  0.936690  0.876790  0.570130  1.0  0.1061
  H  H31  1  0.808030  0.845490  0.657100  1.0  0.111
  H  H32  1  0.871930  0.762310  0.680200  1.0  0.1229
  H  H33  1  0.315040  0.686760  0.781220  1.0  0.1115
  H  H34  1  0.316850  0.772840  0.822500  1.0  0.1202
  H  H35  1  0.143350  0.719320  0.866340  1.0  0.1177
  H  H36  1  0.139930  0.635460  0.822710  1.0  0.1202
  H  H37  1  0.139620  0.823090  0.878670  1.0  0.1235
  H  H38  1  0.147270  0.896610  0.928940  1.0  0.1179
  H  H39  1  0.339490  0.865790  0.934080  1.0  0.1094
  H  H40  1  0.332480  0.794890  0.883620  1.0  0.1193
  H  H41  1  0.104370  0.364370  0.608960  1.0  0.1185
  H  H42  1  0.034820  0.289540  0.587240  1.0  0.1107
  H  H43  1  0.961530  0.271870  0.697420  1.0  0.1232
  H  H44  1  0.030760  0.350170  0.718400  1.0  0.1182
  H  H45  1  0.985030  0.213930  0.569900  1.0  0.1137
  H  H46  1  0.916680  0.138680  0.547080  1.0  0.1176
  H  H47  1  0.827920  0.131000  0.652400  1.0  0.1203
  H  H48  1  0.893710  0.210390  0.675600  1.0  0.1197
  H  H49  1  0.931890  0.389550  0.109870  1.0  0.1094
  H  H50  1  0.005200  0.312190  0.092830  1.0  0.1093
  H  H51  1  0.026880  0.263930  0.207230  1.0  0.1259
  H  H52  1  0.953590  0.342370  0.224450  1.0  0.116
  H  H53  1  0.001170  0.204400  0.091820  1.0  0.106
  H  H54  1  0.062610  0.122530  0.069770  1.0  0.1133
  H  H55  1  0.191880  0.154640  0.156100  1.0  0.109
  H  H56  1  0.128030  0.237580  0.179480  1.0  0.119
  H  H57  1  0.685020  0.313010  0.281320  1.0  0.1101
  H  H58  1  0.683080  0.227240  0.323050  1.0  0.1137
  H  H59  1  0.856820  0.280540  0.366440  1.0  0.1189
  H  H60  1  0.860200  0.364280  0.322700  1.0  0.1216
  H  H61  1  0.860130  0.176370  0.378840  1.0  0.1207
  H  H62  1  0.852530  0.103330  0.429410  1.0  0.1179
  H  H63  1  0.660500  0.135050  0.434870  1.0  0.1181
  H  H64  1  0.667650  0.206200  0.384570  1.0  0.1144
  H  H65  1  0.895840  0.635890  0.109270  1.0  0.1158
  H  H66  1  0.965130  0.710530  0.087500  1.0  0.1071
  H  H67  1  0.038960  0.728240  0.197620  1.0  0.1216
  H  H68  1  0.969860  0.649690  0.218590  1.0  0.1232
  H  H69  1  0.014520  0.785940  0.070050  1.0  0.1147
  H  H70  1  0.082490  0.861170  0.046920  1.0  0.1185
  H  H71  1  0.171880  0.869570  0.152010  1.0  0.1189
  H  H72  1  0.106360  0.790200  0.175560  1.0  0.1193
  H  H73  1  0.889660  0.568770  0.359960  1.0  0.1111
  H  H74  1  0.812640  0.494980  0.342920  1.0  0.1108
  H  H75  1  0.764270  0.473470  0.457370  1.0  0.125
  H  H76  1  0.842360  0.547080  0.474520  1.0  0.1183
  H  H77  1  0.704700  0.499130  0.341980  1.0  0.1062
  H  H78  1  0.622300  0.438100  0.320270  1.0  0.1132
  H  H79  1  0.654810  0.308560  0.406380  1.0  0.1079
  H  H80  1  0.738090  0.372190  0.429630  1.0  0.1191
  H  H81  1  0.813170  0.814660  0.531140  1.0  0.1097
  H  H82  1  0.727360  0.816660  0.572730  1.0  0.1217
  H  H83  1  0.780770  0.643140  0.616430  1.0  0.1211
  H  H84  1  0.864450  0.639560  0.572680  1.0  0.1206
  H  H85  1  0.677020  0.639570  0.628870  1.0  0.1224
  H  H86  1  0.603890  0.647250  0.679340  1.0  0.1193
  H  H87  1  0.634470  0.839510  0.684170  1.0  0.1151
  H  H88  1  0.705690  0.832310  0.633960  1.0  0.1165
  H  H89  1  0.136320  0.604120  0.359280  1.0  0.1162
  H  H90  1  0.210890  0.534550  0.337590  1.0  0.1065
  H  H91  1  0.228210  0.460860  0.447750  1.0  0.1256
  H  H92  1  0.149760  0.530340  0.468640  1.0  0.1194
  H  H93  1  0.286090  0.484820  0.320230  1.0  0.115
  H  H94  1  0.361170  0.416810  0.297090  1.0  0.1193
  H  H95  1  0.369780  0.327410  0.402120  1.0  0.1217
  H  H96  1  0.290370  0.393030  0.425800  1.0  0.1215
  H  H97  1  0.111150  0.432250  0.859590  1.0  0.108
  H  H98  1  0.188110  0.506180  0.842800  1.0  0.1037
  H  H99  1  0.236070  0.527310  0.957300  1.0  0.1241
  H  H100  1  0.158060  0.453440  0.974240  1.0  0.1171
  H  H101  1  0.295830  0.501780  0.842050  1.0  0.1062
  H  H102  1  0.378010  0.562910  0.820260  1.0  0.1079
  H  H103  1  0.345590  0.692610  0.906310  1.0  0.1075
  H  H104  1  0.262600  0.628550  0.929760  1.0  0.1174
  H  H105  1  0.187530  0.184490  0.031550  1.0  0.1086
  H  H106  1  0.273290  0.182710  0.073280  1.0  0.1131
  H  H107  1  0.219670  0.356350  0.116630  1.0  0.1241
  H  H108  1  0.135620  0.359390  0.073050  1.0  0.1229
  H  H109  1  0.324420  0.359410  0.128670  1.0  0.1251
  H  H110  1  0.397320  0.351840  0.179300  1.0  0.1195
  H  H111  1  0.363870  0.160100  0.185820  1.0  0.114
  H  H112  1  0.292990  0.167300  0.135270  1.0  0.1132
  H  H113  1  0.864420  0.395180  0.859190  1.0  0.119
  H  H114  1  0.789710  0.464650  0.837430  1.0  0.1129
  H  H115  1  0.771910  0.538060  0.947620  1.0  0.1224
  H  H116  1  0.850190  0.468750  0.968620  1.0  0.118
  H  H117  1  0.714210  0.514420  0.820090  1.0  0.1164
  H  H118  1  0.638750  0.582450  0.797210  1.0  0.1178
  H  H119  1  0.630770  0.671360  0.902480  1.0  0.1217
  H  H120  1  0.710310  0.605750  0.925750  1.0  0.1244
  H  H121  1  0.432250  0.110620  0.139850  1.0  0.1116
  H  H122  1  0.506030  0.187670  0.156650  1.0  0.1096
  H  H123  1  0.527040  0.235660  0.042130  1.0  0.1253
  H  H124  1  0.453260  0.157590  0.025210  1.0  0.1169
  H  H125  1  0.502720  0.294670  0.158090  1.0  0.1078
  H  H126  1  0.564060  0.376490  0.179920  1.0  0.1112
  H  H127  1  0.691580  0.346530  0.092180  1.0  0.1046
  H  H128  1  0.627610  0.263390  0.069110  1.0  0.1193
  H  H129  1  0.184680  0.187180  0.968510  1.0  0.1099
  H  H130  1  0.182580  0.272600  0.926450  1.0  0.1158
  H  H131  1  0.356620  0.219510  0.883480  1.0  0.1193
  H  H132  1  0.360150  0.136070  0.927430  1.0  0.1226
  H  H133  1  0.359480  0.324530  0.871860  1.0  0.1226
  H  H134  1  0.352210  0.397300  0.821110  1.0  0.1132
  H  H135  1  0.160640  0.363160  0.814010  1.0  0.1128
  H  H136  1  0.167720  0.291660  0.864160  1.0  0.1131
  H  H137  1  0.395160  0.863770  0.140760  1.0  0.1158
  H  H138  1  0.464130  0.788660  0.162540  1.0  0.1099
  H  H139  1  0.540900  0.774080  0.053010  1.0  0.1219
  H  H140  1  0.472950  0.853550  0.032280  1.0  0.1232
  H  H141  1  0.514740  0.714040  0.180140  1.0  0.11
  H  H142  1  0.582710  0.638500  0.203020  1.0  0.1199
  H  H143  1  0.671720  0.630620  0.097800  1.0  0.1162
  H  H144  1  0.606190  0.709970  0.074470  1.0  0.1164
  H  H145  1  0.566930  0.890470  0.639560  1.0  0.1106
  H  H146  1  0.493430  0.813140  0.656720  1.0  0.1046
  H  H147  1  0.472720  0.764010  0.542310  1.0  0.1248
  H  H148  1  0.546440  0.842000  0.525190  1.0  0.1196
  H  H149  1  0.497980  0.705250  0.658040  1.0  0.1065
  H  H150  1  0.436740  0.623190  0.679940  1.0  0.1086
  H  H151  1  0.308610  0.653350  0.592680  1.0  0.1177
  H  H152  1  0.372070  0.737030  0.569640  1.0  0.1209
  H  H153  1  0.815320  0.812890  0.468380  1.0  0.1094
  H  H154  1  0.817260  0.727480  0.426340  1.0  0.1212
  H  H155  1  0.643190  0.780890  0.383440  1.0  0.12
  H  H156  1  0.639930  0.864310  0.427400  1.0  0.1191
  H  H157  1  0.640350  0.675440  0.371860  1.0  0.1209
  H  H158  1  0.647640  0.602660  0.321080  1.0  0.1168
  H  H159  1  0.839050  0.637270  0.313670  1.0  0.1069
  H  H160  1  0.832090  0.708390  0.364070  1.0  0.1183
  H  H161  1  0.604180  0.135440  0.641300  1.0  0.118
  H  H162  1  0.535580  0.211150  0.662860  1.0  0.109
  H  H163  1  0.458980  0.225340  0.553290  1.0  0.1221
  H  H164  1  0.527200  0.146050  0.532590  1.0  0.1178
  H  H165  1  0.484950  0.285870  0.680280  1.0  0.1108
  H  H166  1  0.417150  0.361530  0.702930  1.0  0.1196
  H  H167  1  0.328280  0.369240  0.597650  1.0  0.1202
  H  H168  1  0.393710  0.289550  0.574520  1.0  0.1169
  H  H169  1  0.610830  0.066990  0.390160  1.0  0.1071
  H  H170  1  0.687820  0.992990  0.406750  1.0  0.1097
  H  H171  1  0.735780  0.972770  0.292150  1.0  0.1242
  H  H172  1  0.657990  0.046980  0.275490  1.0  0.1173
  H  H173  1  0.794910  0.997070  0.407950  1.0  0.1069
  H  H174  1  0.876800  0.935860  0.429750  1.0  0.1113
  H  H175  1  0.846990  0.808310  0.341990  1.0  0.1081
  H  H176  1  0.763670  0.872050  0.319000  1.0  0.1178
  H  H177  1  0.687610  0.315570  0.218200  1.0  0.1101
  H  H178  1  0.773140  0.317420  0.176230  1.0  0.1168
  H  H179  1  0.719660  0.143540  0.133230  1.0  0.1216
  H  H180  1  0.635840  0.140450  0.176960  1.0  0.1202
  H  H181  1  0.824660  0.140690  0.121280  1.0  0.1237
  H  H182  1  0.897320  0.148100  0.070510  1.0  0.1177
  H  H183  1  0.863230  0.339690  0.063560  1.0  0.1114
  H  H184  1  0.791960  0.332480  0.113900  1.0  0.1126
  H  H185  1  0.364410  0.105060  0.390940  1.0  0.1191
  H  H186  1  0.289340  0.035810  0.412650  1.0  0.1146
  H  H187  1  0.273150  0.961040  0.302720  1.0  0.1274
  H  H188  1  0.352090  0.029520  0.281920  1.0  0.1169
  H  H189  1  0.214210  0.985370  0.429990  1.0  0.119
  H  H190  1  0.138490  0.917410  0.452650  1.0  0.1191
  H  H191  1  0.130870  0.828810  0.347290  1.0  0.119
  H  H192  1  0.210530  0.894350  0.324220  1.0  0.1189
  H  H193  1  0.390830  0.933100  0.889560  1.0  0.1121
  H  H194  1  0.313400  0.006610  0.906450  1.0  0.1097
  H  H195  1  0.264360  0.026490  0.791980  1.0  0.1254
  H  H196  1  0.342300  0.952610  0.775080  1.0  0.1173
  H  H197  1  0.205710  0.002290  0.907880  1.0  0.1076
  H  H198  1  0.123350  0.063210  0.929500  1.0  0.1118
  H  H199  1  0.153220  0.190820  0.841760  1.0  0.1073
  H  H200  1  0.236960  0.127320  0.818960  1.0  0.123
  H  H201  1  0.312780  0.684960  0.718540  1.0  0.111
  H  H202  1  0.227310  0.682890  0.676600  1.0  0.118
  H  H203  1  0.280460  0.856790  0.633440  1.0  0.123
  H  H204  1  0.364010  0.860300  0.677340  1.0  0.1201
  H  H205  1  0.175470  0.859700  0.621730  1.0  0.1228
  H  H206  1  0.102710  0.852200  0.571000  1.0  0.1176
  H  H207  1  0.136570  0.660610  0.564220  1.0  0.1086
  H  H208  1  0.207760  0.667770  0.614540  1.0  0.1152
  H  H209  1  0.635920  0.895930  0.890720  1.0  0.1163
  H  H210  1  0.710750  0.965300  0.912410  1.0  0.1108
  H  H211  1  0.727710  0.039320  0.802300  1.0  0.1233
  H  H212  1  0.649200  0.969940  0.781420  1.0  0.1207
  H  H213  1  0.785980  0.015240  0.929740  1.0  0.1142
  H  H214  1  0.861200  0.083310  0.952760  1.0  0.1181
  H  H215  1  0.869520  0.172490  0.847660  1.0  0.1216
  H  H216  1  0.790100  0.106840  0.824120  1.0  0.122
  H  H217  1  0.240680  0.495570  0.588260  1.0  0.3737
  H  H218  1  0.217040  0.667560  0.464400  1.0  0.1473
  H  H219  1  0.205130  0.704910  0.504760  1.0  0.1279
  H  H220  1  0.307810  0.640440  0.484330  1.0  0.1305
  H  H221  1  0.269560  0.595280  0.518580  1.0  0.1188
  H  H222  1  0.290910  0.672210  0.528850  1.0  0.1014
  H  H223  1  0.834490  0.506590  0.094180  1.0  0.4446
  H  H224  1  0.788360  0.291830  0.001500  1.0  0.1277
  H  H225  1  0.818230  0.362800  0.000700  1.0  0.1394
  H  H226  1  0.697650  0.322700  0.020200  1.0  0.1091
  H  H227  1  0.698980  0.385060  0.988110  1.0  0.1251
  H  H228  1  0.736640  0.391660  0.032100  1.0  0.1297
  H  H229  1  0.036380  0.701810  0.341380  1.0  0.4123
  H  H230  1  0.842050  0.721120  0.214320  1.0  0.1463
  H  H231  1  0.798870  0.708130  0.252400  1.0  0.1317
  H  H232  1  0.887080  0.803110  0.237630  1.0  0.1288
  H  H233  1  0.890950  0.769510  0.282960  1.0  0.1231
  H  H234  1  0.821400  0.803700  0.267240  1.0  0.1082
  H  H235  1  0.044980  0.304810  0.841570  1.0  0.404
  H  H236  1  0.207220  0.292410  0.759030  1.0  0.1357
  H  H237  1  0.137520  0.316850  0.745740  1.0  0.1484
  H  H238  1  0.177150  0.196890  0.770930  1.0  0.1062
  H  H239  1  0.118620  0.200540  0.736230  1.0  0.1273
  H  H240  1  0.107830  0.237120  0.780280  1.0  0.1222
  H  H241  1  0.333240  0.993930  0.155730  1.0  0.447
  H  H242  1  0.315290  0.135040  0.265080  1.0  0.138
  H  H243  1  0.270580  0.185000  0.288270  1.0  0.1409
  H  H244  1  0.223840  0.093340  0.252790  1.0  0.1226
  H  H245  1  0.232720  0.144160  0.214390  1.0  0.1069
  H  H246  1  0.187200  0.166290  0.253470  1.0  0.1238
  H  H247  1  0.741080  0.004460  0.661690  1.0  0.3675
  H  H248  1  0.679810  0.850970  0.744050  1.0  0.1463
  H  H249  1  0.713500  0.851050  0.786180  1.0  0.1257
  H  H250  1  0.763020  0.879860  0.714410  1.0  0.1153
  H  H251  1  0.808450  0.827130  0.740430  1.0  0.1212
  H  H252  1  0.789940  0.900000  0.759710  1.0  0.1179
  H  H253  1  0.545540  0.195800  0.408130  1.0  0.4205
  H  H254  1  0.638060  0.212860  0.537950  1.0  0.1271
  H  H255  1  0.706200  0.219840  0.516700  1.0  0.1496
  H  H256  1  0.589370  0.278220  0.499110  1.0  0.1214
  H  H257  1  0.645600  0.267150  0.463680  1.0  0.1118
  H  H258  1  0.663490  0.311610  0.503940  1.0  0.1283
  H  H259  1  0.535490  0.798060  0.908430  1.0  0.4415
  H  H260  1  0.305380  0.805770  0.992410  1.0  0.1298
  H  H261  1  0.374370  0.817070  0.011790  1.0  0.1342
  H  H262  1  0.347450  0.724280  0.966550  1.0  0.1095
  H  H263  1  0.334450  0.691720  0.011240  1.0  0.1468
  H  H264  1  0.407350  0.723270  0.000450  1.0  0.1349
  H  H265  1  0.649800  0.179080  0.496380  1.0  0.138
  H  H266  1  0.777960  0.336860  0.963940  1.0  0.1471
  H  H267  1  0.180690  0.274920  0.716330  1.0  0.1457
  H  H268  1  0.872240  0.684780  0.251420  1.0  0.1422
  H  H269  1  0.181490  0.632120  0.500020  1.0  0.1384
  H  H270  1  0.298640  0.203140  0.245930  1.0  0.1358
  H  H271  1  0.719760  0.789460  0.758330  1.0  0.1345
  H  H272  1  0.318630  0.782680  0.036320  1.0  0.1456
  C  C273  1  0.110520  0.581790  0.678630  1.0  0.7081
  C  C274  1  0.064750  0.628710  0.668610  1.0  -0.0794
  C  C275  1  0.048250  0.637660  0.631710  1.0  -0.1083
  C  C276  1  0.005790  0.681800  0.622020  1.0  -0.1337
  C  C277  1  0.978720  0.718890  0.648950  1.0  0.027
  C  C278  1  0.993070  0.708230  0.686160  1.0  -0.1107
  C  C279  1  0.035610  0.663670  0.695890  1.0  -0.0624
  C  C280  1  0.826750  0.914440  0.593150  1.0  0.6613
  C  C281  1  0.956730  0.804950  0.606600  1.0  -0.1071
  C  C282  1  0.921170  0.852430  0.593930  1.0  -0.1161
  C  C283  1  0.866340  0.867730  0.611030  1.0  -0.1052
  C  C284  1  0.849710  0.835170  0.642920  1.0  -0.0908
  C  C285  1  0.886240  0.787350  0.656090  1.0  -0.1227
  C  C286  1  0.939700  0.770860  0.637410  1.0  0.0059
  C  C287  1  0.228780  0.599320  0.774200  1.0  0.6849
  C  C288  1  0.227560  0.653750  0.798540  1.0  -0.0934
  C  C289  1  0.276560  0.694120  0.798930  1.0  -0.099
  C  C290  1  0.277860  0.743300  0.823190  1.0  -0.0626
  C  C291  1  0.230610  0.753100  0.848490  1.0  0.0303
  C  C292  1  0.180520  0.713790  0.847250  1.0  -0.093
  C  C293  1  0.178820  0.665140  0.822400  1.0  -0.0814
  C  C294  1  0.235170  0.801590  0.877330  1.0  0.0272
  C  C295  1  0.183510  0.831780  0.890730  1.0  -0.1068
  C  C296  1  0.187760  0.873770  0.919780  1.0  -0.1004
  C  C297  1  0.243730  0.886130  0.936560  1.0  -0.129
  C  C298  1  0.295350  0.857100  0.922380  1.0  -0.0987
  C  C299  1  0.291340  0.816200  0.893100  1.0  -0.0936
  C  C300  1  0.250080  0.930480  0.967570  1.0  0.674
  C  C301  1  0.118560  0.413270  0.677780  1.0  0.7202
  C  C302  1  0.075110  0.363470  0.665630  1.0  -0.1274
  C  C303  1  0.073750  0.344270  0.628720  1.0  -0.0874
  C  C304  1  0.032790  0.299960  0.616190  1.0  -0.1017
  C  C305  1  0.990790  0.271010  0.639880  1.0  0.0026
  C  C306  1  0.991910  0.290920  0.677250  1.0  -0.0874
  C  C307  1  0.032740  0.336300  0.689740  1.0  -0.098
  C  C308  1  0.947100  0.221430  0.625460  1.0  -0.0032
  C  C309  1  0.951010  0.198410  0.588910  1.0  -0.0906
  C  C310  1  0.911380  0.153590  0.575340  1.0  -0.093
  C  C311  1  0.865840  0.128080  0.597460  1.0  -0.1282
  C  C312  1  0.861420  0.149910  0.633950  1.0  -0.0921
  C  C313  1  0.900630  0.195720  0.647530  1.0  -0.0852
  C  C314  1  0.825530  0.077690  0.582790  1.0  0.69
  C  C315  1  0.065610  0.456300  0.784240  1.0  0.3957
  C  C316  1  0.273830  0.641580  0.506920  1.0  -0.0559
  C  C317  1  0.889700  0.418560  0.178300  1.0  0.7048
  C  C318  1  0.935580  0.371560  0.168310  1.0  -0.0879
  C  C319  1  0.951910  0.362390  0.131380  1.0  -0.1031
  C  C320  1  0.994100  0.318010  0.121690  1.0  -0.1335
  C  C321  1  0.021120  0.280860  0.148570  1.0  0.029
  C  C322  1  0.006900  0.291560  0.185810  1.0  -0.1091
  C  C323  1  0.964590  0.336350  0.195580  1.0  -0.0636
  C  C324  1  0.173060  0.085190  0.092590  1.0  0.6695
  C  C325  1  0.042690  0.194560  0.106180  1.0  -0.1174
  C  C326  1  0.078330  0.147140  0.093450  1.0  -0.0957
  C  C327  1  0.133390  0.132030  0.110430  1.0  -0.1409
  C  C328  1  0.150130  0.164800  0.142160  1.0  -0.096
  C  C329  1  0.113590  0.212470  0.155420  1.0  -0.1204
  C  C330  1  0.059920  0.228800  0.136900  1.0  0.0066
  C  C331  1  0.772020  0.400680  0.274090  1.0  0.6683
  C  C332  1  0.772570  0.346220  0.298610  1.0  -0.0979
  C  C333  1  0.723430  0.305920  0.299160  1.0  -0.0949
  C  C334  1  0.722010  0.256880  0.323610  1.0  -0.1299
  C  C335  1  0.769320  0.247080  0.348900  1.0  0.0329
  C  C336  1  0.819490  0.286230  0.347480  1.0  -0.0941
  C  C337  1  0.821250  0.334800  0.322560  1.0  -0.0779
  C  C338  1  0.764800  0.198730  0.377910  1.0  0.0263
  C  C339  1  0.816370  0.168170  0.391150  1.0  -0.1293
  C  C340  1  0.812110  0.126390  0.420310  1.0  -0.1032
  C  C341  1  0.756180  0.114340  0.437260  1.0  -0.1341
  C  C342  1  0.704640  0.143770  0.423280  1.0  -0.0994
  C  C343  1  0.708700  0.184620  0.393960  1.0  -0.1028
  C  C344  1  0.749720  0.069600  0.468110  1.0  0.677
  C  C345  1  0.882060  0.586660  0.177920  1.0  0.7211
  C  C346  1  0.925540  0.636400  0.165860  1.0  -0.1272
  C  C347  1  0.926600  0.655790  0.129000  1.0  -0.0857
  C  C348  1  0.967360  0.700160  0.116450  1.0  -0.0888
  C  C349  1  0.009420  0.729120  0.140090  1.0  -0.0248
  C  C350  1  0.008510  0.709180  0.177470  1.0  -0.0906
  C  C351  1  0.967870  0.663610  0.189950  1.0  -0.0883
  C  C352  1  0.052890  0.778680  0.125500  1.0  0.0002
  C  C353  1  0.048670  0.801490  0.088930  1.0  -0.0917
  C  C354  1  0.088170  0.846190  0.075150  1.0  -0.0809
  C  C355  1  0.133970  0.871670  0.097100  1.0  -0.1298
  C  C356  1  0.138490  0.850260  0.133680  1.0  -0.0846
  C  C357  1  0.099390  0.804590  0.147460  1.0  -0.0825
  C  C358  1  0.174380  0.921800  0.082330  1.0  0.6922
  C  C359  1  0.933640  0.544450  0.284200  1.0  0.4006
  C  C360  1  0.725850  0.360150  0.009120  1.0  -0.0452
  C  C361  1  0.918860  0.610310  0.428440  1.0  0.7008
  C  C362  1  0.871770  0.564730  0.418420  1.0  -0.1042
  C  C363  1  0.862570  0.548500  0.381480  1.0  -0.0864
  C  C364  1  0.818290  0.506220  0.371770  1.0  -0.1431
  C  C365  1  0.781160  0.479230  0.398670  1.0  0.0238
  C  C366  1  0.791810  0.493510  0.435900  1.0  -0.1118
  C  C367  1  0.836500  0.535870  0.445670  1.0  -0.0635
  C  C368  1  0.585380  0.327400  0.343010  1.0  0.6704
  C  C369  1  0.694750  0.457690  0.356460  1.0  -0.1175
  C  C370  1  0.647050  0.422280  0.343900  1.0  -0.1029
  C  C371  1  0.632060  0.367230  0.360850  1.0  -0.1176
  C  C372  1  0.664960  0.350370  0.392490  1.0  -0.0948
  C  C373  1  0.712810  0.386760  0.405650  1.0  -0.1181
  C  C374  1  0.729140  0.440410  0.387110  1.0  0.0064
  C  C375  1  0.900780  0.727910  0.524020  1.0  0.6742
  C  C376  1  0.846310  0.727210  0.548460  1.0  -0.0984
  C  C377  1  0.805990  0.776240  0.548930  1.0  -0.1
  C  C378  1  0.756940  0.777680  0.573340  1.0  -0.0633
  C  C379  1  0.747200  0.730420  0.598690  1.0  0.0328
  C  C380  1  0.786380  0.680290  0.597370  1.0  -0.0986
  C  C381  1  0.834910  0.678480  0.572460  1.0  -0.0851
  C  C382  1  0.698830  0.735070  0.627650  1.0  0.031
  C  C383  1  0.668580  0.683430  0.641040  1.0  -0.1096
  C  C384  1  0.626730  0.687660  0.670150  1.0  -0.1034
  C  C385  1  0.614410  0.743610  0.686910  1.0  -0.1392
  C  C386  1  0.643490  0.795270  0.672740  1.0  -0.1146
  C  C387  1  0.684420  0.791240  0.643480  1.0  -0.1015
  C  C388  1  0.569800  0.750040  0.717790  1.0  0.672
  C  C389  1  0.087010  0.617820  0.427960  1.0  0.7206
  C  C390  1  0.136760  0.574480  0.415900  1.0  -0.1223
  C  C391  1  0.156220  0.573340  0.379050  1.0  -0.0838
  C  C392  1  0.200520  0.532400  0.366540  1.0  -0.0994
  C  C393  1  0.229330  0.490290  0.390220  1.0  -0.0072
  C  C394  1  0.209290  0.491370  0.427580  1.0  -0.0886
  C  C395  1  0.163830  0.532200  0.440030  1.0  -0.0996
  C  C396  1  0.278840  0.446630  0.375730  1.0  -0.003
  C  C397  1  0.301620  0.450710  0.339140  1.0  -0.0905
  C  C398  1  0.346300  0.411240  0.325360  1.0  -0.0849
  C  C399  1  0.371990  0.365630  0.347310  1.0  -0.1317
  C  C400  1  0.350500  0.360950  0.383850  1.0  -0.0851
  C  C401  1  0.304760  0.400040  0.397690  1.0  -0.0903
  C  C402  1  0.422340  0.325560  0.332470  1.0  0.6873
  C  C403  1  0.044390  0.565960  0.534330  1.0  0.3986
  C  C404  1  0.861400  0.776730  0.258540  1.0  -0.0362
  C  C405  1  0.082420  0.389350  0.927920  1.0  0.7054
  C  C406  1  0.129200  0.435480  0.918040  1.0  -0.0886
  C  C407  1  0.138230  0.452230  0.881160  1.0  -0.1023
  C  C408  1  0.182330  0.494790  0.871620  1.0  -0.1344
  C  C409  1  0.219320  0.521750  0.898620  1.0  0.0262
  C  C410  1  0.208620  0.507260  0.935800  1.0  -0.1092
  C  C411  1  0.164100  0.464610  0.945400  1.0  -0.0617
  C  C412  1  0.415110  0.673580  0.842900  1.0  0.6699
  C  C413  1  0.305740  0.543250  0.856460  1.0  -0.1045
  C  C414  1  0.353280  0.578790  0.843850  1.0  -0.1134
  C  C415  1  0.368290  0.633940  0.860790  1.0  -0.1115
  C  C416  1  0.335450  0.650770  0.892460  1.0  -0.0935
  C  C417  1  0.287760  0.614180  0.905690  1.0  -0.1194
  C  C418  1  0.271440  0.560540  0.887110  1.0  0.0116
  C  C419  1  0.099710  0.271050  0.024140  1.0  0.6748
  C  C420  1  0.154060  0.271870  0.048800  1.0  -0.0997
  C  C421  1  0.194580  0.222910  0.049320  1.0  -0.0918
  C  C422  1  0.243590  0.221630  0.073790  1.0  -0.1221
  C  C423  1  0.253220  0.268910  0.099100  1.0  0.0342
  C  C424  1  0.214000  0.319030  0.097690  1.0  -0.102
  C  C425  1  0.165330  0.320550  0.072800  1.0  -0.0821
  C  C426  1  0.301340  0.264260  0.128190  1.0  0.0299
  C  C427  1  0.332230  0.315740  0.141210  1.0  -0.1064
  C  C428  1  0.373890  0.311520  0.170410  1.0  -0.1075
  C  C429  1  0.385470  0.255710  0.187610  1.0  -0.1362
  C  C430  1  0.355650  0.204170  0.173890  1.0  -0.0858
  C  C431  1  0.314870  0.208230  0.144510  1.0  -0.098
  C  C432  1  0.430250  0.249400  0.218340  1.0  0.6876
  C  C433  1  0.913920  0.381710  0.927880  1.0  0.7083
  C  C434  1  0.863890  0.424840  0.915820  1.0  -0.1258
  C  C435  1  0.844500  0.425950  0.878930  1.0  -0.0885
  C  C436  1  0.800130  0.466800  0.866370  1.0  -0.0891
  C  C437  1  0.771180  0.508830  0.890050  1.0  0.0211
  C  C438  1  0.791030  0.507690  0.927430  1.0  -0.0979
  C  C439  1  0.836480  0.466930  0.939940  1.0  -0.0958
  C  C440  1  0.721580  0.552450  0.875610  1.0  0.0005
  C  C441  1  0.698630  0.548440  0.839050  1.0  -0.1012
  C  C442  1  0.653870  0.588060  0.825420  1.0  -0.0866
  C  C443  1  0.628500  0.633790  0.847400  1.0  -0.1286
  C  C444  1  0.650040  0.638130  0.884010  1.0  -0.0777
  C  C445  1  0.695740  0.598890  0.897660  1.0  -0.0867
  C  C446  1  0.578430  0.674430  0.832600  1.0  0.6901
  C  C447  1  0.959480  0.435090  0.034290  1.0  0.3794
  C  C448  1  0.141630  0.226110  0.758600  1.0  -0.0306
  C  C449  1  0.389530  0.081690  0.071450  1.0  0.6939
  C  C450  1  0.435530  0.128580  0.081390  1.0  -0.0979
  C  C451  1  0.452200  0.137710  0.118270  1.0  -0.0903
  C  C452  1  0.494680  0.181920  0.127820  1.0  -0.1348
  C  C453  1  0.521620  0.218990  0.100840  1.0  0.0266
  C  C454  1  0.507090  0.208230  0.063650  1.0  -0.1109
  C  C455  1  0.464500  0.163620  0.054040  1.0  -0.0625
  C  C456  1  0.673510  0.414970  0.156550  1.0  0.664
  C  C457  1  0.543840  0.304890  0.143380  1.0  -0.1106
  C  C458  1  0.579450  0.352360  0.155990  1.0  -0.1141
  C  C459  1  0.634030  0.368070  0.138640  1.0  -0.1204
  C  C460  1  0.650300  0.335830  0.106590  1.0  -0.0987
  C  C461  1  0.613670  0.288060  0.093450  1.0  -0.1235
  C  C462  1  0.560540  0.271100  0.112380  1.0  0.0088
  C  C463  1  0.271770  0.099880  0.975980  1.0  0.6766
  C  C464  1  0.272440  0.154230  0.951480  1.0  -0.0987
  C  C465  1  0.223140  0.194320  0.950730  1.0  -0.0985
  C  C466  1  0.221640  0.243090  0.926110  1.0  -0.1314
  C  C467  1  0.269000  0.252780  0.900890  1.0  0.0367
  C  C468  1  0.319310  0.213860  0.902460  1.0  -0.0965
  C  C469  1  0.321150  0.165530  0.927520  1.0  -0.0807
  C  C470  1  0.264480  0.300850  0.871820  1.0  0.0336
  C  C471  1  0.315940  0.332110  0.859090  1.0  -0.1083
  C  C472  1  0.311850  0.373770  0.829870  1.0  -0.1036
  C  C473  1  0.256080  0.385210  0.812540  1.0  -0.1439
  C  C474  1  0.204610  0.355130  0.826080  1.0  -0.0903
  C  C475  1  0.208590  0.314060  0.855250  1.0  -0.1013
  C  C476  1  0.249640  0.429900  0.781720  1.0  0.6899
  C  C477  1  0.382590  0.914270  0.072270  1.0  0.7155
  C  C478  1  0.426400  0.864830  0.084490  1.0  -0.1279
  C  C479  1  0.426550  0.844480  0.121180  1.0  -0.0921
  C  C480  1  0.467110  0.799840  0.133720  1.0  -0.0936
  C  C481  1  0.509800  0.771510  0.110220  1.0  -0.0385
  C  C482  1  0.509950  0.792580  0.073080  1.0  -0.0939
  C  C483  1  0.469790  0.838610  0.060680  1.0  -0.1046
  C  C484  1  0.553020  0.721600  0.124660  1.0  0.0932
  C  C485  1  0.548810  0.698530  0.161190  1.0  -0.0909
  C  C486  1  0.588330  0.653670  0.174810  1.0  -0.0845
  C  C487  1  0.634110  0.628370  0.152760  1.0  -0.1287
  C  C488  1  0.638440  0.649890  0.116210  1.0  -0.0827
  C  C489  1  0.599340  0.695640  0.102580  1.0  -0.0919
  C  C490  1  0.674740  0.578340  0.167420  1.0  0.6838
  C  C491  1  0.433900  0.955300  0.965750  1.0  0.3742
  C  C492  1  0.228590  0.141600  0.244840  1.0  -0.0303
  C  C493  1  0.610430  0.917780  0.571250  1.0  0.7033
  C  C494  1  0.564370  0.871150  0.581280  1.0  -0.0914
  C  C495  1  0.547390  0.862690  0.618150  1.0  -0.091
  C  C496  1  0.505020  0.818490  0.627890  1.0  -0.1362
  C  C497  1  0.478350  0.781040  0.601010  1.0  0.0263
  C  C498  1  0.492800  0.791520  0.563790  1.0  -0.1102
  C  C499  1  0.535350  0.836020  0.554040  1.0  -0.0614
  C  C500  1  0.327010  0.584890  0.656780  1.0  0.6602
  C  C501  1  0.456730  0.695010  0.643440  1.0  -0.1083
  C  C502  1  0.421320  0.647380  0.656090  1.0  -0.0979
  C  C503  1  0.366650  0.631680  0.638910  1.0  -0.1166
  C  C504  1  0.350090  0.664060  0.606940  1.0  -0.1028
  C  C505  1  0.386370  0.712090  0.593800  1.0  -0.132
  C  C506  1  0.439630  0.728910  0.612570  1.0  0.0058
  C  C507  1  0.728130  0.900060  0.476090  1.0  0.6642
  C  C508  1  0.727400  0.845790  0.451530  1.0  -0.0955
  C  C509  1  0.776680  0.805680  0.450720  1.0  -0.1014
  C  C510  1  0.778140  0.756940  0.426060  1.0  -0.0636
  C  C511  1  0.730750  0.747310  0.400830  1.0  0.0381
  C  C512  1  0.680500  0.786340  0.402440  1.0  -0.0978
  C  C513  1  0.678750  0.834630  0.427550  1.0  -0.0825
  C  C514  1  0.735300  0.699360  0.371680  1.0  0.0253
  C  C515  1  0.683850  0.668030  0.358980  1.0  -0.107
  C  C516  1  0.687930  0.626390  0.329740  1.0  -0.1001
  C  C517  1  0.743560  0.615140  0.312250  1.0  -0.1187
  C  C518  1  0.795060  0.645320  0.325740  1.0  -0.1098
  C  C519  1  0.791130  0.686210  0.355060  1.0  -0.0932
  C  C520  1  0.749820  0.570270  0.281490  1.0  0.68
  C  C521  1  0.617060  0.085170  0.572620  1.0  0.7131
  C  C522  1  0.573100  0.134390  0.584960  1.0  -0.1086
  C  C523  1  0.572910  0.154770  0.621650  1.0  -0.0978
  C  C524  1  0.532520  0.199660  0.634080  1.0  -0.1009
  C  C525  1  0.489900  0.227980  0.610500  1.0  0.0037
  C  C526  1  0.489800  0.206790  0.573400  1.0  -0.0942
  C  C527  1  0.529950  0.160730  0.561060  1.0  -0.089
  C  C528  1  0.446800  0.278150  0.624760  1.0  -0.0109
  C  C529  1  0.451020  0.301380  0.661250  1.0  -0.0907
  C  C530  1  0.411660  0.346360  0.674780  1.0  -0.0937
  C  C531  1  0.366170  0.371880  0.652620  1.0  -0.1338
  C  C532  1  0.361610  0.350080  0.616160  1.0  -0.0863
  C  C533  1  0.400580  0.304140  0.602610  1.0  -0.0929
  C  C534  1  0.326180  0.422330  0.667370  1.0  0.7015
  C  C535  1  0.565590  0.043770  0.465640  1.0  0.3843
  C  C536  1  0.772560  0.862170  0.742520  1.0  -0.0528
  C  C537  1  0.582470  0.110690  0.321930  1.0  0.6968
  C  C538  1  0.629160  0.064460  0.331740  1.0  -0.0837
  C  C539  1  0.638030  0.047280  0.368550  1.0  -0.1064
  C  C540  1  0.682120  0.004630  0.377960  1.0  -0.1342
  C  C541  1  0.719180  0.977930  0.350890  1.0  0.0268
  C  C542  1  0.708450  0.992710  0.313750  1.0  -0.1118
  C  C543  1  0.664030  0.035540  0.304290  1.0  -0.0614
  C  C544  1  0.915310  0.826170  0.406420  1.0  0.6687
  C  C545  1  0.805180  0.955960  0.393250  1.0  -0.1031
  C  C546  1  0.852680  0.920390  0.405840  1.0  -0.1221
  C  C547  1  0.868420  0.865760  0.388510  1.0  -0.1148
  C  C548  1  0.836220  0.849520  0.356440  1.0  -0.0938
  C  C549  1  0.788370  0.886050  0.343340  1.0  -0.1146
  C  C550  1  0.771390  0.939140  0.362310  1.0  0.0081
  C  C551  1  0.599960  0.228810  0.225800  1.0  0.6762
  C  C552  1  0.654280  0.228040  0.201120  1.0  -0.1026
  C  C553  1  0.694660  0.277100  0.200450  1.0  -0.0929
  C  C554  1  0.743500  0.278440  0.175860  1.0  -0.125
  C  C555  1  0.753080  0.231090  0.150580  1.0  0.0361
  C  C556  1  0.714010  0.180880  0.152150  1.0  -0.0991
  C  C557  1  0.665500  0.179300  0.177140  1.0  -0.079
  C  C558  1  0.801010  0.235680  0.121380  1.0  0.0304
  C  C559  1  0.832160  0.184240  0.108530  1.0  -0.1102
  C  C560  1  0.873700  0.188390  0.079260  1.0  -0.1009
  C  C561  1  0.885070  0.244150  0.061930  1.0  -0.1286
  C  C562  1  0.855010  0.295640  0.075480  1.0  -0.0863
  C  C563  1  0.814160  0.291600  0.104810  1.0  -0.073
  C  C564  1  0.930080  0.250420  0.031290  1.0  0.6836
  C  C565  1  0.414630  0.117870  0.322320  1.0  0.7073
  C  C566  1  0.364770  0.074550  0.334490  1.0  -0.1226
  C  C567  1  0.344820  0.073950  0.371280  1.0  -0.0944
  C  C568  1  0.300240  0.033260  0.383790  1.0  -0.087
  C  C569  1  0.271610  0.990940  0.360140  1.0  0.0191
  C  C570  1  0.292070  0.991550  0.322900  1.0  -0.095
  C  C571  1  0.337860  0.031940  0.310480  1.0  -0.1107
  C  C572  1  0.221760  0.947490  0.374450  1.0  0.0849
  C  C573  1  0.198620  0.951480  0.410960  1.0  -0.0949
  C  C574  1  0.153720  0.911900  0.424460  1.0  -0.0863
  C  C575  1  0.128430  0.866250  0.402400  1.0  -0.125
  C  C576  1  0.150080  0.861990  0.365820  1.0  -0.0831
  C  C577  1  0.195900  0.901180  0.352300  1.0  -0.0879
  C  C578  1  0.078400  0.825540  0.417120  1.0  0.6852
  C  C579  1  0.459390  0.064820  0.215550  1.0  0.3878
  C  C580  1  0.638370  0.271410  0.493830  1.0  -0.0233
  C  C581  1  0.418990  0.889890  0.821290  1.0  0.6971
  C  C582  1  0.372090  0.935770  0.831200  1.0  -0.0871
  C  C583  1  0.363330  0.952770  0.868040  1.0  -0.1036
  C  C584  1  0.318900  0.995010  0.877640  1.0  -0.1432
  C  C585  1  0.281430  0.021440  0.850690  1.0  0.0271
  C  C586  1  0.291970  0.006730  0.813510  1.0  -0.1124
  C  C587  1  0.336620  0.964210  0.803880  1.0  -0.0614
  C  C588  1  0.085200  0.173040  0.906270  1.0  0.6692
  C  C589  1  0.195340  0.043360  0.893100  1.0  -0.1093
  C  C590  1  0.147590  0.078710  0.905630  1.0  -0.1164
  C  C591  1  0.131890  0.133290  0.888360  1.0  -0.1292
  C  C592  1  0.164110  0.149600  0.856280  1.0  -0.1039
  C  C593  1  0.212150  0.113240  0.843220  1.0  -0.1281
  C  C594  1  0.229230  0.060200  0.862170  1.0  0.0102
  C  C595  1  0.400380  0.771810  0.725860  1.0  0.663
  C  C596  1  0.345880  0.772540  0.701420  1.0  -0.1052
  C  C597  1  0.305660  0.723430  0.700780  1.0  -0.1017
  C  C598  1  0.256790  0.721970  0.676220  1.0  -0.0644
  C  C599  1  0.247120  0.769310  0.650950  1.0  0.0342
  C  C600  1  0.286100  0.819580  0.652460  1.0  -0.1048
  C  C601  1  0.334500  0.821360  0.677480  1.0  -0.0891
  C  C602  1  0.199010  0.764630  0.621860  1.0  0.0259
  C  C603  1  0.167870  0.816090  0.609010  1.0  -0.1071
  C  C604  1  0.126200  0.811950  0.579790  1.0  -0.099
  C  C605  1  0.114770  0.756270  0.562490  1.0  -0.1364
  C  C606  1  0.144730  0.704690  0.576160  1.0  -0.1107
  C  C607  1  0.185670  0.708670  0.605430  1.0  -0.089
  C  C608  1  0.070080  0.749880  0.531620  1.0  0.6864
  C  C609  1  0.586560  0.882250  0.821990  1.0  0.72
  C  C610  1  0.636180  0.925770  0.834140  1.0  -0.0735
  C  C611  1  0.655760  0.926790  0.870990  1.0  -0.0925
  C  C612  1  0.700210  0.967630  0.883480  1.0  -0.0989
  C  C613  1  0.728980  0.009760  0.859810  1.0  -0.0006
  C  C614  1  0.708790  0.008830  0.822480  1.0  -0.0955
  C  C615  1  0.663230  0.968110  0.810040  1.0  -0.0912
  C  C616  1  0.778610  0.053360  0.874240  1.0  0.0856
  C  C617  1  0.801490  0.049330  0.910800  1.0  -0.0933
  C  C618  1  0.846240  0.088830  0.924520  1.0  -0.0936
  C  C619  1  0.871840  0.134430  0.902510  1.0  -0.1295
  C  C620  1  0.850280  0.139000  0.865980  1.0  -0.0946
  C  C621  1  0.804510  0.099890  0.852230  1.0  -0.0882
  C  C622  1  0.922250  0.174500  0.917270  1.0  0.6899
  C  C623  1  0.544460  0.934140  0.715560  1.0  0.3916
  C  C624  1  0.357860  0.728800  0.996360  1.0  -0.0352
  C  C625  1  0.921870  0.921970  0.499760  1.0  0.5176
  C  C626  1  0.077790  0.077430  0.999640  1.0  0.518
  C  C627  1  0.577600  0.422160  0.249690  1.0  0.5203
  C  C628  1  0.421970  0.577530  0.749790  1.0  0.5255
  N  N629  1  0.215450  0.662940  0.493100  1.0  -0.4661
  N  N630  1  0.781360  0.336290  0.992700  1.0  -0.4463
  N  N631  1  0.842360  0.718690  0.243120  1.0  -0.4909
  N  N632  1  0.168580  0.281360  0.743910  1.0  -0.4648
  N  N633  1  0.281880  0.168030  0.262250  1.0  -0.4666
  N  N634  1  0.717730  0.836660  0.758840  1.0  -0.4848
  N  N635  1  0.659580  0.216990  0.512470  1.0  -0.4579
  N  N636  1  0.337740  0.787500  0.010150  1.0  -0.4393
  O  O637  1  0.303600  0.943360  0.978040  1.0  -0.6046
  O  O638  1  0.203150  0.954560  0.982170  1.0  -0.6072
  O  O639  1  0.180530  0.567940  0.770790  1.0  -0.6151
  O  O640  1  0.277960  0.585590  0.757780  1.0  -0.5956
  O  O641  1  0.149700  0.564490  0.654650  1.0  -0.6262
  O  O642  1  0.108460  0.560120  0.711180  1.0  -0.6053
  O  O643  1  0.779550  0.934890  0.609490  1.0  -0.616
  O  O644  1  0.841670  0.931150  0.560700  1.0  -0.6005
  O  O645  1  0.156050  0.435410  0.654230  1.0  -0.6175
  O  O646  1  0.116060  0.433130  0.710940  1.0  -0.6139
  O  O647  1  0.778550  0.061650  0.601320  1.0  -0.6139
  O  O648  1  0.840160  0.051630  0.552330  1.0  -0.6108
  O  O649  1  0.884690  0.961240  0.494400  1.0  -0.583
  O  O650  1  0.087100  0.501670  0.771940  1.0  -0.5874
  O  O651  1  0.044220  0.411030  0.796620  1.0  -0.3748
  O  O652  1  0.226090  0.517590  0.706820  1.0  -0.8053
  O  O653  1  0.202650  0.508970  0.600130  1.0  -0.6224
  O  O654  1  0.696090  0.057030  0.478560  1.0  -0.5916
  O  O655  1  0.796560  0.044930  0.482560  1.0  -0.6093
  O  O656  1  0.820160  0.432280  0.271060  1.0  -0.6066
  O  O657  1  0.722700  0.414160  0.257280  1.0  -0.5906
  O  O658  1  0.851200  0.436520  0.154090  1.0  -0.615
  O  O659  1  0.890890  0.439580  0.211040  1.0  -0.6078
  O  O660  1  0.220610  0.065190  0.108840  1.0  -0.6249
  O  O661  1  0.157860  0.067990  0.060280  1.0  -0.5988
  O  O662  1  0.844960  0.564450  0.154240  1.0  -0.6104
  O  O663  1  0.883980  0.566930  0.211100  1.0  -0.6244
  O  O664  1  0.221400  0.937740  0.100830  1.0  -0.6253
  O  O665  1  0.159590  0.947880  0.051890  1.0  -0.615
  O  O666  1  0.114890  0.038110  0.994150  1.0  -0.5827
  O  O667  1  0.912510  0.498870  0.271900  1.0  -0.5867
  O  O668  1  0.954620  0.589930  0.296530  1.0  -0.3957
  O  O669  1  0.773060  0.482900  0.206810  1.0  -0.8033
  O  O670  1  0.792990  0.492660  0.099690  1.0  -0.6023
  O  O671  1  0.556710  0.803580  0.728040  1.0  -0.601
  O  O672  1  0.545750  0.703100  0.732450  1.0  -0.6103
  O  O673  1  0.932470  0.679910  0.521060  1.0  -0.6071
  O  O674  1  0.914150  0.777030  0.507160  1.0  -0.6006
  O  O675  1  0.937100  0.648720  0.404230  1.0  -0.6245
  O  O676  1  0.939610  0.609000  0.461260  1.0  -0.609
  O  O677  1  0.566280  0.279330  0.359070  1.0  -0.6119
  O  O678  1  0.567520  0.342830  0.310850  1.0  -0.5997
  O  O679  1  0.064900  0.655000  0.404330  1.0  -0.629
  O  O680  1  0.067140  0.615740  0.461110  1.0  -0.6243
  O  O681  1  0.438770  0.278820  0.351040  1.0  -0.6331
  O  O682  1  0.448090  0.340290  0.301960  1.0  -0.6118
  O  O683  1  0.538330  0.385010  0.244190  1.0  -0.583
  O  O684  1  0.998840  0.587150  0.521870  1.0  -0.5893
  O  O685  1  0.089730  0.544890  0.546830  1.0  -0.4004
  O  O686  1  0.983290  0.726400  0.456810  1.0  -0.8081
  O  O687  1  0.993910  0.704460  0.349910  1.0  -0.607
  O  O688  1  0.443100  0.195890  0.228820  1.0  -0.5935
  O  O689  1  0.454820  0.296420  0.232550  1.0  -0.6141
  O  O690  1  0.067590  0.318900  0.021350  1.0  -0.6107
  O  O691  1  0.086720  0.222230  0.006940  1.0  -0.5981
  O  O692  1  0.064560  0.350940  0.903650  1.0  -0.6164
  O  O693  1  0.061370  0.390360  0.960650  1.0  -0.609
  O  O694  1  0.435350  0.721100  0.859100  1.0  -0.6238
  O  O695  1  0.432100  0.658240  0.810550  1.0  -0.5956
  O  O696  1  0.936680  0.345040  0.904110  1.0  -0.6152
  O  O697  1  0.933390  0.383670  0.961130  1.0  -0.6133
  O  O698  1  0.562830  0.721680  0.850870  1.0  -0.6145
  O  O699  1  0.552080  0.659550  0.802230  1.0  -0.6135
  O  O700  1  0.461630  0.614220  0.744570  1.0  -0.581
  O  O701  1  0.003980  0.413180  0.021140  1.0  -0.5852
  O  O702  1  0.915110  0.456950  0.047540  1.0  -0.4237
  O  O703  1  0.017020  0.273150  0.956510  1.0  -0.8036
  O  O704  1  0.003580  0.293040  0.849160  1.0  -0.6171
  O  O705  1  0.196050  0.442570  0.771270  1.0  -0.5881
  O  O706  1  0.296470  0.454490  0.767260  1.0  -0.6078
  O  O707  1  0.320190  0.068800  0.979370  1.0  -0.6122
  O  O708  1  0.222500  0.085840  0.992370  1.0  -0.608
  O  O709  1  0.350820  0.063970  0.095610  1.0  -0.6169
  O  O710  1  0.390900  0.060510  0.038750  1.0  -0.6062
  O  O711  1  0.721010  0.435300  0.140390  1.0  -0.6301
  O  O712  1  0.658110  0.431840  0.188860  1.0  -0.599
  O  O713  1  0.345270  0.936390  0.095860  1.0  -0.6131
  O  O714  1  0.384270  0.933630  0.038990  1.0  -0.6166
  O  O715  1  0.721660  0.562420  0.148720  1.0  -0.6315
  O  O716  1  0.660040  0.552250  0.197870  1.0  -0.62
  O  O717  1  0.614690  0.461460  0.255220  1.0  -0.5744
  O  O718  1  0.412770  0.000980  0.977940  1.0  -0.5831
  O  O719  1  0.454880  0.909750  0.953510  1.0  -0.4113
  O  O720  1  0.273150  0.016350  0.042830  1.0  -0.7986
  O  O721  1  0.291830  0.007870  0.150000  1.0  -0.606
  O  O722  1  0.803350  0.557450  0.271060  1.0  -0.5882
  O  O723  1  0.702930  0.545470  0.267140  1.0  -0.6069
  O  O724  1  0.679830  0.931420  0.479330  1.0  -0.6139
  O  O725  1  0.777200  0.913780  0.492680  1.0  -0.6052
  O  O726  1  0.649720  0.934820  0.595210  1.0  -0.6267
  O  O727  1  0.608440  0.939540  0.538720  1.0  -0.6037
  O  O728  1  0.279780  0.564620  0.640380  1.0  -0.6149
  O  O729  1  0.341760  0.568130  0.689230  1.0  -0.6014
  O  O730  1  0.654600  0.063080  0.596140  1.0  -0.6228
  O  O731  1  0.615240  0.066020  0.539280  1.0  -0.6129
  O  O732  1  0.279090  0.438300  0.648830  1.0  -0.6199
  O  O733  1  0.340740  0.448350  0.697740  1.0  -0.6216
  O  O734  1  0.384720  0.538450  0.755190  1.0  -0.589
  O  O735  1  0.587160  0.998350  0.477810  1.0  -0.593
  O  O736  1  0.544160  0.089140  0.453410  1.0  -0.3797
  O  O737  1  0.726340  0.983190  0.543070  1.0  -0.8006
  O  O738  1  0.702990  0.990990  0.649900  1.0  -0.6228
  O  O739  1  0.942890  0.303960  0.020850  1.0  -0.5878
  O  O740  1  0.954940  0.203450  0.017080  1.0  -0.6118
  O  O741  1  0.568210  0.180760  0.228860  1.0  -0.6079
  O  O742  1  0.586690  0.277710  0.242790  1.0  -0.5973
  O  O743  1  0.564800  0.149220  0.346180  1.0  -0.6154
  O  O744  1  0.561330  0.109630  0.289230  1.0  -0.607
  O  O745  1  0.935800  0.778750  0.390200  1.0  -0.6319
  O  O746  1  0.932060  0.841440  0.438820  1.0  -0.6015
  O  O747  1  0.437280  0.154800  0.346010  1.0  -0.6205
  O  O748  1  0.433900  0.115990  0.289020  1.0  -0.6062
  O  O749  1  0.062930  0.778300  0.398810  1.0  -0.6106
  O  O750  1  0.051940  0.840350  0.447450  1.0  -0.6139
  O  O751  1  0.961270  0.884900  0.505220  1.0  -0.5826
  O  O752  1  0.503930  0.086880  0.228570  1.0  -0.5812
  O  O753  1  0.415020  0.042790  0.202400  1.0  -0.4162
  O  O754  1  0.516800  0.226990  0.293160  1.0  -0.784
  O  O755  1  0.504310  0.208280  0.400650  1.0  -0.6108
  O  O756  1  0.057260  0.696340  0.521280  1.0  -0.5902
  O  O757  1  0.045630  0.796750  0.517100  1.0  -0.6127
  O  O758  1  0.431640  0.820050  0.729160  1.0  -0.616
  O  O759  1  0.414260  0.722480  0.742330  1.0  -0.6059
  O  O760  1  0.436970  0.851350  0.845500  1.0  -0.619
  O  O761  1  0.439830  0.891100  0.788500  1.0  -0.6098
  O  O762  1  0.065730  0.220920  0.890220  1.0  -0.6164
  O  O763  1  0.067790  0.157670  0.938500  1.0  -0.6028
  O  O764  1  0.564240  0.845240  0.845650  1.0  -0.6277
  O  O765  1  0.567110  0.883940  0.788730  1.0  -0.6169
  O  O766  1  0.938530  0.221340  0.898700  1.0  -0.6296
  O  O767  1  0.948080  0.159760  0.947760  1.0  -0.6242
  O  O768  1  0.038550  0.114630  0.005050  1.0  -0.5839
  O  O769  1  0.498880  0.912780  0.727860  1.0  -0.5885
  O  O770  1  0.589840  0.955350  0.703210  1.0  -0.3888
  O  O771  1  0.483480  0.773310  0.792770  1.0  -0.8059
  O  O772  1  0.493180  0.794040  0.899800  1.0  -0.6164
