# generated using pymatgen
data_Na13(C2N)60
_symmetry_space_group_name_H-M   'P 1'
_cell_length_a   31.25100000
_cell_length_b   31.25100000
_cell_length_c   31.25100000
_cell_angle_alpha   90.00000000
_cell_angle_beta   90.00000000
_cell_angle_gamma   90.00000000
_symmetry_Int_Tables_number   1
_chemical_formula_structural   Na13(C2N)60
_chemical_formula_sum   'Na52 C480 N240'
_cell_volume   30520.50790625
_cell_formula_units_Z   4
loop_
 _symmetry_equiv_pos_site_id
 _symmetry_equiv_pos_as_xyz
  1  'x, y, z'
loop_
 _atom_site_type_symbol
 _atom_site_label
 _atom_site_symmetry_multiplicity
 _atom_site_fract_x
 _atom_site_fract_y
 _atom_site_fract_z
 _atom_site_occupancy
 _atom_site_charge
  Na  Na1  1  0.314340  0.685660  0.314340  1.0  0.8834
  Na  Na2  1  0.685660  0.314340  0.314340  1.0  0.8824
  Na  Na3  1  0.685660  0.685660  0.685660  1.0  0.883
  Na  Na4  1  0.314340  0.314340  0.685660  1.0  0.8826
  Na  Na5  1  0.185660  0.814340  0.185660  1.0  0.8823
  Na  Na6  1  0.814340  0.185660  0.185660  1.0  0.8832
  Na  Na7  1  0.185660  0.185660  0.814340  1.0  0.883
  Na  Na8  1  0.814340  0.814340  0.814340  1.0  0.8828
  Na  Na9  1  0.685660  0.314340  0.685660  1.0  0.8823
  Na  Na10  1  0.314340  0.685660  0.685660  1.0  0.8832
  Na  Na11  1  0.314340  0.314340  0.314340  1.0  0.8828
  Na  Na12  1  0.685660  0.685660  0.314340  1.0  0.883
  Na  Na13  1  0.814340  0.185660  0.814340  1.0  0.8834
  Na  Na14  1  0.185660  0.814340  0.814340  1.0  0.8824
  Na  Na15  1  0.814340  0.814340  0.185660  1.0  0.8826
  Na  Na16  1  0.185660  0.185660  0.185660  1.0  0.883
  Na  Na17  1  0.379660  0.804590  0.500000  1.0  0.9163
  Na  Na18  1  0.620340  0.195410  0.500000  1.0  0.9162
  Na  Na19  1  0.620340  0.804590  0.500000  1.0  0.9159
  Na  Na20  1  0.379660  0.195410  0.500000  1.0  0.9165
  Na  Na21  1  0.500000  0.379660  0.804590  1.0  0.9163
  Na  Na22  1  0.500000  0.620340  0.195410  1.0  0.916
  Na  Na23  1  0.500000  0.620340  0.804590  1.0  0.9172
  Na  Na24  1  0.500000  0.379660  0.195410  1.0  0.9152
  Na  Na25  1  0.804590  0.500000  0.379660  1.0  0.9171
  Na  Na26  1  0.195410  0.500000  0.620340  1.0  0.9152
  Na  Na27  1  0.804590  0.500000  0.620340  1.0  0.9157
  Na  Na28  1  0.195410  0.500000  0.379660  1.0  0.9167
  Na  Na29  1  0.304590  0.879660  0.000000  1.0  0.9158
  Na  Na30  1  0.695410  0.120340  0.000000  1.0  0.9165
  Na  Na31  1  0.304590  0.120340  0.000000  1.0  0.9168
  Na  Na32  1  0.695410  0.879660  0.000000  1.0  0.9156
  Na  Na33  1  0.879660  0.000000  0.695410  1.0  0.916
  Na  Na34  1  0.120340  0.000000  0.304590  1.0  0.9165
  Na  Na35  1  0.120340  0.000000  0.695410  1.0  0.9157
  Na  Na36  1  0.879660  0.000000  0.304590  1.0  0.9172
  Na  Na37  1  0.000000  0.304590  0.120340  1.0  0.9153
  Na  Na38  1  0.000000  0.695410  0.879660  1.0  0.917
  Na  Na39  1  0.000000  0.304590  0.879660  1.0  0.9169
  Na  Na40  1  0.000000  0.695410  0.120340  1.0  0.9157
  Na  Na41  1  0.230540  0.000000  0.500000  1.0  0.8925
  Na  Na42  1  0.769460  0.000000  0.500000  1.0  0.8634
  Na  Na43  1  0.500000  0.230540  0.000000  1.0  0.866
  Na  Na44  1  0.500000  0.769460  0.000000  1.0  0.8651
  Na  Na45  1  0.000000  0.500000  0.230540  1.0  0.85
  Na  Na46  1  0.000000  0.500000  0.769460  1.0  0.8615
  Na  Na47  1  0.500000  0.730540  0.000000  1.0  0.866
  Na  Na48  1  0.500000  0.269460  0.000000  1.0  0.8651
  Na  Na49  1  0.730540  0.000000  0.500000  1.0  0.8925
  Na  Na50  1  0.269460  0.000000  0.500000  1.0  0.8634
  Na  Na51  1  0.000000  0.500000  0.269460  1.0  0.8615
  Na  Na52  1  0.000000  0.500000  0.730540  1.0  0.85
  C  C53  1  0.344150  0.579350  0.291330  1.0  0.2818
  C  C54  1  0.421400  0.549060  0.237940  1.0  0.208
  C  C55  1  0.283770  0.791080  0.340190  1.0  0.2882
  C  C56  1  0.306180  0.841840  0.421370  1.0  0.2147
  C  C57  1  0.355950  0.536210  0.282730  1.0  -0.011
  C  C58  1  0.391080  0.522260  0.259010  1.0  0.0337
  C  C59  1  0.265770  0.830560  0.352800  1.0  0.0147
  C  C60  1  0.275630  0.853590  0.389930  1.0  -0.0016
  C  C61  1  0.655850  0.420650  0.291330  1.0  0.2826
  C  C62  1  0.578600  0.450940  0.237940  1.0  0.209
  C  C63  1  0.716230  0.208920  0.340190  1.0  0.2883
  C  C64  1  0.693820  0.158160  0.421370  1.0  0.2146
  C  C65  1  0.644050  0.463790  0.282730  1.0  -0.0102
  C  C66  1  0.608920  0.477740  0.259010  1.0  0.0331
  C  C67  1  0.734230  0.169440  0.352800  1.0  0.0141
  C  C68  1  0.724370  0.146410  0.389930  1.0  -0.0032
  C  C69  1  0.655850  0.579350  0.708670  1.0  0.2814
  C  C70  1  0.578600  0.549060  0.762060  1.0  0.2135
  C  C71  1  0.716230  0.791080  0.659810  1.0  0.2889
  C  C72  1  0.693820  0.841840  0.578630  1.0  0.2142
  C  C73  1  0.644050  0.536210  0.717270  1.0  -0.0117
  C  C74  1  0.608920  0.522260  0.740990  1.0  0.079
  C  C75  1  0.734230  0.830560  0.647200  1.0  0.0151
  C  C76  1  0.724370  0.853590  0.610070  1.0  -0.0016
  C  C77  1  0.344150  0.420650  0.708670  1.0  0.2824
  C  C78  1  0.421400  0.450940  0.762060  1.0  0.2134
  C  C79  1  0.283770  0.208920  0.659810  1.0  0.288
  C  C80  1  0.306180  0.158160  0.578630  1.0  0.2142
  C  C81  1  0.355950  0.463790  0.717270  1.0  -0.0109
  C  C82  1  0.391080  0.477740  0.740990  1.0  0.0817
  C  C83  1  0.265770  0.169440  0.647200  1.0  0.0142
  C  C84  1  0.275630  0.146410  0.610070  1.0  -0.0007
  C  C85  1  0.291330  0.344150  0.579350  1.0  0.2818
  C  C86  1  0.237940  0.421400  0.549060  1.0  0.2088
  C  C87  1  0.340190  0.283770  0.791080  1.0  0.2909
  C  C88  1  0.421370  0.306180  0.841840  1.0  0.2136
  C  C89  1  0.282730  0.355950  0.536210  1.0  -0.0122
  C  C90  1  0.259010  0.391080  0.522260  1.0  0.0328
  C  C91  1  0.352800  0.265770  0.830560  1.0  0.0128
  C  C92  1  0.389930  0.275630  0.853590  1.0  -0.0009
  C  C93  1  0.291330  0.655850  0.420650  1.0  0.2834
  C  C94  1  0.237940  0.578600  0.450940  1.0  0.2086
  C  C95  1  0.340190  0.716230  0.208920  1.0  0.2899
  C  C96  1  0.421370  0.693820  0.158160  1.0  0.215
  C  C97  1  0.282730  0.644050  0.463790  1.0  -0.0128
  C  C98  1  0.259010  0.608920  0.477740  1.0  0.0348
  C  C99  1  0.352800  0.734230  0.169440  1.0  0.0138
  C  C100  1  0.389930  0.724370  0.146410  1.0  -0.0002
  C  C101  1  0.708670  0.655850  0.579350  1.0  0.2821
  C  C102  1  0.762060  0.578600  0.549060  1.0  0.2127
  C  C103  1  0.659810  0.716230  0.791080  1.0  0.2904
  C  C104  1  0.578630  0.693820  0.841840  1.0  0.2144
  C  C105  1  0.717270  0.644050  0.536210  1.0  -0.0123
  C  C106  1  0.740990  0.608920  0.522260  1.0  0.0799
  C  C107  1  0.647200  0.734230  0.830560  1.0  0.013
  C  C108  1  0.610070  0.724370  0.853590  1.0  -0.0019
  C  C109  1  0.708670  0.344150  0.420650  1.0  0.2836
  C  C110  1  0.762060  0.421400  0.450940  1.0  0.213
  C  C111  1  0.659810  0.283770  0.208920  1.0  0.2901
  C  C112  1  0.578630  0.306180  0.158160  1.0  0.2139
  C  C113  1  0.717270  0.355950  0.463790  1.0  -0.0123
  C  C114  1  0.740990  0.391080  0.477740  1.0  0.0805
  C  C115  1  0.647200  0.265770  0.169440  1.0  0.0131
  C  C116  1  0.610070  0.275630  0.146410  1.0  -0.0019
  C  C117  1  0.579350  0.291330  0.344150  1.0  0.2823
  C  C118  1  0.549060  0.237940  0.421400  1.0  0.2077
  C  C119  1  0.791080  0.340190  0.283770  1.0  0.2901
  C  C120  1  0.841840  0.421370  0.306180  1.0  0.2127
  C  C121  1  0.536210  0.282730  0.355950  1.0  -0.009
  C  C122  1  0.522260  0.259010  0.391080  1.0  0.0334
  C  C123  1  0.830560  0.352800  0.265770  1.0  0.0152
  C  C124  1  0.853590  0.389930  0.275630  1.0  -0.0043
  C  C125  1  0.420650  0.291330  0.655850  1.0  0.2829
  C  C126  1  0.450940  0.237940  0.578600  1.0  0.2087
  C  C127  1  0.208920  0.340190  0.716230  1.0  0.289
  C  C128  1  0.158160  0.421370  0.693820  1.0  0.2154
  C  C129  1  0.463790  0.282730  0.644050  1.0  -0.0087
  C  C130  1  0.477740  0.259010  0.608920  1.0  0.0341
  C  C131  1  0.169440  0.352800  0.734230  1.0  0.0145
  C  C132  1  0.146410  0.389930  0.724370  1.0  -0.0027
  C  C133  1  0.579350  0.708670  0.655850  1.0  0.2825
  C  C134  1  0.549060  0.762060  0.578600  1.0  0.2118
  C  C135  1  0.791080  0.659810  0.716230  1.0  0.2902
  C  C136  1  0.841840  0.578630  0.693820  1.0  0.2137
  C  C137  1  0.536210  0.717270  0.644050  1.0  -0.0075
  C  C138  1  0.522260  0.740990  0.608920  1.0  0.0809
  C  C139  1  0.830560  0.647200  0.734230  1.0  0.0134
  C  C140  1  0.853590  0.610070  0.724370  1.0  -0.0025
  C  C141  1  0.420650  0.708670  0.344150  1.0  0.2827
  C  C142  1  0.450940  0.762060  0.421400  1.0  0.2119
  C  C143  1  0.208920  0.659810  0.283770  1.0  0.2896
  C  C144  1  0.158160  0.578630  0.306180  1.0  0.2172
  C  C145  1  0.463790  0.717270  0.355950  1.0  -0.0092
  C  C146  1  0.477740  0.740990  0.391080  1.0  0.0782
  C  C147  1  0.169440  0.647200  0.265770  1.0  0.0154
  C  C148  1  0.146410  0.610070  0.275630  1.0  -0.0032
  C  C149  1  0.079350  0.844150  0.208670  1.0  0.2823
  C  C150  1  0.049060  0.921400  0.262060  1.0  0.2085
  C  C151  1  0.291080  0.783770  0.159810  1.0  0.2909
  C  C152  1  0.341840  0.806180  0.078630  1.0  0.2119
  C  C153  1  0.036210  0.855950  0.217270  1.0  -0.0084
  C  C154  1  0.022260  0.891080  0.240990  1.0  0.036
  C  C155  1  0.330560  0.765770  0.147200  1.0  0.0152
  C  C156  1  0.353590  0.775630  0.110070  1.0  -0.0027
  C  C157  1  0.920650  0.155850  0.208670  1.0  0.2829
  C  C158  1  0.950940  0.078600  0.262060  1.0  0.2097
  C  C159  1  0.708920  0.216230  0.159810  1.0  0.2896
  C  C160  1  0.658160  0.193820  0.078630  1.0  0.2153
  C  C161  1  0.963790  0.144050  0.217270  1.0  -0.0095
  C  C162  1  0.977740  0.108920  0.240990  1.0  0.0376
  C  C163  1  0.669440  0.234230  0.147200  1.0  0.0167
  C  C164  1  0.646410  0.224370  0.110070  1.0  -0.0025
  C  C165  1  0.079350  0.155850  0.791330  1.0  0.2829
  C  C166  1  0.049060  0.078600  0.737940  1.0  0.2076
  C  C167  1  0.291080  0.216230  0.840190  1.0  0.2903
  C  C168  1  0.341840  0.193820  0.921370  1.0  0.2133
  C  C169  1  0.036210  0.144050  0.782730  1.0  -0.0079
  C  C170  1  0.022260  0.108920  0.759010  1.0  0.0374
  C  C171  1  0.330560  0.234230  0.852800  1.0  0.0155
  C  C172  1  0.353590  0.224370  0.889930  1.0  -0.004
  C  C173  1  0.920650  0.844150  0.791330  1.0  0.2831
  C  C174  1  0.950940  0.921400  0.737940  1.0  0.209
  C  C175  1  0.708920  0.783770  0.840190  1.0  0.2897
  C  C176  1  0.658160  0.806180  0.921370  1.0  0.2147
  C  C177  1  0.963790  0.855950  0.782730  1.0  -0.0085
  C  C178  1  0.977740  0.891080  0.759010  1.0  0.0363
  C  C179  1  0.669440  0.765770  0.852800  1.0  0.0154
  C  C180  1  0.646410  0.775630  0.889930  1.0  -0.0048
  C  C181  1  0.844150  0.791330  0.920650  1.0  0.2833
  C  C182  1  0.921400  0.737940  0.950940  1.0  0.2081
  C  C183  1  0.783770  0.840190  0.708920  1.0  0.2893
  C  C184  1  0.806180  0.921370  0.658160  1.0  0.2132
  C  C185  1  0.855950  0.782730  0.963790  1.0  -0.0122
  C  C186  1  0.891080  0.759010  0.977740  1.0  0.0385
  C  C187  1  0.765770  0.852800  0.669440  1.0  0.0128
  C  C188  1  0.775630  0.889930  0.646410  1.0  -0.0016
  C  C189  1  0.155850  0.791330  0.079350  1.0  0.2816
  C  C190  1  0.078600  0.737940  0.049060  1.0  0.2093
  C  C191  1  0.216230  0.840190  0.291080  1.0  0.29
  C  C192  1  0.193820  0.921370  0.341840  1.0  0.2133
  C  C193  1  0.144050  0.782730  0.036210  1.0  -0.012
  C  C194  1  0.108920  0.759010  0.022260  1.0  0.0373
  C  C195  1  0.234230  0.852800  0.330560  1.0  0.0119
  C  C196  1  0.224370  0.889930  0.353590  1.0  -0.0026
  C  C197  1  0.155850  0.208670  0.920650  1.0  0.2829
  C  C198  1  0.078600  0.262060  0.950940  1.0  0.2091
  C  C199  1  0.216230  0.159810  0.708920  1.0  0.29
  C  C200  1  0.193820  0.078630  0.658160  1.0  0.2151
  C  C201  1  0.144050  0.217270  0.963790  1.0  -0.0118
  C  C202  1  0.108920  0.240990  0.977740  1.0  0.0383
  C  C203  1  0.234230  0.147200  0.669440  1.0  0.0121
  C  C204  1  0.224370  0.110070  0.646410  1.0  -0.002
  C  C205  1  0.844150  0.208670  0.079350  1.0  0.2814
  C  C206  1  0.921400  0.262060  0.049060  1.0  0.2077
  C  C207  1  0.783770  0.159810  0.291080  1.0  0.2899
  C  C208  1  0.806180  0.078630  0.341840  1.0  0.2148
  C  C209  1  0.855950  0.217270  0.036210  1.0  -0.0114
  C  C210  1  0.891080  0.240990  0.022260  1.0  0.0375
  C  C211  1  0.765770  0.147200  0.330560  1.0  0.0116
  C  C212  1  0.775630  0.110070  0.353590  1.0  -0.0008
  C  C213  1  0.791330  0.079350  0.155850  1.0  0.2818
  C  C214  1  0.737940  0.049060  0.078600  1.0  0.2087
  C  C215  1  0.840190  0.291080  0.216230  1.0  0.289
  C  C216  1  0.921370  0.341840  0.193820  1.0  0.215
  C  C217  1  0.782730  0.036210  0.144050  1.0  -0.0113
  C  C218  1  0.759010  0.022260  0.108920  1.0  0.0377
  C  C219  1  0.852800  0.330560  0.234230  1.0  0.0119
  C  C220  1  0.889930  0.353590  0.224370  1.0  -0.0004
  C  C221  1  0.791330  0.920650  0.844150  1.0  0.2824
  C  C222  1  0.737940  0.950940  0.921400  1.0  0.2084
  C  C223  1  0.840190  0.708920  0.783770  1.0  0.2883
  C  C224  1  0.921370  0.658160  0.806180  1.0  0.2159
  C  C225  1  0.782730  0.963790  0.855950  1.0  -0.0115
  C  C226  1  0.759010  0.977740  0.891080  1.0  0.0366
  C  C227  1  0.852800  0.669440  0.765770  1.0  0.0131
  C  C228  1  0.889930  0.646410  0.775630  1.0  -0.0018
  C  C229  1  0.208670  0.079350  0.844150  1.0  0.2816
  C  C230  1  0.262060  0.049060  0.921400  1.0  0.2077
  C  C231  1  0.159810  0.291080  0.783770  1.0  0.2888
  C  C232  1  0.078630  0.341840  0.806180  1.0  0.2151
  C  C233  1  0.217270  0.036210  0.855950  1.0  -0.0121
  C  C234  1  0.240990  0.022260  0.891080  1.0  0.0358
  C  C235  1  0.147200  0.330560  0.765770  1.0  0.0141
  C  C236  1  0.110070  0.353590  0.775630  1.0  -0.0027
  C  C237  1  0.208670  0.920650  0.155850  1.0  0.283
  C  C238  1  0.262060  0.950940  0.078600  1.0  0.2082
  C  C239  1  0.159810  0.708920  0.216230  1.0  0.2886
  C  C240  1  0.078630  0.658160  0.193820  1.0  0.2148
  C  C241  1  0.217270  0.963790  0.144050  1.0  -0.0104
  C  C242  1  0.240990  0.977740  0.108920  1.0  0.037
  C  C243  1  0.147200  0.669440  0.234230  1.0  0.0121
  C  C244  1  0.110070  0.646410  0.224370  1.0  -0.0018
  C  C245  1  0.655850  0.420650  0.708670  1.0  0.2821
  C  C246  1  0.578600  0.450940  0.762060  1.0  0.2134
  C  C247  1  0.716230  0.208920  0.659810  1.0  0.2885
  C  C248  1  0.693820  0.158160  0.578630  1.0  0.2141
  C  C249  1  0.644050  0.463790  0.717270  1.0  -0.0109
  C  C250  1  0.608920  0.477740  0.740990  1.0  0.0787
  C  C251  1  0.734230  0.169440  0.647200  1.0  0.0143
  C  C252  1  0.724370  0.146410  0.610070  1.0  -0.0018
  C  C253  1  0.344150  0.579350  0.708670  1.0  0.2815
  C  C254  1  0.421400  0.549060  0.762060  1.0  0.2132
  C  C255  1  0.283770  0.791080  0.659810  1.0  0.2885
  C  C256  1  0.306180  0.841840  0.578630  1.0  0.2142
  C  C257  1  0.355950  0.536210  0.717270  1.0  -0.0116
  C  C258  1  0.391080  0.522260  0.740990  1.0  0.0803
  C  C259  1  0.265770  0.830560  0.647200  1.0  0.015
  C  C260  1  0.275630  0.853590  0.610070  1.0  -0.0006
  C  C261  1  0.344150  0.420650  0.291330  1.0  0.2828
  C  C262  1  0.421400  0.450940  0.237940  1.0  0.2081
  C  C263  1  0.283770  0.208920  0.340190  1.0  0.2876
  C  C264  1  0.306180  0.158160  0.421370  1.0  0.2149
  C  C265  1  0.355950  0.463790  0.282730  1.0  -0.0102
  C  C266  1  0.391080  0.477740  0.259010  1.0  0.0331
  C  C267  1  0.265770  0.169440  0.352800  1.0  0.0139
  C  C268  1  0.275630  0.146410  0.389930  1.0  -0.0021
  C  C269  1  0.655850  0.579350  0.291330  1.0  0.2817
  C  C270  1  0.578600  0.549060  0.237940  1.0  0.2093
  C  C271  1  0.716230  0.791080  0.340190  1.0  0.2888
  C  C272  1  0.693820  0.841840  0.421370  1.0  0.2143
  C  C273  1  0.644050  0.536210  0.282730  1.0  -0.011
  C  C274  1  0.608920  0.522260  0.259010  1.0  0.0331
  C  C275  1  0.734230  0.830560  0.352800  1.0  0.0148
  C  C276  1  0.724370  0.853590  0.389930  1.0  -0.0028
  C  C277  1  0.708670  0.655850  0.420650  1.0  0.2838
  C  C278  1  0.762060  0.578600  0.450940  1.0  0.2126
  C  C279  1  0.659810  0.716230  0.208920  1.0  0.2899
  C  C280  1  0.578630  0.693820  0.158160  1.0  0.2147
  C  C281  1  0.717270  0.644050  0.463790  1.0  -0.0125
  C  C282  1  0.740990  0.608920  0.477740  1.0  0.08
  C  C283  1  0.647200  0.734230  0.169440  1.0  0.0141
  C  C284  1  0.610070  0.724370  0.146410  1.0  -0.0017
  C  C285  1  0.708670  0.344150  0.579350  1.0  0.2819
  C  C286  1  0.762060  0.421400  0.549060  1.0  0.2125
  C  C287  1  0.659810  0.283770  0.791080  1.0  0.2909
  C  C288  1  0.578630  0.306180  0.841840  1.0  0.2136
  C  C289  1  0.717270  0.355950  0.536210  1.0  -0.0118
  C  C290  1  0.740990  0.391080  0.522260  1.0  0.0784
  C  C291  1  0.647200  0.265770  0.830560  1.0  0.0129
  C  C292  1  0.610070  0.275630  0.853590  1.0  -0.0021
  C  C293  1  0.291330  0.344150  0.420650  1.0  0.2831
  C  C294  1  0.237940  0.421400  0.450940  1.0  0.2091
  C  C295  1  0.340190  0.283770  0.208920  1.0  0.29
  C  C296  1  0.421370  0.306180  0.158160  1.0  0.2138
  C  C297  1  0.282730  0.355950  0.463790  1.0  -0.0125
  C  C298  1  0.259010  0.391080  0.477740  1.0  0.0335
  C  C299  1  0.352800  0.265770  0.169440  1.0  0.013
  C  C300  1  0.389930  0.275630  0.146410  1.0  -0.0009
  C  C301  1  0.291330  0.655850  0.579350  1.0  0.282
  C  C302  1  0.237940  0.578600  0.549060  1.0  0.2087
  C  C303  1  0.340190  0.716230  0.791080  1.0  0.2904
  C  C304  1  0.421370  0.693820  0.841840  1.0  0.2146
  C  C305  1  0.282730  0.644050  0.536210  1.0  -0.0125
  C  C306  1  0.259010  0.608920  0.522260  1.0  0.0337
  C  C307  1  0.352800  0.734230  0.830560  1.0  0.0127
  C  C308  1  0.389930  0.724370  0.853590  1.0  -0.0002
  C  C309  1  0.420650  0.708670  0.655850  1.0  0.2829
  C  C310  1  0.450940  0.762060  0.578600  1.0  0.2122
  C  C311  1  0.208920  0.659810  0.716230  1.0  0.2893
  C  C312  1  0.158160  0.578630  0.693820  1.0  0.2164
  C  C313  1  0.463790  0.717270  0.644050  1.0  -0.0083
  C  C314  1  0.477740  0.740990  0.608920  1.0  0.0793
  C  C315  1  0.169440  0.647200  0.734230  1.0  0.0141
  C  C316  1  0.146410  0.610070  0.724370  1.0  -0.0022
  C  C317  1  0.579350  0.708670  0.344150  1.0  0.2822
  C  C318  1  0.549060  0.762060  0.421400  1.0  0.2115
  C  C319  1  0.791080  0.659810  0.283770  1.0  0.2904
  C  C320  1  0.841840  0.578630  0.306180  1.0  0.2148
  C  C321  1  0.536210  0.717270  0.355950  1.0  -0.0086
  C  C322  1  0.522260  0.740990  0.391080  1.0  0.0787
  C  C323  1  0.830560  0.647200  0.265770  1.0  0.0146
  C  C324  1  0.853590  0.610070  0.275630  1.0  -0.0033
  C  C325  1  0.420650  0.291330  0.344150  1.0  0.2828
  C  C326  1  0.450940  0.237940  0.421400  1.0  0.2087
  C  C327  1  0.208920  0.340190  0.283770  1.0  0.2893
  C  C328  1  0.158160  0.421370  0.306180  1.0  0.2153
  C  C329  1  0.463790  0.282730  0.355950  1.0  -0.0097
  C  C330  1  0.477740  0.259010  0.391080  1.0  0.0327
  C  C331  1  0.169440  0.352800  0.265770  1.0  0.0162
  C  C332  1  0.146410  0.389930  0.275630  1.0  -0.0044
  C  C333  1  0.579350  0.291330  0.655850  1.0  0.2825
  C  C334  1  0.549060  0.237940  0.578600  1.0  0.2074
  C  C335  1  0.791080  0.340190  0.716230  1.0  0.2899
  C  C336  1  0.841840  0.421370  0.693820  1.0  0.2123
  C  C337  1  0.536210  0.282730  0.644050  1.0  -0.0079
  C  C338  1  0.522260  0.259010  0.608920  1.0  0.0336
  C  C339  1  0.830560  0.352800  0.734230  1.0  0.0137
  C  C340  1  0.853590  0.389930  0.724370  1.0  -0.0027
  C  C341  1  0.920650  0.155850  0.791330  1.0  0.2832
  C  C342  1  0.950940  0.078600  0.737940  1.0  0.2088
  C  C343  1  0.708920  0.216230  0.840190  1.0  0.2895
  C  C344  1  0.658160  0.193820  0.921370  1.0  0.216
  C  C345  1  0.963790  0.144050  0.782730  1.0  -0.009
  C  C346  1  0.977740  0.108920  0.759010  1.0  0.0365
  C  C347  1  0.669440  0.234230  0.852800  1.0  0.0163
  C  C348  1  0.646410  0.224370  0.889930  1.0  -0.0038
  C  C349  1  0.079350  0.844150  0.791330  1.0  0.2827
  C  C350  1  0.049060  0.921400  0.737940  1.0  0.2077
  C  C351  1  0.291080  0.783770  0.840190  1.0  0.2906
  C  C352  1  0.341840  0.806180  0.921370  1.0  0.2117
  C  C353  1  0.036210  0.855950  0.782730  1.0  -0.0076
  C  C354  1  0.022260  0.891080  0.759010  1.0  0.0356
  C  C355  1  0.330560  0.765770  0.852800  1.0  0.0149
  C  C356  1  0.353590  0.775630  0.889930  1.0  -0.0044
  C  C357  1  0.920650  0.844150  0.208670  1.0  0.2828
  C  C358  1  0.950940  0.921400  0.262060  1.0  0.2096
  C  C359  1  0.708920  0.783770  0.159810  1.0  0.29
  C  C360  1  0.658160  0.806180  0.078630  1.0  0.215
  C  C361  1  0.963790  0.855950  0.217270  1.0  -0.0093
  C  C362  1  0.977740  0.891080  0.240990  1.0  0.0354
  C  C363  1  0.669440  0.765770  0.147200  1.0  0.0157
  C  C364  1  0.646410  0.775630  0.110070  1.0  -0.0029
  C  C365  1  0.079350  0.155850  0.208670  1.0  0.2825
  C  C366  1  0.049060  0.078600  0.262060  1.0  0.2086
  C  C367  1  0.291080  0.216230  0.159810  1.0  0.2905
  C  C368  1  0.341840  0.193820  0.078630  1.0  0.2125
  C  C369  1  0.036210  0.144050  0.217270  1.0  -0.0088
  C  C370  1  0.022260  0.108920  0.240990  1.0  0.0372
  C  C371  1  0.330560  0.234230  0.147200  1.0  0.0159
  C  C372  1  0.353590  0.224370  0.110070  1.0  -0.0028
  C  C373  1  0.155850  0.208670  0.079350  1.0  0.2814
  C  C374  1  0.078600  0.262060  0.049060  1.0  0.2087
  C  C375  1  0.216230  0.159810  0.291080  1.0  0.2903
  C  C376  1  0.193820  0.078630  0.341840  1.0  0.2147
  C  C377  1  0.144050  0.217270  0.036210  1.0  -0.0113
  C  C378  1  0.108920  0.240990  0.022260  1.0  0.0364
  C  C379  1  0.234230  0.147200  0.330560  1.0  0.0116
  C  C380  1  0.224370  0.110070  0.353590  1.0  -0.0023
  C  C381  1  0.844150  0.208670  0.920650  1.0  0.2831
  C  C382  1  0.921400  0.262060  0.950940  1.0  0.2079
  C  C383  1  0.783770  0.159810  0.708920  1.0  0.2896
  C  C384  1  0.806180  0.078630  0.658160  1.0  0.2151
  C  C385  1  0.855950  0.217270  0.963790  1.0  -0.0118
  C  C386  1  0.891080  0.240990  0.977740  1.0  0.0379
  C  C387  1  0.765770  0.147200  0.669440  1.0  0.012
  C  C388  1  0.775630  0.110070  0.646410  1.0  -0.0007
  C  C389  1  0.844150  0.791330  0.079350  1.0  0.2817
  C  C390  1  0.921400  0.737940  0.049060  1.0  0.2083
  C  C391  1  0.783770  0.840190  0.291080  1.0  0.2896
  C  C392  1  0.806180  0.921370  0.341840  1.0  0.2129
  C  C393  1  0.855950  0.782730  0.036210  1.0  -0.0118
  C  C394  1  0.891080  0.759010  0.022260  1.0  0.0375
  C  C395  1  0.765770  0.852800  0.330560  1.0  0.012
  C  C396  1  0.775630  0.889930  0.353590  1.0  -0.0016
  C  C397  1  0.155850  0.791330  0.920650  1.0  0.2831
  C  C398  1  0.078600  0.737940  0.950940  1.0  0.2095
  C  C399  1  0.216230  0.840190  0.708920  1.0  0.2898
  C  C400  1  0.193820  0.921370  0.658160  1.0  0.2136
  C  C401  1  0.144050  0.782730  0.963790  1.0  -0.0122
  C  C402  1  0.108920  0.759010  0.977740  1.0  0.0372
  C  C403  1  0.234230  0.852800  0.669440  1.0  0.0128
  C  C404  1  0.224370  0.889930  0.646410  1.0  -0.0024
  C  C405  1  0.208670  0.920650  0.844150  1.0  0.2827
  C  C406  1  0.262060  0.950940  0.921400  1.0  0.2085
  C  C407  1  0.159810  0.708920  0.783770  1.0  0.2882
  C  C408  1  0.078630  0.658160  0.806180  1.0  0.2154
  C  C409  1  0.217270  0.963790  0.855950  1.0  -0.0113
  C  C410  1  0.240990  0.977740  0.891080  1.0  0.0357
  C  C411  1  0.147200  0.669440  0.765770  1.0  0.0133
  C  C412  1  0.110070  0.646410  0.775630  1.0  -0.0031
  C  C413  1  0.208670  0.079350  0.155850  1.0  0.2818
  C  C414  1  0.262060  0.049060  0.078600  1.0  0.2082
  C  C415  1  0.159810  0.291080  0.216230  1.0  0.289
  C  C416  1  0.078630  0.341840  0.193820  1.0  0.2148
  C  C417  1  0.217270  0.036210  0.144050  1.0  -0.011
  C  C418  1  0.240990  0.022260  0.108920  1.0  0.0366
  C  C419  1  0.147200  0.330560  0.234230  1.0  0.0122
  C  C420  1  0.110070  0.353590  0.224370  1.0  -0.0017
  C  C421  1  0.791330  0.920650  0.155850  1.0  0.2828
  C  C422  1  0.737940  0.950940  0.078600  1.0  0.2082
  C  C423  1  0.840190  0.708920  0.216230  1.0  0.2884
  C  C424  1  0.921370  0.658160  0.193820  1.0  0.215
  C  C425  1  0.782730  0.963790  0.144050  1.0  -0.0106
  C  C426  1  0.759010  0.977740  0.108920  1.0  0.0364
  C  C427  1  0.852800  0.669440  0.234230  1.0  0.012
  C  C428  1  0.889930  0.646410  0.224370  1.0  -0.0004
  C  C429  1  0.791330  0.079350  0.844150  1.0  0.2817
  C  C430  1  0.737940  0.049060  0.921400  1.0  0.2082
  C  C431  1  0.840190  0.291080  0.783770  1.0  0.2888
  C  C432  1  0.921370  0.341840  0.806180  1.0  0.2157
  C  C433  1  0.782730  0.036210  0.855950  1.0  -0.0122
  C  C434  1  0.759010  0.022260  0.891080  1.0  0.0354
  C  C435  1  0.852800  0.330560  0.765770  1.0  0.0137
  C  C436  1  0.889930  0.353590  0.775630  1.0  -0.0014
  C  C437  1  0.296300  0.500000  0.322600  1.0  0.3001
  C  C438  1  0.334100  0.500000  0.297880  1.0  -0.0067
  C  C439  1  0.703700  0.500000  0.322600  1.0  0.2994
  C  C440  1  0.665900  0.500000  0.297880  1.0  -0.005
  C  C441  1  0.703700  0.500000  0.677400  1.0  0.2989
  C  C442  1  0.665900  0.500000  0.702120  1.0  -0.0055
  C  C443  1  0.296300  0.500000  0.677400  1.0  0.2998
  C  C444  1  0.334100  0.500000  0.702120  1.0  -0.0068
  C  C445  1  0.322600  0.296300  0.500000  1.0  0.2983
  C  C446  1  0.297880  0.334100  0.500000  1.0  -0.0049
  C  C447  1  0.322600  0.703700  0.500000  1.0  0.297
  C  C448  1  0.297880  0.665900  0.500000  1.0  -0.0051
  C  C449  1  0.677400  0.703700  0.500000  1.0  0.2978
  C  C450  1  0.702120  0.665900  0.500000  1.0  -0.0075
  C  C451  1  0.677400  0.296300  0.500000  1.0  0.299
  C  C452  1  0.702120  0.334100  0.500000  1.0  -0.0071
  C  C453  1  0.500000  0.322600  0.296300  1.0  0.2994
  C  C454  1  0.500000  0.297880  0.334100  1.0  -0.0087
  C  C455  1  0.500000  0.322600  0.703700  1.0  0.2997
  C  C456  1  0.500000  0.297880  0.665900  1.0  -0.0092
  C  C457  1  0.500000  0.677400  0.703700  1.0  0.3003
  C  C458  1  0.500000  0.702120  0.665900  1.0  -0.0089
  C  C459  1  0.500000  0.677400  0.296300  1.0  0.2994
  C  C460  1  0.500000  0.702120  0.334100  1.0  -0.0092
  C  C461  1  0.000000  0.796300  0.177400  1.0  0.2988
  C  C462  1  0.000000  0.834100  0.202120  1.0  -0.0081
  C  C463  1  0.000000  0.203700  0.177400  1.0  0.2978
  C  C464  1  0.000000  0.165900  0.202120  1.0  -0.0084
  C  C465  1  0.000000  0.203700  0.822600  1.0  0.2982
  C  C466  1  0.000000  0.165900  0.797880  1.0  -0.0086
  C  C467  1  0.000000  0.796300  0.822600  1.0  0.2997
  C  C468  1  0.000000  0.834100  0.797880  1.0  -0.0079
  C  C469  1  0.796300  0.822600  0.000000  1.0  0.2995
  C  C470  1  0.834100  0.797880  0.000000  1.0  -0.0063
  C  C471  1  0.203700  0.822600  0.000000  1.0  0.2988
  C  C472  1  0.165900  0.797880  0.000000  1.0  -0.0047
  C  C473  1  0.203700  0.177400  0.000000  1.0  0.2992
  C  C474  1  0.165900  0.202120  0.000000  1.0  -0.0048
  C  C475  1  0.796300  0.177400  0.000000  1.0  0.3001
  C  C476  1  0.834100  0.202120  0.000000  1.0  -0.007
  C  C477  1  0.822600  0.000000  0.203700  1.0  0.2989
  C  C478  1  0.797880  0.000000  0.165900  1.0  -0.0062
  C  C479  1  0.822600  0.000000  0.796300  1.0  0.2987
  C  C480  1  0.797880  0.000000  0.834100  1.0  -0.0066
  C  C481  1  0.177400  0.000000  0.796300  1.0  0.2996
  C  C482  1  0.202120  0.000000  0.834100  1.0  -0.0087
  C  C483  1  0.177400  0.000000  0.203700  1.0  0.2997
  C  C484  1  0.202120  0.000000  0.165900  1.0  -0.0087
  C  C485  1  0.250000  0.922390  0.422390  1.0  0.234
  C  C486  1  0.250000  0.890120  0.390120  1.0  0.0229
  C  C487  1  0.750000  0.077610  0.422390  1.0  0.2338
  C  C488  1  0.750000  0.109880  0.390120  1.0  0.0244
  C  C489  1  0.750000  0.922390  0.577610  1.0  0.234
  C  C490  1  0.750000  0.890120  0.609880  1.0  0.0244
  C  C491  1  0.250000  0.077610  0.577610  1.0  0.2332
  C  C492  1  0.250000  0.109880  0.609880  1.0  0.0255
  C  C493  1  0.422390  0.250000  0.922390  1.0  0.2325
  C  C494  1  0.390120  0.250000  0.890120  1.0  0.0249
  C  C495  1  0.422390  0.750000  0.077610  1.0  0.2319
  C  C496  1  0.390120  0.750000  0.109880  1.0  0.0256
  C  C497  1  0.577610  0.750000  0.922390  1.0  0.2317
  C  C498  1  0.609880  0.750000  0.890120  1.0  0.0238
  C  C499  1  0.577610  0.250000  0.077610  1.0  0.2312
  C  C500  1  0.609880  0.250000  0.109880  1.0  0.0251
  C  C501  1  0.922390  0.422390  0.250000  1.0  0.2325
  C  C502  1  0.890120  0.390120  0.250000  1.0  0.026
  C  C503  1  0.077610  0.422390  0.750000  1.0  0.2319
  C  C504  1  0.109880  0.390120  0.750000  1.0  0.0254
  C  C505  1  0.922390  0.577610  0.750000  1.0  0.2325
  C  C506  1  0.890120  0.609880  0.750000  1.0  0.027
  C  C507  1  0.077610  0.577610  0.250000  1.0  0.232
  C  C508  1  0.109880  0.609880  0.250000  1.0  0.0263
  C  C509  1  0.750000  0.077610  0.577610  1.0  0.2332
  C  C510  1  0.750000  0.109880  0.609880  1.0  0.0255
  C  C511  1  0.250000  0.922390  0.577610  1.0  0.234
  C  C512  1  0.250000  0.890120  0.609880  1.0  0.0244
  C  C513  1  0.250000  0.077610  0.422390  1.0  0.2338
  C  C514  1  0.250000  0.109880  0.390120  1.0  0.0244
  C  C515  1  0.750000  0.922390  0.422390  1.0  0.234
  C  C516  1  0.750000  0.890120  0.390120  1.0  0.0229
  C  C517  1  0.577610  0.750000  0.077610  1.0  0.2312
  C  C518  1  0.609880  0.750000  0.109880  1.0  0.0251
  C  C519  1  0.577610  0.250000  0.922390  1.0  0.2317
  C  C520  1  0.609880  0.250000  0.890120  1.0  0.0238
  C  C521  1  0.422390  0.250000  0.077610  1.0  0.2319
  C  C522  1  0.390120  0.250000  0.109880  1.0  0.0256
  C  C523  1  0.422390  0.750000  0.922390  1.0  0.2325
  C  C524  1  0.390120  0.750000  0.890120  1.0  0.0249
  C  C525  1  0.077610  0.577610  0.750000  1.0  0.232
  C  C526  1  0.109880  0.609880  0.750000  1.0  0.0263
  C  C527  1  0.922390  0.577610  0.250000  1.0  0.2325
  C  C528  1  0.890120  0.609880  0.250000  1.0  0.027
  C  C529  1  0.077610  0.422390  0.250000  1.0  0.2319
  C  C530  1  0.109880  0.390120  0.250000  1.0  0.0254
  C  C531  1  0.922390  0.422390  0.750000  1.0  0.2325
  C  C532  1  0.890120  0.390120  0.750000  1.0  0.026
  N  N533  1  0.334620  0.613750  0.298590  1.0  -0.416
  N  N534  1  0.445930  0.570480  0.221460  1.0  -0.5013
  N  N535  1  0.297770  0.759010  0.329970  1.0  -0.4287
  N  N536  1  0.331250  0.832000  0.446210  1.0  -0.4652
  N  N537  1  0.665380  0.386250  0.298590  1.0  -0.4142
  N  N538  1  0.554070  0.429520  0.221460  1.0  -0.5015
  N  N539  1  0.702230  0.240990  0.329970  1.0  -0.4312
  N  N540  1  0.668750  0.168000  0.446210  1.0  -0.4657
  N  N541  1  0.665380  0.613750  0.701410  1.0  -0.416
  N  N542  1  0.554070  0.570480  0.778540  1.0  -0.4961
  N  N543  1  0.702230  0.759010  0.670030  1.0  -0.4296
  N  N544  1  0.668750  0.832000  0.553790  1.0  -0.4661
  N  N545  1  0.334620  0.386250  0.701410  1.0  -0.414
  N  N546  1  0.445930  0.429520  0.778540  1.0  -0.4951
  N  N547  1  0.297770  0.240990  0.670030  1.0  -0.4308
  N  N548  1  0.331250  0.168000  0.553790  1.0  -0.4663
  N  N549  1  0.298590  0.334620  0.613750  1.0  -0.4142
  N  N550  1  0.221460  0.445930  0.570480  1.0  -0.5008
  N  N551  1  0.329970  0.297770  0.759010  1.0  -0.4323
  N  N552  1  0.446210  0.331250  0.832000  1.0  -0.4644
  N  N553  1  0.298590  0.665380  0.386250  1.0  -0.4158
  N  N554  1  0.221460  0.554070  0.429520  1.0  -0.5024
  N  N555  1  0.329970  0.702230  0.240990  1.0  -0.4296
  N  N556  1  0.446210  0.668750  0.168000  1.0  -0.4643
  N  N557  1  0.701410  0.665380  0.613750  1.0  -0.4144
  N  N558  1  0.778540  0.554070  0.570480  1.0  -0.4965
  N  N559  1  0.670030  0.702230  0.759010  1.0  -0.4314
  N  N560  1  0.553790  0.668750  0.832000  1.0  -0.4649
  N  N561  1  0.701410  0.334620  0.386250  1.0  -0.4153
  N  N562  1  0.778540  0.445930  0.429520  1.0  -0.4996
  N  N563  1  0.670030  0.297770  0.240990  1.0  -0.4312
  N  N564  1  0.553790  0.331250  0.168000  1.0  -0.4655
  N  N565  1  0.613750  0.298590  0.334620  1.0  -0.4129
  N  N566  1  0.570480  0.221460  0.445930  1.0  -0.4999
  N  N567  1  0.759010  0.329970  0.297770  1.0  -0.4295
  N  N568  1  0.832000  0.446210  0.331250  1.0  -0.4672
  N  N569  1  0.386250  0.298590  0.665380  1.0  -0.4121
  N  N570  1  0.429520  0.221460  0.554070  1.0  -0.5035
  N  N571  1  0.240990  0.329970  0.702230  1.0  -0.4298
  N  N572  1  0.168000  0.446210  0.668750  1.0  -0.4671
  N  N573  1  0.613750  0.701410  0.665380  1.0  -0.4131
  N  N574  1  0.570480  0.778540  0.554070  1.0  -0.5003
  N  N575  1  0.759010  0.670030  0.702230  1.0  -0.4297
  N  N576  1  0.832000  0.553790  0.668750  1.0  -0.4687
  N  N577  1  0.386250  0.701410  0.334620  1.0  -0.4117
  N  N578  1  0.429520  0.778540  0.445930  1.0  -0.4992
  N  N579  1  0.240990  0.670030  0.297770  1.0  -0.4292
  N  N580  1  0.168000  0.553790  0.331250  1.0  -0.4664
  N  N581  1  0.113750  0.834620  0.201410  1.0  -0.413
  N  N582  1  0.070480  0.945930  0.278540  1.0  -0.4991
  N  N583  1  0.259010  0.797770  0.170030  1.0  -0.4293
  N  N584  1  0.332000  0.831250  0.053790  1.0  -0.4684
  N  N585  1  0.886250  0.165380  0.201410  1.0  -0.412
  N  N586  1  0.929520  0.054070  0.278540  1.0  -0.4987
  N  N587  1  0.740990  0.202230  0.170030  1.0  -0.4273
  N  N588  1  0.668000  0.168750  0.053790  1.0  -0.4689
  N  N589  1  0.113750  0.165380  0.798590  1.0  -0.4132
  N  N590  1  0.070480  0.054070  0.721460  1.0  -0.5009
  N  N591  1  0.259010  0.202230  0.829970  1.0  -0.4273
  N  N592  1  0.332000  0.168750  0.946210  1.0  -0.4684
  N  N593  1  0.886250  0.834620  0.798590  1.0  -0.4121
  N  N594  1  0.929520  0.945930  0.721460  1.0  -0.5015
  N  N595  1  0.740990  0.797770  0.829970  1.0  -0.4289
  N  N596  1  0.668000  0.831250  0.946210  1.0  -0.4686
  N  N597  1  0.834620  0.798590  0.886250  1.0  -0.4154
  N  N598  1  0.945930  0.721460  0.929520  1.0  -0.5026
  N  N599  1  0.797770  0.829970  0.740990  1.0  -0.4293
  N  N600  1  0.831250  0.946210  0.668000  1.0  -0.4639
  N  N601  1  0.165380  0.798590  0.113750  1.0  -0.4146
  N  N602  1  0.054070  0.721460  0.070480  1.0  -0.5005
  N  N603  1  0.202230  0.829970  0.259010  1.0  -0.4312
  N  N604  1  0.168750  0.946210  0.332000  1.0  -0.464
  N  N605  1  0.165380  0.201410  0.886250  1.0  -0.4158
  N  N606  1  0.054070  0.278540  0.929520  1.0  -0.5037
  N  N607  1  0.202230  0.170030  0.740990  1.0  -0.4302
  N  N608  1  0.168750  0.053790  0.668000  1.0  -0.4647
  N  N609  1  0.834620  0.201410  0.113750  1.0  -0.4141
  N  N610  1  0.945930  0.278540  0.070480  1.0  -0.5014
  N  N611  1  0.797770  0.170030  0.259010  1.0  -0.43
  N  N612  1  0.831250  0.053790  0.332000  1.0  -0.4638
  N  N613  1  0.798590  0.113750  0.165380  1.0  -0.4159
  N  N614  1  0.721460  0.070480  0.054070  1.0  -0.5031
  N  N615  1  0.829970  0.259010  0.202230  1.0  -0.4323
  N  N616  1  0.946210  0.332000  0.168750  1.0  -0.465
  N  N617  1  0.798590  0.886250  0.834620  1.0  -0.4138
  N  N618  1  0.721460  0.929520  0.945930  1.0  -0.5004
  N  N619  1  0.829970  0.740990  0.797770  1.0  -0.433
  N  N620  1  0.946210  0.668000  0.831250  1.0  -0.4643
  N  N621  1  0.201410  0.113750  0.834620  1.0  -0.4156
  N  N622  1  0.278540  0.070480  0.945930  1.0  -0.5017
  N  N623  1  0.170030  0.259010  0.797770  1.0  -0.431
  N  N624  1  0.053790  0.332000  0.831250  1.0  -0.4647
  N  N625  1  0.201410  0.886250  0.165380  1.0  -0.4137
  N  N626  1  0.278540  0.929520  0.054070  1.0  -0.5032
  N  N627  1  0.170030  0.740990  0.202230  1.0  -0.4336
  N  N628  1  0.053790  0.668000  0.168750  1.0  -0.466
  N  N629  1  0.665380  0.386250  0.701410  1.0  -0.4141
  N  N630  1  0.554070  0.429520  0.778540  1.0  -0.4967
  N  N631  1  0.702230  0.240990  0.670030  1.0  -0.4316
  N  N632  1  0.668750  0.168000  0.553790  1.0  -0.4641
  N  N633  1  0.334620  0.613750  0.701410  1.0  -0.4159
  N  N634  1  0.445930  0.570480  0.778540  1.0  -0.4974
  N  N635  1  0.297770  0.759010  0.670030  1.0  -0.4289
  N  N636  1  0.331250  0.832000  0.553790  1.0  -0.4633
  N  N637  1  0.334620  0.386250  0.298590  1.0  -0.4142
  N  N638  1  0.445930  0.429520  0.221460  1.0  -0.5026
  N  N639  1  0.297770  0.240990  0.329970  1.0  -0.4306
  N  N640  1  0.331250  0.168000  0.446210  1.0  -0.4632
  N  N641  1  0.665380  0.613750  0.298590  1.0  -0.416
  N  N642  1  0.554070  0.570480  0.221460  1.0  -0.5037
  N  N643  1  0.702230  0.759010  0.329970  1.0  -0.4294
  N  N644  1  0.668750  0.832000  0.446210  1.0  -0.4627
  N  N645  1  0.701410  0.665380  0.386250  1.0  -0.4154
  N  N646  1  0.778540  0.554070  0.429520  1.0  -0.5007
  N  N647  1  0.670030  0.702230  0.240990  1.0  -0.4295
  N  N648  1  0.553790  0.668750  0.168000  1.0  -0.4626
  N  N649  1  0.701410  0.334620  0.613750  1.0  -0.414
  N  N650  1  0.778540  0.445930  0.570480  1.0  -0.4992
  N  N651  1  0.670030  0.297770  0.759010  1.0  -0.4321
  N  N652  1  0.553790  0.331250  0.832000  1.0  -0.4626
  N  N653  1  0.298590  0.334620  0.386250  1.0  -0.4158
  N  N654  1  0.221460  0.445930  0.429520  1.0  -0.5044
  N  N655  1  0.329970  0.297770  0.240990  1.0  -0.4316
  N  N656  1  0.446210  0.331250  0.168000  1.0  -0.4619
  N  N657  1  0.298590  0.665380  0.613750  1.0  -0.4145
  N  N658  1  0.221460  0.554070  0.570480  1.0  -0.5016
  N  N659  1  0.329970  0.702230  0.759010  1.0  -0.4315
  N  N660  1  0.446210  0.668750  0.832000  1.0  -0.4616
  N  N661  1  0.386250  0.701410  0.665380  1.0  -0.412
  N  N662  1  0.429520  0.778540  0.554070  1.0  -0.5021
  N  N663  1  0.240990  0.670030  0.702230  1.0  -0.4298
  N  N664  1  0.168000  0.553790  0.668750  1.0  -0.4653
  N  N665  1  0.613750  0.701410  0.334620  1.0  -0.4128
  N  N666  1  0.570480  0.778540  0.445930  1.0  -0.5001
  N  N667  1  0.759010  0.670030  0.297770  1.0  -0.4296
  N  N668  1  0.832000  0.553790  0.331250  1.0  -0.4647
  N  N669  1  0.386250  0.298590  0.334620  1.0  -0.4118
  N  N670  1  0.429520  0.221460  0.445930  1.0  -0.5022
  N  N671  1  0.240990  0.329970  0.297770  1.0  -0.4291
  N  N672  1  0.168000  0.446210  0.331250  1.0  -0.4641
  N  N673  1  0.613750  0.298590  0.665380  1.0  -0.4131
  N  N674  1  0.570480  0.221460  0.554070  1.0  -0.5045
  N  N675  1  0.759010  0.329970  0.702230  1.0  -0.4299
  N  N676  1  0.832000  0.446210  0.668750  1.0  -0.4651
  N  N677  1  0.886250  0.165380  0.798590  1.0  -0.4123
  N  N678  1  0.929520  0.054070  0.721460  1.0  -0.5032
  N  N679  1  0.740990  0.202230  0.829970  1.0  -0.4272
  N  N680  1  0.668000  0.168750  0.946210  1.0  -0.4651
  N  N681  1  0.113750  0.834620  0.798590  1.0  -0.4132
  N  N682  1  0.070480  0.945930  0.721460  1.0  -0.5026
  N  N683  1  0.259010  0.797770  0.829970  1.0  -0.4289
  N  N684  1  0.332000  0.831250  0.946210  1.0  -0.4662
  N  N685  1  0.886250  0.834620  0.201410  1.0  -0.4119
  N  N686  1  0.929520  0.945930  0.278540  1.0  -0.501
  N  N687  1  0.740990  0.797770  0.170030  1.0  -0.4293
  N  N688  1  0.668000  0.831250  0.053790  1.0  -0.466
  N  N689  1  0.113750  0.165380  0.201410  1.0  -0.413
  N  N690  1  0.070480  0.054070  0.278540  1.0  -0.4996
  N  N691  1  0.259010  0.202230  0.170030  1.0  -0.4275
  N  N692  1  0.332000  0.168750  0.053790  1.0  -0.4673
  N  N693  1  0.165380  0.201410  0.113750  1.0  -0.4143
  N  N694  1  0.054070  0.278540  0.070480  1.0  -0.5035
  N  N695  1  0.202230  0.170030  0.259010  1.0  -0.4309
  N  N696  1  0.168750  0.053790  0.332000  1.0  -0.4617
  N  N697  1  0.834620  0.201410  0.886250  1.0  -0.4154
  N  N698  1  0.945930  0.278540  0.929520  1.0  -0.5049
  N  N699  1  0.797770  0.170030  0.740990  1.0  -0.4292
  N  N700  1  0.831250  0.053790  0.668000  1.0  -0.4614
  N  N701  1  0.834620  0.798590  0.113750  1.0  -0.4144
  N  N702  1  0.945930  0.721460  0.070480  1.0  -0.5016
  N  N703  1  0.797770  0.829970  0.259010  1.0  -0.4306
  N  N704  1  0.831250  0.946210  0.332000  1.0  -0.4611
  N  N705  1  0.165380  0.798590  0.886250  1.0  -0.4158
  N  N706  1  0.054070  0.721460  0.929520  1.0  -0.5045
  N  N707  1  0.202230  0.829970  0.740990  1.0  -0.43
  N  N708  1  0.168750  0.946210  0.668000  1.0  -0.4617
  N  N709  1  0.201410  0.886250  0.834620  1.0  -0.4134
  N  N710  1  0.278540  0.929520  0.945930  1.0  -0.5023
  N  N711  1  0.170030  0.740990  0.797770  1.0  -0.4328
  N  N712  1  0.053790  0.668000  0.831250  1.0  -0.4626
  N  N713  1  0.201410  0.113750  0.165380  1.0  -0.4158
  N  N714  1  0.278540  0.070480  0.054070  1.0  -0.5049
  N  N715  1  0.170030  0.259010  0.202230  1.0  -0.4322
  N  N716  1  0.053790  0.332000  0.168750  1.0  -0.4632
  N  N717  1  0.798590  0.886250  0.165380  1.0  -0.4141
  N  N718  1  0.721460  0.929520  0.054070  1.0  -0.5045
  N  N719  1  0.829970  0.740990  0.202230  1.0  -0.4335
  N  N720  1  0.946210  0.668000  0.168750  1.0  -0.4627
  N  N721  1  0.798590  0.113750  0.834620  1.0  -0.4158
  N  N722  1  0.721460  0.070480  0.945930  1.0  -0.5031
  N  N723  1  0.829970  0.259010  0.797770  1.0  -0.4311
  N  N724  1  0.946210  0.332000  0.831250  1.0  -0.4613
  N  N725  1  0.265580  0.500000  0.342550  1.0  -0.4444
  N  N726  1  0.734420  0.500000  0.342550  1.0  -0.4442
  N  N727  1  0.734420  0.500000  0.657450  1.0  -0.4437
  N  N728  1  0.265580  0.500000  0.657450  1.0  -0.4442
  N  N729  1  0.342550  0.265580  0.500000  1.0  -0.442
  N  N730  1  0.342550  0.734420  0.500000  1.0  -0.4437
  N  N731  1  0.657450  0.734420  0.500000  1.0  -0.4446
  N  N732  1  0.657450  0.265580  0.500000  1.0  -0.4431
  N  N733  1  0.500000  0.342550  0.265580  1.0  -0.4453
  N  N734  1  0.500000  0.342550  0.734420  1.0  -0.4465
  N  N735  1  0.500000  0.657450  0.734420  1.0  -0.4446
  N  N736  1  0.500000  0.657450  0.265580  1.0  -0.4446
  N  N737  1  0.000000  0.765580  0.157450  1.0  -0.4455
  N  N738  1  0.000000  0.234420  0.157450  1.0  -0.4466
  N  N739  1  0.000000  0.234420  0.842550  1.0  -0.4473
  N  N740  1  0.000000  0.765580  0.842550  1.0  -0.4448
  N  N741  1  0.765580  0.842550  0.000000  1.0  -0.4445
  N  N742  1  0.234420  0.842550  0.000000  1.0  -0.4441
  N  N743  1  0.234420  0.157450  0.000000  1.0  -0.4422
  N  N744  1  0.765580  0.157450  0.000000  1.0  -0.443
  N  N745  1  0.842550  0.000000  0.234420  1.0  -0.4432
  N  N746  1  0.842550  0.000000  0.765580  1.0  -0.4424
  N  N747  1  0.157450  0.000000  0.765580  1.0  -0.4434
  N  N748  1  0.157450  0.000000  0.234420  1.0  -0.4442
  N  N749  1  0.250000  0.948080  0.448080  1.0  -0.5085
  N  N750  1  0.750000  0.051920  0.448080  1.0  -0.5081
  N  N751  1  0.750000  0.948080  0.551920  1.0  -0.5098
  N  N752  1  0.250000  0.051920  0.551920  1.0  -0.5096
  N  N753  1  0.448080  0.250000  0.948080  1.0  -0.5093
  N  N754  1  0.448080  0.750000  0.051920  1.0  -0.5093
  N  N755  1  0.551920  0.750000  0.948080  1.0  -0.5099
  N  N756  1  0.551920  0.250000  0.051920  1.0  -0.5112
  N  N757  1  0.948080  0.448080  0.250000  1.0  -0.5111
  N  N758  1  0.051920  0.448080  0.750000  1.0  -0.5106
  N  N759  1  0.948080  0.551920  0.750000  1.0  -0.5104
  N  N760  1  0.051920  0.551920  0.250000  1.0  -0.5109
  N  N761  1  0.750000  0.051920  0.551920  1.0  -0.5096
  N  N762  1  0.250000  0.948080  0.551920  1.0  -0.5098
  N  N763  1  0.250000  0.051920  0.448080  1.0  -0.5081
  N  N764  1  0.750000  0.948080  0.448080  1.0  -0.5085
  N  N765  1  0.551920  0.750000  0.051920  1.0  -0.5112
  N  N766  1  0.551920  0.250000  0.948080  1.0  -0.5099
  N  N767  1  0.448080  0.250000  0.051920  1.0  -0.5093
  N  N768  1  0.448080  0.750000  0.948080  1.0  -0.5093
  N  N769  1  0.051920  0.551920  0.750000  1.0  -0.5109
  N  N770  1  0.948080  0.551920  0.250000  1.0  -0.5104
  N  N771  1  0.051920  0.448080  0.250000  1.0  -0.5106
  N  N772  1  0.948080  0.448080  0.750000  1.0  -0.5111
