# generated using pymatgen
data_Na13C141(N10O)6
_symmetry_space_group_name_H-M   'P 1'
_cell_length_a   31.25100000
_cell_length_b   31.25100000
_cell_length_c   31.25100000
_cell_angle_alpha   90.00000000
_cell_angle_beta   90.00000000
_cell_angle_gamma   90.00000000
_symmetry_Int_Tables_number   1
_chemical_formula_structural   Na13C141(N10O)6
_chemical_formula_sum   'Na52 C564 N240 O24'
_cell_volume   30520.50790625
_cell_formula_units_Z   4
loop_
 _symmetry_equiv_pos_site_id
 _symmetry_equiv_pos_as_xyz
  1  'x, y, z'
loop_
 _atom_site_type_symbol
 _atom_site_label
 _atom_site_symmetry_multiplicity
 _atom_site_fract_x
 _atom_site_fract_y
 _atom_site_fract_z
 _atom_site_occupancy
 _atom_site_charge
  Na  Na1  1  0.185620  0.814380  0.185620  1.0  0.8732
  Na  Na2  1  0.814380  0.185620  0.185620  1.0  0.8739
  Na  Na3  1  0.814380  0.814380  0.814380  1.0  0.8736
  Na  Na4  1  0.185620  0.185620  0.814380  1.0  0.8738
  Na  Na5  1  0.314380  0.685620  0.314380  1.0  0.8741
  Na  Na6  1  0.685620  0.314380  0.314380  1.0  0.8733
  Na  Na7  1  0.314380  0.314380  0.685620  1.0  0.8734
  Na  Na8  1  0.685620  0.685620  0.685620  1.0  0.8738
  Na  Na9  1  0.814380  0.185620  0.814380  1.0  0.8741
  Na  Na10  1  0.185620  0.814380  0.814380  1.0  0.8733
  Na  Na11  1  0.185620  0.185620  0.185620  1.0  0.8738
  Na  Na12  1  0.814380  0.814380  0.185620  1.0  0.8734
  Na  Na13  1  0.685620  0.314380  0.685620  1.0  0.8732
  Na  Na14  1  0.314380  0.685620  0.685620  1.0  0.8739
  Na  Na15  1  0.685620  0.685620  0.314380  1.0  0.8738
  Na  Na16  1  0.314380  0.314380  0.314380  1.0  0.8736
  Na  Na17  1  0.304620  0.879660  0.000000  1.0  0.8334
  Na  Na18  1  0.695380  0.120340  0.000000  1.0  0.8327
  Na  Na19  1  0.695380  0.879660  0.000000  1.0  0.8329
  Na  Na20  1  0.304620  0.120340  0.000000  1.0  0.8331
  Na  Na21  1  0.000000  0.304620  0.879660  1.0  0.8326
  Na  Na22  1  0.000000  0.695380  0.120340  1.0  0.8347
  Na  Na23  1  0.000000  0.695380  0.879660  1.0  0.8336
  Na  Na24  1  0.000000  0.304620  0.120340  1.0  0.8336
  Na  Na25  1  0.879660  0.000000  0.304620  1.0  0.8342
  Na  Na26  1  0.120340  0.000000  0.695380  1.0  0.8343
  Na  Na27  1  0.879660  0.000000  0.695380  1.0  0.8357
  Na  Na28  1  0.120340  0.000000  0.304620  1.0  0.8331
  Na  Na29  1  0.379660  0.804620  0.500000  1.0  0.8338
  Na  Na30  1  0.620340  0.195380  0.500000  1.0  0.8333
  Na  Na31  1  0.379660  0.195380  0.500000  1.0  0.8344
  Na  Na32  1  0.620340  0.804620  0.500000  1.0  0.8321
  Na  Na33  1  0.804620  0.500000  0.620340  1.0  0.8345
  Na  Na34  1  0.195380  0.500000  0.379660  1.0  0.8331
  Na  Na35  1  0.195380  0.500000  0.620340  1.0  0.8341
  Na  Na36  1  0.804620  0.500000  0.379660  1.0  0.8334
  Na  Na37  1  0.500000  0.379660  0.195380  1.0  0.8348
  Na  Na38  1  0.500000  0.620340  0.804620  1.0  0.8331
  Na  Na39  1  0.500000  0.379660  0.804620  1.0  0.8334
  Na  Na40  1  0.500000  0.620340  0.195380  1.0  0.8345
  Na  Na41  1  0.500000  0.769200  0.000000  1.0  0.7919
  Na  Na42  1  0.500000  0.230800  0.000000  1.0  0.7909
  Na  Na43  1  0.000000  0.500000  0.769200  1.0  0.7868
  Na  Na44  1  0.000000  0.500000  0.230800  1.0  0.7921
  Na  Na45  1  0.769200  0.000000  0.500000  1.0  0.7901
  Na  Na46  1  0.230800  0.000000  0.500000  1.0  0.8422
  Na  Na47  1  0.269200  0.000000  0.500000  1.0  0.7901
  Na  Na48  1  0.730800  0.000000  0.500000  1.0  0.8422
  Na  Na49  1  0.000000  0.500000  0.730800  1.0  0.7921
  Na  Na50  1  0.000000  0.500000  0.269200  1.0  0.7868
  Na  Na51  1  0.500000  0.269200  0.000000  1.0  0.7919
  Na  Na52  1  0.500000  0.730800  0.000000  1.0  0.7909
  C  C53  1  0.079320  0.844340  0.208900  1.0  0.2723
  C  C54  1  0.049060  0.921430  0.261810  1.0  0.2386
  C  C55  1  0.290890  0.783710  0.159600  1.0  0.2709
  C  C56  1  0.341800  0.806400  0.078660  1.0  0.2666
  C  C57  1  0.036320  0.855800  0.217460  1.0  -0.0189
  C  C58  1  0.022350  0.890990  0.241260  1.0  0.0068
  C  C59  1  0.330750  0.765810  0.147170  1.0  0.0669
  C  C60  1  0.353350  0.775520  0.110160  1.0  0.0873
  C  C61  1  0.920680  0.155660  0.208900  1.0  0.2719
  C  C62  1  0.950940  0.078570  0.261810  1.0  0.2388
  C  C63  1  0.709110  0.216290  0.159600  1.0  0.2699
  C  C64  1  0.658200  0.193600  0.078660  1.0  0.2663
  C  C65  1  0.963680  0.144200  0.217460  1.0  -0.0204
  C  C66  1  0.977650  0.109010  0.241260  1.0  0.0065
  C  C67  1  0.669250  0.234190  0.147170  1.0  0.068
  C  C68  1  0.646650  0.224480  0.110160  1.0  0.0876
  C  C69  1  0.920680  0.844340  0.791100  1.0  0.2719
  C  C70  1  0.950940  0.921430  0.738190  1.0  0.2388
  C  C71  1  0.709110  0.783710  0.840400  1.0  0.2701
  C  C72  1  0.658200  0.806400  0.921340  1.0  0.2664
  C  C73  1  0.963680  0.855800  0.782540  1.0  -0.0192
  C  C74  1  0.977650  0.890990  0.758740  1.0  0.0052
  C  C75  1  0.669250  0.765810  0.852830  1.0  0.0668
  C  C76  1  0.646650  0.775520  0.889840  1.0  0.0867
  C  C77  1  0.079320  0.155660  0.791100  1.0  0.2726
  C  C78  1  0.049060  0.078570  0.738190  1.0  0.2383
  C  C79  1  0.290890  0.216290  0.840400  1.0  0.27
  C  C80  1  0.341800  0.193600  0.921340  1.0  0.2661
  C  C81  1  0.036320  0.144200  0.782540  1.0  -0.0187
  C  C82  1  0.022350  0.109010  0.758740  1.0  0.0076
  C  C83  1  0.330750  0.234190  0.852830  1.0  0.0667
  C  C84  1  0.353350  0.224480  0.889840  1.0  0.0867
  C  C85  1  0.208900  0.079320  0.844340  1.0  0.2729
  C  C86  1  0.261810  0.049060  0.921430  1.0  0.2392
  C  C87  1  0.159600  0.290890  0.783710  1.0  0.2684
  C  C88  1  0.078660  0.341800  0.806400  1.0  0.2655
  C  C89  1  0.217460  0.036320  0.855800  1.0  -0.0229
  C  C90  1  0.241260  0.022350  0.890990  1.0  0.0053
  C  C91  1  0.147170  0.330750  0.765810  1.0  0.0673
  C  C92  1  0.110160  0.353350  0.775520  1.0  0.0869
  C  C93  1  0.208900  0.920680  0.155660  1.0  0.2735
  C  C94  1  0.261810  0.950940  0.078570  1.0  0.2387
  C  C95  1  0.159600  0.709110  0.216290  1.0  0.2677
  C  C96  1  0.078660  0.658200  0.193600  1.0  0.2657
  C  C97  1  0.217460  0.963680  0.144200  1.0  -0.0209
  C  C98  1  0.241260  0.977650  0.109010  1.0  0.006
  C  C99  1  0.147170  0.669250  0.234190  1.0  0.065
  C  C100  1  0.110160  0.646650  0.224480  1.0  0.0884
  C  C101  1  0.791100  0.920680  0.844340  1.0  0.273
  C  C102  1  0.738190  0.950940  0.921430  1.0  0.2391
  C  C103  1  0.840400  0.709110  0.783710  1.0  0.2674
  C  C104  1  0.921340  0.658200  0.806400  1.0  0.2647
  C  C105  1  0.782540  0.963680  0.855800  1.0  -0.0221
  C  C106  1  0.758740  0.977650  0.890990  1.0  0.006
  C  C107  1  0.852830  0.669250  0.765810  1.0  0.0651
  C  C108  1  0.889840  0.646650  0.775520  1.0  0.0874
  C  C109  1  0.791100  0.079320  0.155660  1.0  0.2728
  C  C110  1  0.738190  0.049060  0.078570  1.0  0.2388
  C  C111  1  0.840400  0.290890  0.216290  1.0  0.2679
  C  C112  1  0.921340  0.341800  0.193600  1.0  0.2643
  C  C113  1  0.782540  0.036320  0.144200  1.0  -0.0222
  C  C114  1  0.758740  0.022350  0.109010  1.0  0.0063
  C  C115  1  0.852830  0.330750  0.234190  1.0  0.0657
  C  C116  1  0.889840  0.353350  0.224480  1.0  0.0886
  C  C117  1  0.844340  0.208900  0.079320  1.0  0.2728
  C  C118  1  0.921430  0.261810  0.049060  1.0  0.2383
  C  C119  1  0.783710  0.159600  0.290890  1.0  0.2695
  C  C120  1  0.806400  0.078660  0.341800  1.0  0.2647
  C  C121  1  0.855800  0.217460  0.036320  1.0  -0.022
  C  C122  1  0.890990  0.241260  0.022350  1.0  0.0072
  C  C123  1  0.765810  0.147170  0.330750  1.0  0.0637
  C  C124  1  0.775520  0.110160  0.353350  1.0  0.0894
  C  C125  1  0.155660  0.208900  0.920680  1.0  0.2738
  C  C126  1  0.078570  0.261810  0.950940  1.0  0.2392
  C  C127  1  0.216290  0.159600  0.709110  1.0  0.27
  C  C128  1  0.193600  0.078660  0.658200  1.0  0.2663
  C  C129  1  0.144200  0.217460  0.963680  1.0  -0.0227
  C  C130  1  0.109010  0.241260  0.977650  1.0  0.0068
  C  C131  1  0.234190  0.147170  0.669250  1.0  0.0646
  C  C132  1  0.224480  0.110160  0.646650  1.0  0.0876
  C  C133  1  0.844340  0.791100  0.920680  1.0  0.2741
  C  C134  1  0.921430  0.738190  0.950940  1.0  0.2381
  C  C135  1  0.783710  0.840400  0.709110  1.0  0.2689
  C  C136  1  0.806400  0.921340  0.658200  1.0  0.2647
  C  C137  1  0.855800  0.782540  0.963680  1.0  -0.023
  C  C138  1  0.890990  0.758740  0.977650  1.0  0.0084
  C  C139  1  0.765810  0.852830  0.669250  1.0  0.0646
  C  C140  1  0.775520  0.889840  0.646650  1.0  0.0894
  C  C141  1  0.155660  0.791100  0.079320  1.0  0.2732
  C  C142  1  0.078570  0.738190  0.049060  1.0  0.239
  C  C143  1  0.216290  0.840400  0.290890  1.0  0.2694
  C  C144  1  0.193600  0.921340  0.341800  1.0  0.2654
  C  C145  1  0.144200  0.782540  0.036320  1.0  -0.0228
  C  C146  1  0.109010  0.758740  0.022350  1.0  0.0059
  C  C147  1  0.234190  0.852830  0.330750  1.0  0.0648
  C  C148  1  0.224480  0.889840  0.353350  1.0  0.0874
  C  C149  1  0.344340  0.579320  0.291100  1.0  0.2727
  C  C150  1  0.421430  0.549060  0.238190  1.0  0.2386
  C  C151  1  0.283710  0.790890  0.340400  1.0  0.2676
  C  C152  1  0.306400  0.841800  0.421340  1.0  0.2647
  C  C153  1  0.355800  0.536320  0.282540  1.0  -0.0219
  C  C154  1  0.390990  0.522350  0.258740  1.0  0.0082
  C  C155  1  0.265810  0.830750  0.352830  1.0  0.0673
  C  C156  1  0.275520  0.853350  0.389840  1.0  0.0879
  C  C157  1  0.655660  0.420680  0.291100  1.0  0.2729
  C  C158  1  0.578570  0.450940  0.238190  1.0  0.2395
  C  C159  1  0.716290  0.209110  0.340400  1.0  0.2679
  C  C160  1  0.693600  0.158200  0.421340  1.0  0.266
  C  C161  1  0.644200  0.463680  0.282540  1.0  -0.0209
  C  C162  1  0.609010  0.477650  0.258740  1.0  0.0063
  C  C163  1  0.734190  0.169250  0.352830  1.0  0.0658
  C  C164  1  0.724480  0.146650  0.389840  1.0  0.0856
  C  C165  1  0.344340  0.420680  0.708900  1.0  0.2728
  C  C166  1  0.421430  0.450940  0.761810  1.0  0.2393
  C  C167  1  0.283710  0.209110  0.659600  1.0  0.2673
  C  C168  1  0.306400  0.158200  0.578660  1.0  0.2652
  C  C169  1  0.355800  0.463680  0.717460  1.0  -0.0214
  C  C170  1  0.390990  0.477650  0.741260  1.0  0.0088
  C  C171  1  0.265810  0.169250  0.647170  1.0  0.0658
  C  C172  1  0.275520  0.146650  0.610160  1.0  0.088
  C  C173  1  0.655660  0.579320  0.708900  1.0  0.2726
  C  C174  1  0.578570  0.549060  0.761810  1.0  0.2398
  C  C175  1  0.716290  0.790890  0.659600  1.0  0.2686
  C  C176  1  0.693600  0.841800  0.578660  1.0  0.2659
  C  C177  1  0.644200  0.536320  0.717460  1.0  -0.0228
  C  C178  1  0.609010  0.522350  0.741260  1.0  0.0069
  C  C179  1  0.734190  0.830750  0.647170  1.0  0.0682
  C  C180  1  0.724480  0.853350  0.610160  1.0  0.0862
  C  C181  1  0.579320  0.708900  0.655660  1.0  0.2726
  C  C182  1  0.549060  0.761810  0.578570  1.0  0.2386
  C  C183  1  0.790890  0.659600  0.716290  1.0  0.2696
  C  C184  1  0.841800  0.578660  0.693600  1.0  0.2657
  C  C185  1  0.536320  0.717460  0.644200  1.0  -0.018
  C  C186  1  0.522350  0.741260  0.609010  1.0  0.0073
  C  C187  1  0.830750  0.647170  0.734190  1.0  0.0667
  C  C188  1  0.853350  0.610160  0.724480  1.0  0.0858
  C  C189  1  0.420680  0.708900  0.344340  1.0  0.2719
  C  C190  1  0.450940  0.761810  0.421430  1.0  0.2394
  C  C191  1  0.209110  0.659600  0.283710  1.0  0.2701
  C  C192  1  0.158200  0.578660  0.306400  1.0  0.2659
  C  C193  1  0.463680  0.717460  0.355800  1.0  -0.0199
  C  C194  1  0.477650  0.741260  0.390990  1.0  0.0057
  C  C195  1  0.169250  0.647170  0.265810  1.0  0.0678
  C  C196  1  0.146650  0.610160  0.275520  1.0  0.0851
  C  C197  1  0.420680  0.291100  0.655660  1.0  0.2721
  C  C198  1  0.450940  0.238190  0.578570  1.0  0.2387
  C  C199  1  0.209110  0.340400  0.716290  1.0  0.2688
  C  C200  1  0.158200  0.421340  0.693600  1.0  0.2656
  C  C201  1  0.463680  0.282540  0.644200  1.0  -0.0194
  C  C202  1  0.477650  0.258740  0.609010  1.0  0.0058
  C  C203  1  0.169250  0.352830  0.734190  1.0  0.0676
  C  C204  1  0.146650  0.389840  0.724480  1.0  0.0864
  C  C205  1  0.579320  0.291100  0.344340  1.0  0.2725
  C  C206  1  0.549060  0.238190  0.421430  1.0  0.2389
  C  C207  1  0.790890  0.340400  0.283710  1.0  0.2698
  C  C208  1  0.841800  0.421340  0.306400  1.0  0.2654
  C  C209  1  0.536320  0.282540  0.355800  1.0  -0.0195
  C  C210  1  0.522350  0.258740  0.390990  1.0  0.0073
  C  C211  1  0.830750  0.352830  0.265810  1.0  0.0675
  C  C212  1  0.853350  0.389840  0.275520  1.0  0.0846
  C  C213  1  0.708900  0.344340  0.420680  1.0  0.2743
  C  C214  1  0.761810  0.421430  0.450940  1.0  0.2384
  C  C215  1  0.659600  0.283710  0.209110  1.0  0.27
  C  C216  1  0.578660  0.306400  0.158200  1.0  0.2665
  C  C217  1  0.717460  0.355800  0.463680  1.0  -0.0231
  C  C218  1  0.741260  0.390990  0.477650  1.0  0.0051
  C  C219  1  0.647170  0.265810  0.169250  1.0  0.0657
  C  C220  1  0.610160  0.275520  0.146650  1.0  0.0871
  C  C221  1  0.708900  0.655660  0.579320  1.0  0.2734
  C  C222  1  0.761810  0.578570  0.549060  1.0  0.2381
  C  C223  1  0.659600  0.716290  0.790890  1.0  0.27
  C  C224  1  0.578660  0.693600  0.841800  1.0  0.2659
  C  C225  1  0.717460  0.644200  0.536320  1.0  -0.0231
  C  C226  1  0.741260  0.609010  0.522350  1.0  0.0054
  C  C227  1  0.647170  0.734190  0.830750  1.0  0.0663
  C  C228  1  0.610160  0.724480  0.853350  1.0  0.0872
  C  C229  1  0.291100  0.344340  0.579320  1.0  0.2731
  C  C230  1  0.238190  0.421430  0.549060  1.0  0.2382
  C  C231  1  0.340400  0.283710  0.790890  1.0  0.2703
  C  C232  1  0.421340  0.306400  0.841800  1.0  0.2651
  C  C233  1  0.282540  0.355800  0.536320  1.0  -0.023
  C  C234  1  0.258740  0.390990  0.522350  1.0  0.0044
  C  C235  1  0.352830  0.265810  0.830750  1.0  0.0658
  C  C236  1  0.389840  0.275520  0.853350  1.0  0.0876
  C  C237  1  0.291100  0.655660  0.420680  1.0  0.2742
  C  C238  1  0.238190  0.578570  0.450940  1.0  0.238
  C  C239  1  0.340400  0.716290  0.209110  1.0  0.2697
  C  C240  1  0.421340  0.693600  0.158200  1.0  0.2653
  C  C241  1  0.282540  0.644200  0.463680  1.0  -0.0237
  C  C242  1  0.258740  0.609010  0.477650  1.0  0.006
  C  C243  1  0.352830  0.734190  0.169250  1.0  0.0661
  C  C244  1  0.389840  0.724480  0.146650  1.0  0.0881
  C  C245  1  0.920680  0.155660  0.791100  1.0  0.272
  C  C246  1  0.950940  0.078570  0.738190  1.0  0.2384
  C  C247  1  0.709110  0.216290  0.840400  1.0  0.2697
  C  C248  1  0.658200  0.193600  0.921340  1.0  0.2663
  C  C249  1  0.963680  0.144200  0.782540  1.0  -0.0194
  C  C250  1  0.977650  0.109010  0.758740  1.0  0.0054
  C  C251  1  0.669250  0.234190  0.852830  1.0  0.0675
  C  C252  1  0.646650  0.224480  0.889840  1.0  0.087
  C  C253  1  0.079320  0.844340  0.791100  1.0  0.2725
  C  C254  1  0.049060  0.921430  0.738190  1.0  0.2384
  C  C255  1  0.290890  0.783710  0.840400  1.0  0.2704
  C  C256  1  0.341800  0.806400  0.921340  1.0  0.2662
  C  C257  1  0.036320  0.855800  0.782540  1.0  -0.0179
  C  C258  1  0.022350  0.890990  0.758740  1.0  0.0064
  C  C259  1  0.330750  0.765810  0.852830  1.0  0.0663
  C  C260  1  0.353350  0.775520  0.889840  1.0  0.0864
  C  C261  1  0.079320  0.155660  0.208900  1.0  0.2725
  C  C262  1  0.049060  0.078570  0.261810  1.0  0.2386
  C  C263  1  0.290890  0.216290  0.159600  1.0  0.2705
  C  C264  1  0.341800  0.193600  0.078660  1.0  0.2662
  C  C265  1  0.036320  0.144200  0.217460  1.0  -0.0194
  C  C266  1  0.022350  0.109010  0.241260  1.0  0.0077
  C  C267  1  0.330750  0.234190  0.147170  1.0  0.0674
  C  C268  1  0.353350  0.224480  0.110160  1.0  0.0872
  C  C269  1  0.920680  0.844340  0.208900  1.0  0.2717
  C  C270  1  0.950940  0.921430  0.261810  1.0  0.2392
  C  C271  1  0.709110  0.783710  0.159600  1.0  0.2704
  C  C272  1  0.658200  0.806400  0.078660  1.0  0.2668
  C  C273  1  0.963680  0.855800  0.217460  1.0  -0.0199
  C  C274  1  0.977650  0.890990  0.241260  1.0  0.0054
  C  C275  1  0.669250  0.765810  0.147170  1.0  0.0672
  C  C276  1  0.646650  0.775520  0.110160  1.0  0.0878
  C  C277  1  0.791100  0.920680  0.155660  1.0  0.2731
  C  C278  1  0.738190  0.950940  0.078570  1.0  0.2386
  C  C279  1  0.840400  0.709110  0.216290  1.0  0.2674
  C  C280  1  0.921340  0.658200  0.193600  1.0  0.2646
  C  C281  1  0.782540  0.963680  0.144200  1.0  -0.0209
  C  C282  1  0.758740  0.977650  0.109010  1.0  0.0058
  C  C283  1  0.852830  0.669250  0.234190  1.0  0.0648
  C  C284  1  0.889840  0.646650  0.224480  1.0  0.0886
  C  C285  1  0.791100  0.079320  0.844340  1.0  0.2728
  C  C286  1  0.738190  0.049060  0.921430  1.0  0.2392
  C  C287  1  0.840400  0.290890  0.783710  1.0  0.2683
  C  C288  1  0.921340  0.341800  0.806400  1.0  0.2645
  C  C289  1  0.782540  0.036320  0.855800  1.0  -0.023
  C  C290  1  0.758740  0.022350  0.890990  1.0  0.0054
  C  C291  1  0.852830  0.330750  0.765810  1.0  0.0668
  C  C292  1  0.889840  0.353350  0.775520  1.0  0.0877
  C  C293  1  0.208900  0.079320  0.155660  1.0  0.273
  C  C294  1  0.261810  0.049060  0.078570  1.0  0.2388
  C  C295  1  0.159600  0.290890  0.216290  1.0  0.268
  C  C296  1  0.078660  0.341800  0.193600  1.0  0.2654
  C  C297  1  0.217460  0.036320  0.144200  1.0  -0.0217
  C  C298  1  0.241260  0.022350  0.109010  1.0  0.0057
  C  C299  1  0.147170  0.330750  0.234190  1.0  0.0661
  C  C300  1  0.110160  0.353350  0.224480  1.0  0.0881
  C  C301  1  0.208900  0.920680  0.844340  1.0  0.2734
  C  C302  1  0.261810  0.950940  0.921430  1.0  0.2393
  C  C303  1  0.159600  0.709110  0.783710  1.0  0.2675
  C  C304  1  0.078660  0.658200  0.806400  1.0  0.2657
  C  C305  1  0.217460  0.963680  0.855800  1.0  -0.0217
  C  C306  1  0.241260  0.977650  0.890990  1.0  0.0056
  C  C307  1  0.147170  0.669250  0.765810  1.0  0.0655
  C  C308  1  0.110160  0.646650  0.775520  1.0  0.0869
  C  C309  1  0.155660  0.791100  0.920680  1.0  0.2741
  C  C310  1  0.078570  0.738190  0.950940  1.0  0.2392
  C  C311  1  0.216290  0.840400  0.709110  1.0  0.2695
  C  C312  1  0.193600  0.921340  0.658200  1.0  0.2658
  C  C313  1  0.144200  0.782540  0.963680  1.0  -0.023
  C  C314  1  0.109010  0.758740  0.977650  1.0  0.0064
  C  C315  1  0.234190  0.852830  0.669250  1.0  0.0651
  C  C316  1  0.224480  0.889840  0.646650  1.0  0.0874
  C  C317  1  0.844340  0.791100  0.079320  1.0  0.2731
  C  C318  1  0.921430  0.738190  0.049060  1.0  0.2379
  C  C319  1  0.783710  0.840400  0.290890  1.0  0.269
  C  C320  1  0.806400  0.921340  0.341800  1.0  0.2644
  C  C321  1  0.855800  0.782540  0.036320  1.0  -0.0224
  C  C322  1  0.890990  0.758740  0.022350  1.0  0.0073
  C  C323  1  0.765810  0.852830  0.330750  1.0  0.0644
  C  C324  1  0.775520  0.889840  0.353350  1.0  0.0892
  C  C325  1  0.155660  0.208900  0.079320  1.0  0.273
  C  C326  1  0.078570  0.261810  0.049060  1.0  0.2391
  C  C327  1  0.216290  0.159600  0.290890  1.0  0.27
  C  C328  1  0.193600  0.078660  0.341800  1.0  0.2658
  C  C329  1  0.144200  0.217460  0.036320  1.0  -0.022
  C  C330  1  0.109010  0.241260  0.022350  1.0  0.0056
  C  C331  1  0.234190  0.147170  0.330750  1.0  0.0644
  C  C332  1  0.224480  0.110160  0.353350  1.0  0.0874
  C  C333  1  0.844340  0.208900  0.920680  1.0  0.2737
  C  C334  1  0.921430  0.261810  0.950940  1.0  0.2384
  C  C335  1  0.783710  0.159600  0.709110  1.0  0.2694
  C  C336  1  0.806400  0.078660  0.658200  1.0  0.2652
  C  C337  1  0.855800  0.217460  0.963680  1.0  -0.0223
  C  C338  1  0.890990  0.241260  0.977650  1.0  0.008
  C  C339  1  0.765810  0.147170  0.669250  1.0  0.0639
  C  C340  1  0.775520  0.110160  0.646650  1.0  0.0898
  C  C341  1  0.655660  0.420680  0.708900  1.0  0.2727
  C  C342  1  0.578570  0.450940  0.761810  1.0  0.2399
  C  C343  1  0.716290  0.209110  0.659600  1.0  0.268
  C  C344  1  0.693600  0.158200  0.578660  1.0  0.2663
  C  C345  1  0.644200  0.463680  0.717460  1.0  -0.0214
  C  C346  1  0.609010  0.477650  0.741260  1.0  0.0068
  C  C347  1  0.734190  0.169250  0.647170  1.0  0.0663
  C  C348  1  0.724480  0.146650  0.610160  1.0  0.0865
  C  C349  1  0.344340  0.579320  0.708900  1.0  0.2726
  C  C350  1  0.421430  0.549060  0.761810  1.0  0.239
  C  C351  1  0.283710  0.790890  0.659600  1.0  0.2679
  C  C352  1  0.306400  0.841800  0.578660  1.0  0.2648
  C  C353  1  0.355800  0.536320  0.717460  1.0  -0.0225
  C  C354  1  0.390990  0.522350  0.741260  1.0  0.008
  C  C355  1  0.265810  0.830750  0.647170  1.0  0.0677
  C  C356  1  0.275520  0.853350  0.610160  1.0  0.0881
  C  C357  1  0.655660  0.579320  0.291100  1.0  0.2727
  C  C358  1  0.578570  0.549060  0.238190  1.0  0.2395
  C  C359  1  0.716290  0.790890  0.340400  1.0  0.2683
  C  C360  1  0.693600  0.841800  0.421340  1.0  0.2658
  C  C361  1  0.644200  0.536320  0.282540  1.0  -0.0219
  C  C362  1  0.609010  0.522350  0.258740  1.0  0.0065
  C  C363  1  0.734190  0.830750  0.352830  1.0  0.0677
  C  C364  1  0.724480  0.853350  0.389840  1.0  0.0856
  C  C365  1  0.344340  0.420680  0.291100  1.0  0.273
  C  C366  1  0.421430  0.450940  0.238190  1.0  0.2388
  C  C367  1  0.283710  0.209110  0.340400  1.0  0.2673
  C  C368  1  0.306400  0.158200  0.421340  1.0  0.2648
  C  C369  1  0.355800  0.463680  0.282540  1.0  -0.0206
  C  C370  1  0.390990  0.477650  0.258740  1.0  0.0081
  C  C371  1  0.265810  0.169250  0.352830  1.0  0.0654
  C  C372  1  0.275520  0.146650  0.389840  1.0  0.0874
  C  C373  1  0.420680  0.291100  0.344340  1.0  0.272
  C  C374  1  0.450940  0.238190  0.421430  1.0  0.2392
  C  C375  1  0.209110  0.340400  0.283710  1.0  0.2694
  C  C376  1  0.158200  0.421340  0.306400  1.0  0.2656
  C  C377  1  0.463680  0.282540  0.355800  1.0  -0.0201
  C  C378  1  0.477650  0.258740  0.390990  1.0  0.0055
  C  C379  1  0.169250  0.352830  0.265810  1.0  0.0688
  C  C380  1  0.146650  0.389840  0.275520  1.0  0.0849
  C  C381  1  0.579320  0.291100  0.655660  1.0  0.2727
  C  C382  1  0.549060  0.238190  0.578570  1.0  0.2383
  C  C383  1  0.790890  0.340400  0.716290  1.0  0.2691
  C  C384  1  0.841800  0.421340  0.693600  1.0  0.2654
  C  C385  1  0.536320  0.282540  0.644200  1.0  -0.0184
  C  C386  1  0.522350  0.258740  0.609010  1.0  0.0072
  C  C387  1  0.830750  0.352830  0.734190  1.0  0.0669
  C  C388  1  0.853350  0.389840  0.724480  1.0  0.086
  C  C389  1  0.579320  0.708900  0.344340  1.0  0.2724
  C  C390  1  0.549060  0.761810  0.421430  1.0  0.239
  C  C391  1  0.790890  0.659600  0.283710  1.0  0.2704
  C  C392  1  0.841800  0.578660  0.306400  1.0  0.2658
  C  C393  1  0.536320  0.717460  0.355800  1.0  -0.0189
  C  C394  1  0.522350  0.741260  0.390990  1.0  0.0066
  C  C395  1  0.830750  0.647170  0.265810  1.0  0.0669
  C  C396  1  0.853350  0.610160  0.275520  1.0  0.0848
  C  C397  1  0.420680  0.708900  0.655660  1.0  0.2719
  C  C398  1  0.450940  0.761810  0.578570  1.0  0.2389
  C  C399  1  0.209110  0.659600  0.716290  1.0  0.2694
  C  C400  1  0.158200  0.578660  0.693600  1.0  0.2658
  C  C401  1  0.463680  0.717460  0.644200  1.0  -0.0188
  C  C402  1  0.477650  0.741260  0.609010  1.0  0.006
  C  C403  1  0.169250  0.647170  0.734190  1.0  0.0671
  C  C404  1  0.146650  0.610160  0.724480  1.0  0.0862
  C  C405  1  0.291100  0.655660  0.579320  1.0  0.2733
  C  C406  1  0.238190  0.578570  0.549060  1.0  0.238
  C  C407  1  0.340400  0.716290  0.790890  1.0  0.2699
  C  C408  1  0.421340  0.693600  0.841800  1.0  0.2649
  C  C409  1  0.282540  0.644200  0.536320  1.0  -0.0232
  C  C410  1  0.258740  0.609010  0.522350  1.0  0.0054
  C  C411  1  0.352830  0.734190  0.830750  1.0  0.0659
  C  C412  1  0.389840  0.724480  0.853350  1.0  0.088
  C  C413  1  0.291100  0.344340  0.420680  1.0  0.274
  C  C414  1  0.238190  0.421430  0.450940  1.0  0.2385
  C  C415  1  0.340400  0.283710  0.209110  1.0  0.2699
  C  C416  1  0.421340  0.306400  0.158200  1.0  0.2655
  C  C417  1  0.282540  0.355800  0.463680  1.0  -0.0231
  C  C418  1  0.258740  0.390990  0.477650  1.0  0.0054
  C  C419  1  0.352830  0.265810  0.169250  1.0  0.0656
  C  C420  1  0.389840  0.275520  0.146650  1.0  0.0874
  C  C421  1  0.708900  0.655660  0.420680  1.0  0.2744
  C  C422  1  0.761810  0.578570  0.450940  1.0  0.2381
  C  C423  1  0.659600  0.716290  0.209110  1.0  0.2697
  C  C424  1  0.578660  0.693600  0.158200  1.0  0.2662
  C  C425  1  0.717460  0.644200  0.463680  1.0  -0.0232
  C  C426  1  0.741260  0.609010  0.477650  1.0  0.0059
  C  C427  1  0.647170  0.734190  0.169250  1.0  0.0663
  C  C428  1  0.610160  0.724480  0.146650  1.0  0.0874
  C  C429  1  0.708900  0.344340  0.579320  1.0  0.2732
  C  C430  1  0.761810  0.421430  0.549060  1.0  0.2381
  C  C431  1  0.659600  0.283710  0.790890  1.0  0.2705
  C  C432  1  0.578660  0.306400  0.841800  1.0  0.2662
  C  C433  1  0.717460  0.355800  0.536320  1.0  -0.0225
  C  C434  1  0.741260  0.390990  0.522350  1.0  0.0038
  C  C435  1  0.647170  0.265810  0.830750  1.0  0.0661
  C  C436  1  0.610160  0.275520  0.853350  1.0  0.0872
  C  C437  1  0.373400  0.960800  0.000000  1.0  0.0579
  C  C438  1  0.416300  0.900100  0.000000  1.0  -0.0256
  C  C439  1  0.438900  0.857700  0.000000  1.0  -0.0448
  C  C440  1  0.626600  0.039200  0.000000  1.0  0.0556
  C  C441  1  0.583700  0.099900  0.000000  1.0  -0.0277
  C  C442  1  0.561100  0.142300  0.000000  1.0  -0.0443
  C  C443  1  0.626600  0.960800  0.000000  1.0  0.0561
  C  C444  1  0.583700  0.900100  0.000000  1.0  -0.0274
  C  C445  1  0.561100  0.857700  0.000000  1.0  -0.0449
  C  C446  1  0.373400  0.039200  0.000000  1.0  0.0576
  C  C447  1  0.416300  0.099900  0.000000  1.0  -0.0261
  C  C448  1  0.438900  0.142300  0.000000  1.0  -0.0439
  C  C449  1  0.000000  0.373400  0.960800  1.0  0.0569
  C  C450  1  0.000000  0.416300  0.900100  1.0  -0.0269
  C  C451  1  0.000000  0.438900  0.857700  1.0  -0.0487
  C  C452  1  0.000000  0.626600  0.039200  1.0  0.0558
  C  C453  1  0.000000  0.583700  0.099900  1.0  -0.03
  C  C454  1  0.000000  0.561100  0.142300  1.0  -0.048
  C  C455  1  0.000000  0.626600  0.960800  1.0  0.0559
  C  C456  1  0.000000  0.583700  0.900100  1.0  -0.0304
  C  C457  1  0.000000  0.561100  0.857700  1.0  -0.0483
  C  C458  1  0.000000  0.373400  0.039200  1.0  0.0567
  C  C459  1  0.000000  0.416300  0.099900  1.0  -0.0264
  C  C460  1  0.000000  0.438900  0.142300  1.0  -0.0487
  C  C461  1  0.960800  0.000000  0.373400  1.0  0.0558
  C  C462  1  0.900100  0.000000  0.416300  1.0  -0.0258
  C  C463  1  0.857700  0.000000  0.438900  1.0  -0.048
  C  C464  1  0.039200  0.000000  0.626600  1.0  0.0559
  C  C465  1  0.099900  0.000000  0.583700  1.0  -0.0279
  C  C466  1  0.142300  0.000000  0.561100  1.0  -0.0464
  C  C467  1  0.960800  0.000000  0.626600  1.0  0.0553
  C  C468  1  0.900100  0.000000  0.583700  1.0  -0.0252
  C  C469  1  0.857700  0.000000  0.561100  1.0  -0.0471
  C  C470  1  0.039200  0.000000  0.373400  1.0  0.0567
  C  C471  1  0.099900  0.000000  0.416300  1.0  -0.0289
  C  C472  1  0.142300  0.000000  0.438900  1.0  -0.0481
  C  C473  1  0.460800  0.873400  0.500000  1.0  0.0605
  C  C474  1  0.400100  0.916300  0.500000  1.0  -0.0215
  C  C475  1  0.357700  0.938900  0.500000  1.0  -0.0477
  C  C476  1  0.539200  0.126600  0.500000  1.0  0.058
  C  C477  1  0.599900  0.083700  0.500000  1.0  -0.0269
  C  C478  1  0.642300  0.061100  0.500000  1.0  -0.0468
  C  C479  1  0.460800  0.126600  0.500000  1.0  0.0578
  C  C480  1  0.400100  0.083700  0.500000  1.0  -0.0248
  C  C481  1  0.357700  0.061100  0.500000  1.0  -0.0473
  C  C482  1  0.539200  0.873400  0.500000  1.0  0.0601
  C  C483  1  0.599900  0.916300  0.500000  1.0  -0.0237
  C  C484  1  0.642300  0.938900  0.500000  1.0  -0.0474
  C  C485  1  0.873400  0.500000  0.539200  1.0  0.0614
  C  C486  1  0.916300  0.500000  0.599900  1.0  -0.0227
  C  C487  1  0.938900  0.500000  0.642300  1.0  -0.0457
  C  C488  1  0.126600  0.500000  0.460800  1.0  0.0597
  C  C489  1  0.083700  0.500000  0.400100  1.0  -0.0255
  C  C490  1  0.061100  0.500000  0.357700  1.0  -0.0466
  C  C491  1  0.126600  0.500000  0.539200  1.0  0.059
  C  C492  1  0.083700  0.500000  0.599900  1.0  -0.0247
  C  C493  1  0.061100  0.500000  0.642300  1.0  -0.0464
  C  C494  1  0.873400  0.500000  0.460800  1.0  0.0614
  C  C495  1  0.916300  0.500000  0.400100  1.0  -0.0236
  C  C496  1  0.938900  0.500000  0.357700  1.0  -0.0463
  C  C497  1  0.500000  0.460800  0.126600  1.0  0.0589
  C  C498  1  0.500000  0.400100  0.083700  1.0  -0.0258
  C  C499  1  0.500000  0.357700  0.061100  1.0  -0.0465
  C  C500  1  0.500000  0.539200  0.873400  1.0  0.0591
  C  C501  1  0.500000  0.599900  0.916300  1.0  -0.0264
  C  C502  1  0.500000  0.642300  0.938900  1.0  -0.0474
  C  C503  1  0.500000  0.460800  0.873400  1.0  0.0595
  C  C504  1  0.500000  0.400100  0.916300  1.0  -0.0264
  C  C505  1  0.500000  0.357700  0.938900  1.0  -0.0479
  C  C506  1  0.500000  0.539200  0.126600  1.0  0.0577
  C  C507  1  0.500000  0.599900  0.083700  1.0  -0.0255
  C  C508  1  0.500000  0.642300  0.061100  1.0  -0.046
  C  C509  1  0.000000  0.796000  0.177300  1.0  0.2694
  C  C510  1  0.000000  0.834000  0.202400  1.0  -0.0658
  C  C511  1  0.000000  0.204000  0.177300  1.0  0.269
  C  C512  1  0.000000  0.166000  0.202400  1.0  -0.0662
  C  C513  1  0.000000  0.796000  0.822700  1.0  0.2695
  C  C514  1  0.000000  0.834000  0.797600  1.0  -0.0658
  C  C515  1  0.000000  0.204000  0.822700  1.0  0.2687
  C  C516  1  0.000000  0.166000  0.797600  1.0  -0.0664
  C  C517  1  0.177300  0.000000  0.796000  1.0  0.2698
  C  C518  1  0.202400  0.000000  0.834000  1.0  -0.0664
  C  C519  1  0.177300  0.000000  0.204000  1.0  0.2698
  C  C520  1  0.202400  0.000000  0.166000  1.0  -0.0668
  C  C521  1  0.822700  0.000000  0.796000  1.0  0.2684
  C  C522  1  0.797600  0.000000  0.834000  1.0  -0.0643
  C  C523  1  0.822700  0.000000  0.204000  1.0  0.2685
  C  C524  1  0.797600  0.000000  0.166000  1.0  -0.0644
  C  C525  1  0.796000  0.177300  0.000000  1.0  0.2713
  C  C526  1  0.834000  0.202400  0.000000  1.0  -0.0646
  C  C527  1  0.204000  0.177300  0.000000  1.0  0.2704
  C  C528  1  0.166000  0.202400  0.000000  1.0  -0.0624
  C  C529  1  0.796000  0.822700  0.000000  1.0  0.2706
  C  C530  1  0.834000  0.797600  0.000000  1.0  -0.064
  C  C531  1  0.204000  0.822700  0.000000  1.0  0.2698
  C  C532  1  0.166000  0.797600  0.000000  1.0  -0.0624
  C  C533  1  0.296000  0.500000  0.322700  1.0  0.2703
  C  C534  1  0.334000  0.500000  0.297600  1.0  -0.0646
  C  C535  1  0.704000  0.500000  0.322700  1.0  0.2697
  C  C536  1  0.666000  0.500000  0.297600  1.0  -0.0628
  C  C537  1  0.296000  0.500000  0.677300  1.0  0.2703
  C  C538  1  0.334000  0.500000  0.702400  1.0  -0.0646
  C  C539  1  0.704000  0.500000  0.677300  1.0  0.2694
  C  C540  1  0.666000  0.500000  0.702400  1.0  -0.0631
  C  C541  1  0.500000  0.677300  0.704000  1.0  0.2702
  C  C542  1  0.500000  0.702400  0.666000  1.0  -0.067
  C  C543  1  0.500000  0.677300  0.296000  1.0  0.2697
  C  C544  1  0.500000  0.702400  0.334000  1.0  -0.0667
  C  C545  1  0.500000  0.322700  0.704000  1.0  0.2695
  C  C546  1  0.500000  0.297600  0.666000  1.0  -0.0673
  C  C547  1  0.500000  0.322700  0.296000  1.0  0.2696
  C  C548  1  0.500000  0.297600  0.334000  1.0  -0.0663
  C  C549  1  0.677300  0.296000  0.500000  1.0  0.27
  C  C550  1  0.702400  0.334000  0.500000  1.0  -0.065
  C  C551  1  0.677300  0.704000  0.500000  1.0  0.2693
  C  C552  1  0.702400  0.666000  0.500000  1.0  -0.0654
  C  C553  1  0.322700  0.296000  0.500000  1.0  0.2686
  C  C554  1  0.297600  0.334000  0.500000  1.0  -0.0628
  C  C555  1  0.322700  0.704000  0.500000  1.0  0.2679
  C  C556  1  0.297600  0.666000  0.500000  1.0  -0.0631
  C  C557  1  0.422400  0.750000  0.077600  1.0  0.214
  C  C558  1  0.390090  0.750000  0.109910  1.0  -0.0234
  C  C559  1  0.577600  0.250000  0.077600  1.0  0.212
  C  C560  1  0.609910  0.250000  0.109910  1.0  -0.0246
  C  C561  1  0.577600  0.750000  0.922400  1.0  0.2128
  C  C562  1  0.609910  0.750000  0.890090  1.0  -0.0264
  C  C563  1  0.422400  0.250000  0.922400  1.0  0.2147
  C  C564  1  0.390090  0.250000  0.890090  1.0  -0.025
  C  C565  1  0.077600  0.422400  0.750000  1.0  0.2117
  C  C566  1  0.109910  0.390090  0.750000  1.0  -0.0244
  C  C567  1  0.077600  0.577600  0.250000  1.0  0.212
  C  C568  1  0.109910  0.609910  0.250000  1.0  -0.0246
  C  C569  1  0.922400  0.577600  0.750000  1.0  0.2142
  C  C570  1  0.890090  0.609910  0.750000  1.0  -0.023
  C  C571  1  0.922400  0.422400  0.250000  1.0  0.2137
  C  C572  1  0.890090  0.390090  0.250000  1.0  -0.0231
  C  C573  1  0.750000  0.077600  0.422400  1.0  0.2153
  C  C574  1  0.750000  0.109910  0.390090  1.0  -0.0266
  C  C575  1  0.250000  0.077600  0.577600  1.0  0.2144
  C  C576  1  0.250000  0.109910  0.609910  1.0  -0.0252
  C  C577  1  0.750000  0.922400  0.577600  1.0  0.2142
  C  C578  1  0.750000  0.890090  0.609910  1.0  -0.0248
  C  C579  1  0.250000  0.922400  0.422400  1.0  0.215
  C  C580  1  0.250000  0.890090  0.390090  1.0  -0.0268
  C  C581  1  0.577600  0.250000  0.922400  1.0  0.2128
  C  C582  1  0.609910  0.250000  0.890090  1.0  -0.0264
  C  C583  1  0.422400  0.750000  0.922400  1.0  0.2147
  C  C584  1  0.390090  0.750000  0.890090  1.0  -0.025
  C  C585  1  0.422400  0.250000  0.077600  1.0  0.214
  C  C586  1  0.390090  0.250000  0.109910  1.0  -0.0234
  C  C587  1  0.577600  0.750000  0.077600  1.0  0.212
  C  C588  1  0.609910  0.750000  0.109910  1.0  -0.0246
  C  C589  1  0.922400  0.577600  0.250000  1.0  0.2142
  C  C590  1  0.890090  0.609910  0.250000  1.0  -0.023
  C  C591  1  0.922400  0.422400  0.750000  1.0  0.2137
  C  C592  1  0.890090  0.390090  0.750000  1.0  -0.0231
  C  C593  1  0.077600  0.422400  0.250000  1.0  0.2117
  C  C594  1  0.109910  0.390090  0.250000  1.0  -0.0244
  C  C595  1  0.077600  0.577600  0.750000  1.0  0.212
  C  C596  1  0.109910  0.609910  0.750000  1.0  -0.0246
  C  C597  1  0.250000  0.922400  0.577600  1.0  0.2142
  C  C598  1  0.250000  0.890090  0.609910  1.0  -0.0248
  C  C599  1  0.750000  0.922400  0.422400  1.0  0.215
  C  C600  1  0.750000  0.890090  0.390090  1.0  -0.0268
  C  C601  1  0.250000  0.077600  0.422400  1.0  0.2153
  C  C602  1  0.250000  0.109910  0.390090  1.0  -0.0266
  C  C603  1  0.750000  0.077600  0.577600  1.0  0.2144
  C  C604  1  0.750000  0.109910  0.609910  1.0  -0.0252
  C  C605  1  0.345900  0.000000  0.000000  1.0  0.0344
  C  C606  1  0.654100  0.000000  0.000000  1.0  0.0345
  C  C607  1  0.000000  0.345900  0.000000  1.0  0.0325
  C  C608  1  0.000000  0.654100  0.000000  1.0  0.036
  C  C609  1  0.000000  0.000000  0.345900  1.0  0.0262
  C  C610  1  0.000000  0.000000  0.654100  1.0  0.0256
  C  C611  1  0.500000  0.845900  0.500000  1.0  0.0325
  C  C612  1  0.500000  0.154100  0.500000  1.0  0.036
  C  C613  1  0.845900  0.500000  0.500000  1.0  0.0344
  C  C614  1  0.154100  0.500000  0.500000  1.0  0.0345
  C  C615  1  0.500000  0.500000  0.154100  1.0  0.0256
  C  C616  1  0.500000  0.500000  0.845900  1.0  0.0262
  N  N617  1  0.113680  0.834670  0.201680  1.0  -0.432
  N  N618  1  0.070440  0.946120  0.278110  1.0  -0.4335
  N  N619  1  0.258830  0.797920  0.169930  1.0  -0.4214
  N  N620  1  0.332120  0.831340  0.053780  1.0  -0.4298
  N  N621  1  0.886320  0.165330  0.201680  1.0  -0.4309
  N  N622  1  0.929560  0.053880  0.278110  1.0  -0.433
  N  N623  1  0.741170  0.202080  0.169930  1.0  -0.42
  N  N624  1  0.667880  0.168660  0.053780  1.0  -0.4291
  N  N625  1  0.886320  0.834670  0.798320  1.0  -0.431
  N  N626  1  0.929560  0.946120  0.721890  1.0  -0.4336
  N  N627  1  0.741170  0.797920  0.830070  1.0  -0.4203
  N  N628  1  0.667880  0.831340  0.946220  1.0  -0.4289
  N  N629  1  0.113680  0.165330  0.798320  1.0  -0.4321
  N  N630  1  0.070440  0.053880  0.721890  1.0  -0.4318
  N  N631  1  0.258830  0.202080  0.830070  1.0  -0.4203
  N  N632  1  0.332120  0.168660  0.946220  1.0  -0.4276
  N  N633  1  0.201680  0.113680  0.834670  1.0  -0.4343
  N  N634  1  0.278110  0.070440  0.946120  1.0  -0.4344
  N  N635  1  0.169930  0.258830  0.797920  1.0  -0.4233
  N  N636  1  0.053780  0.332120  0.831340  1.0  -0.4258
  N  N637  1  0.201680  0.886320  0.165330  1.0  -0.4328
  N  N638  1  0.278110  0.929560  0.053880  1.0  -0.4327
  N  N639  1  0.169930  0.741170  0.202080  1.0  -0.4261
  N  N640  1  0.053780  0.667880  0.168660  1.0  -0.4269
  N  N641  1  0.798320  0.886320  0.834670  1.0  -0.4329
  N  N642  1  0.721890  0.929560  0.946120  1.0  -0.4332
  N  N643  1  0.830070  0.741170  0.797920  1.0  -0.4254
  N  N644  1  0.946220  0.667880  0.831340  1.0  -0.4258
  N  N645  1  0.798320  0.113680  0.165330  1.0  -0.4345
  N  N646  1  0.721890  0.070440  0.053880  1.0  -0.4353
  N  N647  1  0.830070  0.258830  0.202080  1.0  -0.425
  N  N648  1  0.946220  0.332120  0.168660  1.0  -0.4273
  N  N649  1  0.834670  0.201680  0.113680  1.0  -0.4327
  N  N650  1  0.946120  0.278110  0.070440  1.0  -0.4337
  N  N651  1  0.797920  0.169930  0.258830  1.0  -0.4228
  N  N652  1  0.831340  0.053780  0.332120  1.0  -0.4255
  N  N653  1  0.165330  0.201680  0.886320  1.0  -0.4355
  N  N654  1  0.053880  0.278110  0.929560  1.0  -0.435
  N  N655  1  0.202080  0.169930  0.741170  1.0  -0.4228
  N  N656  1  0.168660  0.053780  0.667880  1.0  -0.425
  N  N657  1  0.834670  0.798320  0.886320  1.0  -0.4355
  N  N658  1  0.946120  0.721890  0.929560  1.0  -0.4347
  N  N659  1  0.797920  0.830070  0.741170  1.0  -0.4216
  N  N660  1  0.831340  0.946220  0.667880  1.0  -0.4263
  N  N661  1  0.165330  0.798320  0.113680  1.0  -0.4327
  N  N662  1  0.053880  0.721890  0.070440  1.0  -0.4332
  N  N663  1  0.202080  0.830070  0.258830  1.0  -0.4239
  N  N664  1  0.168660  0.946220  0.332120  1.0  -0.4258
  N  N665  1  0.334670  0.613680  0.298320  1.0  -0.4348
  N  N666  1  0.446120  0.570440  0.221890  1.0  -0.4335
  N  N667  1  0.297920  0.758830  0.330070  1.0  -0.4211
  N  N668  1  0.331340  0.832120  0.446220  1.0  -0.4267
  N  N669  1  0.665330  0.386320  0.298320  1.0  -0.4331
  N  N670  1  0.553880  0.429560  0.221890  1.0  -0.4318
  N  N671  1  0.702080  0.241170  0.330070  1.0  -0.4233
  N  N672  1  0.668660  0.167880  0.446220  1.0  -0.4262
  N  N673  1  0.334670  0.386320  0.701680  1.0  -0.4331
  N  N674  1  0.446120  0.429560  0.778110  1.0  -0.4319
  N  N675  1  0.297920  0.241170  0.669930  1.0  -0.4234
  N  N676  1  0.331340  0.167880  0.553780  1.0  -0.4277
  N  N677  1  0.665330  0.613680  0.701680  1.0  -0.4345
  N  N678  1  0.553880  0.570440  0.778110  1.0  -0.4345
  N  N679  1  0.702080  0.758830  0.669930  1.0  -0.4223
  N  N680  1  0.668660  0.832120  0.553780  1.0  -0.4268
  N  N681  1  0.613680  0.701680  0.665330  1.0  -0.432
  N  N682  1  0.570440  0.778110  0.553880  1.0  -0.433
  N  N683  1  0.758830  0.669930  0.702080  1.0  -0.4222
  N  N684  1  0.832120  0.553780  0.668660  1.0  -0.4287
  N  N685  1  0.386320  0.701680  0.334670  1.0  -0.4306
  N  N686  1  0.429560  0.778110  0.446120  1.0  -0.4339
  N  N687  1  0.241170  0.669930  0.297920  1.0  -0.4208
  N  N688  1  0.167880  0.553780  0.331340  1.0  -0.4268
  N  N689  1  0.386320  0.298320  0.665330  1.0  -0.431
  N  N690  1  0.429560  0.221890  0.553880  1.0  -0.4336
  N  N691  1  0.241170  0.330070  0.702080  1.0  -0.4216
  N  N692  1  0.167880  0.446220  0.668660  1.0  -0.429
  N  N693  1  0.613680  0.298320  0.334670  1.0  -0.4317
  N  N694  1  0.570440  0.221890  0.446120  1.0  -0.4325
  N  N695  1  0.758830  0.330070  0.297920  1.0  -0.4212
  N  N696  1  0.832120  0.446220  0.331340  1.0  -0.4283
  N  N697  1  0.701680  0.334670  0.386320  1.0  -0.4352
  N  N698  1  0.778110  0.446120  0.429560  1.0  -0.4355
  N  N699  1  0.669930  0.297920  0.241170  1.0  -0.4237
  N  N700  1  0.553780  0.331340  0.167880  1.0  -0.4266
  N  N701  1  0.701680  0.665330  0.613680  1.0  -0.4327
  N  N702  1  0.778110  0.553880  0.570440  1.0  -0.433
  N  N703  1  0.669930  0.702080  0.758830  1.0  -0.4246
  N  N704  1  0.553780  0.668660  0.832120  1.0  -0.4255
  N  N705  1  0.298320  0.334670  0.613680  1.0  -0.4326
  N  N706  1  0.221890  0.446120  0.570440  1.0  -0.4353
  N  N707  1  0.330070  0.297920  0.758830  1.0  -0.4248
  N  N708  1  0.446220  0.331340  0.832120  1.0  -0.4263
  N  N709  1  0.298320  0.665330  0.386320  1.0  -0.4355
  N  N710  1  0.221890  0.553880  0.429560  1.0  -0.436
  N  N711  1  0.330070  0.702080  0.241170  1.0  -0.4228
  N  N712  1  0.446220  0.668660  0.167880  1.0  -0.4252
  N  N713  1  0.886320  0.165330  0.798320  1.0  -0.4311
  N  N714  1  0.929560  0.053880  0.721890  1.0  -0.4327
  N  N715  1  0.741170  0.202080  0.830070  1.0  -0.4197
  N  N716  1  0.667880  0.168660  0.946220  1.0  -0.4275
  N  N717  1  0.113680  0.834670  0.798320  1.0  -0.432
  N  N718  1  0.070440  0.946120  0.721890  1.0  -0.4328
  N  N719  1  0.258830  0.797920  0.830070  1.0  -0.4209
  N  N720  1  0.332120  0.831340  0.946220  1.0  -0.4289
  N  N721  1  0.113680  0.165330  0.201680  1.0  -0.432
  N  N722  1  0.070440  0.053880  0.278110  1.0  -0.4323
  N  N723  1  0.258830  0.202080  0.169930  1.0  -0.4206
  N  N724  1  0.332120  0.168660  0.053780  1.0  -0.429
  N  N725  1  0.886320  0.834670  0.201680  1.0  -0.4308
  N  N726  1  0.929560  0.946120  0.278110  1.0  -0.4342
  N  N727  1  0.741170  0.797920  0.169930  1.0  -0.4209
  N  N728  1  0.667880  0.831340  0.053780  1.0  -0.43
  N  N729  1  0.798320  0.886320  0.165330  1.0  -0.4332
  N  N730  1  0.721890  0.929560  0.053880  1.0  -0.4336
  N  N731  1  0.830070  0.741170  0.202080  1.0  -0.4262
  N  N732  1  0.946220  0.667880  0.168660  1.0  -0.4268
  N  N733  1  0.798320  0.113680  0.834670  1.0  -0.4344
  N  N734  1  0.721890  0.070440  0.946120  1.0  -0.4355
  N  N735  1  0.830070  0.258830  0.797920  1.0  -0.4233
  N  N736  1  0.946220  0.332120  0.831340  1.0  -0.4255
  N  N737  1  0.201680  0.113680  0.165330  1.0  -0.4344
  N  N738  1  0.278110  0.070440  0.053880  1.0  -0.4345
  N  N739  1  0.169930  0.258830  0.202080  1.0  -0.4248
  N  N740  1  0.053780  0.332120  0.168660  1.0  -0.4274
  N  N741  1  0.201680  0.886320  0.834670  1.0  -0.4325
  N  N742  1  0.278110  0.929560  0.946120  1.0  -0.4322
  N  N743  1  0.169930  0.741170  0.797920  1.0  -0.4254
  N  N744  1  0.053780  0.667880  0.831340  1.0  -0.4261
  N  N745  1  0.165330  0.798320  0.886320  1.0  -0.4354
  N  N746  1  0.053880  0.721890  0.929560  1.0  -0.435
  N  N747  1  0.202080  0.830070  0.741170  1.0  -0.4224
  N  N748  1  0.168660  0.946220  0.667880  1.0  -0.4258
  N  N749  1  0.834670  0.798320  0.113680  1.0  -0.4329
  N  N750  1  0.946120  0.721890  0.070440  1.0  -0.4327
  N  N751  1  0.797920  0.830070  0.258830  1.0  -0.4231
  N  N752  1  0.831340  0.946220  0.332120  1.0  -0.4263
  N  N753  1  0.165330  0.201680  0.113680  1.0  -0.4326
  N  N754  1  0.053880  0.278110  0.070440  1.0  -0.4342
  N  N755  1  0.202080  0.169930  0.258830  1.0  -0.4236
  N  N756  1  0.168660  0.053780  0.332120  1.0  -0.4249
  N  N757  1  0.834670  0.201680  0.886320  1.0  -0.4355
  N  N758  1  0.946120  0.278110  0.929560  1.0  -0.4347
  N  N759  1  0.797920  0.169930  0.741170  1.0  -0.4218
  N  N760  1  0.831340  0.053780  0.667880  1.0  -0.4257
  N  N761  1  0.665330  0.386320  0.701680  1.0  -0.4331
  N  N762  1  0.553880  0.429560  0.778110  1.0  -0.4321
  N  N763  1  0.702080  0.241170  0.669930  1.0  -0.424
  N  N764  1  0.668660  0.167880  0.553780  1.0  -0.4266
  N  N765  1  0.334670  0.613680  0.701680  1.0  -0.4348
  N  N766  1  0.446120  0.570440  0.778110  1.0  -0.4342
  N  N767  1  0.297920  0.758830  0.669930  1.0  -0.4214
  N  N768  1  0.331340  0.832120  0.553780  1.0  -0.428
  N  N769  1  0.665330  0.613680  0.298320  1.0  -0.4345
  N  N770  1  0.553880  0.570440  0.221890  1.0  -0.4338
  N  N771  1  0.702080  0.758830  0.330070  1.0  -0.4221
  N  N772  1  0.668660  0.832120  0.446220  1.0  -0.426
  N  N773  1  0.334670  0.386320  0.298320  1.0  -0.4332
  N  N774  1  0.446120  0.429560  0.221890  1.0  -0.4316
  N  N775  1  0.297920  0.241170  0.330070  1.0  -0.4229
  N  N776  1  0.331340  0.167880  0.446220  1.0  -0.4266
  N  N777  1  0.386320  0.298320  0.334670  1.0  -0.4306
  N  N778  1  0.429560  0.221890  0.446120  1.0  -0.4333
  N  N779  1  0.241170  0.330070  0.297920  1.0  -0.4204
  N  N780  1  0.167880  0.446220  0.331340  1.0  -0.4282
  N  N781  1  0.613680  0.298320  0.665330  1.0  -0.432
  N  N782  1  0.570440  0.221890  0.553880  1.0  -0.4329
  N  N783  1  0.758830  0.330070  0.702080  1.0  -0.4222
  N  N784  1  0.832120  0.446220  0.668660  1.0  -0.4289
  N  N785  1  0.613680  0.701680  0.334670  1.0  -0.4317
  N  N786  1  0.570440  0.778110  0.446120  1.0  -0.4329
  N  N787  1  0.758830  0.669930  0.297920  1.0  -0.4217
  N  N788  1  0.832120  0.553780  0.331340  1.0  -0.4269
  N  N789  1  0.386320  0.701680  0.665330  1.0  -0.4309
  N  N790  1  0.429560  0.778110  0.553880  1.0  -0.4338
  N  N791  1  0.241170  0.669930  0.702080  1.0  -0.4216
  N  N792  1  0.167880  0.553780  0.668660  1.0  -0.4286
  N  N793  1  0.298320  0.665330  0.613680  1.0  -0.4328
  N  N794  1  0.221890  0.553880  0.570440  1.0  -0.4339
  N  N795  1  0.330070  0.702080  0.758830  1.0  -0.4247
  N  N796  1  0.446220  0.668660  0.832120  1.0  -0.4251
  N  N797  1  0.298320  0.334670  0.386320  1.0  -0.4356
  N  N798  1  0.221890  0.446120  0.429560  1.0  -0.4365
  N  N799  1  0.330070  0.297920  0.241170  1.0  -0.4239
  N  N800  1  0.446220  0.331340  0.167880  1.0  -0.4263
  N  N801  1  0.701680  0.665330  0.386320  1.0  -0.4353
  N  N802  1  0.778110  0.553880  0.429560  1.0  -0.4349
  N  N803  1  0.669930  0.702080  0.241170  1.0  -0.4228
  N  N804  1  0.553780  0.668660  0.167880  1.0  -0.4256
  N  N805  1  0.701680  0.334670  0.613680  1.0  -0.4325
  N  N806  1  0.778110  0.446120  0.570440  1.0  -0.4345
  N  N807  1  0.669930  0.297920  0.758830  1.0  -0.4245
  N  N808  1  0.553780  0.331340  0.832120  1.0  -0.4265
  N  N809  1  0.000000  0.765500  0.157600  1.0  -0.4293
  N  N810  1  0.000000  0.234500  0.157600  1.0  -0.4302
  N  N811  1  0.000000  0.765500  0.842400  1.0  -0.4278
  N  N812  1  0.000000  0.234500  0.842400  1.0  -0.4296
  N  N813  1  0.157600  0.000000  0.765500  1.0  -0.427
  N  N814  1  0.157600  0.000000  0.234500  1.0  -0.4261
  N  N815  1  0.842400  0.000000  0.765500  1.0  -0.4272
  N  N816  1  0.842400  0.000000  0.234500  1.0  -0.4259
  N  N817  1  0.765500  0.157600  0.000000  1.0  -0.4259
  N  N818  1  0.234500  0.157600  0.000000  1.0  -0.4252
  N  N819  1  0.765500  0.842400  0.000000  1.0  -0.4275
  N  N820  1  0.234500  0.842400  0.000000  1.0  -0.4271
  N  N821  1  0.265500  0.500000  0.342400  1.0  -0.4254
  N  N822  1  0.734500  0.500000  0.342400  1.0  -0.425
  N  N823  1  0.265500  0.500000  0.657600  1.0  -0.4267
  N  N824  1  0.734500  0.500000  0.657600  1.0  -0.426
  N  N825  1  0.500000  0.657600  0.734500  1.0  -0.4281
  N  N826  1  0.500000  0.657600  0.265500  1.0  -0.4298
  N  N827  1  0.500000  0.342400  0.734500  1.0  -0.4299
  N  N828  1  0.500000  0.342400  0.265500  1.0  -0.431
  N  N829  1  0.657600  0.265500  0.500000  1.0  -0.4261
  N  N830  1  0.657600  0.734500  0.500000  1.0  -0.4274
  N  N831  1  0.342400  0.265500  0.500000  1.0  -0.426
  N  N832  1  0.342400  0.734500  0.500000  1.0  -0.4275
  N  N833  1  0.448370  0.750000  0.051630  1.0  -0.5154
  N  N834  1  0.551630  0.250000  0.051630  1.0  -0.517
  N  N835  1  0.551630  0.750000  0.948370  1.0  -0.5149
  N  N836  1  0.448370  0.250000  0.948370  1.0  -0.5134
  N  N837  1  0.051630  0.448370  0.750000  1.0  -0.5163
  N  N838  1  0.051630  0.551630  0.250000  1.0  -0.5165
  N  N839  1  0.948370  0.551630  0.750000  1.0  -0.5149
  N  N840  1  0.948370  0.448370  0.250000  1.0  -0.5152
  N  N841  1  0.750000  0.051630  0.448370  1.0  -0.5141
  N  N842  1  0.250000  0.051630  0.551630  1.0  -0.5162
  N  N843  1  0.750000  0.948370  0.551630  1.0  -0.5161
  N  N844  1  0.250000  0.948370  0.448370  1.0  -0.5139
  N  N845  1  0.551630  0.250000  0.948370  1.0  -0.5149
  N  N846  1  0.448370  0.750000  0.948370  1.0  -0.5134
  N  N847  1  0.448370  0.250000  0.051630  1.0  -0.5154
  N  N848  1  0.551630  0.750000  0.051630  1.0  -0.517
  N  N849  1  0.948370  0.551630  0.250000  1.0  -0.5149
  N  N850  1  0.948370  0.448370  0.750000  1.0  -0.5152
  N  N851  1  0.051630  0.448370  0.250000  1.0  -0.5163
  N  N852  1  0.051630  0.551630  0.750000  1.0  -0.5165
  N  N853  1  0.250000  0.948370  0.551630  1.0  -0.5161
  N  N854  1  0.750000  0.948370  0.448370  1.0  -0.5139
  N  N855  1  0.250000  0.051630  0.448370  1.0  -0.5141
  N  N856  1  0.750000  0.051630  0.551630  1.0  -0.5162
  O  O857  1  0.374800  0.916300  0.000000  1.0  -0.2033
  O  O858  1  0.625200  0.083700  0.000000  1.0  -0.2045
  O  O859  1  0.625200  0.916300  0.000000  1.0  -0.2042
  O  O860  1  0.374800  0.083700  0.000000  1.0  -0.2036
  O  O861  1  0.000000  0.374800  0.916300  1.0  -0.205
  O  O862  1  0.000000  0.625200  0.083700  1.0  -0.2048
  O  O863  1  0.000000  0.625200  0.916300  1.0  -0.2045
  O  O864  1  0.000000  0.374800  0.083700  1.0  -0.2052
  O  O865  1  0.916300  0.000000  0.374800  1.0  -0.2041
  O  O866  1  0.083700  0.000000  0.625200  1.0  -0.2035
  O  O867  1  0.916300  0.000000  0.625200  1.0  -0.2039
  O  O868  1  0.083700  0.000000  0.374800  1.0  -0.2038
  O  O869  1  0.416300  0.874800  0.500000  1.0  -0.2045
  O  O870  1  0.583700  0.125200  0.500000  1.0  -0.204
  O  O871  1  0.416300  0.125200  0.500000  1.0  -0.2042
  O  O872  1  0.583700  0.874800  0.500000  1.0  -0.2041
  O  O873  1  0.874800  0.500000  0.583700  1.0  -0.2032
  O  O874  1  0.125200  0.500000  0.416300  1.0  -0.2036
  O  O875  1  0.125200  0.500000  0.583700  1.0  -0.2039
  O  O876  1  0.874800  0.500000  0.416300  1.0  -0.2031
  O  O877  1  0.500000  0.416300  0.125200  1.0  -0.2049
  O  O878  1  0.500000  0.583700  0.874800  1.0  -0.205
  O  O879  1  0.500000  0.416300  0.874800  1.0  -0.205
  O  O880  1  0.500000  0.583700  0.125200  1.0  -0.2049
