# generated using pymatgen
data_Si4NiH48(C8N)4
_symmetry_space_group_name_H-M   'P 1'
_cell_length_a   22.90940000
_cell_length_b   22.90940000
_cell_length_c   16.33220000
_cell_angle_alpha   90.00000000
_cell_angle_beta   90.00000000
_cell_angle_gamma   90.00000000
_symmetry_Int_Tables_number   1
_chemical_formula_structural   Si4NiH48(C8N)4
_chemical_formula_sum   'Si32 Ni8 H384 C256 N32'
_cell_volume   8571.80178386
_cell_formula_units_Z   8
loop_
 _symmetry_equiv_pos_site_id
 _symmetry_equiv_pos_as_xyz
  1  'x, y, z'
loop_
 _atom_site_type_symbol
 _atom_site_label
 _atom_site_symmetry_multiplicity
 _atom_site_fract_x
 _atom_site_fract_y
 _atom_site_fract_z
 _atom_site_occupancy
 _atom_site_charge
  Si  Si1  1  0.220910  0.654970  0.766540  1.0  0.9947
  Si  Si2  1  0.720910  0.154970  0.266540  1.0  0.9947
  Si  Si3  1  0.279090  0.345030  0.266540  1.0  0.9957
  Si  Si4  1  0.779090  0.845030  0.766540  1.0  0.9957
  Si  Si5  1  0.904970  0.970910  0.983460  1.0  0.9973
  Si  Si6  1  0.404970  0.470910  0.483460  1.0  0.9973
  Si  Si7  1  0.595030  0.029090  0.483460  1.0  0.9985
  Si  Si8  1  0.095030  0.529090  0.983460  1.0  0.9985
  Si  Si9  1  0.779090  0.345030  0.233460  1.0  0.9965
  Si  Si10  1  0.279090  0.845030  0.733460  1.0  0.9965
  Si  Si11  1  0.720910  0.654970  0.733460  1.0  0.9961
  Si  Si12  1  0.220910  0.154970  0.233460  1.0  0.9961
  Si  Si13  1  0.095030  0.029090  0.016540  1.0  0.997
  Si  Si14  1  0.595030  0.529090  0.516540  1.0  0.997
  Si  Si15  1  0.404970  0.970910  0.516540  1.0  0.9964
  Si  Si16  1  0.904970  0.470910  0.016540  1.0  0.9964
  Si  Si17  1  0.595030  0.970910  0.016540  1.0  0.9964
  Si  Si18  1  0.095030  0.470910  0.516540  1.0  0.9964
  Si  Si19  1  0.904970  0.029090  0.516540  1.0  0.9969
  Si  Si20  1  0.404970  0.529090  0.016540  1.0  0.9969
  Si  Si21  1  0.279090  0.654970  0.233460  1.0  0.9966
  Si  Si22  1  0.779090  0.154970  0.733460  1.0  0.9966
  Si  Si23  1  0.220910  0.345030  0.733460  1.0  0.9959
  Si  Si24  1  0.720910  0.845030  0.233460  1.0  0.9959
  Si  Si25  1  0.404970  0.029090  0.983460  1.0  0.9984
  Si  Si26  1  0.904970  0.529090  0.483460  1.0  0.9984
  Si  Si27  1  0.095030  0.970910  0.483460  1.0  0.9976
  Si  Si28  1  0.595030  0.470910  0.983460  1.0  0.9976
  Si  Si29  1  0.720910  0.345030  0.766540  1.0  0.9946
  Si  Si30  1  0.220910  0.845030  0.266540  1.0  0.9946
  Si  Si31  1  0.779090  0.654970  0.266540  1.0  0.9957
  Si  Si32  1  0.279090  0.154970  0.766540  1.0  0.9957
  Ni  Ni33  1  0.000000  0.750000  0.875000  1.0  0.3358
  Ni  Ni34  1  0.500000  0.250000  0.375000  1.0  0.3358
  Ni  Ni35  1  0.000000  0.250000  0.125000  1.0  0.3358
  Ni  Ni36  1  0.500000  0.750000  0.625000  1.0  0.3358
  Ni  Ni37  1  0.500000  0.750000  0.125000  1.0  0.3358
  Ni  Ni38  1  0.000000  0.250000  0.625000  1.0  0.3358
  Ni  Ni39  1  0.500000  0.250000  0.875000  1.0  0.3358
  Ni  Ni40  1  0.000000  0.750000  0.375000  1.0  0.3358
  H  H41  1  0.123200  0.715600  0.840100  1.0  0.0525
  H  H42  1  0.134400  0.618400  0.635300  1.0  0.0724
  H  H43  1  0.034000  0.630600  0.617200  1.0  0.0837
  H  H44  1  0.981100  0.684000  0.712700  1.0  0.0546
  H  H45  1  0.268500  0.643100  0.894300  1.0  0.1252
  H  H46  1  0.212200  0.683800  0.905400  1.0  0.1109
  H  H47  1  0.204800  0.614500  0.898200  1.0  0.1308
  H  H48  1  0.289000  0.582200  0.727600  1.0  0.1208
  H  H49  1  0.225200  0.554100  0.735100  1.0  0.1067
  H  H50  1  0.242300  0.591600  0.655900  1.0  0.1099
  H  H51  1  0.255400  0.724300  0.670100  1.0  0.1036
  H  H52  1  0.302500  0.716200  0.741400  1.0  0.1052
  H  H53  1  0.623200  0.215600  0.340100  1.0  0.0525
  H  H54  1  0.634400  0.118400  0.135300  1.0  0.0724
  H  H55  1  0.534000  0.130600  0.117200  1.0  0.0837
  H  H56  1  0.481100  0.184000  0.212700  1.0  0.0546
  H  H57  1  0.768500  0.143100  0.394300  1.0  0.1252
  H  H58  1  0.712200  0.183800  0.405400  1.0  0.1109
  H  H59  1  0.704800  0.114500  0.398200  1.0  0.1308
  H  H60  1  0.789000  0.082200  0.227600  1.0  0.1208
  H  H61  1  0.725200  0.054100  0.235100  1.0  0.1067
  H  H62  1  0.742300  0.091600  0.155900  1.0  0.1099
  H  H63  1  0.755400  0.224300  0.170100  1.0  0.1036
  H  H64  1  0.802500  0.216200  0.241400  1.0  0.1052
  H  H65  1  0.376800  0.284400  0.340100  1.0  0.0524
  H  H66  1  0.365600  0.381600  0.135300  1.0  0.0723
  H  H67  1  0.466000  0.369400  0.117200  1.0  0.0833
  H  H68  1  0.518900  0.316000  0.212700  1.0  0.0553
  H  H69  1  0.231500  0.356900  0.394300  1.0  0.1246
  H  H70  1  0.287800  0.316200  0.405400  1.0  0.1117
  H  H71  1  0.295200  0.385500  0.398200  1.0  0.131
  H  H72  1  0.211000  0.417800  0.227600  1.0  0.1216
  H  H73  1  0.274800  0.445900  0.235100  1.0  0.1066
  H  H74  1  0.257700  0.408400  0.155900  1.0  0.109
  H  H75  1  0.244600  0.275700  0.170100  1.0  0.1037
  H  H76  1  0.197500  0.283800  0.241400  1.0  0.1055
  H  H77  1  0.876800  0.784400  0.840100  1.0  0.0524
  H  H78  1  0.865600  0.881600  0.635300  1.0  0.0723
  H  H79  1  0.966000  0.869400  0.617200  1.0  0.0834
  H  H80  1  0.018900  0.816000  0.712700  1.0  0.0553
  H  H81  1  0.731500  0.856900  0.894300  1.0  0.1246
  H  H82  1  0.787800  0.816200  0.905400  1.0  0.1117
  H  H83  1  0.795200  0.885500  0.898200  1.0  0.131
  H  H84  1  0.711000  0.917800  0.727600  1.0  0.1216
  H  H85  1  0.774800  0.945900  0.735100  1.0  0.1066
  H  H86  1  0.757700  0.908400  0.655900  1.0  0.109
  H  H87  1  0.744600  0.775700  0.670100  1.0  0.1037
  H  H88  1  0.697500  0.783800  0.741400  1.0  0.1055
  H  H89  1  0.965600  0.873200  0.909900  1.0  0.0538
  H  H90  1  0.868400  0.884400  0.114700  1.0  0.0731
  H  H91  1  0.880600  0.784000  0.132800  1.0  0.0865
  H  H92  1  0.934000  0.731100  0.037300  1.0  0.056
  H  H93  1  0.893100  0.018500  0.855700  1.0  0.1248
  H  H94  1  0.933800  0.962200  0.844600  1.0  0.1118
  H  H95  1  0.864500  0.954800  0.851800  1.0  0.13
  H  H96  1  0.832200  0.039000  0.022400  1.0  0.1203
  H  H97  1  0.804100  0.975200  0.014900  1.0  0.1067
  H  H98  1  0.841600  0.992300  0.094100  1.0  0.1095
  H  H99  1  0.974300  0.005400  0.079900  1.0  0.1035
  H  H100  1  0.966200  0.052500  0.008600  1.0  0.1077
  H  H101  1  0.465600  0.373200  0.409900  1.0  0.0538
  H  H102  1  0.368400  0.384400  0.614700  1.0  0.0731
  H  H103  1  0.380600  0.284000  0.632800  1.0  0.0865
  H  H104  1  0.434000  0.231100  0.537300  1.0  0.056
  H  H105  1  0.393100  0.518500  0.355700  1.0  0.1248
  H  H106  1  0.433800  0.462200  0.344600  1.0  0.1118
  H  H107  1  0.364500  0.454800  0.351800  1.0  0.13
  H  H108  1  0.332200  0.539000  0.522400  1.0  0.1203
  H  H109  1  0.304100  0.475200  0.514900  1.0  0.1067
  H  H110  1  0.341600  0.492300  0.594100  1.0  0.1095
  H  H111  1  0.474300  0.505400  0.579900  1.0  0.1035
  H  H112  1  0.466200  0.552500  0.508600  1.0  0.1077
  H  H113  1  0.534400  0.126800  0.409900  1.0  0.0534
  H  H114  1  0.631600  0.115600  0.614700  1.0  0.0736
  H  H115  1  0.619400  0.216000  0.632800  1.0  0.0825
  H  H116  1  0.566000  0.268900  0.537300  1.0  0.0561
  H  H117  1  0.606900  0.981500  0.355700  1.0  0.1242
  H  H118  1  0.566200  0.037800  0.344600  1.0  0.1131
  H  H119  1  0.635500  0.045200  0.351800  1.0  0.1298
  H  H120  1  0.667800  0.961000  0.522400  1.0  0.121
  H  H121  1  0.695900  0.024800  0.514900  1.0  0.1061
  H  H122  1  0.658400  0.007700  0.594100  1.0  0.1089
  H  H123  1  0.525700  0.994600  0.579900  1.0  0.1036
  H  H124  1  0.533800  0.947500  0.508600  1.0  0.1072
  H  H125  1  0.034400  0.626800  0.909900  1.0  0.0534
  H  H126  1  0.131600  0.615600  0.114700  1.0  0.0736
  H  H127  1  0.119400  0.716000  0.132800  1.0  0.0825
  H  H128  1  0.066000  0.768900  0.037300  1.0  0.0561
  H  H129  1  0.106900  0.481500  0.855700  1.0  0.1242
  H  H130  1  0.066200  0.537800  0.844600  1.0  0.1131
  H  H131  1  0.135500  0.545200  0.851800  1.0  0.1298
  H  H132  1  0.167800  0.461000  0.022400  1.0  0.121
  H  H133  1  0.195900  0.524800  0.014900  1.0  0.1061
  H  H134  1  0.158400  0.507700  0.094100  1.0  0.1089
  H  H135  1  0.025700  0.494600  0.079900  1.0  0.1036
  H  H136  1  0.033800  0.447500  0.008600  1.0  0.1072
  H  H137  1  0.876800  0.284400  0.159900  1.0  0.0523
  H  H138  1  0.865600  0.381600  0.364700  1.0  0.0729
  H  H139  1  0.966000  0.369400  0.382800  1.0  0.0843
  H  H140  1  0.018900  0.316000  0.287300  1.0  0.0556
  H  H141  1  0.731500  0.356900  0.105700  1.0  0.1244
  H  H142  1  0.787800  0.316200  0.094600  1.0  0.1109
  H  H143  1  0.795200  0.385500  0.101800  1.0  0.1315
  H  H144  1  0.711000  0.417800  0.272400  1.0  0.1215
  H  H145  1  0.774800  0.445900  0.264900  1.0  0.1069
  H  H146  1  0.757700  0.408400  0.344100  1.0  0.1101
  H  H147  1  0.744600  0.275700  0.329900  1.0  0.1029
  H  H148  1  0.697500  0.283800  0.258600  1.0  0.1066
  H  H149  1  0.376800  0.784400  0.659900  1.0  0.0523
  H  H150  1  0.365600  0.881600  0.864700  1.0  0.0729
  H  H151  1  0.466000  0.869400  0.882800  1.0  0.0843
  H  H152  1  0.518900  0.816000  0.787300  1.0  0.0556
  H  H153  1  0.231500  0.856900  0.605700  1.0  0.1244
  H  H154  1  0.287800  0.816200  0.594600  1.0  0.1109
  H  H155  1  0.295200  0.885500  0.601800  1.0  0.1315
  H  H156  1  0.211000  0.917800  0.772400  1.0  0.1215
  H  H157  1  0.274800  0.945900  0.764900  1.0  0.1069
  H  H158  1  0.257700  0.908400  0.844100  1.0  0.1101
  H  H159  1  0.244600  0.775700  0.829900  1.0  0.1029
  H  H160  1  0.197500  0.783800  0.758600  1.0  0.1066
  H  H161  1  0.623200  0.715600  0.659900  1.0  0.0528
  H  H162  1  0.634400  0.618400  0.864700  1.0  0.0735
  H  H163  1  0.534000  0.630600  0.882800  1.0  0.0851
  H  H164  1  0.481100  0.684000  0.787300  1.0  0.0544
  H  H165  1  0.768500  0.643100  0.605700  1.0  0.1253
  H  H166  1  0.712200  0.683800  0.594600  1.0  0.1121
  H  H167  1  0.704800  0.614500  0.601800  1.0  0.1307
  H  H168  1  0.789000  0.582200  0.772400  1.0  0.1203
  H  H169  1  0.725200  0.554100  0.764900  1.0  0.1071
  H  H170  1  0.742300  0.591600  0.844100  1.0  0.11
  H  H171  1  0.755400  0.724300  0.829900  1.0  0.103
  H  H172  1  0.802500  0.716200  0.758600  1.0  0.1059
  H  H173  1  0.123200  0.215600  0.159900  1.0  0.0528
  H  H174  1  0.134400  0.118400  0.364700  1.0  0.0735
  H  H175  1  0.034000  0.130600  0.382800  1.0  0.0851
  H  H176  1  0.981100  0.184000  0.287300  1.0  0.0544
  H  H177  1  0.268500  0.143100  0.105700  1.0  0.1253
  H  H178  1  0.212200  0.183800  0.094600  1.0  0.1121
  H  H179  1  0.204800  0.114500  0.101800  1.0  0.1307
  H  H180  1  0.289000  0.082200  0.272400  1.0  0.1203
  H  H181  1  0.225200  0.054100  0.264900  1.0  0.1071
  H  H182  1  0.242300  0.091600  0.344100  1.0  0.11
  H  H183  1  0.255400  0.224300  0.329900  1.0  0.103
  H  H184  1  0.302500  0.216200  0.258600  1.0  0.1059
  H  H185  1  0.034400  0.126800  0.090100  1.0  0.0533
  H  H186  1  0.131600  0.115600  0.885300  1.0  0.0727
  H  H187  1  0.119400  0.216000  0.867200  1.0  0.0811
  H  H188  1  0.066000  0.268900  0.962700  1.0  0.0556
  H  H189  1  0.106900  0.981500  0.144300  1.0  0.1244
  H  H190  1  0.066200  0.037800  0.155400  1.0  0.1124
  H  H191  1  0.135500  0.045200  0.148200  1.0  0.1299
  H  H192  1  0.167800  0.961000  0.977600  1.0  0.1215
  H  H193  1  0.195900  0.024800  0.985100  1.0  0.1058
  H  H194  1  0.158400  0.007700  0.905900  1.0  0.1077
  H  H195  1  0.025700  0.994600  0.920100  1.0  0.105
  H  H196  1  0.033800  0.947500  0.991400  1.0  0.1071
  H  H197  1  0.534400  0.626800  0.590100  1.0  0.0533
  H  H198  1  0.631600  0.615600  0.385300  1.0  0.0727
  H  H199  1  0.619400  0.716000  0.367200  1.0  0.0811
  H  H200  1  0.566000  0.768900  0.462700  1.0  0.0556
  H  H201  1  0.606900  0.481500  0.644300  1.0  0.1244
  H  H202  1  0.566200  0.537800  0.655400  1.0  0.1124
  H  H203  1  0.635500  0.545200  0.648200  1.0  0.1299
  H  H204  1  0.667800  0.461000  0.477600  1.0  0.1215
  H  H205  1  0.695900  0.524800  0.485100  1.0  0.1058
  H  H206  1  0.658400  0.507700  0.405900  1.0  0.1077
  H  H207  1  0.525700  0.494600  0.420100  1.0  0.105
  H  H208  1  0.533800  0.447500  0.491400  1.0  0.1071
  H  H209  1  0.465600  0.873200  0.590100  1.0  0.0535
  H  H210  1  0.368400  0.884400  0.385300  1.0  0.0725
  H  H211  1  0.380600  0.784000  0.367200  1.0  0.0844
  H  H212  1  0.434000  0.731100  0.462700  1.0  0.0558
  H  H213  1  0.393100  0.018500  0.644300  1.0  0.1246
  H  H214  1  0.433800  0.962200  0.655400  1.0  0.1113
  H  H215  1  0.364500  0.954800  0.648200  1.0  0.1298
  H  H216  1  0.332200  0.039000  0.477600  1.0  0.1205
  H  H217  1  0.304100  0.975200  0.485100  1.0  0.1061
  H  H218  1  0.341600  0.992300  0.405900  1.0  0.1087
  H  H219  1  0.474300  0.005400  0.420100  1.0  0.1042
  H  H220  1  0.466200  0.052500  0.491400  1.0  0.1071
  H  H221  1  0.965600  0.373200  0.090100  1.0  0.0535
  H  H222  1  0.868400  0.384400  0.885300  1.0  0.0725
  H  H223  1  0.880600  0.284000  0.867200  1.0  0.0844
  H  H224  1  0.934000  0.231100  0.962700  1.0  0.0558
  H  H225  1  0.893100  0.518500  0.144300  1.0  0.1246
  H  H226  1  0.933800  0.462200  0.155400  1.0  0.1113
  H  H227  1  0.864500  0.454800  0.148200  1.0  0.1298
  H  H228  1  0.832200  0.539000  0.977600  1.0  0.1205
  H  H229  1  0.804100  0.475200  0.985100  1.0  0.1061
  H  H230  1  0.841600  0.492300  0.905900  1.0  0.1087
  H  H231  1  0.974300  0.505400  0.920100  1.0  0.1042
  H  H232  1  0.966200  0.552500  0.991400  1.0  0.1071
  H  H233  1  0.534400  0.873200  0.090100  1.0  0.0529
  H  H234  1  0.631600  0.884400  0.885300  1.0  0.0726
  H  H235  1  0.619400  0.784000  0.867200  1.0  0.0813
  H  H236  1  0.566000  0.731100  0.962700  1.0  0.056
  H  H237  1  0.606900  0.018500  0.144300  1.0  0.1235
  H  H238  1  0.566200  0.962200  0.155400  1.0  0.1125
  H  H239  1  0.635500  0.954800  0.148200  1.0  0.13
  H  H240  1  0.667800  0.039000  0.977600  1.0  0.12
  H  H241  1  0.695900  0.975200  0.985100  1.0  0.1057
  H  H242  1  0.658400  0.992300  0.905900  1.0  0.1079
  H  H243  1  0.525700  0.005400  0.920100  1.0  0.1047
  H  H244  1  0.533800  0.052500  0.991400  1.0  0.1073
  H  H245  1  0.034400  0.373200  0.590100  1.0  0.0529
  H  H246  1  0.131600  0.384400  0.385300  1.0  0.0726
  H  H247  1  0.119400  0.284000  0.367200  1.0  0.0813
  H  H248  1  0.066000  0.231100  0.462700  1.0  0.056
  H  H249  1  0.106900  0.518500  0.644300  1.0  0.1235
  H  H250  1  0.066200  0.462200  0.655400  1.0  0.1125
  H  H251  1  0.135500  0.454800  0.648200  1.0  0.13
  H  H252  1  0.167800  0.539000  0.477600  1.0  0.12
  H  H253  1  0.195900  0.475200  0.485100  1.0  0.1056
  H  H254  1  0.158400  0.492300  0.405900  1.0  0.1079
  H  H255  1  0.025700  0.505400  0.420100  1.0  0.1047
  H  H256  1  0.033800  0.552500  0.491400  1.0  0.1073
  H  H257  1  0.965600  0.126800  0.590100  1.0  0.0539
  H  H258  1  0.868400  0.115600  0.385300  1.0  0.0724
  H  H259  1  0.880600  0.216000  0.367200  1.0  0.0836
  H  H260  1  0.934000  0.268900  0.462700  1.0  0.0554
  H  H261  1  0.893100  0.981500  0.644300  1.0  0.1253
  H  H262  1  0.933800  0.037800  0.655400  1.0  0.1113
  H  H263  1  0.864500  0.045200  0.648200  1.0  0.1299
  H  H264  1  0.832200  0.961000  0.477600  1.0  0.1225
  H  H265  1  0.804100  0.024800  0.485100  1.0  0.1062
  H  H266  1  0.841600  0.007700  0.405900  1.0  0.1086
  H  H267  1  0.974300  0.994600  0.420100  1.0  0.1043
  H  H268  1  0.966200  0.947500  0.491400  1.0  0.1065
  H  H269  1  0.465600  0.626800  0.090100  1.0  0.0539
  H  H270  1  0.368400  0.615600  0.885300  1.0  0.0724
  H  H271  1  0.380600  0.716000  0.867200  1.0  0.0836
  H  H272  1  0.434000  0.768900  0.962700  1.0  0.0554
  H  H273  1  0.393100  0.481500  0.144300  1.0  0.1253
  H  H274  1  0.433800  0.537800  0.155400  1.0  0.1113
  H  H275  1  0.364500  0.545200  0.148200  1.0  0.1299
  H  H276  1  0.332200  0.461000  0.977600  1.0  0.1225
  H  H277  1  0.304100  0.524800  0.985100  1.0  0.1062
  H  H278  1  0.341600  0.507700  0.905900  1.0  0.1086
  H  H279  1  0.474300  0.494600  0.920100  1.0  0.1043
  H  H280  1  0.466200  0.447500  0.991400  1.0  0.1065
  H  H281  1  0.376800  0.715600  0.159900  1.0  0.0527
  H  H282  1  0.365600  0.618400  0.364700  1.0  0.0732
  H  H283  1  0.466000  0.630600  0.382800  1.0  0.0852
  H  H284  1  0.518900  0.684000  0.287300  1.0  0.0552
  H  H285  1  0.231500  0.643100  0.105700  1.0  0.1246
  H  H286  1  0.287800  0.683800  0.094600  1.0  0.1116
  H  H287  1  0.295200  0.614500  0.101800  1.0  0.1312
  H  H288  1  0.211000  0.582200  0.272400  1.0  0.1217
  H  H289  1  0.274800  0.554100  0.264900  1.0  0.1071
  H  H290  1  0.257700  0.591600  0.344100  1.0  0.1101
  H  H291  1  0.244600  0.724300  0.329900  1.0  0.103
  H  H292  1  0.197500  0.716200  0.258600  1.0  0.1066
  H  H293  1  0.876800  0.215600  0.659900  1.0  0.0527
  H  H294  1  0.865600  0.118400  0.864700  1.0  0.0732
  H  H295  1  0.966000  0.130600  0.882800  1.0  0.0854
  H  H296  1  0.018900  0.184000  0.787300  1.0  0.0552
  H  H297  1  0.731500  0.143100  0.605700  1.0  0.1246
  H  H298  1  0.787800  0.183800  0.594600  1.0  0.1116
  H  H299  1  0.795200  0.114500  0.601800  1.0  0.1312
  H  H300  1  0.711000  0.082200  0.772400  1.0  0.1217
  H  H301  1  0.774800  0.054100  0.764900  1.0  0.1071
  H  H302  1  0.757700  0.091600  0.844100  1.0  0.1101
  H  H303  1  0.744600  0.224300  0.829900  1.0  0.103
  H  H304  1  0.697500  0.216200  0.758600  1.0  0.1066
  H  H305  1  0.123200  0.284400  0.659900  1.0  0.0523
  H  H306  1  0.134400  0.381600  0.864700  1.0  0.0733
  H  H307  1  0.034000  0.369400  0.882800  1.0  0.0824
  H  H308  1  0.981100  0.316000  0.787300  1.0  0.0548
  H  H309  1  0.268500  0.356900  0.605700  1.0  0.1251
  H  H310  1  0.212200  0.316200  0.594600  1.0  0.111
  H  H311  1  0.204800  0.385500  0.601800  1.0  0.1313
  H  H312  1  0.289000  0.417800  0.772400  1.0  0.1201
  H  H313  1  0.225200  0.445900  0.764900  1.0  0.1074
  H  H314  1  0.242300  0.408400  0.844100  1.0  0.1101
  H  H315  1  0.255400  0.275700  0.829900  1.0  0.1029
  H  H316  1  0.302500  0.283800  0.758600  1.0  0.1062
  H  H317  1  0.623200  0.784400  0.159900  1.0  0.0523
  H  H318  1  0.634400  0.881600  0.364700  1.0  0.0733
  H  H319  1  0.534000  0.869400  0.382800  1.0  0.0824
  H  H320  1  0.481100  0.816000  0.287300  1.0  0.0548
  H  H321  1  0.768500  0.856900  0.105700  1.0  0.1251
  H  H322  1  0.712200  0.816200  0.094600  1.0  0.111
  H  H323  1  0.704800  0.885500  0.101800  1.0  0.1313
  H  H324  1  0.789000  0.917800  0.272400  1.0  0.1201
  H  H325  1  0.725200  0.945900  0.264900  1.0  0.1074
  H  H326  1  0.742300  0.908400  0.344100  1.0  0.1101
  H  H327  1  0.755400  0.775700  0.329900  1.0  0.1029
  H  H328  1  0.802500  0.783800  0.258600  1.0  0.1062
  H  H329  1  0.465600  0.126800  0.909900  1.0  0.054
  H  H330  1  0.368400  0.115600  0.114700  1.0  0.0735
  H  H331  1  0.380600  0.216000  0.132800  1.0  0.0844
  H  H332  1  0.434000  0.268900  0.037300  1.0  0.0559
  H  H333  1  0.393100  0.981500  0.855700  1.0  0.1251
  H  H334  1  0.433800  0.037800  0.844600  1.0  0.1119
  H  H335  1  0.364500  0.045200  0.851800  1.0  0.1302
  H  H336  1  0.332200  0.961000  0.022400  1.0  0.1221
  H  H337  1  0.304100  0.024800  0.014900  1.0  0.1067
  H  H338  1  0.341600  0.007700  0.094100  1.0  0.1099
  H  H339  1  0.474300  0.994600  0.079900  1.0  0.1035
  H  H340  1  0.466200  0.947500  0.008600  1.0  0.1073
  H  H341  1  0.965600  0.626800  0.409900  1.0  0.054
  H  H342  1  0.868400  0.615600  0.614700  1.0  0.0735
  H  H343  1  0.880600  0.716000  0.632800  1.0  0.0844
  H  H344  1  0.934000  0.768900  0.537300  1.0  0.0559
  H  H345  1  0.893100  0.481500  0.355700  1.0  0.1251
  H  H346  1  0.933800  0.537800  0.344600  1.0  0.1119
  H  H347  1  0.864500  0.545200  0.351800  1.0  0.1302
  H  H348  1  0.832200  0.461000  0.522400  1.0  0.1221
  H  H349  1  0.804100  0.524800  0.514900  1.0  0.1067
  H  H350  1  0.841600  0.507700  0.594100  1.0  0.1099
  H  H351  1  0.974300  0.494600  0.579900  1.0  0.1035
  H  H352  1  0.966200  0.447500  0.508600  1.0  0.1073
  H  H353  1  0.034400  0.873200  0.409900  1.0  0.0533
  H  H354  1  0.131600  0.884400  0.614700  1.0  0.0732
  H  H355  1  0.119400  0.784000  0.632800  1.0  0.0828
  H  H356  1  0.066000  0.731100  0.537300  1.0  0.0558
  H  H357  1  0.106900  0.018500  0.355700  1.0  0.1238
  H  H358  1  0.066200  0.962200  0.344600  1.0  0.1129
  H  H359  1  0.135500  0.954800  0.351800  1.0  0.1299
  H  H360  1  0.167800  0.039000  0.522400  1.0  0.1199
  H  H361  1  0.195900  0.975200  0.514900  1.0  0.106
  H  H362  1  0.158400  0.992300  0.594100  1.0  0.1086
  H  H363  1  0.025700  0.005400  0.579900  1.0  0.1035
  H  H364  1  0.033800  0.052500  0.508600  1.0  0.1082
  H  H365  1  0.534400  0.373200  0.909900  1.0  0.0533
  H  H366  1  0.631600  0.384400  0.114700  1.0  0.0732
  H  H367  1  0.619400  0.284000  0.132800  1.0  0.0828
  H  H368  1  0.566000  0.231100  0.037300  1.0  0.0558
  H  H369  1  0.606900  0.518500  0.855700  1.0  0.1238
  H  H370  1  0.566200  0.462200  0.844600  1.0  0.1129
  H  H371  1  0.635500  0.454800  0.851800  1.0  0.1299
  H  H372  1  0.667800  0.539000  0.022400  1.0  0.1199
  H  H373  1  0.695900  0.475200  0.014900  1.0  0.106
  H  H374  1  0.658400  0.492300  0.094100  1.0  0.1086
  H  H375  1  0.525700  0.505400  0.079900  1.0  0.1035
  H  H376  1  0.533800  0.552500  0.008600  1.0  0.1082
  H  H377  1  0.623200  0.284400  0.840100  1.0  0.0527
  H  H378  1  0.634400  0.381600  0.635300  1.0  0.0723
  H  H379  1  0.534000  0.369400  0.617200  1.0  0.0817
  H  H380  1  0.481100  0.316000  0.712700  1.0  0.055
  H  H381  1  0.768500  0.356900  0.894300  1.0  0.1251
  H  H382  1  0.712200  0.316200  0.905400  1.0  0.1115
  H  H383  1  0.704800  0.385500  0.898200  1.0  0.1308
  H  H384  1  0.789000  0.417800  0.727600  1.0  0.1208
  H  H385  1  0.725200  0.445900  0.735100  1.0  0.1069
  H  H386  1  0.742300  0.408400  0.655900  1.0  0.1103
  H  H387  1  0.755400  0.275700  0.670100  1.0  0.1037
  H  H388  1  0.802500  0.283800  0.741400  1.0  0.1055
  H  H389  1  0.123200  0.784400  0.340100  1.0  0.0527
  H  H390  1  0.134400  0.881600  0.135300  1.0  0.0723
  H  H391  1  0.034000  0.869400  0.117200  1.0  0.0817
  H  H392  1  0.981100  0.816000  0.212700  1.0  0.055
  H  H393  1  0.268500  0.856900  0.394300  1.0  0.1251
  H  H394  1  0.212200  0.816200  0.405400  1.0  0.1115
  H  H395  1  0.204800  0.885500  0.398200  1.0  0.1308
  H  H396  1  0.289000  0.917800  0.227600  1.0  0.1208
  H  H397  1  0.225200  0.945900  0.235100  1.0  0.1069
  H  H398  1  0.242300  0.908400  0.155900  1.0  0.1103
  H  H399  1  0.255400  0.775700  0.170100  1.0  0.1037
  H  H400  1  0.302500  0.783800  0.241400  1.0  0.1055
  H  H401  1  0.876800  0.715600  0.340100  1.0  0.0523
  H  H402  1  0.865600  0.618400  0.135300  1.0  0.0723
  H  H403  1  0.966000  0.630600  0.117200  1.0  0.0836
  H  H404  1  0.018900  0.684000  0.212700  1.0  0.055
  H  H405  1  0.731500  0.643100  0.394300  1.0  0.1246
  H  H406  1  0.787800  0.683800  0.405400  1.0  0.1107
  H  H407  1  0.795200  0.614500  0.398200  1.0  0.1314
  H  H408  1  0.711000  0.582200  0.227600  1.0  0.1216
  H  H409  1  0.774800  0.554100  0.235100  1.0  0.1067
  H  H410  1  0.757700  0.591600  0.155900  1.0  0.1087
  H  H411  1  0.744600  0.724300  0.170100  1.0  0.1036
  H  H412  1  0.697500  0.716200  0.241400  1.0  0.1054
  H  H413  1  0.376800  0.215600  0.840100  1.0  0.0523
  H  H414  1  0.365600  0.118400  0.635300  1.0  0.0723
  H  H415  1  0.466000  0.130600  0.617200  1.0  0.0835
  H  H416  1  0.518900  0.184000  0.712700  1.0  0.055
  H  H417  1  0.231500  0.143100  0.894300  1.0  0.1246
  H  H418  1  0.287800  0.183800  0.905400  1.0  0.1107
  H  H419  1  0.295200  0.114500  0.898200  1.0  0.1314
  H  H420  1  0.211000  0.082200  0.727600  1.0  0.1216
  H  H421  1  0.274800  0.054100  0.735100  1.0  0.1067
  H  H422  1  0.257700  0.091600  0.655900  1.0  0.1087
  H  H423  1  0.244600  0.224300  0.670100  1.0  0.1036
  H  H424  1  0.197500  0.216200  0.741400  1.0  0.1054
  C  C425  1  0.105100  0.697500  0.794400  1.0  0.1447
  C  C426  1  0.140700  0.664600  0.741800  1.0  -0.1989
  C  C427  1  0.112500  0.640200  0.674100  1.0  -0.075
  C  C428  1  0.053100  0.647500  0.663100  1.0  -0.1578
  C  C429  1  0.022000  0.679700  0.720000  1.0  0.149
  C  C430  1  0.227400  0.648300  0.879400  1.0  -0.6929
  C  C431  1  0.247500  0.587800  0.715200  1.0  -0.7167
  C  C432  1  0.260300  0.721200  0.730200  1.0  -0.369
  C  C433  1  0.605100  0.197500  0.294400  1.0  0.1447
  C  C434  1  0.640700  0.164600  0.241800  1.0  -0.1989
  C  C435  1  0.612500  0.140200  0.174100  1.0  -0.075
  C  C436  1  0.553100  0.147500  0.163100  1.0  -0.1578
  C  C437  1  0.522000  0.179700  0.220000  1.0  0.149
  C  C438  1  0.727400  0.148300  0.379400  1.0  -0.6929
  C  C439  1  0.747500  0.087800  0.215200  1.0  -0.7167
  C  C440  1  0.760300  0.221200  0.230200  1.0  -0.369
  C  C441  1  0.394900  0.302500  0.294400  1.0  0.1441
  C  C442  1  0.359300  0.335400  0.241800  1.0  -0.1904
  C  C443  1  0.387500  0.359800  0.174100  1.0  -0.0751
  C  C444  1  0.446900  0.352500  0.163100  1.0  -0.1587
  C  C445  1  0.478000  0.320300  0.220000  1.0  0.1466
  C  C446  1  0.272600  0.351700  0.379400  1.0  -0.6925
  C  C447  1  0.252500  0.412200  0.215200  1.0  -0.7166
  C  C448  1  0.239700  0.278800  0.230200  1.0  -0.368
  C  C449  1  0.894900  0.802500  0.794400  1.0  0.1441
  C  C450  1  0.859300  0.835400  0.741800  1.0  -0.1904
  C  C451  1  0.887500  0.859800  0.674100  1.0  -0.0751
  C  C452  1  0.946900  0.852500  0.663100  1.0  -0.1572
  C  C453  1  0.978000  0.820300  0.720000  1.0  0.1466
  C  C454  1  0.772600  0.851700  0.879400  1.0  -0.6925
  C  C455  1  0.752500  0.912200  0.715200  1.0  -0.7166
  C  C456  1  0.739700  0.778800  0.730200  1.0  -0.368
  C  C457  1  0.947500  0.855100  0.955600  1.0  0.1431
  C  C458  1  0.914600  0.890700  0.008200  1.0  -0.1951
  C  C459  1  0.890200  0.862500  0.075900  1.0  -0.0723
  C  C460  1  0.897500  0.803100  0.086900  1.0  -0.1639
  C  C461  1  0.929700  0.772000  0.030000  1.0  0.1492
  C  C462  1  0.898300  0.977400  0.870600  1.0  -0.6915
  C  C463  1  0.837800  0.997500  0.034800  1.0  -0.713
  C  C464  1  0.971200  0.010300  0.019800  1.0  -0.3665
  C  C465  1  0.447500  0.355100  0.455600  1.0  0.1431
  C  C466  1  0.414600  0.390700  0.508200  1.0  -0.1951
  C  C467  1  0.390200  0.362500  0.575900  1.0  -0.0729
  C  C468  1  0.397500  0.303100  0.586900  1.0  -0.1627
  C  C469  1  0.429700  0.272000  0.530000  1.0  0.1492
  C  C470  1  0.398300  0.477400  0.370600  1.0  -0.6915
  C  C471  1  0.337800  0.497500  0.534800  1.0  -0.7128
  C  C472  1  0.471200  0.510300  0.519800  1.0  -0.3665
  C  C473  1  0.552500  0.144900  0.455600  1.0  0.1433
  C  C474  1  0.585400  0.109300  0.508200  1.0  -0.1944
  C  C475  1  0.609800  0.137500  0.575900  1.0  -0.0728
  C  C476  1  0.602500  0.196900  0.586900  1.0  -0.1597
  C  C477  1  0.570300  0.228000  0.530000  1.0  0.1466
  C  C478  1  0.601700  0.022600  0.370600  1.0  -0.6915
  C  C479  1  0.662200  0.002500  0.534800  1.0  -0.7121
  C  C480  1  0.528800  0.989700  0.519800  1.0  -0.3657
  C  C481  1  0.052500  0.644900  0.955600  1.0  0.1433
  C  C482  1  0.085400  0.609300  0.008200  1.0  -0.1944
  C  C483  1  0.109800  0.637500  0.075900  1.0  -0.0725
  C  C484  1  0.102500  0.696900  0.086900  1.0  -0.1597
  C  C485  1  0.070300  0.728000  0.030000  1.0  0.1466
  C  C486  1  0.101700  0.522600  0.870600  1.0  -0.6915
  C  C487  1  0.162200  0.502500  0.034800  1.0  -0.7121
  C  C488  1  0.028800  0.489700  0.019800  1.0  -0.3657
  C  C489  1  0.894900  0.302500  0.205600  1.0  0.1439
  C  C490  1  0.859300  0.335400  0.258200  1.0  -0.1926
  C  C491  1  0.887500  0.359800  0.325900  1.0  -0.0746
  C  C492  1  0.946900  0.352500  0.336900  1.0  -0.1586
  C  C493  1  0.978000  0.320300  0.280000  1.0  0.1461
  C  C494  1  0.772600  0.351700  0.120600  1.0  -0.691
  C  C495  1  0.752500  0.412200  0.284800  1.0  -0.7157
  C  C496  1  0.739700  0.278800  0.269800  1.0  -0.3682
  C  C497  1  0.394900  0.802500  0.705600  1.0  0.1439
  C  C498  1  0.359300  0.835400  0.758200  1.0  -0.1926
  C  C499  1  0.387500  0.859800  0.825900  1.0  -0.0746
  C  C500  1  0.446900  0.852500  0.836900  1.0  -0.1593
  C  C501  1  0.478000  0.820300  0.780000  1.0  0.1461
  C  C502  1  0.272600  0.851700  0.620600  1.0  -0.691
  C  C503  1  0.252500  0.912200  0.784800  1.0  -0.7157
  C  C504  1  0.239700  0.778800  0.769800  1.0  -0.3682
  C  C505  1  0.605100  0.697500  0.705600  1.0  0.1448
  C  C506  1  0.640700  0.664600  0.758200  1.0  -0.1986
  C  C507  1  0.612500  0.640200  0.825900  1.0  -0.074
  C  C508  1  0.553100  0.647500  0.836900  1.0  -0.1591
  C  C509  1  0.522000  0.679700  0.780000  1.0  0.1489
  C  C510  1  0.727400  0.648300  0.620600  1.0  -0.6917
  C  C511  1  0.747500  0.587800  0.784800  1.0  -0.716
  C  C512  1  0.760300  0.721200  0.769800  1.0  -0.3677
  C  C513  1  0.105100  0.197500  0.205600  1.0  0.1448
  C  C514  1  0.140700  0.164600  0.258200  1.0  -0.1986
  C  C515  1  0.112500  0.140200  0.325900  1.0  -0.074
  C  C516  1  0.053100  0.147500  0.336900  1.0  -0.1591
  C  C517  1  0.022000  0.179700  0.280000  1.0  0.1489
  C  C518  1  0.227400  0.148300  0.120600  1.0  -0.6917
  C  C519  1  0.247500  0.087800  0.284800  1.0  -0.716
  C  C520  1  0.260300  0.221200  0.269800  1.0  -0.3677
  C  C521  1  0.052500  0.144900  0.044400  1.0  0.1434
  C  C522  1  0.085400  0.109300  0.991800  1.0  -0.1932
  C  C523  1  0.109800  0.137500  0.924100  1.0  -0.0726
  C  C524  1  0.102500  0.196900  0.913100  1.0  -0.1644
  C  C525  1  0.070300  0.228000  0.970000  1.0  0.1465
  C  C526  1  0.101700  0.022600  0.129400  1.0  -0.693
  C  C527  1  0.162200  0.002500  0.965200  1.0  -0.713
  C  C528  1  0.028800  0.989700  0.980200  1.0  -0.3656
  C  C529  1  0.552500  0.644900  0.544400  1.0  0.1434
  C  C530  1  0.585400  0.609300  0.491800  1.0  -0.1932
  C  C531  1  0.609800  0.637500  0.424100  1.0  -0.0738
  C  C532  1  0.602500  0.696900  0.413100  1.0  -0.1582
  C  C533  1  0.570300  0.728000  0.470000  1.0  0.1465
  C  C534  1  0.601700  0.522600  0.629400  1.0  -0.693
  C  C535  1  0.662200  0.502500  0.465200  1.0  -0.713
  C  C536  1  0.528800  0.489700  0.480200  1.0  -0.3656
  C  C537  1  0.447500  0.855100  0.544400  1.0  0.1432
  C  C538  1  0.414600  0.890700  0.491800  1.0  -0.1937
  C  C539  1  0.390200  0.862500  0.424100  1.0  -0.0739
  C  C540  1  0.397500  0.803100  0.413100  1.0  -0.1612
  C  C541  1  0.429700  0.772000  0.470000  1.0  0.1494
  C  C542  1  0.398300  0.977400  0.629400  1.0  -0.6925
  C  C543  1  0.337800  0.997500  0.465200  1.0  -0.7129
  C  C544  1  0.471200  0.010300  0.480200  1.0  -0.3677
  C  C545  1  0.947500  0.355100  0.044400  1.0  0.1432
  C  C546  1  0.914600  0.390700  0.991800  1.0  -0.1937
  C  C547  1  0.890200  0.362500  0.924100  1.0  -0.0739
  C  C548  1  0.897500  0.303100  0.913100  1.0  -0.1616
  C  C549  1  0.929700  0.272000  0.970000  1.0  0.1494
  C  C550  1  0.898300  0.477400  0.129400  1.0  -0.6925
  C  C551  1  0.837800  0.497500  0.965200  1.0  -0.7131
  C  C552  1  0.971200  0.510300  0.980200  1.0  -0.3677
  C  C553  1  0.552500  0.855100  0.044400  1.0  0.1432
  C  C554  1  0.585400  0.890700  0.991800  1.0  -0.196
  C  C555  1  0.609800  0.862500  0.924100  1.0  -0.0739
  C  C556  1  0.602500  0.803100  0.913100  1.0  -0.1581
  C  C557  1  0.570300  0.772000  0.970000  1.0  0.1504
  C  C558  1  0.601700  0.977400  0.129400  1.0  -0.6934
  C  C559  1  0.662200  0.997500  0.965200  1.0  -0.7128
  C  C560  1  0.528800  0.010300  0.980200  1.0  -0.3679
  C  C561  1  0.052500  0.355100  0.544400  1.0  0.1432
  C  C562  1  0.085400  0.390700  0.491800  1.0  -0.196
  C  C563  1  0.109800  0.362500  0.424100  1.0  -0.0738
  C  C564  1  0.102500  0.303100  0.413100  1.0  -0.1599
  C  C565  1  0.070300  0.272000  0.470000  1.0  0.1504
  C  C566  1  0.101700  0.477400  0.629400  1.0  -0.6934
  C  C567  1  0.162200  0.497500  0.465200  1.0  -0.7125
  C  C568  1  0.028800  0.510300  0.480200  1.0  -0.3679
  C  C569  1  0.947500  0.144900  0.544400  1.0  0.1432
  C  C570  1  0.914600  0.109300  0.491800  1.0  -0.1919
  C  C571  1  0.890200  0.137500  0.424100  1.0  -0.0736
  C  C572  1  0.897500  0.196900  0.413100  1.0  -0.1615
  C  C573  1  0.929700  0.228000  0.470000  1.0  0.1507
  C  C574  1  0.898300  0.022600  0.629400  1.0  -0.6923
  C  C575  1  0.837800  0.002500  0.465200  1.0  -0.7129
  C  C576  1  0.971200  0.989700  0.480200  1.0  -0.3664
  C  C577  1  0.447500  0.644900  0.044400  1.0  0.1432
  C  C578  1  0.414600  0.609300  0.991800  1.0  -0.1919
  C  C579  1  0.390200  0.637500  0.924100  1.0  -0.0737
  C  C580  1  0.397500  0.696900  0.913100  1.0  -0.1617
  C  C581  1  0.429700  0.728000  0.970000  1.0  0.1507
  C  C582  1  0.398300  0.522600  0.129400  1.0  -0.6923
  C  C583  1  0.337800  0.502500  0.965200  1.0  -0.7133
  C  C584  1  0.471200  0.489700  0.980200  1.0  -0.3664
  C  C585  1  0.394900  0.697500  0.205600  1.0  0.1442
  C  C586  1  0.359300  0.664600  0.258200  1.0  -0.1927
  C  C587  1  0.387500  0.640200  0.325900  1.0  -0.0747
  C  C588  1  0.446900  0.647500  0.336900  1.0  -0.1589
  C  C589  1  0.478000  0.679700  0.280000  1.0  0.1482
  C  C590  1  0.272600  0.648300  0.120600  1.0  -0.6915
  C  C591  1  0.252500  0.587800  0.284800  1.0  -0.717
  C  C592  1  0.239700  0.721200  0.269800  1.0  -0.368
  C  C593  1  0.894900  0.197500  0.705600  1.0  0.1442
  C  C594  1  0.859300  0.164600  0.758200  1.0  -0.1927
  C  C595  1  0.887500  0.140200  0.825900  1.0  -0.0747
  C  C596  1  0.946900  0.147500  0.836900  1.0  -0.1582
  C  C597  1  0.978000  0.179700  0.780000  1.0  0.1482
  C  C598  1  0.772600  0.148300  0.620600  1.0  -0.6915
  C  C599  1  0.752500  0.087800  0.784800  1.0  -0.717
  C  C600  1  0.739700  0.221200  0.769800  1.0  -0.368
  C  C601  1  0.105100  0.302500  0.705600  1.0  0.1444
  C  C602  1  0.140700  0.335400  0.758200  1.0  -0.1963
  C  C603  1  0.112500  0.359800  0.825900  1.0  -0.0738
  C  C604  1  0.053100  0.352500  0.836900  1.0  -0.1584
  C  C605  1  0.022000  0.320300  0.780000  1.0  0.1501
  C  C606  1  0.227400  0.351700  0.620600  1.0  -0.691
  C  C607  1  0.247500  0.412200  0.784800  1.0  -0.7156
  C  C608  1  0.260300  0.278800  0.769800  1.0  -0.3669
  C  C609  1  0.605100  0.802500  0.205600  1.0  0.1444
  C  C610  1  0.640700  0.835400  0.258200  1.0  -0.1963
  C  C611  1  0.612500  0.859800  0.325900  1.0  -0.0738
  C  C612  1  0.553100  0.852500  0.336900  1.0  -0.1584
  C  C613  1  0.522000  0.820300  0.280000  1.0  0.1501
  C  C614  1  0.727400  0.851700  0.120600  1.0  -0.691
  C  C615  1  0.747500  0.912200  0.284800  1.0  -0.7156
  C  C616  1  0.760300  0.778800  0.269800  1.0  -0.3669
  C  C617  1  0.447500  0.144900  0.955600  1.0  0.1431
  C  C618  1  0.414600  0.109300  0.008200  1.0  -0.1917
  C  C619  1  0.390200  0.137500  0.075900  1.0  -0.073
  C  C620  1  0.397500  0.196900  0.086900  1.0  -0.1624
  C  C621  1  0.429700  0.228000  0.030000  1.0  0.1497
  C  C622  1  0.398300  0.022600  0.870600  1.0  -0.6909
  C  C623  1  0.337800  0.002500  0.034800  1.0  -0.7128
  C  C624  1  0.471200  0.989700  0.019800  1.0  -0.3658
  C  C625  1  0.947500  0.644900  0.455600  1.0  0.1431
  C  C626  1  0.914600  0.609300  0.508200  1.0  -0.1917
  C  C627  1  0.890200  0.637500  0.575900  1.0  -0.073
  C  C628  1  0.897500  0.696900  0.586900  1.0  -0.1624
  C  C629  1  0.929700  0.728000  0.530000  1.0  0.1497
  C  C630  1  0.898300  0.522600  0.370600  1.0  -0.6909
  C  C631  1  0.837800  0.502500  0.534800  1.0  -0.7128
  C  C632  1  0.971200  0.489700  0.519800  1.0  -0.3658
  C  C633  1  0.052500  0.855100  0.455600  1.0  0.1432
  C  C634  1  0.085400  0.890700  0.508200  1.0  -0.1961
  C  C635  1  0.109800  0.862500  0.575900  1.0  -0.0726
  C  C636  1  0.102500  0.803100  0.586900  1.0  -0.16
  C  C637  1  0.070300  0.772000  0.530000  1.0  0.1496
  C  C638  1  0.101700  0.977400  0.370600  1.0  -0.6922
  C  C639  1  0.162200  0.997500  0.534800  1.0  -0.7117
  C  C640  1  0.028800  0.010300  0.519800  1.0  -0.367
  C  C641  1  0.552500  0.355100  0.955600  1.0  0.1432
  C  C642  1  0.585400  0.390700  0.008200  1.0  -0.1961
  C  C643  1  0.609800  0.362500  0.075900  1.0  -0.0719
  C  C644  1  0.602500  0.303100  0.086900  1.0  -0.1611
  C  C645  1  0.570300  0.272000  0.030000  1.0  0.1496
  C  C646  1  0.601700  0.477400  0.870600  1.0  -0.6922
  C  C647  1  0.662200  0.497500  0.034800  1.0  -0.7117
  C  C648  1  0.528800  0.510300  0.019800  1.0  -0.367
  C  C649  1  0.605100  0.302500  0.794400  1.0  0.1449
  C  C650  1  0.640700  0.335400  0.741800  1.0  -0.1959
  C  C651  1  0.612500  0.359800  0.674100  1.0  -0.0752
  C  C652  1  0.553100  0.352500  0.663100  1.0  -0.158
  C  C653  1  0.522000  0.320300  0.720000  1.0  0.1505
  C  C654  1  0.727400  0.351700  0.879400  1.0  -0.6923
  C  C655  1  0.747500  0.412200  0.715200  1.0  -0.7172
  C  C656  1  0.760300  0.278800  0.730200  1.0  -0.3675
  C  C657  1  0.105100  0.802500  0.294400  1.0  0.1449
  C  C658  1  0.140700  0.835400  0.241800  1.0  -0.1959
  C  C659  1  0.112500  0.859800  0.174100  1.0  -0.0752
  C  C660  1  0.053100  0.852500  0.163100  1.0  -0.158
  C  C661  1  0.022000  0.820300  0.220000  1.0  0.1505
  C  C662  1  0.227400  0.851700  0.379400  1.0  -0.6923
  C  C663  1  0.247500  0.912200  0.215200  1.0  -0.7172
  C  C664  1  0.260300  0.778800  0.230200  1.0  -0.3675
  C  C665  1  0.894900  0.697500  0.294400  1.0  0.1438
  C  C666  1  0.859300  0.664600  0.241800  1.0  -0.1928
  C  C667  1  0.887500  0.640200  0.174100  1.0  -0.0748
  C  C668  1  0.946900  0.647500  0.163100  1.0  -0.157
  C  C669  1  0.978000  0.679700  0.220000  1.0  0.1492
  C  C670  1  0.772600  0.648300  0.379400  1.0  -0.6929
  C  C671  1  0.752500  0.587800  0.215200  1.0  -0.7164
  C  C672  1  0.739700  0.721200  0.230200  1.0  -0.3687
  C  C673  1  0.394900  0.197500  0.794400  1.0  0.1438
  C  C674  1  0.359300  0.164600  0.741800  1.0  -0.1928
  C  C675  1  0.387500  0.140200  0.674100  1.0  -0.0748
  C  C676  1  0.446900  0.147500  0.663100  1.0  -0.1584
  C  C677  1  0.478000  0.179700  0.720000  1.0  0.1492
  C  C678  1  0.272600  0.148300  0.879400  1.0  -0.6929
  C  C679  1  0.252500  0.087800  0.715200  1.0  -0.7164
  C  C680  1  0.239700  0.221200  0.730200  1.0  -0.3687
  N  N681  1  0.047330  0.705160  0.784900  1.0  -0.3504
  N  N682  1  0.547330  0.205160  0.284900  1.0  -0.3504
  N  N683  1  0.452670  0.294840  0.284900  1.0  -0.3482
  N  N684  1  0.952670  0.794840  0.784900  1.0  -0.3482
  N  N685  1  0.955160  0.797330  0.965100  1.0  -0.3497
  N  N686  1  0.455160  0.297330  0.465100  1.0  -0.3497
  N  N687  1  0.544840  0.202670  0.465100  1.0  -0.3507
  N  N688  1  0.044840  0.702670  0.965100  1.0  -0.3507
  N  N689  1  0.952670  0.294840  0.215100  1.0  -0.3481
  N  N690  1  0.452670  0.794840  0.715100  1.0  -0.3481
  N  N691  1  0.547330  0.705160  0.715100  1.0  -0.3494
  N  N692  1  0.047330  0.205160  0.215100  1.0  -0.3494
  N  N693  1  0.044840  0.202670  0.034900  1.0  -0.3515
  N  N694  1  0.544840  0.702670  0.534900  1.0  -0.3515
  N  N695  1  0.455160  0.797330  0.534900  1.0  -0.3501
  N  N696  1  0.955160  0.297330  0.034900  1.0  -0.3501
  N  N697  1  0.544840  0.797330  0.034900  1.0  -0.3512
  N  N698  1  0.044840  0.297330  0.534900  1.0  -0.3512
  N  N699  1  0.955160  0.202670  0.534900  1.0  -0.3507
  N  N700  1  0.455160  0.702670  0.034900  1.0  -0.3507
  N  N701  1  0.452670  0.705160  0.215100  1.0  -0.3485
  N  N702  1  0.952670  0.205160  0.715100  1.0  -0.3485
  N  N703  1  0.047330  0.294840  0.715100  1.0  -0.3497
  N  N704  1  0.547330  0.794840  0.215100  1.0  -0.3497
  N  N705  1  0.455160  0.202670  0.965100  1.0  -0.3499
  N  N706  1  0.955160  0.702670  0.465100  1.0  -0.3499
  N  N707  1  0.044840  0.797330  0.465100  1.0  -0.3508
  N  N708  1  0.544840  0.297330  0.965100  1.0  -0.3508
  N  N709  1  0.547330  0.294840  0.784900  1.0  -0.3497
  N  N710  1  0.047330  0.794840  0.284900  1.0  -0.3497
  N  N711  1  0.952670  0.705160  0.284900  1.0  -0.3493
  N  N712  1  0.452670  0.205160  0.784900  1.0  -0.3493
