# generated using pymatgen
data_Cd7H120C105(N12O13)2
_symmetry_space_group_name_H-M   'P 1'
_cell_length_a   44.96400000
_cell_length_b   12.49110000
_cell_length_c   31.68210000
_cell_angle_alpha   90.00000000
_cell_angle_beta   134.57100000
_cell_angle_gamma   90.00000000
_symmetry_Int_Tables_number   1
_chemical_formula_structural   Cd7H120C105(N12O13)2
_chemical_formula_sum   'Cd28 H480 C420 N96 O104'
_cell_volume   12676.28876271
_cell_formula_units_Z   4
loop_
 _symmetry_equiv_pos_site_id
 _symmetry_equiv_pos_as_xyz
  1  'x, y, z'
loop_
 _atom_site_type_symbol
 _atom_site_label
 _atom_site_symmetry_multiplicity
 _atom_site_fract_x
 _atom_site_fract_y
 _atom_site_fract_z
 _atom_site_occupancy
 _atom_site_charge
  Cd  Cd1  1  0.238100  0.506560  0.852080  1.0  1.0519
  Cd  Cd2  1  0.237660  0.227980  0.877500  1.0  1.078
  Cd  Cd3  1  0.413410  0.470560  0.638510  1.0  1.063
  Cd  Cd4  1  0.321670  0.532320  0.480940  1.0  1.0626
  Cd  Cd5  1  0.357550  0.721980  0.599090  1.0  1.056
  Cd  Cd6  1  0.646030  0.909850  0.744900  1.0  1.0203
  Cd  Cd7  1  0.738100  0.006560  0.852080  1.0  1.0519
  Cd  Cd8  1  0.737660  0.727980  0.877500  1.0  1.078
  Cd  Cd9  1  0.913410  0.970560  0.638510  1.0  1.063
  Cd  Cd10  1  0.821670  0.032320  0.480940  1.0  1.0626
  Cd  Cd11  1  0.857550  0.221980  0.599090  1.0  1.056
  Cd  Cd12  1  0.146030  0.409850  0.744900  1.0  1.0203
  Cd  Cd13  1  0.761900  0.506560  0.147920  1.0  1.0534
  Cd  Cd14  1  0.762340  0.227980  0.122500  1.0  1.0788
  Cd  Cd15  1  0.586590  0.470560  0.361490  1.0  1.0646
  Cd  Cd16  1  0.678330  0.532320  0.519060  1.0  1.0625
  Cd  Cd17  1  0.642450  0.721980  0.400910  1.0  1.0537
  Cd  Cd18  1  0.353970  0.909850  0.255100  1.0  1.0218
  Cd  Cd19  1  0.261900  0.006560  0.147920  1.0  1.0534
  Cd  Cd20  1  0.262340  0.727980  0.122500  1.0  1.0788
  Cd  Cd21  1  0.086590  0.970560  0.361490  1.0  1.0646
  Cd  Cd22  1  0.178330  0.032320  0.519060  1.0  1.0625
  Cd  Cd23  1  0.142450  0.221980  0.400910  1.0  1.0537
  Cd  Cd24  1  0.853970  0.409850  0.255100  1.0  1.0218
  Cd  Cd25  1  0.500000  0.342740  0.000000  1.0  1.036
  Cd  Cd26  1  0.500000  0.603080  0.000000  1.0  1.0287
  Cd  Cd27  1  0.000000  0.842740  0.000000  1.0  1.036
  Cd  Cd28  1  0.000000  0.103080  0.000000  1.0  1.0287
  H  H29  1  0.223300  0.599000  0.740400  1.0  0.0743
  H  H30  1  0.250800  0.710800  0.718900  1.0  0.1442
  H  H31  1  0.333700  0.808100  0.887800  1.0  0.1183
  H  H32  1  0.304100  0.690500  0.905800  1.0  0.0986
  H  H33  1  0.295100  0.012500  0.676500  1.0  0.1296
  H  H34  1  0.336900  0.076000  0.724400  1.0  0.1188
  H  H35  1  0.297100  0.874800  0.616500  1.0  0.1063
  H  H36  1  0.414900  0.890600  0.712100  1.0  0.0799
  H  H37  1  0.411500  0.070800  0.812600  1.0  0.1263
  H  H38  1  0.463300  0.192300  0.880100  1.0  0.0818
  H  H39  1  0.442700  0.161800  0.979100  1.0  0.0727
  H  H40  1  0.385600  0.058100  0.910600  1.0  0.1019
  H  H41  1  0.464500  0.770600  0.899700  1.0  0.1447
  H  H42  1  0.478500  0.917100  0.871100  1.0  0.1024
  H  H43  1  0.599800  0.880000  0.015200  1.0  0.1179
  H  H44  1  0.582500  0.754100  0.047700  1.0  0.0744
  H  H45  1  0.617200  0.880900  0.962500  1.0  0.1142
  H  H46  1  0.625600  0.943600  0.928800  1.0  0.1253
  H  H47  1  0.454700  0.164300  0.781700  1.0  0.1054
  H  H48  1  0.415600  0.280600  0.705300  1.0  0.0912
  H  H49  1  0.513600  0.396800  0.747700  1.0  0.0773
  H  H50  1  0.555900  0.266800  0.820300  1.0  0.1208
  H  H51  1  0.482200  0.570100  0.639100  1.0  0.069
  H  H52  1  0.522900  0.528100  0.622600  1.0  0.1353
  H  H53  1  0.476400  0.230300  0.581700  1.0  0.1183
  H  H54  1  0.436200  0.282400  0.597900  1.0  0.0776
  H  H55  1  0.565300  0.187400  0.517300  1.0  0.1181
  H  H56  1  0.529200  0.130300  0.507000  1.0  0.1165
  H  H57  1  0.563000  0.530900  0.526200  1.0  0.1282
  H  H58  1  0.597700  0.582700  0.502200  1.0  0.0762
  H  H59  1  0.674900  0.349400  0.587700  1.0  0.0714
  H  H60  1  0.640200  0.275500  0.608500  1.0  0.122
  H  H61  1  0.376900  0.606300  0.021200  1.0  0.0873
  H  H62  1  0.387800  0.557100  0.076500  1.0  0.0723
  H  H63  1  0.443500  0.587300  0.071800  1.0  0.0805
  H  H64  1  0.451400  0.513500  0.119200  1.0  0.0755
  H  H65  1  0.441700  0.369800  0.075100  1.0  0.0843
  H  H66  1  0.344300  0.460500  0.907300  1.0  0.1222
  H  H67  1  0.390000  0.462100  0.935100  1.0  0.1085
  H  H68  1  0.375600  0.549400  0.953200  1.0  0.1077
  H  H69  1  0.385800  0.244000  0.003800  1.0  0.1033
  H  H70  1  0.392200  0.268500  0.962000  1.0  0.1147
  H  H71  1  0.347800  0.280700  0.938300  1.0  0.1074
  H  H72  1  0.351600  0.296600  0.025800  1.0  0.1085
  H  H73  1  0.357000  0.386700  0.065100  1.0  0.1145
  H  H74  1  0.396300  0.339400  0.081500  1.0  0.1066
  H  H75  1  0.124200  0.750500  0.757000  1.0  0.0863
  H  H76  1  0.165400  0.738200  0.872000  1.0  0.0796
  H  H77  1  0.117400  0.752500  0.815600  1.0  0.0826
  H  H78  1  0.173600  0.909200  0.888700  1.0  0.0947
  H  H79  1  0.124500  0.920200  0.838400  1.0  0.0955
  H  H80  1  0.137500  0.865800  0.710200  1.0  0.115
  H  H81  1  0.179900  0.805400  0.745400  1.0  0.1167
  H  H82  1  0.179300  0.930600  0.748500  1.0  0.1216
  H  H83  1  0.231600  0.920200  0.852400  1.0  0.1119
  H  H84  1  0.231600  0.794900  0.849600  1.0  0.1102
  H  H85  1  0.225800  0.851400  0.887600  1.0  0.1177
  H  H86  1  0.092500  0.919200  0.729600  1.0  0.1051
  H  H87  1  0.113700  0.009900  0.724000  1.0  0.1057
  H  H88  1  0.099000  0.033200  0.755700  1.0  0.1117
  H  H89  1  0.641900  0.371000  0.211700  1.0  0.0814
  H  H90  1  0.598400  0.364000  0.191200  1.0  0.0913
  H  H91  1  0.634700  0.368200  0.287700  1.0  0.0854
  H  H92  1  0.675300  0.410700  0.305200  1.0  0.0884
  H  H93  1  0.659500  0.572500  0.299600  1.0  0.081
  H  H94  1  0.556100  0.478600  0.187700  1.0  0.0918
  H  H95  1  0.539200  0.580300  0.147400  1.0  0.1095
  H  H96  1  0.552400  0.587800  0.208100  1.0  0.1088
  H  H97  1  0.634900  0.712200  0.236800  1.0  0.1162
  H  H98  1  0.602400  0.734900  0.240300  1.0  0.1098
  H  H99  1  0.587600  0.727400  0.178500  1.0  0.1463
  H  H100  1  0.635800  0.644800  0.177700  1.0  0.116
  H  H101  1  0.657800  0.537400  0.187100  1.0  0.119
  H  H102  1  0.667600  0.591100  0.240400  1.0  0.1226
  H  H103  1  0.285800  0.024300  0.532500  1.0  0.0879
  H  H104  1  0.235100  0.091900  0.420500  1.0  0.0839
  H  H105  1  0.271100  0.006800  0.453900  1.0  0.0833
  H  H106  1  0.304500  0.125100  0.448900  1.0  0.0788
  H  H107  1  0.275100  0.219300  0.434500  1.0  0.0875
  H  H108  1  0.348800  0.043900  0.551600  1.0  0.1125
  H  H109  1  0.379400  0.135100  0.596200  1.0  0.1088
  H  H110  1  0.369300  0.118400  0.538200  1.0  0.1227
  H  H111  1  0.342100  0.233800  0.628700  1.0  0.1129
  H  H112  1  0.342200  0.110200  0.620100  1.0  0.1118
  H  H113  1  0.307500  0.160700  0.614300  1.0  0.1131
  H  H114  1  0.291600  0.348900  0.545200  1.0  0.1063
  H  H115  1  0.255500  0.282600  0.530000  1.0  0.1155
  H  H116  1  0.255900  0.301300  0.481500  1.0  0.1214
  H  H117  1  0.461500  0.012200  0.661100  1.0  0.0906
  H  H118  1  0.489100  0.980700  0.749100  1.0  0.0867
  H  H119  1  0.487900  0.855700  0.742000  1.0  0.0786
  H  H120  1  0.552000  0.851600  0.781600  1.0  0.0995
  H  H121  1  0.556300  0.968100  0.804700  1.0  0.0767
  H  H122  1  0.541800  0.105400  0.691700  1.0  0.109
  H  H123  1  0.564300  0.117300  0.757800  1.0  0.1176
  H  H124  1  0.515400  0.114400  0.706900  1.0  0.102
  H  H125  1  0.508200  0.950000  0.608700  1.0  0.1175
  H  H126  1  0.484800  0.041100  0.610000  1.0  0.1165
  H  H127  1  0.461600  0.934200  0.575900  1.0  0.1136
  H  H128  1  0.526400  0.784600  0.662500  1.0  0.1175
  H  H129  1  0.480000  0.769100  0.630900  1.0  0.1112
  H  H130  1  0.516200  0.767200  0.700200  1.0  0.1087
  H  H131  1  0.228700  0.713400  0.303800  1.0  0.0948
  H  H132  1  0.288600  0.867000  0.376200  1.0  0.0845
  H  H133  1  0.240100  0.872100  0.336900  1.0  0.0983
  H  H134  1  0.228800  0.935100  0.260100  1.0  0.08
  H  H135  1  0.277100  0.933500  0.299600  1.0  0.1351
  H  H136  1  0.193000  0.723300  0.171700  1.0  0.1045
  H  H137  1  0.185100  0.844900  0.173000  1.0  0.1129
  H  H138  1  0.187400  0.763000  0.212700  1.0  0.1085
  H  H139  1  0.220700  0.587300  0.235900  1.0  0.1108
  H  H140  1  0.263400  0.535800  0.291400  1.0  0.1174
  H  H141  1  0.256700  0.577400  0.238500  1.0  0.1123
  H  H142  1  0.325200  0.637200  0.355500  1.0  0.1148
  H  H143  1  0.325800  0.762300  0.352200  1.0  0.1168
  H  H144  1  0.318500  0.691500  0.304800  1.0  0.1149
  H  H145  1  0.683300  0.090900  0.989900  1.0  0.1204
  H  H146  1  0.707300  0.074100  0.135100  1.0  0.1268
  H  H147  1  0.661900  0.940400  0.649700  1.0  0.1082
  H  H148  1  0.574400  0.054900  0.634700  1.0  0.115
  H  H149  1  0.723300  0.099000  0.740400  1.0  0.0741
  H  H150  1  0.750800  0.210800  0.718900  1.0  0.1442
  H  H151  1  0.833700  0.308100  0.887800  1.0  0.1183
  H  H152  1  0.804100  0.190500  0.905800  1.0  0.0986
  H  H153  1  0.795100  0.512500  0.676500  1.0  0.1296
  H  H154  1  0.836900  0.576000  0.724400  1.0  0.1188
  H  H155  1  0.797100  0.374800  0.616500  1.0  0.1063
  H  H156  1  0.914900  0.390600  0.712100  1.0  0.0799
  H  H157  1  0.911500  0.570800  0.812600  1.0  0.1263
  H  H158  1  0.963300  0.692300  0.880100  1.0  0.0818
  H  H159  1  0.942700  0.661800  0.979100  1.0  0.0727
  H  H160  1  0.885600  0.558100  0.910600  1.0  0.1019
  H  H161  1  0.964500  0.270600  0.899700  1.0  0.1447
  H  H162  1  0.978500  0.417100  0.871100  1.0  0.1024
  H  H163  1  0.099800  0.380000  0.015200  1.0  0.1179
  H  H164  1  0.082500  0.254100  0.047700  1.0  0.0744
  H  H165  1  0.117200  0.380900  0.962500  1.0  0.1142
  H  H166  1  0.125600  0.443600  0.928800  1.0  0.1253
  H  H167  1  0.954700  0.664300  0.781700  1.0  0.1054
  H  H168  1  0.915600  0.780600  0.705300  1.0  0.0912
  H  H169  1  0.013600  0.896800  0.747700  1.0  0.0773
  H  H170  1  0.055900  0.766800  0.820300  1.0  0.1208
  H  H171  1  0.982200  0.070100  0.639100  1.0  0.069
  H  H172  1  0.022900  0.028100  0.622600  1.0  0.1353
  H  H173  1  0.976400  0.730300  0.581700  1.0  0.1183
  H  H174  1  0.936200  0.782400  0.597900  1.0  0.0776
  H  H175  1  0.065300  0.687400  0.517300  1.0  0.1181
  H  H176  1  0.029200  0.630300  0.507000  1.0  0.1165
  H  H177  1  0.063000  0.030900  0.526200  1.0  0.1282
  H  H178  1  0.097700  0.082700  0.502200  1.0  0.0762
  H  H179  1  0.174900  0.849400  0.587700  1.0  0.0714
  H  H180  1  0.140200  0.775500  0.608500  1.0  0.122
  H  H181  1  0.876900  0.106300  0.021200  1.0  0.0873
  H  H182  1  0.887800  0.057100  0.076500  1.0  0.0723
  H  H183  1  0.943500  0.087300  0.071800  1.0  0.0805
  H  H184  1  0.951400  0.013500  0.119200  1.0  0.0755
  H  H185  1  0.941700  0.869800  0.075100  1.0  0.0843
  H  H186  1  0.844300  0.960500  0.907300  1.0  0.1222
  H  H187  1  0.890000  0.962100  0.935100  1.0  0.1085
  H  H188  1  0.875600  0.049400  0.953200  1.0  0.1077
  H  H189  1  0.885800  0.744000  0.003800  1.0  0.1033
  H  H190  1  0.892200  0.768500  0.962000  1.0  0.1147
  H  H191  1  0.847800  0.780700  0.938300  1.0  0.1074
  H  H192  1  0.851600  0.796600  0.025800  1.0  0.1085
  H  H193  1  0.857000  0.886700  0.065100  1.0  0.1145
  H  H194  1  0.896300  0.839400  0.081500  1.0  0.1066
  H  H195  1  0.624200  0.250500  0.757000  1.0  0.0863
  H  H196  1  0.665400  0.238200  0.872000  1.0  0.0796
  H  H197  1  0.617400  0.252500  0.815600  1.0  0.0826
  H  H198  1  0.673600  0.409200  0.888700  1.0  0.0947
  H  H199  1  0.624500  0.420200  0.838400  1.0  0.0955
  H  H200  1  0.637500  0.365800  0.710200  1.0  0.115
  H  H201  1  0.679900  0.305400  0.745400  1.0  0.1167
  H  H202  1  0.679300  0.430600  0.748500  1.0  0.1216
  H  H203  1  0.731600  0.420200  0.852400  1.0  0.1119
  H  H204  1  0.731600  0.294900  0.849600  1.0  0.1102
  H  H205  1  0.725800  0.351400  0.887600  1.0  0.1177
  H  H206  1  0.592500  0.419200  0.729600  1.0  0.1051
  H  H207  1  0.613700  0.509900  0.724000  1.0  0.1057
  H  H208  1  0.599000  0.533200  0.755700  1.0  0.1117
  H  H209  1  0.141900  0.871000  0.211700  1.0  0.0814
  H  H210  1  0.098400  0.864000  0.191200  1.0  0.0913
  H  H211  1  0.134700  0.868200  0.287700  1.0  0.0854
  H  H212  1  0.175300  0.910700  0.305200  1.0  0.0881
  H  H213  1  0.159500  0.072500  0.299600  1.0  0.081
  H  H214  1  0.056100  0.978600  0.187700  1.0  0.0918
  H  H215  1  0.039200  0.080300  0.147400  1.0  0.1095
  H  H216  1  0.052400  0.087800  0.208100  1.0  0.1088
  H  H217  1  0.134900  0.212200  0.236800  1.0  0.1162
  H  H218  1  0.102400  0.234900  0.240300  1.0  0.1098
  H  H219  1  0.087600  0.227400  0.178500  1.0  0.1463
  H  H220  1  0.135800  0.144800  0.177700  1.0  0.116
  H  H221  1  0.157800  0.037400  0.187100  1.0  0.119
  H  H222  1  0.167600  0.091100  0.240400  1.0  0.1226
  H  H223  1  0.785800  0.524300  0.532500  1.0  0.0879
  H  H224  1  0.735100  0.591900  0.420500  1.0  0.0839
  H  H225  1  0.771100  0.506800  0.453900  1.0  0.0833
  H  H226  1  0.804500  0.625100  0.448900  1.0  0.0788
  H  H227  1  0.775100  0.719300  0.434500  1.0  0.0875
  H  H228  1  0.848800  0.543900  0.551600  1.0  0.1125
  H  H229  1  0.879400  0.635100  0.596200  1.0  0.1088
  H  H230  1  0.869300  0.618400  0.538200  1.0  0.1227
  H  H231  1  0.842100  0.733800  0.628700  1.0  0.1129
  H  H232  1  0.842200  0.610200  0.620100  1.0  0.1118
  H  H233  1  0.807500  0.660700  0.614300  1.0  0.1131
  H  H234  1  0.791600  0.848900  0.545200  1.0  0.1063
  H  H235  1  0.755500  0.782600  0.530000  1.0  0.1155
  H  H236  1  0.755900  0.801300  0.481500  1.0  0.1214
  H  H237  1  0.961500  0.512200  0.661100  1.0  0.0906
  H  H238  1  0.989100  0.480700  0.749100  1.0  0.0867
  H  H239  1  0.987900  0.355700  0.742000  1.0  0.0786
  H  H240  1  0.052000  0.351600  0.781600  1.0  0.0995
  H  H241  1  0.056300  0.468100  0.804700  1.0  0.0767
  H  H242  1  0.041800  0.605400  0.691700  1.0  0.109
  H  H243  1  0.064300  0.617300  0.757800  1.0  0.1176
  H  H244  1  0.015400  0.614400  0.706900  1.0  0.102
  H  H245  1  0.008200  0.450000  0.608700  1.0  0.1175
  H  H246  1  0.984800  0.541100  0.610000  1.0  0.1165
  H  H247  1  0.961600  0.434200  0.575900  1.0  0.1136
  H  H248  1  0.026400  0.284600  0.662500  1.0  0.1175
  H  H249  1  0.980000  0.269100  0.630900  1.0  0.1112
  H  H250  1  0.016200  0.267200  0.700200  1.0  0.1087
  H  H251  1  0.728700  0.213400  0.303800  1.0  0.0948
  H  H252  1  0.788600  0.367000  0.376200  1.0  0.0845
  H  H253  1  0.740100  0.372100  0.336900  1.0  0.0986
  H  H254  1  0.728800  0.435100  0.260100  1.0  0.08
  H  H255  1  0.777100  0.433500  0.299600  1.0  0.1344
  H  H256  1  0.693000  0.223300  0.171700  1.0  0.103
  H  H257  1  0.685100  0.344900  0.173000  1.0  0.1129
  H  H258  1  0.687400  0.263000  0.212700  1.0  0.1085
  H  H259  1  0.720700  0.087300  0.235900  1.0  0.1108
  H  H260  1  0.763400  0.035800  0.291400  1.0  0.1174
  H  H261  1  0.756700  0.077400  0.238500  1.0  0.1123
  H  H262  1  0.825200  0.137200  0.355500  1.0  0.1148
  H  H263  1  0.825800  0.262300  0.352200  1.0  0.1168
  H  H264  1  0.818500  0.191500  0.304800  1.0  0.1149
  H  H265  1  0.183300  0.590900  0.989900  1.0  0.1204
  H  H266  1  0.207300  0.574100  0.135100  1.0  0.1268
  H  H267  1  0.161900  0.440400  0.649700  1.0  0.1082
  H  H268  1  0.074400  0.554900  0.634700  1.0  0.115
  H  H269  1  0.776700  0.599000  0.259600  1.0  0.0741
  H  H270  1  0.749200  0.710800  0.281100  1.0  0.1436
  H  H271  1  0.666300  0.808100  0.112200  1.0  0.119
  H  H272  1  0.695900  0.690500  0.094200  1.0  0.099
  H  H273  1  0.704900  0.012500  0.323500  1.0  0.1304
  H  H274  1  0.663100  0.076000  0.275600  1.0  0.1178
  H  H275  1  0.702900  0.874800  0.383500  1.0  0.107
  H  H276  1  0.585100  0.890600  0.287900  1.0  0.0803
  H  H277  1  0.588500  0.070800  0.187400  1.0  0.127
  H  H278  1  0.536700  0.192300  0.119900  1.0  0.0821
  H  H279  1  0.557300  0.161800  0.020900  1.0  0.073
  H  H280  1  0.614400  0.058100  0.089400  1.0  0.1009
  H  H281  1  0.535500  0.770600  0.100300  1.0  0.1431
  H  H282  1  0.521500  0.917100  0.128900  1.0  0.1021
  H  H283  1  0.400200  0.880000  0.984800  1.0  0.1197
  H  H284  1  0.417500  0.754100  0.952300  1.0  0.0741
  H  H285  1  0.382800  0.880900  0.037500  1.0  0.1143
  H  H286  1  0.374400  0.943600  0.071200  1.0  0.1268
  H  H287  1  0.545300  0.164300  0.218300  1.0  0.1055
  H  H288  1  0.584400  0.280600  0.294700  1.0  0.0902
  H  H289  1  0.486400  0.396800  0.252300  1.0  0.0772
  H  H290  1  0.444100  0.266800  0.179700  1.0  0.1211
  H  H291  1  0.517800  0.570100  0.360900  1.0  0.0687
  H  H292  1  0.477100  0.528100  0.377400  1.0  0.136
  H  H293  1  0.523600  0.230300  0.418300  1.0  0.1182
  H  H294  1  0.563800  0.282400  0.402100  1.0  0.0775
  H  H295  1  0.434700  0.187400  0.482700  1.0  0.1183
  H  H296  1  0.470800  0.130300  0.493000  1.0  0.1164
  H  H297  1  0.437000  0.530900  0.473800  1.0  0.1277
  H  H298  1  0.402300  0.582700  0.497800  1.0  0.0768
  H  H299  1  0.325100  0.349400  0.412300  1.0  0.0707
  H  H300  1  0.359800  0.275500  0.391500  1.0  0.1222
  H  H301  1  0.623100  0.606300  0.978800  1.0  0.087
  H  H302  1  0.612200  0.557100  0.923500  1.0  0.0709
  H  H303  1  0.556500  0.587300  0.928200  1.0  0.0799
  H  H304  1  0.548600  0.513500  0.880800  1.0  0.0734
  H  H305  1  0.558300  0.369800  0.924900  1.0  0.0825
  H  H306  1  0.655700  0.460500  0.092700  1.0  0.1238
  H  H307  1  0.610000  0.462100  0.064900  1.0  0.1085
  H  H308  1  0.624400  0.549400  0.046800  1.0  0.1069
  H  H309  1  0.614200  0.244000  0.996200  1.0  0.1034
  H  H310  1  0.607800  0.268500  0.038000  1.0  0.1145
  H  H311  1  0.652200  0.280700  0.061700  1.0  0.1078
  H  H312  1  0.648400  0.296600  0.974200  1.0  0.1085
  H  H313  1  0.643000  0.386700  0.934900  1.0  0.1137
  H  H314  1  0.603700  0.339400  0.918500  1.0  0.1053
  H  H315  1  0.875800  0.750500  0.243000  1.0  0.0892
  H  H316  1  0.834600  0.738200  0.128000  1.0  0.0792
  H  H317  1  0.882600  0.752500  0.184400  1.0  0.0825
  H  H318  1  0.826400  0.909200  0.111300  1.0  0.0928
  H  H319  1  0.875500  0.920200  0.161600  1.0  0.0954
  H  H320  1  0.862500  0.865800  0.289800  1.0  0.1164
  H  H321  1  0.820100  0.805400  0.254600  1.0  0.1173
  H  H322  1  0.820700  0.930600  0.251500  1.0  0.1202
  H  H323  1  0.768400  0.920200  0.147600  1.0  0.1112
  H  H324  1  0.768400  0.794900  0.150400  1.0  0.1103
  H  H325  1  0.774200  0.851400  0.112400  1.0  0.117
  H  H326  1  0.907500  0.919200  0.270400  1.0  0.1061
  H  H327  1  0.886300  0.009900  0.276000  1.0  0.1056
  H  H328  1  0.901000  0.033200  0.244300  1.0  0.1119
  H  H329  1  0.358100  0.371000  0.788300  1.0  0.0808
  H  H330  1  0.401600  0.364000  0.808800  1.0  0.092
  H  H331  1  0.365300  0.368200  0.712300  1.0  0.0841
  H  H332  1  0.324700  0.410700  0.694800  1.0  0.091
  H  H333  1  0.340500  0.572500  0.700400  1.0  0.0789
  H  H334  1  0.443900  0.478600  0.812300  1.0  0.0939
  H  H335  1  0.460800  0.580300  0.852600  1.0  0.1088
  H  H336  1  0.447600  0.587800  0.791900  1.0  0.1081
  H  H337  1  0.365100  0.712200  0.763200  1.0  0.1169
  H  H338  1  0.397600  0.734900  0.759700  1.0  0.1096
  H  H339  1  0.412400  0.727400  0.821500  1.0  0.1458
  H  H340  1  0.364200  0.644800  0.822300  1.0  0.1154
  H  H341  1  0.342200  0.537400  0.812900  1.0  0.1192
  H  H342  1  0.332400  0.591100  0.759600  1.0  0.1205
  H  H343  1  0.714200  0.024300  0.467500  1.0  0.0873
  H  H344  1  0.764900  0.091900  0.579500  1.0  0.0843
  H  H345  1  0.728900  0.006800  0.546100  1.0  0.0829
  H  H346  1  0.695500  0.125100  0.551100  1.0  0.0798
  H  H347  1  0.724900  0.219300  0.565500  1.0  0.0872
  H  H348  1  0.651200  0.043900  0.448400  1.0  0.1127
  H  H349  1  0.620600  0.135100  0.403800  1.0  0.1076
  H  H350  1  0.630700  0.118400  0.461800  1.0  0.1243
  H  H351  1  0.657900  0.233800  0.371300  1.0  0.1135
  H  H352  1  0.657800  0.110200  0.379900  1.0  0.1126
  H  H353  1  0.692500  0.160700  0.385700  1.0  0.1132
  H  H354  1  0.708400  0.348900  0.454800  1.0  0.1066
  H  H355  1  0.744500  0.282600  0.470000  1.0  0.1152
  H  H356  1  0.744100  0.301300  0.518500  1.0  0.1213
  H  H357  1  0.538500  0.012200  0.338900  1.0  0.0904
  H  H358  1  0.510900  0.980700  0.250900  1.0  0.0868
  H  H359  1  0.512100  0.855700  0.258000  1.0  0.0784
  H  H360  1  0.448000  0.851600  0.218400  1.0  0.0998
  H  H361  1  0.443700  0.968100  0.195300  1.0  0.0761
  H  H362  1  0.458200  0.105400  0.308300  1.0  0.109
  H  H363  1  0.435700  0.117300  0.242200  1.0  0.118
  H  H364  1  0.484600  0.114400  0.293100  1.0  0.1036
  H  H365  1  0.491800  0.950000  0.391300  1.0  0.1179
  H  H366  1  0.515200  0.041100  0.390000  1.0  0.1157
  H  H367  1  0.538400  0.934200  0.424100  1.0  0.1158
  H  H368  1  0.473600  0.784600  0.337500  1.0  0.1173
  H  H369  1  0.520000  0.769100  0.369100  1.0  0.1125
  H  H370  1  0.483800  0.767200  0.299800  1.0  0.1087
  H  H371  1  0.771300  0.713400  0.696200  1.0  0.0958
  H  H372  1  0.711400  0.867000  0.623800  1.0  0.0817
  H  H373  1  0.759900  0.872100  0.663100  1.0  0.0968
  H  H374  1  0.771200  0.935100  0.739900  1.0  0.0792
  H  H375  1  0.722900  0.933500  0.700400  1.0  0.1328
  H  H376  1  0.807000  0.723300  0.828300  1.0  0.1051
  H  H377  1  0.814900  0.844900  0.827000  1.0  0.1121
  H  H378  1  0.812600  0.763000  0.787300  1.0  0.109
  H  H379  1  0.779300  0.587300  0.764100  1.0  0.1117
  H  H380  1  0.736600  0.535800  0.708600  1.0  0.1144
  H  H381  1  0.743300  0.577400  0.761500  1.0  0.1118
  H  H382  1  0.674800  0.637200  0.644500  1.0  0.115
  H  H383  1  0.674200  0.762300  0.647800  1.0  0.1176
  H  H384  1  0.681500  0.691500  0.695200  1.0  0.1151
  H  H385  1  0.316700  0.090900  0.010100  1.0  0.1215
  H  H386  1  0.292700  0.074100  0.864900  1.0  0.1231
  H  H387  1  0.338100  0.940400  0.350300  1.0  0.1067
  H  H388  1  0.425600  0.054900  0.365300  1.0  0.1144
  H  H389  1  0.276700  0.099000  0.259600  1.0  0.0739
  H  H390  1  0.249200  0.210800  0.281100  1.0  0.1436
  H  H391  1  0.166300  0.308100  0.112200  1.0  0.119
  H  H392  1  0.195900  0.190500  0.094200  1.0  0.099
  H  H393  1  0.204900  0.512500  0.323500  1.0  0.1304
  H  H394  1  0.163100  0.576000  0.275600  1.0  0.1178
  H  H395  1  0.202900  0.374800  0.383500  1.0  0.107
  H  H396  1  0.085100  0.390600  0.287900  1.0  0.0803
  H  H397  1  0.088500  0.570800  0.187400  1.0  0.127
  H  H398  1  0.036700  0.692300  0.119900  1.0  0.0821
  H  H399  1  0.057300  0.661800  0.020900  1.0  0.073
  H  H400  1  0.114400  0.558100  0.089400  1.0  0.1009
  H  H401  1  0.035500  0.270600  0.100300  1.0  0.1431
  H  H402  1  0.021500  0.417100  0.128900  1.0  0.1021
  H  H403  1  0.900200  0.380000  0.984800  1.0  0.1197
  H  H404  1  0.917500  0.254100  0.952300  1.0  0.0741
  H  H405  1  0.882800  0.380900  0.037500  1.0  0.1143
  H  H406  1  0.874400  0.443600  0.071200  1.0  0.1268
  H  H407  1  0.045300  0.664300  0.218300  1.0  0.1055
  H  H408  1  0.084400  0.780600  0.294700  1.0  0.0902
  H  H409  1  0.986400  0.896800  0.252300  1.0  0.0772
  H  H410  1  0.944100  0.766800  0.179700  1.0  0.1211
  H  H411  1  0.017800  0.070100  0.360900  1.0  0.0687
  H  H412  1  0.977100  0.028100  0.377400  1.0  0.136
  H  H413  1  0.023600  0.730300  0.418300  1.0  0.1182
  H  H414  1  0.063800  0.782400  0.402100  1.0  0.0775
  H  H415  1  0.934700  0.687400  0.482700  1.0  0.1183
  H  H416  1  0.970800  0.630300  0.493000  1.0  0.1164
  H  H417  1  0.937000  0.030900  0.473800  1.0  0.1277
  H  H418  1  0.902300  0.082700  0.497800  1.0  0.0768
  H  H419  1  0.825100  0.849400  0.412300  1.0  0.0707
  H  H420  1  0.859800  0.775500  0.391500  1.0  0.1222
  H  H421  1  0.123100  0.106300  0.978800  1.0  0.087
  H  H422  1  0.112200  0.057100  0.923500  1.0  0.0709
  H  H423  1  0.056500  0.087300  0.928200  1.0  0.0799
  H  H424  1  0.048600  0.013500  0.880800  1.0  0.0734
  H  H425  1  0.058300  0.869800  0.924900  1.0  0.0825
  H  H426  1  0.155700  0.960500  0.092700  1.0  0.1238
  H  H427  1  0.110000  0.962100  0.064900  1.0  0.1085
  H  H428  1  0.124400  0.049400  0.046800  1.0  0.1069
  H  H429  1  0.114200  0.744000  0.996200  1.0  0.1034
  H  H430  1  0.107800  0.768500  0.038000  1.0  0.1145
  H  H431  1  0.152200  0.780700  0.061700  1.0  0.1078
  H  H432  1  0.148400  0.796600  0.974200  1.0  0.1085
  H  H433  1  0.143000  0.886700  0.934900  1.0  0.1137
  H  H434  1  0.103700  0.839400  0.918500  1.0  0.1053
  H  H435  1  0.375800  0.250500  0.243000  1.0  0.0892
  H  H436  1  0.334600  0.238200  0.128000  1.0  0.0792
  H  H437  1  0.382600  0.252500  0.184400  1.0  0.0825
  H  H438  1  0.326400  0.409200  0.111300  1.0  0.0928
  H  H439  1  0.375500  0.420200  0.161600  1.0  0.0954
  H  H440  1  0.362500  0.365800  0.289800  1.0  0.1164
  H  H441  1  0.320100  0.305400  0.254600  1.0  0.1173
  H  H442  1  0.320700  0.430600  0.251500  1.0  0.1202
  H  H443  1  0.268400  0.420200  0.147600  1.0  0.1112
  H  H444  1  0.268400  0.294900  0.150400  1.0  0.1103
  H  H445  1  0.274200  0.351400  0.112400  1.0  0.117
  H  H446  1  0.407500  0.419200  0.270400  1.0  0.1061
  H  H447  1  0.386300  0.509900  0.276000  1.0  0.1056
  H  H448  1  0.401000  0.533200  0.244300  1.0  0.1119
  H  H449  1  0.858100  0.871000  0.788300  1.0  0.0808
  H  H450  1  0.901600  0.864000  0.808800  1.0  0.092
  H  H451  1  0.865300  0.868200  0.712300  1.0  0.0841
  H  H452  1  0.824700  0.910700  0.694800  1.0  0.0905
  H  H453  1  0.840500  0.072500  0.700400  1.0  0.0789
  H  H454  1  0.943900  0.978600  0.812300  1.0  0.0939
  H  H455  1  0.960800  0.080300  0.852600  1.0  0.1088
  H  H456  1  0.947600  0.087800  0.791900  1.0  0.1081
  H  H457  1  0.865100  0.212200  0.763200  1.0  0.1169
  H  H458  1  0.897600  0.234900  0.759700  1.0  0.1096
  H  H459  1  0.912400  0.227400  0.821500  1.0  0.1458
  H  H460  1  0.864200  0.144800  0.822300  1.0  0.1154
  H  H461  1  0.842200  0.037400  0.812900  1.0  0.1192
  H  H462  1  0.832400  0.091100  0.759600  1.0  0.1205
  H  H463  1  0.214200  0.524300  0.467500  1.0  0.0873
  H  H464  1  0.264900  0.591900  0.579500  1.0  0.0843
  H  H465  1  0.228900  0.506800  0.546100  1.0  0.0829
  H  H466  1  0.195500  0.625100  0.551100  1.0  0.0798
  H  H467  1  0.224900  0.719300  0.565500  1.0  0.0872
  H  H468  1  0.151200  0.543900  0.448400  1.0  0.1127
  H  H469  1  0.120600  0.635100  0.403800  1.0  0.1076
  H  H470  1  0.130700  0.618400  0.461800  1.0  0.1243
  H  H471  1  0.157900  0.733800  0.371300  1.0  0.1135
  H  H472  1  0.157800  0.610200  0.379900  1.0  0.1126
  H  H473  1  0.192500  0.660700  0.385700  1.0  0.1132
  H  H474  1  0.208400  0.848900  0.454800  1.0  0.1066
  H  H475  1  0.244500  0.782600  0.470000  1.0  0.1152
  H  H476  1  0.244100  0.801300  0.518500  1.0  0.1213
  H  H477  1  0.038500  0.512200  0.338900  1.0  0.0904
  H  H478  1  0.010900  0.480700  0.250900  1.0  0.0868
  H  H479  1  0.012100  0.355700  0.258000  1.0  0.0784
  H  H480  1  0.948000  0.351600  0.218400  1.0  0.0998
  H  H481  1  0.943700  0.468100  0.195300  1.0  0.0761
  H  H482  1  0.958200  0.605400  0.308300  1.0  0.109
  H  H483  1  0.935700  0.617300  0.242200  1.0  0.118
  H  H484  1  0.984600  0.614400  0.293100  1.0  0.1036
  H  H485  1  0.991800  0.450000  0.391300  1.0  0.1179
  H  H486  1  0.015200  0.541100  0.390000  1.0  0.1157
  H  H487  1  0.038400  0.434200  0.424100  1.0  0.1158
  H  H488  1  0.973600  0.284600  0.337500  1.0  0.1173
  H  H489  1  0.020000  0.269100  0.369100  1.0  0.1125
  H  H490  1  0.983800  0.267200  0.299800  1.0  0.1087
  H  H491  1  0.271300  0.213400  0.696200  1.0  0.0958
  H  H492  1  0.211400  0.367000  0.623800  1.0  0.0817
  H  H493  1  0.259900  0.372100  0.663100  1.0  0.097
  H  H494  1  0.271200  0.435100  0.739900  1.0  0.0792
  H  H495  1  0.222900  0.433500  0.700400  1.0  0.1326
  H  H496  1  0.307000  0.223300  0.828300  1.0  0.1035
  H  H497  1  0.314900  0.344900  0.827000  1.0  0.1121
  H  H498  1  0.312600  0.263000  0.787300  1.0  0.109
  H  H499  1  0.279300  0.087300  0.764100  1.0  0.1117
  H  H500  1  0.236600  0.035800  0.708600  1.0  0.1144
  H  H501  1  0.243300  0.077400  0.761500  1.0  0.1118
  H  H502  1  0.174800  0.137200  0.644500  1.0  0.115
  H  H503  1  0.174200  0.262300  0.647800  1.0  0.1176
  H  H504  1  0.181500  0.191500  0.695200  1.0  0.1151
  H  H505  1  0.816700  0.590900  0.010100  1.0  0.1215
  H  H506  1  0.792700  0.574100  0.864900  1.0  0.1231
  H  H507  1  0.838100  0.440400  0.350300  1.0  0.1067
  H  H508  1  0.925600  0.554900  0.365300  1.0  0.1144
  C  C509  1  0.246500  0.639700  0.770800  1.0  0.1955
  C  C510  1  0.262300  0.707500  0.757300  1.0  -0.1778
  C  C511  1  0.295700  0.771600  0.801200  1.0  -0.0704
  C  C512  1  0.311500  0.765000  0.857500  1.0  -0.1129
  C  C513  1  0.293900  0.693500  0.868200  1.0  0.1443
  C  C514  1  0.316000  0.849700  0.793100  1.0  0.3018
  C  C515  1  0.324900  0.004800  0.711000  1.0  -0.0255
  C  C516  1  0.325400  0.890400  0.646400  1.0  0.1744
  C  C517  1  0.389000  0.902200  0.698600  1.0  0.2491
  C  C518  1  0.358300  0.968600  0.816300  1.0  0.2214
  C  C519  1  0.391700  0.048200  0.853600  1.0  -0.0172
  C  C520  1  0.416200  0.090800  0.845200  1.0  -0.2156
  C  C521  1  0.447800  0.163700  0.886700  1.0  0.1872
  C  C522  1  0.434800  0.147900  0.943600  1.0  0.1834
  C  C523  1  0.401600  0.081300  0.903800  1.0  -0.1774
  C  C524  1  0.491500  0.796900  0.924400  1.0  0.1388
  C  C525  1  0.500300  0.879800  0.905500  1.0  -0.0585
  C  C526  1  0.540200  0.907300  0.936500  1.0  -0.0322
  C  C527  1  0.572000  0.860600  0.991800  1.0  -0.2256
  C  C528  1  0.561400  0.785000  0.010700  1.0  0.2132
  C  C529  1  0.546700  0.990800  0.909900  1.0  0.2134
  C  C530  1  0.619900  0.951700  0.953000  1.0  -0.0089
  C  C531  1  0.534100  0.120300  0.857400  1.0  0.346
  C  C532  1  0.509500  0.200900  0.809900  1.0  -0.0837
  C  C533  1  0.467500  0.208600  0.774700  1.0  -0.0589
  C  C534  1  0.444300  0.279800  0.729800  1.0  0.1804
  C  C535  1  0.501500  0.346300  0.753500  1.0  0.1916
  C  C536  1  0.527700  0.270600  0.798700  1.0  -0.1927
  C  C537  1  0.480600  0.501100  0.626600  1.0  0.1808
  C  C538  1  0.505600  0.476500  0.617300  1.0  -0.1856
  C  C539  1  0.504500  0.375000  0.600000  1.0  -0.0349
  C  C540  1  0.477800  0.300400  0.592900  1.0  -0.1668
  C  C541  1  0.453800  0.332300  0.602700  1.0  0.1678
  C  C542  1  0.527900  0.345100  0.585800  1.0  0.2943
  C  C543  1  0.556390  0.164000  0.536200  1.0  -0.1178
  C  C544  1  0.566460  0.356300  0.570900  1.0  0.3152
  C  C545  1  0.592410  0.398100  0.562000  1.0  0.0579
  C  C546  1  0.584130  0.488000  0.536600  1.0  -0.1581
  C  C547  1  0.606600  0.520700  0.524600  1.0  0.1941
  C  C548  1  0.650900  0.383400  0.573400  1.0  0.2008
  C  C549  1  0.631000  0.338000  0.586500  1.0  -0.1564
  C  C550  1  0.318200  0.459600  0.959800  1.0  0.6165
  C  C551  1  0.363500  0.443900  0.011100  1.0  0.03
  C  C552  1  0.388600  0.544400  0.047100  1.0  -0.1709
  C  C553  1  0.433300  0.525800  0.077100  1.0  -0.1034
  C  C554  1  0.431700  0.429800  0.048000  1.0  -0.1857
  C  C555  1  0.386900  0.404900  0.992400  1.0  0.1927
  C  C556  1  0.372900  0.475700  0.942400  1.0  -0.3727
  C  C557  1  0.377300  0.288900  0.972300  1.0  -0.3712
  C  C558  1  0.367500  0.358700  0.049400  1.0  -0.375
  C  C559  1  0.459300  0.431200  0.035300  1.0  0.6622
  C  C560  1  0.176500  0.653600  0.810500  1.0  0.6593
  C  C561  1  0.151900  0.757200  0.797500  1.0  -0.1589
  C  C562  1  0.145000  0.777200  0.835100  1.0  -0.134
  C  C563  1  0.148800  0.894100  0.847400  1.0  -0.1511
  C  C564  1  0.151800  0.947100  0.805800  1.0  0.0915
  C  C565  1  0.172500  0.856700  0.798300  1.0  0.163
  C  C566  1  0.166800  0.865400  0.745900  1.0  -0.379
  C  C567  1  0.219700  0.855700  0.852000  1.0  -0.385
  C  C568  1  0.110700  0.980200  0.748800  1.0  -0.3689
  C  C569  1  0.180400  0.045400  0.837100  1.0  0.3991
  C  C570  1  0.574100  0.517000  0.115800  1.0  0.6491
  C  C571  1  0.611700  0.516400  0.183700  1.0  0.0686
  C  C572  1  0.623400  0.407200  0.212800  1.0  -0.1963
  C  C573  1  0.645300  0.419400  0.277900  1.0  -0.1232
  C  C574  1  0.634200  0.529600  0.278500  1.0  -0.1622
  C  C575  1  0.599900  0.582000  0.216400  1.0  0.1727
  C  C576  1  0.558500  0.555000  0.187500  1.0  -0.3872
  C  C577  1  0.606800  0.699600  0.218100  1.0  -0.3763
  C  C578  1  0.646300  0.577800  0.198500  1.0  -0.3865
  C  C579  1  0.622100  0.542800  0.313300  1.0  0.6997
  C  C580  1  0.339200  0.302900  0.531000  1.0  0.6529
  C  C581  1  0.322800  0.190000  0.523400  1.0  0.0526
  C  C582  1  0.297600  0.189200  0.541800  1.0  0.1278
  C  C583  1  0.270000  0.087000  0.507200  1.0  -0.1214
  C  C584  1  0.264200  0.078800  0.456200  1.0  -0.1394
  C  C585  1  0.291300  0.158100  0.460000  1.0  -0.1513
  C  C586  1  0.358100  0.115400  0.555100  1.0  -0.3684
  C  C587  1  0.324800  0.171900  0.607200  1.0  -0.3774
  C  C588  1  0.272900  0.289400  0.522900  1.0  -0.3783
  C  C589  1  0.231200  0.092700  0.493100  1.0  0.5759
  C  C590  1  0.431200  0.874000  0.628800  1.0  0.577
  C  C591  1  0.469600  0.936600  0.670500  1.0  -0.1844
  C  C592  1  0.495100  0.922900  0.735500  1.0  -0.1463
  C  C593  1  0.540600  0.923500  0.769700  1.0  -0.1541
  C  C594  1  0.541500  0.970300  0.725400  1.0  0.0582
  C  C595  1  0.540700  0.086900  0.720000  1.0  -0.3685
  C  C596  1  0.502400  0.916900  0.666400  1.0  0.1931
  C  C597  1  0.487900  0.965100  0.610000  1.0  -0.3815
  C  C598  1  0.506600  0.799000  0.664900  1.0  -0.3862
  C  C599  1  0.579800  0.940400  0.738600  1.0  0.5553
  C  C600  1  0.282000  0.659500  0.382900  1.0  0.6905
  C  C601  1  0.258200  0.730700  0.328600  1.0  -0.156
  C  C602  1  0.261300  0.846800  0.338500  1.0  -0.131
  C  C603  1  0.253500  0.890100  0.284900  1.0  -0.1808
  C  C604  1  0.247800  0.800500  0.249000  1.0  0.0459
  C  C605  1  0.198300  0.781000  0.196300  1.0  -0.3403
  C  C606  1  0.266800  0.700700  0.290800  1.0  0.1839
  C  C607  1  0.250400  0.589900  0.261400  1.0  -0.3893
  C  C608  1  0.313300  0.697600  0.329400  1.0  -0.3746
  C  C609  1  0.262400  0.816300  0.218300  1.0  0.6568
  C  C610  1  0.681780  0.072600  0.016850  1.0  0.1329
  C  C611  1  0.694990  0.063400  0.096630  1.0  0.2152
  C  C612  1  0.639200  0.980000  0.636800  1.0  0.1961
  C  C613  1  0.591500  0.042400  0.628600  1.0  0.1644
  C  C614  1  0.746500  0.139700  0.770800  1.0  0.1955
  C  C615  1  0.762300  0.207500  0.757300  1.0  -0.1778
  C  C616  1  0.795700  0.271600  0.801200  1.0  -0.0704
  C  C617  1  0.811500  0.265000  0.857500  1.0  -0.1129
  C  C618  1  0.793900  0.193500  0.868200  1.0  0.1443
  C  C619  1  0.816000  0.349700  0.793100  1.0  0.3018
  C  C620  1  0.824900  0.504800  0.711000  1.0  -0.0255
  C  C621  1  0.825400  0.390400  0.646400  1.0  0.1744
  C  C622  1  0.889000  0.402200  0.698600  1.0  0.2491
  C  C623  1  0.858300  0.468600  0.816300  1.0  0.2214
  C  C624  1  0.891700  0.548200  0.853600  1.0  -0.0172
  C  C625  1  0.916200  0.590800  0.845200  1.0  -0.2156
  C  C626  1  0.947800  0.663700  0.886700  1.0  0.1872
  C  C627  1  0.934800  0.647900  0.943600  1.0  0.1834
  C  C628  1  0.901600  0.581300  0.903800  1.0  -0.1774
  C  C629  1  0.991500  0.296900  0.924400  1.0  0.1388
  C  C630  1  0.000300  0.379800  0.905500  1.0  -0.0585
  C  C631  1  0.040200  0.407300  0.936500  1.0  -0.0322
  C  C632  1  0.072000  0.360600  0.991800  1.0  -0.2256
  C  C633  1  0.061400  0.285000  0.010700  1.0  0.2132
  C  C634  1  0.046700  0.490800  0.909900  1.0  0.2134
  C  C635  1  0.119900  0.451700  0.953000  1.0  -0.0089
  C  C636  1  0.034100  0.620300  0.857400  1.0  0.346
  C  C637  1  0.009500  0.700900  0.809900  1.0  -0.0837
  C  C638  1  0.967500  0.708600  0.774700  1.0  -0.0589
  C  C639  1  0.944300  0.779800  0.729800  1.0  0.1804
  C  C640  1  0.001500  0.846300  0.753500  1.0  0.1916
  C  C641  1  0.027700  0.770600  0.798700  1.0  -0.1927
  C  C642  1  0.980600  0.001100  0.626600  1.0  0.1808
  C  C643  1  0.005600  0.976500  0.617300  1.0  -0.1856
  C  C644  1  0.004500  0.875000  0.600000  1.0  -0.0349
  C  C645  1  0.977800  0.800400  0.592900  1.0  -0.1668
  C  C646  1  0.953800  0.832300  0.602700  1.0  0.1678
  C  C647  1  0.027900  0.845100  0.585800  1.0  0.2943
  C  C648  1  0.056390  0.664000  0.536200  1.0  -0.1178
  C  C649  1  0.066460  0.856300  0.570900  1.0  0.3152
  C  C650  1  0.092410  0.898100  0.562000  1.0  0.0579
  C  C651  1  0.084130  0.988000  0.536600  1.0  -0.1581
  C  C652  1  0.106600  0.020700  0.524600  1.0  0.1941
  C  C653  1  0.150900  0.883400  0.573400  1.0  0.2008
  C  C654  1  0.131000  0.838000  0.586500  1.0  -0.1564
  C  C655  1  0.818200  0.959600  0.959800  1.0  0.6165
  C  C656  1  0.863500  0.943900  0.011100  1.0  0.03
  C  C657  1  0.888600  0.044400  0.047100  1.0  -0.1709
  C  C658  1  0.933300  0.025800  0.077100  1.0  -0.1034
  C  C659  1  0.931700  0.929800  0.048000  1.0  -0.1857
  C  C660  1  0.886900  0.904900  0.992400  1.0  0.1927
  C  C661  1  0.872900  0.975700  0.942400  1.0  -0.3727
  C  C662  1  0.877300  0.788900  0.972300  1.0  -0.3712
  C  C663  1  0.867500  0.858700  0.049400  1.0  -0.375
  C  C664  1  0.959300  0.931200  0.035300  1.0  0.6622
  C  C665  1  0.676500  0.153600  0.810500  1.0  0.6593
  C  C666  1  0.651900  0.257200  0.797500  1.0  -0.1589
  C  C667  1  0.645000  0.277200  0.835100  1.0  -0.134
  C  C668  1  0.648800  0.394100  0.847400  1.0  -0.1511
  C  C669  1  0.651800  0.447100  0.805800  1.0  0.0915
  C  C670  1  0.672500  0.356700  0.798300  1.0  0.163
  C  C671  1  0.666800  0.365400  0.745900  1.0  -0.379
  C  C672  1  0.719700  0.355700  0.852000  1.0  -0.385
  C  C673  1  0.610700  0.480200  0.748800  1.0  -0.3689
  C  C674  1  0.680400  0.545400  0.837100  1.0  0.3991
  C  C675  1  0.074100  0.017000  0.115800  1.0  0.6491
  C  C676  1  0.111700  0.016400  0.183700  1.0  0.0686
  C  C677  1  0.123400  0.907200  0.212800  1.0  -0.1963
  C  C678  1  0.145300  0.919400  0.277900  1.0  -0.1232
  C  C679  1  0.134200  0.029600  0.278500  1.0  -0.1622
  C  C680  1  0.099900  0.082000  0.216400  1.0  0.1727
  C  C681  1  0.058500  0.055000  0.187500  1.0  -0.3872
  C  C682  1  0.106800  0.199600  0.218100  1.0  -0.3763
  C  C683  1  0.146300  0.077800  0.198500  1.0  -0.3865
  C  C684  1  0.122100  0.042800  0.313300  1.0  0.6997
  C  C685  1  0.839200  0.802900  0.531000  1.0  0.6529
  C  C686  1  0.822800  0.690000  0.523400  1.0  0.0526
  C  C687  1  0.797600  0.689200  0.541800  1.0  0.1278
  C  C688  1  0.770000  0.587000  0.507200  1.0  -0.1214
  C  C689  1  0.764200  0.578800  0.456200  1.0  -0.1394
  C  C690  1  0.791300  0.658100  0.460000  1.0  -0.1513
  C  C691  1  0.858100  0.615400  0.555100  1.0  -0.3684
  C  C692  1  0.824800  0.671900  0.607200  1.0  -0.3774
  C  C693  1  0.772900  0.789400  0.522900  1.0  -0.3783
  C  C694  1  0.731200  0.592700  0.493100  1.0  0.5759
  C  C695  1  0.931200  0.374000  0.628800  1.0  0.577
  C  C696  1  0.969600  0.436600  0.670500  1.0  -0.1844
  C  C697  1  0.995100  0.422900  0.735500  1.0  -0.1463
  C  C698  1  0.040600  0.423500  0.769700  1.0  -0.1541
  C  C699  1  0.041500  0.470300  0.725400  1.0  0.0582
  C  C700  1  0.040700  0.586900  0.720000  1.0  -0.3685
  C  C701  1  0.002400  0.416900  0.666400  1.0  0.1931
  C  C702  1  0.987900  0.465100  0.610000  1.0  -0.3815
  C  C703  1  0.006600  0.299000  0.664900  1.0  -0.3862
  C  C704  1  0.079800  0.440400  0.738600  1.0  0.5553
  C  C705  1  0.782000  0.159500  0.382900  1.0  0.6905
  C  C706  1  0.758200  0.230700  0.328600  1.0  -0.156
  C  C707  1  0.761300  0.346800  0.338500  1.0  -0.131
  C  C708  1  0.753500  0.390100  0.284900  1.0  -0.1808
  C  C709  1  0.747800  0.300500  0.249000  1.0  0.0459
  C  C710  1  0.698300  0.281000  0.196300  1.0  -0.3403
  C  C711  1  0.766800  0.200700  0.290800  1.0  0.1839
  C  C712  1  0.750400  0.089900  0.261400  1.0  -0.3893
  C  C713  1  0.813300  0.197600  0.329400  1.0  -0.3746
  C  C714  1  0.762400  0.316300  0.218300  1.0  0.6568
  C  C715  1  0.181780  0.572600  0.016850  1.0  0.1329
  C  C716  1  0.194990  0.563400  0.096630  1.0  0.2152
  C  C717  1  0.139200  0.480000  0.636800  1.0  0.1961
  C  C718  1  0.091500  0.542400  0.628600  1.0  0.1644
  C  C719  1  0.753500  0.639700  0.229200  1.0  0.1936
  C  C720  1  0.737700  0.707500  0.242700  1.0  -0.1782
  C  C721  1  0.704300  0.771600  0.198800  1.0  -0.0705
  C  C722  1  0.688500  0.765000  0.142500  1.0  -0.1118
  C  C723  1  0.706100  0.693500  0.131800  1.0  0.1442
  C  C724  1  0.684000  0.849700  0.206900  1.0  0.3013
  C  C725  1  0.675100  0.004800  0.289000  1.0  -0.026
  C  C726  1  0.674600  0.890400  0.353600  1.0  0.1748
  C  C727  1  0.611000  0.902200  0.301400  1.0  0.251
  C  C728  1  0.641700  0.968600  0.183700  1.0  0.221
  C  C729  1  0.608300  0.048200  0.146400  1.0  -0.0174
  C  C730  1  0.583800  0.090800  0.154800  1.0  -0.2157
  C  C731  1  0.552200  0.163700  0.113300  1.0  0.1882
  C  C732  1  0.565200  0.147900  0.056400  1.0  0.1825
  C  C733  1  0.598400  0.081300  0.096200  1.0  -0.1784
  C  C734  1  0.508500  0.796900  0.075600  1.0  0.1385
  C  C735  1  0.499700  0.879800  0.094500  1.0  -0.059
  C  C736  1  0.459800  0.907300  0.063500  1.0  -0.033
  C  C737  1  0.428000  0.860600  0.008200  1.0  -0.2252
  C  C738  1  0.438600  0.785000  0.989300  1.0  0.2137
  C  C739  1  0.453300  0.990800  0.090100  1.0  0.2141
  C  C740  1  0.380100  0.951700  0.047000  1.0  -0.0074
  C  C741  1  0.465900  0.120300  0.142600  1.0  0.3454
  C  C742  1  0.490500  0.200900  0.190100  1.0  -0.0828
  C  C743  1  0.532500  0.208600  0.225300  1.0  -0.0603
  C  C744  1  0.555700  0.279800  0.270200  1.0  0.1809
  C  C745  1  0.498500  0.346300  0.246500  1.0  0.1911
  C  C746  1  0.472300  0.270600  0.201300  1.0  -0.1915
  C  C747  1  0.519400  0.501100  0.373400  1.0  0.1806
  C  C748  1  0.494400  0.476500  0.382700  1.0  -0.1848
  C  C749  1  0.495500  0.375000  0.400000  1.0  -0.0337
  C  C750  1  0.522200  0.300400  0.407100  1.0  -0.1662
  C  C751  1  0.546200  0.332300  0.397300  1.0  0.168
  C  C752  1  0.472100  0.345100  0.414200  1.0  0.2952
  C  C753  1  0.443610  0.164000  0.463800  1.0  -0.1167
  C  C754  1  0.433540  0.356300  0.429100  1.0  0.3135
  C  C755  1  0.407590  0.398100  0.438000  1.0  0.0586
  C  C756  1  0.415870  0.488000  0.463400  1.0  -0.1578
  C  C757  1  0.393400  0.520700  0.475400  1.0  0.1941
  C  C758  1  0.349100  0.383400  0.426600  1.0  0.2007
  C  C759  1  0.369000  0.338000  0.413500  1.0  -0.1561
  C  C760  1  0.681800  0.459600  0.040200  1.0  0.6201
  C  C761  1  0.636500  0.443900  0.988900  1.0  0.032
  C  C762  1  0.611400  0.544400  0.952900  1.0  -0.1672
  C  C763  1  0.566700  0.525800  0.922900  1.0  -0.0995
  C  C764  1  0.568300  0.429800  0.952000  1.0  -0.1847
  C  C765  1  0.613100  0.404900  0.007600  1.0  0.1921
  C  C766  1  0.627100  0.475700  0.057600  1.0  -0.372
  C  C767  1  0.622700  0.288900  0.027700  1.0  -0.3714
  C  C768  1  0.632500  0.358700  0.950600  1.0  -0.3748
  C  C769  1  0.540700  0.431200  0.964700  1.0  0.6605
  C  C770  1  0.823500  0.653600  0.189500  1.0  0.6587
  C  C771  1  0.848100  0.757200  0.202500  1.0  -0.16
  C  C772  1  0.855000  0.777200  0.164900  1.0  -0.1338
  C  C773  1  0.851200  0.894100  0.152600  1.0  -0.1488
  C  C774  1  0.848200  0.947100  0.194200  1.0  0.0879
  C  C775  1  0.827500  0.856700  0.201700  1.0  0.1637
  C  C776  1  0.833200  0.865400  0.254100  1.0  -0.3781
  C  C777  1  0.780300  0.855700  0.148000  1.0  -0.3899
  C  C778  1  0.889300  0.980200  0.251200  1.0  -0.3696
  C  C779  1  0.819600  0.045400  0.162900  1.0  0.3985
  C  C780  1  0.425900  0.517000  0.884200  1.0  0.6493
  C  C781  1  0.388300  0.516400  0.816300  1.0  0.0706
  C  C782  1  0.376600  0.407200  0.787200  1.0  -0.1955
  C  C783  1  0.354700  0.419400  0.722100  1.0  -0.1205
  C  C784  1  0.365800  0.529600  0.721500  1.0  -0.1639
  C  C785  1  0.400100  0.582000  0.783600  1.0  0.1727
  C  C786  1  0.441500  0.555000  0.812500  1.0  -0.3878
  C  C787  1  0.393200  0.699600  0.781900  1.0  -0.3759
  C  C788  1  0.353700  0.577800  0.801500  1.0  -0.3869
  C  C789  1  0.377900  0.542800  0.686700  1.0  0.7001
  C  C790  1  0.660800  0.302900  0.469000  1.0  0.6531
  C  C791  1  0.677200  0.190000  0.476600  1.0  0.0515
  C  C792  1  0.702400  0.189200  0.458200  1.0  0.1281
  C  C793  1  0.730000  0.087000  0.492800  1.0  -0.1199
  C  C794  1  0.735800  0.078800  0.543800  1.0  -0.1413
  C  C795  1  0.708700  0.158100  0.540000  1.0  -0.1537
  C  C796  1  0.641900  0.115400  0.444900  1.0  -0.3681
  C  C797  1  0.675200  0.171900  0.392800  1.0  -0.376
  C  C798  1  0.727100  0.289400  0.477100  1.0  -0.3796
  C  C799  1  0.768800  0.092700  0.506900  1.0  0.5817
  C  C800  1  0.568800  0.874000  0.371200  1.0  0.5802
  C  C801  1  0.530400  0.936600  0.329500  1.0  -0.185
  C  C802  1  0.504900  0.922900  0.264500  1.0  -0.148
  C  C803  1  0.459400  0.923500  0.230300  1.0  -0.15
  C  C804  1  0.458500  0.970300  0.274600  1.0  0.0587
  C  C805  1  0.459300  0.086900  0.280000  1.0  -0.3671
  C  C806  1  0.497600  0.916900  0.333600  1.0  0.1928
  C  C807  1  0.512100  0.965100  0.390000  1.0  -0.3811
  C  C808  1  0.493400  0.799000  0.335100  1.0  -0.3862
  C  C809  1  0.420200  0.940400  0.261400  1.0  0.5499
  C  C810  1  0.718000  0.659500  0.617100  1.0  0.6916
  C  C811  1  0.741800  0.730700  0.671400  1.0  -0.1563
  C  C812  1  0.738700  0.846800  0.661500  1.0  -0.1295
  C  C813  1  0.746500  0.890100  0.715100  1.0  -0.1814
  C  C814  1  0.752200  0.800500  0.751000  1.0  0.0471
  C  C815  1  0.801700  0.781000  0.803700  1.0  -0.3397
  C  C816  1  0.733200  0.700700  0.709200  1.0  0.1845
  C  C817  1  0.749600  0.589900  0.738600  1.0  -0.3914
  C  C818  1  0.686700  0.697600  0.670600  1.0  -0.3741
  C  C819  1  0.737600  0.816300  0.781700  1.0  0.6531
  C  C820  1  0.318220  0.072600  0.983150  1.0  0.1332
  C  C821  1  0.305010  0.063400  0.903370  1.0  0.2157
  C  C822  1  0.360800  0.980000  0.363200  1.0  0.1961
  C  C823  1  0.408500  0.042400  0.371400  1.0  0.1636
  C  C824  1  0.253500  0.139700  0.229200  1.0  0.1936
  C  C825  1  0.237700  0.207500  0.242700  1.0  -0.1782
  C  C826  1  0.204300  0.271600  0.198800  1.0  -0.0705
  C  C827  1  0.188500  0.265000  0.142500  1.0  -0.1118
  C  C828  1  0.206100  0.193500  0.131800  1.0  0.1442
  C  C829  1  0.184000  0.349700  0.206900  1.0  0.3013
  C  C830  1  0.175100  0.504800  0.289000  1.0  -0.026
  C  C831  1  0.174600  0.390400  0.353600  1.0  0.1748
  C  C832  1  0.111000  0.402200  0.301400  1.0  0.251
  C  C833  1  0.141700  0.468600  0.183700  1.0  0.221
  C  C834  1  0.108300  0.548200  0.146400  1.0  -0.0174
  C  C835  1  0.083800  0.590800  0.154800  1.0  -0.2157
  C  C836  1  0.052200  0.663700  0.113300  1.0  0.1882
  C  C837  1  0.065200  0.647900  0.056400  1.0  0.1825
  C  C838  1  0.098400  0.581300  0.096200  1.0  -0.1784
  C  C839  1  0.008500  0.296900  0.075600  1.0  0.1385
  C  C840  1  0.999700  0.379800  0.094500  1.0  -0.059
  C  C841  1  0.959800  0.407300  0.063500  1.0  -0.033
  C  C842  1  0.928000  0.360600  0.008200  1.0  -0.2252
  C  C843  1  0.938600  0.285000  0.989300  1.0  0.2137
  C  C844  1  0.953300  0.490800  0.090100  1.0  0.2141
  C  C845  1  0.880100  0.451700  0.047000  1.0  -0.0074
  C  C846  1  0.965900  0.620300  0.142600  1.0  0.3454
  C  C847  1  0.990500  0.700900  0.190100  1.0  -0.0828
  C  C848  1  0.032500  0.708600  0.225300  1.0  -0.0603
  C  C849  1  0.055700  0.779800  0.270200  1.0  0.1809
  C  C850  1  0.998500  0.846300  0.246500  1.0  0.1911
  C  C851  1  0.972300  0.770600  0.201300  1.0  -0.1915
  C  C852  1  0.019400  0.001100  0.373400  1.0  0.1806
  C  C853  1  0.994400  0.976500  0.382700  1.0  -0.1848
  C  C854  1  0.995500  0.875000  0.400000  1.0  -0.0337
  C  C855  1  0.022200  0.800400  0.407100  1.0  -0.1662
  C  C856  1  0.046200  0.832300  0.397300  1.0  0.168
  C  C857  1  0.972100  0.845100  0.414200  1.0  0.2952
  C  C858  1  0.943610  0.664000  0.463800  1.0  -0.1167
  C  C859  1  0.933540  0.856300  0.429100  1.0  0.3135
  C  C860  1  0.907590  0.898100  0.438000  1.0  0.0586
  C  C861  1  0.915870  0.988000  0.463400  1.0  -0.1578
  C  C862  1  0.893400  0.020700  0.475400  1.0  0.1941
  C  C863  1  0.849100  0.883400  0.426600  1.0  0.2007
  C  C864  1  0.869000  0.838000  0.413500  1.0  -0.1561
  C  C865  1  0.181800  0.959600  0.040200  1.0  0.6201
  C  C866  1  0.136500  0.943900  0.988900  1.0  0.032
  C  C867  1  0.111400  0.044400  0.952900  1.0  -0.1672
  C  C868  1  0.066700  0.025800  0.922900  1.0  -0.0995
  C  C869  1  0.068300  0.929800  0.952000  1.0  -0.1847
  C  C870  1  0.113100  0.904900  0.007600  1.0  0.1921
  C  C871  1  0.127100  0.975700  0.057600  1.0  -0.372
  C  C872  1  0.122700  0.788900  0.027700  1.0  -0.3714
  C  C873  1  0.132500  0.858700  0.950600  1.0  -0.3748
  C  C874  1  0.040700  0.931200  0.964700  1.0  0.6605
  C  C875  1  0.323500  0.153600  0.189500  1.0  0.6587
  C  C876  1  0.348100  0.257200  0.202500  1.0  -0.16
  C  C877  1  0.355000  0.277200  0.164900  1.0  -0.1338
  C  C878  1  0.351200  0.394100  0.152600  1.0  -0.1488
  C  C879  1  0.348200  0.447100  0.194200  1.0  0.0879
  C  C880  1  0.327500  0.356700  0.201700  1.0  0.1637
  C  C881  1  0.333200  0.365400  0.254100  1.0  -0.3781
  C  C882  1  0.280300  0.355700  0.148000  1.0  -0.3899
  C  C883  1  0.389300  0.480200  0.251200  1.0  -0.3696
  C  C884  1  0.319600  0.545400  0.162900  1.0  0.3985
  C  C885  1  0.925900  0.017000  0.884200  1.0  0.6493
  C  C886  1  0.888300  0.016400  0.816300  1.0  0.0706
  C  C887  1  0.876600  0.907200  0.787200  1.0  -0.1955
  C  C888  1  0.854700  0.919400  0.722100  1.0  -0.1205
  C  C889  1  0.865800  0.029600  0.721500  1.0  -0.1639
  C  C890  1  0.900100  0.082000  0.783600  1.0  0.1727
  C  C891  1  0.941500  0.055000  0.812500  1.0  -0.3878
  C  C892  1  0.893200  0.199600  0.781900  1.0  -0.3759
  C  C893  1  0.853700  0.077800  0.801500  1.0  -0.3869
  C  C894  1  0.877900  0.042800  0.686700  1.0  0.7001
  C  C895  1  0.160800  0.802900  0.469000  1.0  0.6531
  C  C896  1  0.177200  0.690000  0.476600  1.0  0.0515
  C  C897  1  0.202400  0.689200  0.458200  1.0  0.1281
  C  C898  1  0.230000  0.587000  0.492800  1.0  -0.1199
  C  C899  1  0.235800  0.578800  0.543800  1.0  -0.1413
  C  C900  1  0.208700  0.658100  0.540000  1.0  -0.1537
  C  C901  1  0.141900  0.615400  0.444900  1.0  -0.3681
  C  C902  1  0.175200  0.671900  0.392800  1.0  -0.376
  C  C903  1  0.227100  0.789400  0.477100  1.0  -0.3796
  C  C904  1  0.268800  0.592700  0.506900  1.0  0.5817
  C  C905  1  0.068800  0.374000  0.371200  1.0  0.5802
  C  C906  1  0.030400  0.436600  0.329500  1.0  -0.185
  C  C907  1  0.004900  0.422900  0.264500  1.0  -0.148
  C  C908  1  0.959400  0.423500  0.230300  1.0  -0.15
  C  C909  1  0.958500  0.470300  0.274600  1.0  0.0587
  C  C910  1  0.959300  0.586900  0.280000  1.0  -0.3671
  C  C911  1  0.997600  0.416900  0.333600  1.0  0.1928
  C  C912  1  0.012100  0.465100  0.390000  1.0  -0.3811
  C  C913  1  0.993400  0.299000  0.335100  1.0  -0.3862
  C  C914  1  0.920200  0.440400  0.261400  1.0  0.5499
  C  C915  1  0.218000  0.159500  0.617100  1.0  0.6916
  C  C916  1  0.241800  0.230700  0.671400  1.0  -0.1563
  C  C917  1  0.238700  0.346800  0.661500  1.0  -0.1295
  C  C918  1  0.246500  0.390100  0.715100  1.0  -0.1814
  C  C919  1  0.252200  0.300500  0.751000  1.0  0.0471
  C  C920  1  0.301700  0.281000  0.803700  1.0  -0.3397
  C  C921  1  0.233200  0.200700  0.709200  1.0  0.1845
  C  C922  1  0.249600  0.089900  0.738600  1.0  -0.3914
  C  C923  1  0.186700  0.197600  0.670600  1.0  -0.3741
  C  C924  1  0.237600  0.316300  0.781700  1.0  0.6531
  C  C925  1  0.818220  0.572600  0.983150  1.0  0.1332
  C  C926  1  0.805010  0.563400  0.903370  1.0  0.2157
  C  C927  1  0.860800  0.480000  0.363200  1.0  0.1961
  C  C928  1  0.908500  0.542400  0.371400  1.0  0.1636
  N  N929  1  0.262200  0.627800  0.825200  1.0  -0.3503
  N  N930  1  0.349300  0.906900  0.839500  1.0  -0.4492
  N  N931  1  0.303900  0.873600  0.741800  1.0  -0.3876
  N  N932  1  0.331260  0.951300  0.757400  1.0  0.1451
  N  N933  1  0.343100  0.948600  0.694200  1.0  0.1773
  N  N934  1  0.384800  0.959600  0.727000  1.0  -0.3607
  N  N935  1  0.353700  0.858300  0.647600  1.0  -0.4009
  N  N936  1  0.456900  0.194500  0.934600  1.0  -0.3604
  N  N937  1  0.522600  0.754200  0.978800  1.0  -0.3721
  N  N938  1  0.517300  0.059500  0.871300  1.0  -0.4212
  N  N939  1  0.580860  0.010700  0.919800  1.0  0.1399
  N  N940  1  0.572700  0.094000  0.885600  1.0  -0.3765
  N  N941  1  0.662050  0.001500  0.055890  1.0  -0.2405
  N  N942  1  0.653880  0.007200  0.006580  1.0  0.1607
  N  N943  1  0.707190  0.107400  0.072500  1.0  -0.2612
  N  N944  1  0.461200  0.349900  0.719000  1.0  -0.3595
  N  N945  1  0.454600  0.432400  0.618900  1.0  -0.3668
  N  N946  1  0.551400  0.416200  0.586200  1.0  -0.4537
  N  N947  1  0.530200  0.243800  0.574200  1.0  -0.3752
  N  N948  1  0.556200  0.254600  0.567100  1.0  0.0748
  N  N949  1  0.588700  0.089200  0.588900  1.0  0.1117
  N  N950  1  0.618100  0.050600  0.593900  1.0  -0.2249
  N  N951  1  0.622800  0.974900  0.658200  1.0  -0.2651
  N  N952  1  0.639500  0.472200  0.541900  1.0  -0.361
  N  N953  1  0.762200  0.127800  0.825200  1.0  -0.3503
  N  N954  1  0.849300  0.406900  0.839500  1.0  -0.4492
  N  N955  1  0.803900  0.373600  0.741800  1.0  -0.3876
  N  N956  1  0.831260  0.451300  0.757400  1.0  0.1451
  N  N957  1  0.843100  0.448600  0.694200  1.0  0.1773
  N  N958  1  0.884800  0.459600  0.727000  1.0  -0.3607
  N  N959  1  0.853700  0.358300  0.647600  1.0  -0.4009
  N  N960  1  0.956900  0.694500  0.934600  1.0  -0.3604
  N  N961  1  0.022600  0.254200  0.978800  1.0  -0.3721
  N  N962  1  0.017300  0.559500  0.871300  1.0  -0.4212
  N  N963  1  0.080860  0.510700  0.919800  1.0  0.1399
  N  N964  1  0.072700  0.594000  0.885600  1.0  -0.3765
  N  N965  1  0.162050  0.501500  0.055890  1.0  -0.2405
  N  N966  1  0.153880  0.507200  0.006580  1.0  0.1607
  N  N967  1  0.207190  0.607400  0.072500  1.0  -0.2612
  N  N968  1  0.961200  0.849900  0.719000  1.0  -0.3595
  N  N969  1  0.954600  0.932400  0.618900  1.0  -0.3668
  N  N970  1  0.051400  0.916200  0.586200  1.0  -0.4537
  N  N971  1  0.030200  0.743800  0.574200  1.0  -0.3752
  N  N972  1  0.056200  0.754600  0.567100  1.0  0.0748
  N  N973  1  0.088700  0.589200  0.588900  1.0  0.1117
  N  N974  1  0.118100  0.550600  0.593900  1.0  -0.2249
  N  N975  1  0.122800  0.474900  0.658200  1.0  -0.2651
  N  N976  1  0.139500  0.972200  0.541900  1.0  -0.361
  N  N977  1  0.737800  0.627800  0.174800  1.0  -0.3509
  N  N978  1  0.650700  0.906900  0.160500  1.0  -0.4486
  N  N979  1  0.696100  0.873600  0.258200  1.0  -0.3861
  N  N980  1  0.668740  0.951300  0.242600  1.0  0.1451
  N  N981  1  0.656900  0.948600  0.305800  1.0  0.1774
  N  N982  1  0.615200  0.959600  0.273000  1.0  -0.3607
  N  N983  1  0.646300  0.858300  0.352400  1.0  -0.3997
  N  N984  1  0.543100  0.194500  0.065400  1.0  -0.3605
  N  N985  1  0.477400  0.754200  0.021200  1.0  -0.3732
  N  N986  1  0.482700  0.059500  0.128700  1.0  -0.4204
  N  N987  1  0.419140  0.010700  0.080200  1.0  0.1399
  N  N988  1  0.427300  0.094000  0.114400  1.0  -0.3772
  N  N989  1  0.337950  0.001500  0.944110  1.0  -0.2407
  N  N990  1  0.346120  0.007200  0.993420  1.0  0.1602
  N  N991  1  0.292810  0.107400  0.927500  1.0  -0.2636
  N  N992  1  0.538800  0.349900  0.281000  1.0  -0.3607
  N  N993  1  0.545400  0.432400  0.381100  1.0  -0.3678
  N  N994  1  0.448600  0.416200  0.413800  1.0  -0.4546
  N  N995  1  0.469800  0.243800  0.425800  1.0  -0.3745
  N  N996  1  0.443800  0.254600  0.432900  1.0  0.0751
  N  N997  1  0.411300  0.089200  0.411100  1.0  0.1109
  N  N998  1  0.381900  0.050600  0.406100  1.0  -0.2252
  N  N999  1  0.377200  0.974900  0.341800  1.0  -0.2664
  N  N1000  1  0.360500  0.472200  0.458100  1.0  -0.3626
  N  N1001  1  0.237800  0.127800  0.174800  1.0  -0.3509
  N  N1002  1  0.150700  0.406900  0.160500  1.0  -0.4486
  N  N1003  1  0.196100  0.373600  0.258200  1.0  -0.3861
  N  N1004  1  0.168740  0.451300  0.242600  1.0  0.1451
  N  N1005  1  0.156900  0.448600  0.305800  1.0  0.1774
  N  N1006  1  0.115200  0.459600  0.273000  1.0  -0.3607
  N  N1007  1  0.146300  0.358300  0.352400  1.0  -0.3997
  N  N1008  1  0.043100  0.694500  0.065400  1.0  -0.3605
  N  N1009  1  0.977400  0.254200  0.021200  1.0  -0.3732
  N  N1010  1  0.982700  0.559500  0.128700  1.0  -0.4204
  N  N1011  1  0.919140  0.510700  0.080200  1.0  0.1399
  N  N1012  1  0.927300  0.594000  0.114400  1.0  -0.3772
  N  N1013  1  0.837950  0.501500  0.944110  1.0  -0.2407
  N  N1014  1  0.846120  0.507200  0.993420  1.0  0.1602
  N  N1015  1  0.792810  0.607400  0.927500  1.0  -0.2636
  N  N1016  1  0.038800  0.849900  0.281000  1.0  -0.3607
  N  N1017  1  0.045400  0.932400  0.381100  1.0  -0.3678
  N  N1018  1  0.948600  0.916200  0.413800  1.0  -0.4546
  N  N1019  1  0.969800  0.743800  0.425800  1.0  -0.3745
  N  N1020  1  0.943800  0.754600  0.432900  1.0  0.0751
  N  N1021  1  0.911300  0.589200  0.411100  1.0  0.1109
  N  N1022  1  0.881900  0.550600  0.406100  1.0  -0.2252
  N  N1023  1  0.877200  0.474900  0.341800  1.0  -0.2664
  N  N1024  1  0.860500  0.972200  0.458100  1.0  -0.3626
  O  O1025  1  0.205100  0.625100  0.863400  1.0  -0.6092
  O  O1026  1  0.169000  0.604300  0.770300  1.0  -0.6702
  O  O1027  1  0.184100  0.105200  0.811400  1.0  -0.6109
  O  O1028  1  0.198200  0.075400  0.884500  1.0  -0.5262
  O  O1029  1  0.302100  0.550200  0.954700  1.0  -0.6962
  O  O1030  1  0.295000  0.392700  0.920900  1.0  -0.6416
  O  O1031  1  0.470190  0.340800  0.032000  1.0  -0.5766
  O  O1032  1  0.469220  0.518400  0.029700  1.0  -0.6292
  O  O1033  1  0.557910  0.430200  0.089600  1.0  -0.6911
  O  O1034  1  0.560650  0.607800  0.091500  1.0  -0.5834
  O  O1035  1  0.620000  0.461100  0.333100  1.0  -0.6025
  O  O1036  1  0.612500  0.632700  0.316900  1.0  -0.6182
  O  O1037  1  0.372300  0.331100  0.578600  1.0  -0.6245
  O  O1038  1  0.315600  0.360900  0.486100  1.0  -0.6001
  O  O1039  1  0.230300  0.064600  0.528000  1.0  -0.5821
  O  O1040  1  0.199400  0.133400  0.445000  1.0  -0.6091
  O  O1041  1  0.423700  0.799900  0.650800  1.0  -0.6179
  O  O1042  1  0.405300  0.901400  0.574500  1.0  -0.6076
  O  O1043  1  0.610000  0.912200  0.787800  1.0  -0.514
  O  O1044  1  0.583100  0.948100  0.705400  1.0  -0.5975
  O  O1045  1  0.313940  0.697600  0.433800  1.0  -0.6231
  O  O1046  1  0.270400  0.566200  0.378300  1.0  -0.5951
  O  O1047  1  0.281600  0.902700  0.227600  1.0  -0.7524
  O  O1048  1  0.256100  0.740300  0.187000  1.0  -0.6192
  O  O1049  1  0.378140  0.599600  0.570300  1.0  -0.778
  O  O1050  1  0.198320  0.373800  0.840600  1.0  -0.7927
  O  O1051  1  0.705100  0.125100  0.863400  1.0  -0.6092
  O  O1052  1  0.669000  0.104300  0.770300  1.0  -0.6702
  O  O1053  1  0.684100  0.605200  0.811400  1.0  -0.6109
  O  O1054  1  0.698200  0.575400  0.884500  1.0  -0.5262
  O  O1055  1  0.802100  0.050200  0.954700  1.0  -0.6962
  O  O1056  1  0.795000  0.892700  0.920900  1.0  -0.6416
  O  O1057  1  0.970190  0.840800  0.032000  1.0  -0.5766
  O  O1058  1  0.969220  0.018400  0.029700  1.0  -0.6292
  O  O1059  1  0.057910  0.930200  0.089600  1.0  -0.6911
  O  O1060  1  0.060650  0.107800  0.091500  1.0  -0.5834
  O  O1061  1  0.120000  0.961100  0.333100  1.0  -0.6025
  O  O1062  1  0.112500  0.132700  0.316900  1.0  -0.6182
  O  O1063  1  0.872300  0.831100  0.578600  1.0  -0.6245
  O  O1064  1  0.815600  0.860900  0.486100  1.0  -0.6001
  O  O1065  1  0.730300  0.564600  0.528000  1.0  -0.5821
  O  O1066  1  0.699400  0.633400  0.445000  1.0  -0.6091
  O  O1067  1  0.923700  0.299900  0.650800  1.0  -0.6179
  O  O1068  1  0.905300  0.401400  0.574500  1.0  -0.6076
  O  O1069  1  0.110000  0.412200  0.787800  1.0  -0.514
  O  O1070  1  0.083100  0.448100  0.705400  1.0  -0.5975
  O  O1071  1  0.813940  0.197600  0.433800  1.0  -0.6231
  O  O1072  1  0.770400  0.066200  0.378300  1.0  -0.5951
  O  O1073  1  0.781600  0.402700  0.227600  1.0  -0.7524
  O  O1074  1  0.756100  0.240300  0.187000  1.0  -0.6191
  O  O1075  1  0.878140  0.099600  0.570300  1.0  -0.778
  O  O1076  1  0.698320  0.873800  0.840600  1.0  -0.7927
  O  O1077  1  0.794900  0.625100  0.136600  1.0  -0.6071
  O  O1078  1  0.831000  0.604300  0.229700  1.0  -0.6693
  O  O1079  1  0.815900  0.105200  0.188600  1.0  -0.6079
  O  O1080  1  0.801800  0.075400  0.115500  1.0  -0.5298
  O  O1081  1  0.697900  0.550200  0.045300  1.0  -0.6945
  O  O1082  1  0.705000  0.392700  0.079100  1.0  -0.6402
  O  O1083  1  0.529810  0.340800  0.968000  1.0  -0.5763
  O  O1084  1  0.530780  0.518400  0.970300  1.0  -0.6291
  O  O1085  1  0.442090  0.430200  0.910400  1.0  -0.6895
  O  O1086  1  0.439350  0.607800  0.908500  1.0  -0.5822
  O  O1087  1  0.380000  0.461100  0.666900  1.0  -0.6009
  O  O1088  1  0.387500  0.632700  0.683100  1.0  -0.6181
  O  O1089  1  0.627700  0.331100  0.421400  1.0  -0.6256
  O  O1090  1  0.684400  0.360900  0.513900  1.0  -0.6009
  O  O1091  1  0.769700  0.064600  0.472000  1.0  -0.5817
  O  O1092  1  0.800600  0.133400  0.555000  1.0  -0.6109
  O  O1093  1  0.576300  0.799900  0.349200  1.0  -0.6175
  O  O1094  1  0.594700  0.901400  0.425500  1.0  -0.6098
  O  O1095  1  0.390000  0.912200  0.212200  1.0  -0.5167
  O  O1096  1  0.416900  0.948100  0.294600  1.0  -0.5981
  O  O1097  1  0.686060  0.697600  0.566200  1.0  -0.6222
  O  O1098  1  0.729600  0.566200  0.621700  1.0  -0.5956
  O  O1099  1  0.718400  0.902700  0.772400  1.0  -0.7538
  O  O1100  1  0.743900  0.740300  0.813000  1.0  -0.6192
  O  O1101  1  0.621860  0.599600  0.429700  1.0  -0.7769
  O  O1102  1  0.801680  0.373800  0.159400  1.0  -0.7932
  O  O1103  1  0.294900  0.125100  0.136600  1.0  -0.6071
  O  O1104  1  0.331000  0.104300  0.229700  1.0  -0.6693
  O  O1105  1  0.315900  0.605200  0.188600  1.0  -0.6079
  O  O1106  1  0.301800  0.575400  0.115500  1.0  -0.5298
  O  O1107  1  0.197900  0.050200  0.045300  1.0  -0.6945
  O  O1108  1  0.205000  0.892700  0.079100  1.0  -0.6402
  O  O1109  1  0.029810  0.840800  0.968000  1.0  -0.5763
  O  O1110  1  0.030780  0.018400  0.970300  1.0  -0.6291
  O  O1111  1  0.942090  0.930200  0.910400  1.0  -0.6895
  O  O1112  1  0.939350  0.107800  0.908500  1.0  -0.5822
  O  O1113  1  0.880000  0.961100  0.666900  1.0  -0.6009
  O  O1114  1  0.887500  0.132700  0.683100  1.0  -0.6181
  O  O1115  1  0.127700  0.831100  0.421400  1.0  -0.6256
  O  O1116  1  0.184400  0.860900  0.513900  1.0  -0.6009
  O  O1117  1  0.269700  0.564600  0.472000  1.0  -0.5817
  O  O1118  1  0.300600  0.633400  0.555000  1.0  -0.6109
  O  O1119  1  0.076300  0.299900  0.349200  1.0  -0.6175
  O  O1120  1  0.094700  0.401400  0.425500  1.0  -0.6098
  O  O1121  1  0.890000  0.412200  0.212200  1.0  -0.5167
  O  O1122  1  0.916900  0.448100  0.294600  1.0  -0.5981
  O  O1123  1  0.186060  0.197600  0.566200  1.0  -0.6222
  O  O1124  1  0.229600  0.066200  0.621700  1.0  -0.5956
  O  O1125  1  0.218400  0.402700  0.772400  1.0  -0.7538
  O  O1126  1  0.243900  0.240300  0.813000  1.0  -0.6191
  O  O1127  1  0.121860  0.099600  0.429700  1.0  -0.7769
  O  O1128  1  0.301680  0.873800  0.159400  1.0  -0.7932
