# generated using pymatgen
data_Si3H48C69N16
_symmetry_space_group_name_H-M   'P 1'
_cell_length_a   26.47280000
_cell_length_b   26.47250000
_cell_length_c   26.47250000
_cell_angle_alpha   109.47100000
_cell_angle_beta   109.47100000
_cell_angle_gamma   109.47100000
_symmetry_Int_Tables_number   1
_chemical_formula_structural   Si3H48C69N16
_chemical_formula_sum   'Si24 H384 C552 N128'
_cell_volume   14281.42190614
_cell_formula_units_Z   8
loop_
 _symmetry_equiv_pos_site_id
 _symmetry_equiv_pos_as_xyz
  1  'x, y, z'
loop_
 _atom_site_type_symbol
 _atom_site_label
 _atom_site_symmetry_multiplicity
 _atom_site_fract_x
 _atom_site_fract_y
 _atom_site_fract_z
 _atom_site_occupancy
 _atom_site_charge
  Si  Si1  1  0.841710  0.023290  0.442540  1.0  0.9599
  Si  Si2  1  0.100830  0.681580  0.158290  1.0  0.9617
  Si  Si3  1  0.557460  0.080750  0.899170  1.0  0.96
  Si  Si4  1  0.442540  0.523290  0.841710  1.0  0.9596
  Si  Si5  1  0.899170  0.580750  0.557460  1.0  0.9611
  Si  Si6  1  0.158290  0.181580  0.100830  1.0  0.9593
  Si  Si7  1  0.476710  0.818420  0.919250  1.0  0.9596
  Si  Si8  1  0.419250  0.476710  0.318420  1.0  0.9594
  Si  Si9  1  0.818420  0.419250  0.976710  1.0  0.9614
  Si  Si10  1  0.023290  0.942540  0.341710  1.0  0.9624
  Si  Si11  1  0.080750  0.399170  0.057460  1.0  0.9605
  Si  Si12  1  0.681580  0.658290  0.600830  1.0  0.9596
  Si  Si13  1  0.658290  0.100830  0.181580  1.0  0.9599
  Si  Si14  1  0.399170  0.557460  0.580750  1.0  0.9604
  Si  Si15  1  0.942540  0.841710  0.523290  1.0  0.9596
  Si  Si16  1  0.600830  0.158290  0.681580  1.0  0.9596
  Si  Si17  1  0.057460  0.899170  0.080750  1.0  0.9595
  Si  Si18  1  0.341710  0.442540  0.023290  1.0  0.9618
  Si  Si19  1  0.976710  0.919250  0.818420  1.0  0.9606
  Si  Si20  1  0.919250  0.318420  0.476710  1.0  0.9619
  Si  Si21  1  0.318420  0.976710  0.419250  1.0  0.9598
  Si  Si22  1  0.181580  0.600830  0.658290  1.0  0.9606
  Si  Si23  1  0.580750  0.057460  0.399170  1.0  0.961
  Si  Si24  1  0.523290  0.341710  0.942540  1.0  0.9594
  H  H25  1  0.459500  0.748000  0.396700  1.0  0.0687
  H  H26  1  0.761300  0.878500  0.520000  1.0  0.0943
  H  H27  1  0.693200  0.884000  0.557600  1.0  0.0774
  H  H28  1  0.234600  0.761400  0.285600  1.0  0.0688
  H  H29  1  0.842500  0.933300  0.501400  1.0  0.0736
  H  H30  1  0.306000  0.797100  0.388500  1.0  0.0914
  H  H31  1  0.523500  0.879800  0.426100  1.0  0.0655
  H  H32  1  0.714400  0.975800  0.449000  1.0  0.0682
  H  H33  1  0.437200  0.788500  0.540500  1.0  0.0651
  H  H34  1  0.402600  0.856300  0.476500  1.0  0.0672
  H  H35  1  0.498600  0.931900  0.841100  1.0  0.0674
  H  H36  1  0.603300  0.851300  0.562800  1.0  0.0647
  H  H37  1  0.258700  0.617200  0.238700  1.0  0.0943
  H  H38  1  0.551000  0.026800  0.765400  1.0  0.068
  H  H39  1  0.364400  0.690800  0.306800  1.0  0.0778
  H  H40  1  0.158900  0.590800  0.157500  1.0  0.0675
  H  H41  1  0.442400  0.826400  0.635600  1.0  0.077
  H  H42  1  0.611500  0.908600  0.417500  1.0  0.0901
  H  H43  1  0.582500  0.991100  0.694000  1.0  0.0914
  H  H44  1  0.480000  0.858500  0.741300  1.0  0.0957
  H  H45  1  0.573900  0.953700  0.597400  1.0  0.0657
  H  H46  1  0.635600  0.326400  0.442400  1.0  0.0782
  H  H47  1  0.417500  0.408600  0.611500  1.0  0.0914
  H  H48  1  0.449000  0.475800  0.714400  1.0  0.0694
  H  H49  1  0.557600  0.384000  0.693200  1.0  0.0766
  H  H50  1  0.562800  0.351300  0.603300  1.0  0.0656
  H  H51  1  0.520000  0.378500  0.761300  1.0  0.0944
  H  H52  1  0.841100  0.431900  0.498600  1.0  0.0678
  H  H53  1  0.540500  0.288500  0.437200  1.0  0.0682
  H  H54  1  0.157500  0.090800  0.158900  1.0  0.0736
  H  H55  1  0.476500  0.356300  0.402600  1.0  0.0668
  H  H56  1  0.741300  0.358500  0.480000  1.0  0.0956
  H  H57  1  0.306800  0.190800  0.364400  1.0  0.0768
  H  H58  1  0.388500  0.297100  0.306000  1.0  0.0905
  H  H59  1  0.396700  0.248000  0.459500  1.0  0.0642
  H  H60  1  0.426100  0.379800  0.523500  1.0  0.0655
  H  H61  1  0.597400  0.453700  0.573900  1.0  0.0663
  H  H62  1  0.501400  0.433300  0.842500  1.0  0.069
  H  H63  1  0.238700  0.117200  0.258700  1.0  0.0944
  H  H64  1  0.694000  0.491100  0.582500  1.0  0.0917
  H  H65  1  0.765400  0.526800  0.551000  1.0  0.0659
  H  H66  1  0.285600  0.261400  0.234600  1.0  0.0682
  H  H67  1  0.591400  0.702900  0.008900  1.0  0.0903
  H  H68  1  0.809200  0.673600  0.116000  1.0  0.0788
  H  H69  1  0.566700  0.909200  0.068100  1.0  0.072
  H  H70  1  0.620200  0.643700  0.046300  1.0  0.0664
  H  H71  1  0.673600  0.616000  0.309200  1.0  0.0765
  H  H72  1  0.752000  0.711500  0.148700  1.0  0.0671
  H  H73  1  0.616000  0.809200  0.173600  1.0  0.0782
  H  H74  1  0.508900  0.591400  0.202900  1.0  0.0911
  H  H75  1  0.641500  0.621500  0.382800  1.0  0.0943
  H  H76  1  0.711500  0.648700  0.252000  1.0  0.0651
  H  H77  1  0.568100  0.566700  0.409200  1.0  0.0684
  H  H78  1  0.702900  0.508900  0.091400  1.0  0.0918
  H  H79  1  0.546300  0.620200  0.143700  1.0  0.0645
  H  H80  1  0.473200  0.524200  0.238600  1.0  0.069
  H  H81  1  0.524200  0.738600  0.973200  1.0  0.068
  H  H82  1  0.643700  0.546300  0.120200  1.0  0.0659
  H  H83  1  0.738600  0.473200  0.024200  1.0  0.067
  H  H84  1  0.621500  0.882800  0.141500  1.0  0.0944
  H  H85  1  0.909200  0.568100  0.066700  1.0  0.0713
  H  H86  1  0.648700  0.752000  0.211500  1.0  0.0639
  H  H87  1  0.882800  0.641500  0.121500  1.0  0.0953
  H  H88  1  0.761400  0.785600  0.734600  1.0  0.0684
  H  H89  1  0.748000  0.896700  0.959500  1.0  0.0679
  H  H90  1  0.884000  0.057600  0.193200  1.0  0.076
  H  H91  1  0.953700  0.097400  0.073900  1.0  0.0662
  H  H92  1  0.826400  0.135600  0.942400  1.0  0.0757
  H  H93  1  0.026800  0.265400  0.051000  1.0  0.0678
  H  H94  1  0.908600  0.917500  0.111500  1.0  0.0902
  H  H95  1  0.975800  0.949000  0.214400  1.0  0.0689
  H  H96  1  0.797100  0.888500  0.806000  1.0  0.0907
  H  H97  1  0.617200  0.738700  0.758700  1.0  0.0948
  H  H98  1  0.991100  0.194000  0.082500  1.0  0.0891
  H  H99  1  0.690800  0.806800  0.864400  1.0  0.0772
  H  H100  1  0.788500  0.040500  0.937200  1.0  0.0646
  H  H101  1  0.856300  0.976500  0.902600  1.0  0.0654
  H  H102  1  0.933300  0.001400  0.342500  1.0  0.0699
  H  H103  1  0.879800  0.926100  0.023500  1.0  0.0653
  H  H104  1  0.878500  0.020000  0.261300  1.0  0.0951
  H  H105  1  0.858500  0.241300  0.980000  1.0  0.096
  H  H106  1  0.851300  0.062800  0.103300  1.0  0.0646
  H  H107  1  0.590800  0.657500  0.658900  1.0  0.0725
  H  H108  1  0.931900  0.341100  0.998600  1.0  0.0712
  H  H109  1  0.341100  0.498600  0.431900  1.0  0.0681
  H  H110  1  0.040500  0.437200  0.288500  1.0  0.066
  H  H111  1  0.806800  0.364400  0.190800  1.0  0.0768
  H  H112  1  0.265400  0.551000  0.526800  1.0  0.0673
  H  H113  1  0.135600  0.442400  0.326400  1.0  0.0776
  H  H114  1  0.062800  0.603300  0.351300  1.0  0.0636
  H  H115  1  0.888500  0.306000  0.297100  1.0  0.0899
  H  H116  1  0.896700  0.459500  0.248000  1.0  0.0626
  H  H117  1  0.657500  0.158900  0.090800  1.0  0.0699
  H  H118  1  0.785600  0.234600  0.261400  1.0  0.0686
  H  H119  1  0.949000  0.714400  0.475800  1.0  0.0695
  H  H120  1  0.057600  0.693200  0.384000  1.0  0.0779
  H  H121  1  0.976500  0.402600  0.356300  1.0  0.065
  H  H122  1  0.917500  0.611500  0.408600  1.0  0.0899
  H  H123  1  0.194000  0.582500  0.491100  1.0  0.0898
  H  H124  1  0.020000  0.761300  0.378500  1.0  0.0957
  H  H125  1  0.001400  0.842500  0.433300  1.0  0.0686
  H  H126  1  0.738700  0.258700  0.117200  1.0  0.0954
  H  H127  1  0.241300  0.480000  0.358500  1.0  0.0959
  H  H128  1  0.926100  0.523500  0.379800  1.0  0.0657
  H  H129  1  0.097400  0.573900  0.453700  1.0  0.0656
  H  H130  1  0.959500  0.396700  0.748000  1.0  0.066
  H  H131  1  0.658900  0.157500  0.590800  1.0  0.0663
  H  H132  1  0.806000  0.388500  0.797100  1.0  0.09
  H  H133  1  0.980000  0.741300  0.858500  1.0  0.0958
  H  H134  1  0.073900  0.597400  0.953700  1.0  0.0655
  H  H135  1  0.902600  0.476500  0.856300  1.0  0.0656
  H  H136  1  0.193200  0.557600  0.884000  1.0  0.0766
  H  H137  1  0.214400  0.449000  0.975800  1.0  0.0675
  H  H138  1  0.998600  0.841100  0.931900  1.0  0.069
  H  H139  1  0.342500  0.501400  0.933300  1.0  0.0702
  H  H140  1  0.051000  0.765400  0.026800  1.0  0.0677
  H  H141  1  0.734600  0.285600  0.761400  1.0  0.0697
  H  H142  1  0.758700  0.238700  0.617200  1.0  0.0956
  H  H143  1  0.103300  0.562800  0.851300  1.0  0.0628
  H  H144  1  0.082500  0.694000  0.991100  1.0  0.0891
  H  H145  1  0.111500  0.417500  0.908600  1.0  0.0901
  H  H146  1  0.864400  0.306800  0.690800  1.0  0.0773
  H  H147  1  0.937200  0.540500  0.788500  1.0  0.0636
  H  H148  1  0.261300  0.520000  0.878500  1.0  0.0956
  H  H149  1  0.942400  0.635600  0.826400  1.0  0.0757
  H  H150  1  0.023500  0.426100  0.879800  1.0  0.0652
  H  H151  1  0.141500  0.382800  0.621500  1.0  0.0947
  H  H152  1  0.008900  0.202900  0.591400  1.0  0.0913
  H  H153  1  0.143700  0.120200  0.546300  1.0  0.0658
  H  H154  1  0.148700  0.211500  0.752000  1.0  0.0637
  H  H155  1  0.238600  0.024200  0.473200  1.0  0.0679
  H  H156  1  0.309200  0.116000  0.673600  1.0  0.0777
  H  H157  1  0.211500  0.252000  0.648700  1.0  0.0658
  H  H158  1  0.120200  0.046300  0.643700  1.0  0.0655
  H  H159  1  0.382800  0.121500  0.641500  1.0  0.0942
  H  H160  1  0.252000  0.148700  0.711500  1.0  0.067
  H  H161  1  0.121500  0.141500  0.882800  1.0  0.0952
  H  H162  1  0.202900  0.091400  0.508900  1.0  0.0901
  H  H163  1  0.024200  0.973200  0.738600  1.0  0.0687
  H  H164  1  0.068100  0.409200  0.566700  1.0  0.0689
  H  H165  1  0.173600  0.309200  0.616000  1.0  0.0787
  H  H166  1  0.091400  0.008900  0.702900  1.0  0.0913
  H  H167  1  0.116000  0.173600  0.809200  1.0  0.0774
  H  H168  1  0.409200  0.066700  0.568100  1.0  0.0739
  H  H169  1  0.046300  0.143700  0.620200  1.0  0.0661
  H  H170  1  0.066700  0.068100  0.909200  1.0  0.0689
  H  H171  1  0.973200  0.238600  0.524200  1.0  0.0684
  H  H172  1  0.453700  0.073900  0.097400  1.0  0.0649
  H  H173  1  0.475800  0.214400  0.949000  1.0  0.0683
  H  H174  1  0.358500  0.980000  0.241300  1.0  0.0952
  H  H175  1  0.288500  0.937200  0.040500  1.0  0.065
  H  H176  1  0.431900  0.998600  0.341100  1.0  0.0689
  H  H177  1  0.090800  0.658900  0.657500  1.0  0.0724
  H  H178  1  0.491100  0.082500  0.194000  1.0  0.0898
  H  H179  1  0.248000  0.959500  0.896700  1.0  0.067
  H  H180  1  0.117200  0.758700  0.738700  1.0  0.0959
  H  H181  1  0.190800  0.864400  0.806800  1.0  0.0759
  H  H182  1  0.378500  0.261300  0.020000  1.0  0.0947
  H  H183  1  0.526800  0.051000  0.265400  1.0  0.0688
  H  H184  1  0.379800  0.023500  0.926100  1.0  0.0655
  H  H185  1  0.297100  0.806000  0.888500  1.0  0.0899
  H  H186  1  0.351300  0.103300  0.062800  1.0  0.065
  H  H187  1  0.433300  0.342500  0.001400  1.0  0.0716
  H  H188  1  0.261400  0.734600  0.785600  1.0  0.0689
  H  H189  1  0.356300  0.902600  0.976500  1.0  0.0665
  H  H190  1  0.408600  0.111500  0.917500  1.0  0.0907
  H  H191  1  0.326400  0.942400  0.135600  1.0  0.0763
  H  H192  1  0.384000  0.193200  0.057600  1.0  0.0767
  H  H193  1  0.052400  0.250300  0.447100  1.0  0.08
  H  H194  1  0.196800  0.249700  0.302100  1.0  0.0808
  H  H195  1  0.316600  0.358200  0.516400  1.0  0.0804
  H  H196  1  0.375700  0.206100  0.546000  1.0  0.0737
  H  H197  1  0.339900  0.293900  0.669600  1.0  0.0717
  H  H198  1  0.377800  0.405900  0.387300  1.0  0.0771
  H  H199  1  0.981400  0.094100  0.471900  1.0  0.0768
  H  H200  1  0.940700  0.169900  0.371200  1.0  0.1039
  H  H201  1  0.174000  0.205100  0.357700  1.0  0.061
  H  H202  1  0.341100  0.401600  0.459300  1.0  0.0753
  H  H203  1  0.261500  0.397800  0.241300  1.0  0.0805
  H  H204  1  0.201300  0.330100  0.270800  1.0  0.1073
  H  H205  1  0.299800  0.204800  0.468400  1.0  0.0816
  H  H206  1  0.158200  0.141800  0.458400  1.0  0.0784
  H  H207  1  0.152600  0.294900  0.468900  1.0  0.0621
  H  H208  1  0.263600  0.295200  0.595000  1.0  0.0813
  H  H209  1  0.057700  0.098400  0.439500  1.0  0.0744
  H  H210  1  0.843500  0.102200  0.363700  1.0  0.0797
  H  H211  1  0.803200  0.052900  0.605300  1.0  0.081
  H  H212  1  0.018600  0.112700  0.990500  1.0  0.0765
  H  H213  1  0.942300  0.040700  0.881800  1.0  0.0735
  H  H214  1  0.622200  0.028100  0.509500  1.0  0.076
  H  H215  1  0.156500  0.258700  0.020200  1.0  0.0802
  H  H216  1  0.700200  0.905000  0.668600  1.0  0.081
  H  H217  1  0.660100  0.954000  0.829700  1.0  0.0719
  H  H218  1  0.798700  0.128800  0.569500  1.0  0.1089
  H  H219  1  0.841800  0.983600  0.800200  1.0  0.0794
  H  H220  1  0.738500  0.136300  0.479800  1.0  0.08
  H  H221  1  0.683400  0.041600  0.699800  1.0  0.0799
  H  H222  1  0.658900  0.060500  0.618200  1.0  0.0755
  H  H223  1  0.826000  0.031100  0.683700  1.0  0.0606
  H  H224  1  0.947600  0.197900  0.894700  1.0  0.081
  H  H225  1  0.059300  0.229200  0.930500  1.0  0.1064
  H  H226  1  0.847400  0.142300  0.816300  1.0  0.0607
  H  H227  1  0.736400  0.031600  0.831400  1.0  0.0808
  H  H228  1  0.624300  0.830400  0.670300  1.0  0.0725
  H  H229  1  0.102200  0.863700  0.343500  1.0  0.08
  H  H230  1  0.405900  0.887300  0.877800  1.0  0.0766
  H  H231  1  0.169900  0.871200  0.440700  1.0  0.1087
  H  H232  1  0.295200  0.095000  0.763600  1.0  0.081
  H  H233  1  0.397800  0.741300  0.761500  1.0  0.0804
  H  H234  1  0.205100  0.857700  0.674000  1.0  0.0606
  H  H235  1  0.141800  0.958400  0.658200  1.0  0.08
  H  H236  1  0.330100  0.770800  0.701300  1.0  0.1042
  H  H237  1  0.294900  0.968900  0.652600  1.0  0.0607
  H  H238  1  0.249700  0.802100  0.696800  1.0  0.0807
  H  H239  1  0.204800  0.968400  0.799800  1.0  0.081
  H  H240  1  0.094100  0.971900  0.481400  1.0  0.0768
  H  H241  1  0.098400  0.939500  0.557700  1.0  0.0751
  H  H242  1  0.206100  0.046000  0.875700  1.0  0.0721
  H  H243  1  0.250300  0.947100  0.552400  1.0  0.0809
  H  H244  1  0.293900  0.169600  0.839900  1.0  0.0706
  H  H245  1  0.358200  0.016400  0.816600  1.0  0.08
  H  H246  1  0.401600  0.959300  0.841100  1.0  0.0736
  H  H247  1  0.200200  0.668600  0.905000  1.0  0.0797
  H  H248  1  0.447600  0.894700  0.197900  1.0  0.0821
  H  H249  1  0.160100  0.829700  0.954000  1.0  0.0718
  H  H250  1  0.303200  0.605300  0.052900  1.0  0.0823
  H  H251  1  0.183400  0.699800  0.041600  1.0  0.0785
  H  H252  1  0.442300  0.881800  0.040700  1.0  0.0741
  H  H253  1  0.326000  0.683700  0.031100  1.0  0.0596
  H  H254  1  0.238500  0.479800  0.136300  1.0  0.0782
  H  H255  1  0.236400  0.831400  0.031600  1.0  0.0795
  H  H256  1  0.559300  0.930500  0.229200  1.0  0.1035
  H  H257  1  0.298700  0.569500  0.128800  1.0  0.1052
  H  H258  1  0.341800  0.800200  0.983600  1.0  0.08
  H  H259  1  0.518600  0.990500  0.112700  1.0  0.0765
  H  H260  1  0.122200  0.509500  0.028100  1.0  0.0779
  H  H261  1  0.347400  0.816300  0.142300  1.0  0.0606
  H  H262  1  0.656500  0.020200  0.258700  1.0  0.0801
  H  H263  1  0.158900  0.618200  0.060500  1.0  0.0739
  H  H264  1  0.124300  0.670300  0.830400  1.0  0.071
  H  H265  1  0.520200  0.156500  0.758700  1.0  0.0809
  H  H266  1  0.199800  0.683400  0.541600  1.0  0.0803
  H  H267  1  0.394700  0.947600  0.697900  1.0  0.0823
  H  H268  1  0.170300  0.624300  0.330400  1.0  0.072
  H  H269  1  0.430500  0.059300  0.729200  1.0  0.1045
  H  H270  1  0.329700  0.660100  0.454000  1.0  0.0734
  H  H271  1  0.490500  0.018600  0.612700  1.0  0.074
  H  H272  1  0.168600  0.700200  0.405000  1.0  0.0835
  H  H273  1  0.009500  0.622200  0.528100  1.0  0.0765
  H  H274  1  0.316300  0.847400  0.642300  1.0  0.0613
  H  H275  1  0.979800  0.738500  0.636300  1.0  0.0787
  H  H276  1  0.381800  0.942300  0.540700  1.0  0.0737
  H  H277  1  0.331400  0.736400  0.531600  1.0  0.081
  H  H278  1  0.300200  0.841800  0.483600  1.0  0.0803
  H  H279  1  0.069500  0.798700  0.628800  1.0  0.1049
  H  H280  1  0.118200  0.658900  0.560500  1.0  0.0739
  H  H281  1  0.183700  0.826000  0.531100  1.0  0.0603
  H  H282  1  0.105300  0.803200  0.552900  1.0  0.0806
  H  H283  1  0.040700  0.381800  0.442300  1.0  0.0741
  H  H284  1  0.954000  0.329700  0.160100  1.0  0.0707
  H  H285  1  0.031600  0.331400  0.236400  1.0  0.0799
  H  H286  1  0.197900  0.394700  0.447600  1.0  0.0825
  H  H287  1  0.905000  0.168600  0.200200  1.0  0.0799
  H  H288  1  0.112700  0.490500  0.518600  1.0  0.0786
  H  H289  1  0.031100  0.183700  0.326000  1.0  0.0602
  H  H290  1  0.028100  0.009500  0.122200  1.0  0.0767
  H  H291  1  0.142300  0.316300  0.347400  1.0  0.0596
  H  H292  1  0.041600  0.199800  0.183400  1.0  0.0801
  H  H293  1  0.258700  0.520200  0.656500  1.0  0.0787
  H  H294  1  0.229200  0.430500  0.559300  1.0  0.1049
  H  H295  1  0.136300  0.979800  0.238500  1.0  0.0797
  H  H296  1  0.983600  0.300200  0.341800  1.0  0.0787
  H  H297  1  0.128800  0.069500  0.298700  1.0  0.1054
  H  H298  1  0.830400  0.170300  0.124300  1.0  0.0719
  H  H299  1  0.052900  0.105300  0.303200  1.0  0.0823
  H  H300  1  0.060500  0.118200  0.158900  1.0  0.0739
  H  H301  1  0.729200  0.559300  0.430500  1.0  0.1062
  H  H302  1  0.758700  0.656500  0.520200  1.0  0.0808
  H  H303  1  0.541600  0.183400  0.199800  1.0  0.0797
  H  H304  1  0.531100  0.326000  0.183700  1.0  0.0601
  H  H305  1  0.612700  0.518600  0.490500  1.0  0.0761
  H  H306  1  0.528100  0.122200  0.009500  1.0  0.0769
  H  H307  1  0.697900  0.447600  0.394700  1.0  0.0809
  H  H308  1  0.636300  0.238500  0.979800  1.0  0.0811
  H  H309  1  0.560500  0.158900  0.118200  1.0  0.074
  H  H310  1  0.454000  0.160100  0.329700  1.0  0.0722
  H  H311  1  0.330400  0.124300  0.170300  1.0  0.073
  H  H312  1  0.531600  0.236400  0.331400  1.0  0.0818
  H  H313  1  0.405000  0.200200  0.168600  1.0  0.0812
  H  H314  1  0.483600  0.341800  0.300200  1.0  0.0793
  H  H315  1  0.540700  0.442300  0.381800  1.0  0.0737
  H  H316  1  0.628800  0.298700  0.069500  1.0  0.1068
  H  H317  1  0.642300  0.347400  0.316300  1.0  0.0606
  H  H318  1  0.552900  0.303200  0.105300  1.0  0.0809
  H  H319  1  0.669600  0.793900  0.339900  1.0  0.0737
  H  H320  1  0.459300  0.901600  0.341100  1.0  0.0746
  H  H321  1  0.468400  0.704800  0.299800  1.0  0.081
  H  H322  1  0.357700  0.705100  0.174000  1.0  0.062
  H  H323  1  0.270800  0.830100  0.201300  1.0  0.1057
  H  H324  1  0.595000  0.795200  0.263600  1.0  0.0823
  H  H325  1  0.363700  0.602200  0.843500  1.0  0.0804
  H  H326  1  0.387300  0.905900  0.377800  1.0  0.0768
  H  H327  1  0.439500  0.598400  0.057700  1.0  0.0752
  H  H328  1  0.447100  0.750300  0.052400  1.0  0.0813
  H  H329  1  0.302100  0.749700  0.196800  1.0  0.0798
  H  H330  1  0.371200  0.669900  0.940700  1.0  0.11
  H  H331  1  0.546000  0.706100  0.375700  1.0  0.0721
  H  H332  1  0.516400  0.858200  0.316600  1.0  0.0796
  H  H333  1  0.468900  0.794900  0.152600  1.0  0.0612
  H  H334  1  0.471900  0.594100  0.981400  1.0  0.0784
  H  H335  1  0.241300  0.897800  0.261500  1.0  0.0801
  H  H336  1  0.458400  0.641800  0.158200  1.0  0.0797
  H  H337  1  0.440700  0.371200  0.169900  1.0  0.1047
  H  H338  1  0.799800  0.468400  0.204800  1.0  0.0811
  H  H339  1  0.877800  0.387300  0.405900  1.0  0.0763
  H  H340  1  0.701300  0.270800  0.330100  1.0  0.1092
  H  H341  1  0.343500  0.363700  0.102200  1.0  0.0787
  H  H342  1  0.557700  0.439500  0.098400  1.0  0.0736
  H  H343  1  0.674000  0.357700  0.205100  1.0  0.0603
  H  H344  1  0.841100  0.459300  0.401600  1.0  0.0737
  H  H345  1  0.658200  0.458400  0.141800  1.0  0.0801
  H  H346  1  0.761500  0.241300  0.397800  1.0  0.0804
  H  H347  1  0.481400  0.471900  0.094100  1.0  0.076
  H  H348  1  0.552400  0.447100  0.250300  1.0  0.082
  H  H349  1  0.652600  0.468900  0.294900  1.0  0.0608
  H  H350  1  0.839900  0.669600  0.293900  1.0  0.0709
  H  H351  1  0.696800  0.302100  0.249700  1.0  0.0808
  H  H352  1  0.875700  0.546000  0.206100  1.0  0.0725
  H  H353  1  0.763600  0.595000  0.295200  1.0  0.0812
  H  H354  1  0.816600  0.516400  0.358200  1.0  0.0802
  H  H355  1  0.668600  0.405000  0.700200  1.0  0.0811
  H  H356  1  0.509500  0.528100  0.622200  1.0  0.0752
  H  H357  1  0.699800  0.541600  0.683400  1.0  0.0804
  H  H358  1  0.618200  0.560500  0.658900  1.0  0.0737
  H  H359  1  0.881800  0.540700  0.942300  1.0  0.0738
  H  H360  1  0.831400  0.531600  0.736400  1.0  0.0811
  H  H361  1  0.020200  0.758700  0.156500  1.0  0.0807
  H  H362  1  0.930500  0.729200  0.059300  1.0  0.1093
  H  H363  1  0.479800  0.636300  0.738500  1.0  0.079
  H  H364  1  0.990500  0.612700  0.018600  1.0  0.0767
  H  H365  1  0.894700  0.697900  0.947600  1.0  0.0813
  H  H366  1  0.800200  0.483600  0.841800  1.0  0.0797
  H  H367  1  0.670300  0.330400  0.624300  1.0  0.0723
  H  H368  1  0.605300  0.552900  0.803200  1.0  0.0818
  H  H369  1  0.816300  0.642300  0.847400  1.0  0.0607
  H  H370  1  0.569500  0.628800  0.798700  1.0  0.1028
  H  H371  1  0.683700  0.531100  0.826000  1.0  0.0606
  H  H372  1  0.829700  0.454000  0.660100  1.0  0.0726
  H  H373  1  0.857700  0.174000  0.705100  1.0  0.0602
  H  H374  1  0.863700  0.843500  0.602200  1.0  0.0804
  H  H375  1  0.968400  0.299800  0.704800  1.0  0.0834
  H  H376  1  0.016400  0.316600  0.858200  1.0  0.0801
  H  H377  1  0.169600  0.339900  0.793900  1.0  0.0731
  H  H378  1  0.947100  0.052400  0.750300  1.0  0.0823
  H  H379  1  0.095000  0.263600  0.795200  1.0  0.0809
  H  H380  1  0.046000  0.375700  0.706100  1.0  0.0719
  H  H381  1  0.741300  0.261500  0.897800  1.0  0.0788
  H  H382  1  0.968900  0.152600  0.794900  1.0  0.061
  H  H383  1  0.770800  0.201300  0.830100  1.0  0.1036
  H  H384  1  0.939500  0.057700  0.598400  1.0  0.0739
  H  H385  1  0.971900  0.981400  0.594100  1.0  0.0754
  H  H386  1  0.871200  0.940700  0.669900  1.0  0.1056
  H  H387  1  0.802100  0.196800  0.749700  1.0  0.0799
  H  H388  1  0.959300  0.341100  0.901600  1.0  0.0737
  H  H389  1  0.887300  0.377800  0.905900  1.0  0.0764
  H  H390  1  0.958400  0.158200  0.641800  1.0  0.0802
  H  H391  1  0.794900  0.652600  0.968900  1.0  0.0603
  H  H392  1  0.897800  0.761500  0.741300  1.0  0.0814
  H  H393  1  0.901600  0.841100  0.959300  1.0  0.0742
  H  H394  1  0.704800  0.799800  0.968400  1.0  0.0812
  H  H395  1  0.641800  0.658200  0.958400  1.0  0.0794
  H  H396  1  0.602200  0.343500  0.863700  1.0  0.0808
  H  H397  1  0.793900  0.839900  0.169600  1.0  0.0721
  H  H398  1  0.669900  0.440700  0.871200  1.0  0.1036
  H  H399  1  0.830100  0.701300  0.770800  1.0  0.1082
  H  H400  1  0.905900  0.877800  0.887300  1.0  0.0756
  H  H401  1  0.594100  0.481400  0.971900  1.0  0.0753
  H  H402  1  0.749700  0.696800  0.802100  1.0  0.0806
  H  H403  1  0.598400  0.557700  0.939500  1.0  0.0742
  H  H404  1  0.705100  0.674000  0.857700  1.0  0.06
  H  H405  1  0.858200  0.816600  0.016400  1.0  0.0797
  H  H406  1  0.706100  0.875700  0.046000  1.0  0.0733
  H  H407  1  0.750300  0.552400  0.947100  1.0  0.0814
  H  H408  1  0.795200  0.763600  0.095000  1.0  0.0816
  C  C409  1  0.504000  0.867800  0.558800  1.0  0.1257
  C  C410  1  0.496800  0.901100  0.758300  1.0  -0.1965
  C  C411  1  0.394900  0.822900  0.442400  1.0  -0.2053
  C  C412  1  0.508100  0.942400  0.813900  1.0  -0.0037
  C  C413  1  0.429200  0.758800  0.394800  1.0  -0.1563
  C  C414  1  0.552600  0.950700  0.662700  1.0  -0.2146
  C  C415  1  0.186100  0.628500  0.194200  1.0  -0.012
  C  C416  1  0.241700  0.642800  0.238500  1.0  -0.1956
  C  C417  1  0.371900  0.724000  0.341100  1.0  -0.1932
  C  C418  1  0.554800  0.863800  0.496000  1.0  0.1262
  C  C419  1  0.761500  0.904300  0.503200  1.0  -0.1941
  C  C420  1  0.557600  0.880500  0.452500  1.0  -0.2056
  C  C421  1  0.605200  0.864000  0.534400  1.0  -0.1514
  C  C422  1  0.536600  0.994000  0.772400  1.0  0.13
  C  C423  1  0.227600  0.721600  0.264200  1.0  0.1289
  C  C424  1  0.805800  0.934300  0.491900  1.0  -0.0061
  C  C425  1  0.735800  0.957400  0.463400  1.0  0.1274
  C  C426  1  0.661200  0.899900  0.488300  1.0  0.0647
  C  C427  1  0.465600  0.829600  0.570800  1.0  -0.1615
  C  C428  1  0.658900  0.882900  0.530800  1.0  -0.1895
  C  C429  1  0.511700  0.911600  0.672900  1.0  0.0644
  C  C430  1  0.441200  0.809000  0.445200  1.0  0.1263
  C  C431  1  0.610100  0.898100  0.447400  1.0  -0.21
  C  C432  1  0.327100  0.738700  0.338800  1.0  0.0648
  C  C433  1  0.547500  0.928000  0.605100  1.0  -0.204
  C  C434  1  0.469200  0.852100  0.628100  1.0  -0.1909
  C  C435  1  0.337300  0.788000  0.389900  1.0  -0.2109
  C  C436  1  0.442400  0.322900  0.394900  1.0  -0.2041
  C  C437  1  0.570800  0.329600  0.465600  1.0  -0.1532
  C  C438  1  0.463400  0.457400  0.735800  1.0  0.1288
  C  C439  1  0.496000  0.363800  0.554800  1.0  0.1258
  C  C440  1  0.338800  0.238700  0.327100  1.0  0.0642
  C  C441  1  0.264200  0.221600  0.227600  1.0  0.1269
  C  C442  1  0.447400  0.398100  0.610100  1.0  -0.2143
  C  C443  1  0.772400  0.494000  0.536600  1.0  0.1292
  C  C444  1  0.341100  0.224000  0.371900  1.0  -0.1893
  C  C445  1  0.238500  0.142800  0.241700  1.0  -0.1901
  C  C446  1  0.758300  0.401100  0.496800  1.0  -0.1961
  C  C447  1  0.503200  0.404300  0.761500  1.0  -0.1942
  C  C448  1  0.605100  0.428000  0.547500  1.0  -0.206
  C  C449  1  0.389900  0.288000  0.337300  1.0  -0.2087
  C  C450  1  0.813900  0.442400  0.508100  1.0  -0.0073
  C  C451  1  0.558800  0.367800  0.504000  1.0  0.126
  C  C452  1  0.534400  0.364000  0.605200  1.0  -0.1549
  C  C453  1  0.491900  0.434300  0.805800  1.0  -0.0038
  C  C454  1  0.488300  0.399900  0.661200  1.0  0.0646
  C  C455  1  0.672900  0.411600  0.511700  1.0  0.0645
  C  C456  1  0.194200  0.128500  0.186100  1.0  -0.0078
  C  C457  1  0.445200  0.309000  0.441200  1.0  0.1267
  C  C458  1  0.662700  0.450700  0.552600  1.0  -0.2135
  C  C459  1  0.628100  0.352100  0.469200  1.0  -0.195
  C  C460  1  0.530800  0.382900  0.658900  1.0  -0.1884
  C  C461  1  0.394800  0.258800  0.429200  1.0  -0.1537
  C  C462  1  0.452500  0.380500  0.557600  1.0  -0.2043
  C  C463  1  0.506000  0.542600  0.278400  1.0  0.129
  C  C464  1  0.549300  0.601900  0.212000  1.0  -0.2105
  C  C465  1  0.572000  0.619500  0.177100  1.0  -0.2048
  C  C466  1  0.636000  0.741200  0.170400  1.0  -0.1536
  C  C467  1  0.647900  0.617100  0.276000  1.0  -0.1892
  C  C468  1  0.588400  0.600100  0.261300  1.0  0.0646
  C  C469  1  0.557600  0.565700  0.371500  1.0  -0.0042
  C  C470  1  0.778400  0.506000  0.042600  1.0  0.1294
  C  C471  1  0.619500  0.677100  0.072000  1.0  -0.2111
  C  C472  1  0.542600  0.778400  0.006000  1.0  0.1265
  C  C473  1  0.598900  0.595700  0.357200  1.0  -0.1935
  C  C474  1  0.857200  0.598900  0.095700  1.0  -0.1949
  C  C475  1  0.601900  0.712000  0.049300  1.0  -0.2084
  C  C476  1  0.595700  0.857200  0.098900  1.0  -0.1926
  C  C477  1  0.741200  0.670400  0.136000  1.0  -0.1553
  C  C478  1  0.691000  0.632200  0.136200  1.0  0.1261
  C  C479  1  0.632200  0.636200  0.191000  1.0  0.1257
  C  C480  1  0.677100  0.572000  0.119500  1.0  -0.2116
  C  C481  1  0.636200  0.691000  0.132200  1.0  0.1268
  C  C482  1  0.776000  0.647900  0.117100  1.0  -0.1906
  C  C483  1  0.712000  0.549300  0.101900  1.0  -0.2118
  C  C484  1  0.617100  0.776000  0.147900  1.0  -0.1928
  C  C485  1  0.761300  0.588400  0.100100  1.0  0.0644
  C  C486  1  0.871500  0.557600  0.065700  1.0  -0.008
  C  C487  1  0.600100  0.761300  0.088400  1.0  0.0645
  C  C488  1  0.670400  0.636000  0.241200  1.0  -0.157
  C  C489  1  0.565700  0.871500  0.057600  1.0  -0.0069
  C  C490  1  0.867800  0.058800  0.004000  1.0  0.126
  C  C491  1  0.957400  0.963400  0.235800  1.0  0.1285
  C  C492  1  0.911600  0.172900  0.011700  1.0  0.0654
  C  C493  1  0.882900  0.030800  0.158900  1.0  -0.1836
  C  C494  1  0.628500  0.694200  0.686100  1.0  -0.0076
  C  C495  1  0.904300  0.003200  0.261500  1.0  -0.1953
  C  C496  1  0.880500  0.952500  0.057600  1.0  -0.2121
  C  C497  1  0.822900  0.942400  0.894900  1.0  -0.2065
  C  C498  1  0.758800  0.894800  0.929200  1.0  -0.1471
  C  C499  1  0.899900  0.988300  0.161200  1.0  0.0647
  C  C500  1  0.642800  0.738500  0.741700  1.0  -0.1941
  C  C501  1  0.942400  0.313900  0.008100  1.0  -0.0082
  C  C502  1  0.864000  0.034400  0.105200  1.0  -0.1488
  C  C503  1  0.809000  0.945200  0.941200  1.0  0.126
  C  C504  1  0.950700  0.162700  0.052600  1.0  -0.2113
  C  C505  1  0.724000  0.841100  0.871900  1.0  -0.1905
  C  C506  1  0.863800  0.996000  0.054800  1.0  0.125
  C  C507  1  0.721600  0.764200  0.727600  1.0  0.1288
  C  C508  1  0.852100  0.128100  0.969200  1.0  -0.1844
  C  C509  1  0.738700  0.838800  0.827100  1.0  0.0629
  C  C510  1  0.788000  0.889900  0.837300  1.0  -0.2107
  C  C511  1  0.928000  0.105100  0.047500  1.0  -0.2047
  C  C512  1  0.829600  0.070800  0.965600  1.0  -0.1463
  C  C513  1  0.934300  0.991900  0.305800  1.0  -0.0045
  C  C514  1  0.901100  0.258300  0.996800  1.0  -0.1962
  C  C515  1  0.898100  0.947400  0.110100  1.0  -0.2102
  C  C516  1  0.994000  0.272400  0.036600  1.0  0.1297
  C  C517  1  0.070800  0.465600  0.329600  1.0  -0.1468
  C  C518  1  0.003200  0.761500  0.404300  1.0  -0.2014
  C  C519  1  0.996000  0.554800  0.363800  1.0  0.1265
  C  C520  1  0.988300  0.661200  0.399900  1.0  0.0636
  C  C521  1  0.738500  0.241700  0.142800  1.0  -0.1951
  C  C522  1  0.945200  0.441200  0.309000  1.0  0.1269
  C  C523  1  0.952500  0.557600  0.380500  1.0  -0.2035
  C  C524  1  0.764200  0.227600  0.221600  1.0  0.1294
  C  C525  1  0.963400  0.735800  0.457400  1.0  0.1279
  C  C526  1  0.889900  0.337300  0.288000  1.0  -0.21
  C  C527  1  0.058800  0.504000  0.367800  1.0  0.1243
  C  C528  1  0.105100  0.547500  0.428000  1.0  -0.2052
  C  C529  1  0.991900  0.805800  0.434300  1.0  -0.011
  C  C530  1  0.258300  0.496800  0.401100  1.0  -0.2019
  C  C531  1  0.838800  0.327100  0.238700  1.0  0.0651
  C  C532  1  0.128100  0.469200  0.352100  1.0  -0.1894
  C  C533  1  0.172900  0.511700  0.411600  1.0  0.0655
  C  C534  1  0.313900  0.508100  0.442400  1.0  -0.0078
  C  C535  1  0.272400  0.536600  0.494000  1.0  0.1259
  C  C536  1  0.942400  0.394900  0.322900  1.0  -0.2027
  C  C537  1  0.034400  0.605200  0.364000  1.0  -0.1462
  C  C538  1  0.841100  0.371900  0.224000  1.0  -0.1878
  C  C539  1  0.030800  0.658900  0.382900  1.0  -0.1936
  C  C540  1  0.162700  0.552600  0.450700  1.0  -0.2097
  C  C541  1  0.947400  0.610100  0.398100  1.0  -0.2097
  C  C542  1  0.894800  0.429200  0.258800  1.0  -0.1472
  C  C543  1  0.694200  0.186100  0.128500  1.0  -0.0086
  C  C544  1  0.727600  0.264200  0.721600  1.0  0.1283
  C  C545  1  0.158900  0.530800  0.882900  1.0  -0.1934
  C  C546  1  0.837300  0.389900  0.788000  1.0  -0.2131
  C  C547  1  0.161200  0.488300  0.899900  1.0  0.0653
  C  C548  1  0.941200  0.445200  0.809000  1.0  0.1266
  C  C549  1  0.105200  0.534400  0.864000  1.0  -0.1474
  C  C550  1  0.261500  0.503200  0.904300  1.0  -0.1937
  C  C551  1  0.871900  0.341100  0.724000  1.0  -0.1907
  C  C552  1  0.057600  0.452500  0.880500  1.0  -0.2099
  C  C553  1  0.305800  0.491900  0.934300  1.0  -0.0087
  C  C554  1  0.004000  0.558800  0.867800  1.0  0.1267
  C  C555  1  0.011700  0.672900  0.911600  1.0  0.0658
  C  C556  1  0.036600  0.772400  0.994000  1.0  0.1301
  C  C557  1  0.929200  0.394800  0.758800  1.0  -0.1451
  C  C558  1  0.047500  0.605100  0.928000  1.0  -0.2044
  C  C559  1  0.969200  0.628100  0.852100  1.0  -0.1924
  C  C560  1  0.741700  0.238500  0.642800  1.0  -0.1952
  C  C561  1  0.054800  0.496000  0.863800  1.0  0.1242
  C  C562  1  0.110100  0.447400  0.898100  1.0  -0.2096
  C  C563  1  0.008100  0.813900  0.942400  1.0  -0.0089
  C  C564  1  0.965600  0.570800  0.829600  1.0  -0.1455
  C  C565  1  0.894900  0.442400  0.822900  1.0  -0.2031
  C  C566  1  0.686100  0.194200  0.628500  1.0  -0.0112
  C  C567  1  0.996800  0.758300  0.901100  1.0  -0.1944
  C  C568  1  0.235800  0.463400  0.957400  1.0  0.1262
  C  C569  1  0.052600  0.662700  0.950700  1.0  -0.2095
  C  C570  1  0.827100  0.338800  0.738700  1.0  0.0634
  C  C571  1  0.170400  0.241200  0.636000  1.0  -0.156
  C  C572  1  0.098900  0.357200  0.595700  1.0  -0.1953
  C  C573  1  0.136200  0.132200  0.691000  1.0  0.1259
  C  C574  1  0.357200  0.095700  0.598900  1.0  -0.1942
  C  C575  1  0.006000  0.278400  0.542600  1.0  0.1282
  C  C576  1  0.136000  0.170400  0.741200  1.0  -0.1531
  C  C577  1  0.276000  0.117100  0.647900  1.0  -0.1892
  C  C578  1  0.057600  0.371500  0.565700  1.0  -0.0116
  C  C579  1  0.049300  0.212000  0.601900  1.0  -0.2117
  C  C580  1  0.241200  0.136000  0.670400  1.0  -0.1516
  C  C581  1  0.117100  0.147900  0.776000  1.0  -0.1908
  C  C582  1  0.261300  0.100100  0.588400  1.0  0.0647
  C  C583  1  0.119500  0.072000  0.677100  1.0  -0.2063
  C  C584  1  0.065700  0.057600  0.871500  1.0  -0.0033
  C  C585  1  0.088400  0.261300  0.600100  1.0  0.0649
  C  C586  1  0.191000  0.136200  0.632200  1.0  0.1261
  C  C587  1  0.278400  0.042600  0.506000  1.0  0.1269
  C  C588  1  0.095700  0.098900  0.857200  1.0  -0.1952
  C  C589  1  0.132200  0.191000  0.636200  1.0  0.1261
  C  C590  1  0.212000  0.101900  0.549300  1.0  -0.2091
  C  C591  1  0.147900  0.276000  0.617100  1.0  -0.1908
  C  C592  1  0.100100  0.088400  0.761300  1.0  0.0644
  C  C593  1  0.072000  0.177100  0.619500  1.0  -0.2115
  C  C594  1  0.101900  0.049300  0.712000  1.0  -0.2141
  C  C595  1  0.371500  0.065700  0.557600  1.0  -0.0063
  C  C596  1  0.042600  0.006000  0.778400  1.0  0.1298
  C  C597  1  0.177100  0.119500  0.572000  1.0  -0.2108
  C  C598  1  0.238700  0.827100  0.838800  1.0  0.0651
  C  C599  1  0.364000  0.105200  0.034400  1.0  -0.1458
  C  C600  1  0.352100  0.969200  0.128100  1.0  -0.1835
  C  C601  1  0.398100  0.110100  0.947400  1.0  -0.2122
  C  C602  1  0.363800  0.054800  0.996000  1.0  0.1261
  C  C603  1  0.450700  0.052600  0.162700  1.0  -0.212
  C  C604  1  0.367800  0.004000  0.058800  1.0  0.1248
  C  C605  1  0.288000  0.837300  0.889900  1.0  -0.2107
  C  C606  1  0.382900  0.158900  0.030800  1.0  -0.186
  C  C607  1  0.434300  0.305800  0.991900  1.0  -0.0066
  C  C608  1  0.494000  0.036600  0.272400  1.0  0.1278
  C  C609  1  0.380500  0.057600  0.952500  1.0  -0.2106
  C  C610  1  0.411600  0.011700  0.172900  1.0  0.0647
  C  C611  1  0.399900  0.161200  0.988300  1.0  0.0633
  C  C612  1  0.128500  0.686100  0.694200  1.0  -0.0074
  C  C613  1  0.309000  0.941200  0.945200  1.0  0.1262
  C  C614  1  0.401100  0.996800  0.258300  1.0  -0.1952
  C  C615  1  0.224000  0.871900  0.841100  1.0  -0.1856
  C  C616  1  0.221600  0.727600  0.764200  1.0  0.1289
  C  C617  1  0.442400  0.008100  0.313900  1.0  -0.0051
  C  C618  1  0.457400  0.235800  0.963400  1.0  0.1287
  C  C619  1  0.329600  0.965600  0.070800  1.0  -0.1473
  C  C620  1  0.258800  0.929200  0.894800  1.0  -0.1466
  C  C621  1  0.322900  0.894900  0.942400  1.0  -0.2061
  C  C622  1  0.142800  0.741700  0.738500  1.0  -0.1963
  C  C623  1  0.404300  0.261500  0.003200  1.0  -0.1937
  C  C624  1  0.428000  0.047500  0.105100  1.0  -0.2056
  C  C625  1  0.364500  0.250000  0.614500  1.0  0.0596
  C  C626  1  0.341600  0.395200  0.354200  1.0  0.094
  C  C627  1  0.285900  0.277000  0.584500  1.0  -0.2409
  C  C628  1  0.352900  0.223900  0.555600  1.0  -0.0534
  C  C629  1  0.242900  0.276200  0.442900  1.0  0.0946
  C  C630  1  0.137300  0.163900  0.457000  1.0  -0.1918
  C  C631  1  0.307500  0.223000  0.508900  1.0  -0.2382
  C  C632  1  0.883000  0.109300  0.386700  1.0  -0.0533
  C  C633  1  0.166700  0.223800  0.466700  1.0  0.0941
  C  C634  1  0.207500  0.244800  0.378300  1.0  -0.1354
  C  C635  1  0.244000  0.353600  0.290200  1.0  -0.1659
  C  C636  1  0.045600  0.170900  0.441900  1.0  0.0783
  C  C637  1  0.493200  0.248300  0.713500  1.0  0.127
  C  C638  1  0.959000  0.104800  0.446400  1.0  0.096
  C  C639  1  0.307300  0.362100  0.439400  1.0  -0.203
  C  C640  1  0.221200  0.271100  0.344900  1.0  -0.2007
  C  C641  1  0.277400  0.390700  0.273700  1.0  -0.0542
  C  C642  1  0.462500  0.249300  0.662200  1.0  -0.0155
  C  C643  1  0.936600  0.146400  0.390400  1.0  -0.1675
  C  C644  1  0.274500  0.250000  0.524500  1.0  0.1313
  C  C645  1  0.271000  0.329100  0.374700  1.0  0.0803
  C  C646  1  0.077300  0.137900  0.445200  1.0  -0.2023
  C  C647  1  0.331700  0.276100  0.629000  1.0  -0.0506
  C  C648  1  0.465200  0.251700  0.744900  1.0  0.1315
  C  C649  1  0.293100  0.336100  0.473400  1.0  -0.1896
  C  C650  1  0.073800  0.228900  0.450100  1.0  -0.2019
  C  C651  1  0.412900  0.250700  0.713200  1.0  -0.0132
  C  C652  1  0.133500  0.255200  0.462700  1.0  -0.1359
  C  C653  1  0.757100  0.033300  0.700000  1.0  0.0949
  C  C654  1  0.706900  0.043000  0.680300  1.0  -0.1855
  C  C655  1  0.635500  0.885500  0.750000  1.0  0.0598
  C  C656  1  0.668300  0.944400  0.797300  1.0  -0.0507
  C  C657  1  0.537500  0.786800  0.699700  1.0  -0.0128
  C  C658  1  0.778800  0.049900  0.623700  1.0  -0.2003
  C  C659  1  0.692500  0.915500  0.701400  1.0  -0.241
  C  C660  1  0.506800  0.755100  0.720300  1.0  0.13
  C  C661  1  0.756000  0.109600  0.546200  1.0  -0.1659
  C  C662  1  0.534800  0.786500  0.779700  1.0  0.1319
  C  C663  1  0.722600  0.113300  0.496300  1.0  -0.0547
  C  C664  1  0.725500  0.975500  0.750000  1.0  0.1316
  C  C665  1  0.658400  0.053600  0.512600  1.0  0.0928
  C  C666  1  0.954400  0.125300  0.896300  1.0  0.079
  C  C667  1  0.866500  0.121700  0.829200  1.0  -0.1362
  C  C668  1  0.041000  0.145800  0.987400  1.0  0.0937
  C  C669  1  0.792500  0.037300  0.670800  1.0  -0.1369
  C  C670  1  0.862700  0.026600  0.819700  1.0  -0.19
  C  C671  1  0.587100  0.837800  0.800300  1.0  -0.0124
  C  C672  1  0.063400  0.209800  0.953800  1.0  -0.1637
  C  C673  1  0.692700  0.054800  0.632100  1.0  -0.2006
  C  C674  1  0.833300  0.057100  0.800000  1.0  0.094
  C  C675  1  0.926200  0.155100  0.876300  1.0  -0.2006
  C  C676  1  0.729000  0.058100  0.603700  1.0  0.0785
  C  C677  1  0.714100  0.991100  0.798600  1.0  -0.2371
  C  C678  1  0.647100  0.871000  0.702700  1.0  -0.0573
  C  C679  1  0.922700  0.060600  0.867900  1.0  -0.2069
  C  C680  1  0.117000  0.226300  0.003700  1.0  -0.0599
  C  C681  1  0.228900  0.950100  0.573800  1.0  -0.2003
  C  C682  1  0.104800  0.946400  0.459000  1.0  0.0919
  C  C683  1  0.223800  0.966700  0.666667  1.0  0.1047
  C  C684  1  0.248300  0.213500  0.993200  1.0  0.1314
  C  C685  1  0.353600  0.790200  0.744000  1.0  -0.1653
  C  C686  1  0.250700  0.213200  0.912900  1.0  -0.012
  C  C687  1  0.362100  0.939400  0.807300  1.0  -0.2032
  C  C688  1  0.170900  0.941900  0.545600  1.0  0.0785
  C  C689  1  0.249300  0.162200  0.962500  1.0  -0.0126
  C  C690  1  0.276200  0.942900  0.742900  1.0  0.0939
  C  C691  1  0.163900  0.957000  0.637300  1.0  -0.1848
  C  C692  1  0.250000  0.114500  0.864500  1.0  0.0599
  C  C693  1  0.251700  0.244900  0.965200  1.0  0.1281
  C  C694  1  0.336100  0.973400  0.793100  1.0  -0.1911
  C  C695  1  0.271100  0.844900  0.721200  1.0  -0.1999
  C  C696  1  0.109300  0.886700  0.383000  1.0  -0.0546
  C  C697  1  0.223900  0.055600  0.852900  1.0  -0.0578
  C  C698  1  0.277000  0.084500  0.785900  1.0  -0.2407
  C  C699  1  0.244800  0.878300  0.707500  1.0  -0.1354
  C  C700  1  0.250000  0.024500  0.774500  1.0  0.1317
  C  C701  1  0.395200  0.854200  0.841600  1.0  0.0938
  C  C702  1  0.276100  0.129000  0.831700  1.0  -0.0562
  C  C703  1  0.146400  0.890400  0.436600  1.0  -0.1682
  C  C704  1  0.255200  0.962700  0.633500  1.0  -0.1362
  C  C705  1  0.223000  0.008900  0.807500  1.0  -0.2362
  C  C706  1  0.390700  0.773700  0.777400  1.0  -0.0589
  C  C707  1  0.137900  0.945200  0.577300  1.0  -0.2008
  C  C708  1  0.329100  0.874700  0.771000  1.0  0.079
  C  C709  1  0.158400  0.512600  0.053600  1.0  0.0936
  C  C710  1  0.225500  0.750000  0.975500  1.0  0.1316
  C  C711  1  0.135500  0.750000  0.885500  1.0  0.059
  C  C712  1  0.168300  0.797300  0.944400  1.0  -0.0535
  C  C713  1  0.454400  0.896300  0.125300  1.0  0.0795
  C  C714  1  0.292500  0.670800  0.037300  1.0  -0.1349
  C  C715  1  0.222600  0.496300  0.113300  1.0  -0.0564
  C  C716  1  0.366500  0.829200  0.121700  1.0  -0.141
  C  C717  1  0.617000  0.003700  0.226300  1.0  -0.0581
  C  C718  1  0.426200  0.876300  0.155100  1.0  -0.2028
  C  C719  1  0.278800  0.623700  0.049900  1.0  -0.2023
  C  C720  1  0.333333  0.800000  0.057100  1.0  0.1029
  C  C721  1  0.034800  0.779700  0.786500  1.0  0.1307
  C  C722  1  0.206900  0.680300  0.043000  1.0  -0.1878
  C  C723  1  0.192700  0.632100  0.054800  1.0  -0.1995
  C  C724  1  0.563400  0.953800  0.209800  1.0  -0.1616
  C  C725  1  0.257100  0.700000  0.033300  1.0  0.093
  C  C726  1  0.362700  0.819700  0.026600  1.0  -0.1914
  C  C727  1  0.214100  0.798600  0.991100  1.0  -0.237
  C  C728  1  0.541000  0.987400  0.145800  1.0  0.0955
  C  C729  1  0.256000  0.546200  0.109600  1.0  -0.1652
  C  C730  1  0.087100  0.800300  0.837800  1.0  -0.0161
  C  C731  1  0.192500  0.701400  0.915500  1.0  -0.2389
  C  C732  1  0.422700  0.867900  0.060600  1.0  -0.207
  C  C733  1  0.006800  0.720300  0.755100  1.0  0.1313
  C  C734  1  0.229000  0.603700  0.058100  1.0  0.0813
  C  C735  1  0.037500  0.699700  0.786800  1.0  -0.0164
  C  C736  1  0.147100  0.702700  0.871000  1.0  -0.0652
  C  C737  1  0.012600  0.658400  0.553600  1.0  0.0958
  C  C738  1  0.202700  0.647100  0.371000  1.0  -0.0486
  C  C739  1  0.279700  0.534800  0.286500  1.0  0.1316
  C  C740  1  0.319700  0.862700  0.526600  1.0  -0.1901
  C  C741  1  0.453800  0.063400  0.709800  1.0  -0.162
  C  C742  1  0.300000  0.833300  0.557100  1.0  0.095
  C  C743  1  0.046200  0.756000  0.609600  1.0  -0.1651
  C  C744  1  0.376300  0.926200  0.655100  1.0  -0.2033
  C  C745  1  0.180300  0.706900  0.543000  1.0  -0.1902
  C  C746  1  0.250000  0.725500  0.475500  1.0  0.1318
  C  C747  1  0.996300  0.722600  0.613300  1.0  -0.0552
  C  C748  1  0.170800  0.792500  0.537300  1.0  -0.1326
  C  C749  1  0.132100  0.692700  0.554800  1.0  -0.2009
  C  C750  1  0.396300  0.954400  0.625300  1.0  0.0806
  C  C751  1  0.103700  0.729000  0.558100  1.0  0.0795
  C  C752  1  0.367900  0.922700  0.560600  1.0  -0.1995
  C  C753  1  0.329200  0.866500  0.621700  1.0  -0.1374
  C  C754  1  0.199700  0.537500  0.286800  1.0  -0.0138
  C  C755  1  0.250000  0.635500  0.385500  1.0  0.0595
  C  C756  1  0.201400  0.692500  0.415500  1.0  -0.2375
  C  C757  1  0.123700  0.778800  0.549900  1.0  -0.2021
  C  C758  1  0.220300  0.506800  0.255100  1.0  0.1328
  C  C759  1  0.297300  0.668300  0.444400  1.0  -0.0567
  C  C760  1  0.200000  0.757100  0.533300  1.0  0.0944
  C  C761  1  0.298600  0.714100  0.491100  1.0  -0.2372
  C  C762  1  0.503700  0.117000  0.726300  1.0  -0.0556
  C  C763  1  0.300300  0.587100  0.337800  1.0  -0.0183
  C  C764  1  0.487400  0.041000  0.645800  1.0  0.0947
  C  C765  1  0.226300  0.503700  0.617000  1.0  -0.0561
  C  C766  1  0.991100  0.298600  0.214100  1.0  -0.2388
  C  C767  1  0.058100  0.103700  0.229000  1.0  0.0798
  C  C768  1  0.113300  0.996300  0.222600  1.0  -0.0586
  C  C769  1  0.786800  0.199700  0.037500  1.0  -0.0151
  C  C770  1  0.975500  0.250000  0.225500  1.0  0.1316
  C  C771  1  0.026600  0.319700  0.362700  1.0  -0.1899
  C  C772  1  0.121700  0.329200  0.366500  1.0  -0.1348
  C  C773  1  0.033300  0.200000  0.257100  1.0  0.0932
  C  C774  1  0.209800  0.453800  0.563400  1.0  -0.1653
  C  C775  1  0.049900  0.123700  0.278800  1.0  -0.2017
  C  C776  1  0.037300  0.170800  0.292500  1.0  -0.1401
  C  C777  1  0.053600  0.012600  0.158400  1.0  0.0946
  C  C778  1  0.145800  0.487400  0.541000  1.0  0.093
  C  C779  1  0.837800  0.300300  0.087100  1.0  -0.0153
  C  C780  1  0.755100  0.220300  0.006800  1.0  0.132
  C  C781  1  0.054800  0.132100  0.192700  1.0  -0.2059
  C  C782  1  0.125300  0.396300  0.454400  1.0  0.0809
  C  C783  1  0.915500  0.201400  0.192500  1.0  -0.2365
  C  C784  1  0.786500  0.279700  0.034800  1.0  0.13
  C  C785  1  0.060600  0.367900  0.422700  1.0  -0.1996
  C  C786  1  0.043000  0.180300  0.206900  1.0  -0.1895
  C  C787  1  0.944400  0.297300  0.168300  1.0  -0.0555
  C  C788  1  0.871000  0.202700  0.147100  1.0  -0.0554
  C  C789  1  0.885500  0.250000  0.135500  1.0  0.059
  C  C790  1  0.155100  0.376300  0.426200  1.0  -0.2029
  C  C791  1  0.109600  0.046200  0.256000  1.0  -0.1623
  C  C792  1  0.057100  0.300000  0.333333  1.0  0.1025
  C  C793  1  0.385500  0.135500  0.250000  1.0  0.0598
  C  C794  1  0.553600  0.158400  0.012600  1.0  0.0969
  C  C795  1  0.371000  0.147100  0.202700  1.0  -0.0497
  C  C796  1  0.286800  0.037500  0.199700  1.0  -0.0137
  C  C797  1  0.533300  0.257100  0.200000  1.0  0.0947
  C  C798  1  0.613300  0.222600  0.996300  1.0  -0.0564
  C  C799  1  0.337800  0.087100  0.300300  1.0  -0.0101
  C  C800  1  0.554800  0.192700  0.132100  1.0  -0.2024
  C  C801  1  0.491100  0.214100  0.298600  1.0  -0.2385
  C  C802  1  0.543000  0.206900  0.180300  1.0  -0.1887
  C  C803  1  0.625300  0.454400  0.396300  1.0  0.0785
  C  C804  1  0.726300  0.617000  0.503700  1.0  -0.0567
  C  C805  1  0.609600  0.256000  0.046200  1.0  -0.1653
  C  C806  1  0.526600  0.362700  0.319700  1.0  -0.1885
  C  C807  1  0.537300  0.292500  0.170800  1.0  -0.1328
  C  C808  1  0.645800  0.541000  0.487400  1.0  0.0959
  C  C809  1  0.475500  0.225500  0.250000  1.0  0.1316
  C  C810  1  0.549900  0.278800  0.123700  1.0  -0.2024
  C  C811  1  0.415500  0.192500  0.201400  1.0  -0.2383
  C  C812  1  0.286500  0.034800  0.279700  1.0  0.1316
  C  C813  1  0.558100  0.229000  0.103700  1.0  0.0793
  C  C814  1  0.621700  0.366500  0.329200  1.0  -0.1359
  C  C815  1  0.255100  0.006800  0.220300  1.0  0.1316
  C  C816  1  0.709800  0.563400  0.453800  1.0  -0.1649
  C  C817  1  0.560600  0.422700  0.367900  1.0  -0.2053
  C  C818  1  0.557100  0.333333  0.300000  1.0  0.1029
  C  C819  1  0.655100  0.426200  0.376300  1.0  -0.2015
  C  C820  1  0.444400  0.168300  0.297300  1.0  -0.0512
  C  C821  1  0.462700  0.755200  0.133500  1.0  -0.1355
  C  C822  1  0.614500  0.750000  0.364500  1.0  0.0596
  C  C823  1  0.457000  0.663900  0.137300  1.0  -0.1897
  C  C824  1  0.662200  0.749300  0.462500  1.0  -0.0133
  C  C825  1  0.524500  0.750000  0.274500  1.0  0.1313
  C  C826  1  0.374700  0.829100  0.271000  1.0  0.0783
  C  C827  1  0.446400  0.604800  0.959000  1.0  0.0927
  C  C828  1  0.713500  0.748300  0.493200  1.0  0.1315
  C  C829  1  0.390400  0.646400  0.936600  1.0  -0.1663
  C  C830  1  0.344900  0.771100  0.221200  1.0  -0.2014
  C  C831  1  0.584500  0.777000  0.285900  1.0  -0.2382
  C  C832  1  0.354200  0.895200  0.341600  1.0  0.0959
  C  C833  1  0.290200  0.853600  0.244000  1.0  -0.1693
  C  C834  1  0.473400  0.836100  0.293100  1.0  -0.1906
  C  C835  1  0.445200  0.637900  0.077300  1.0  -0.2029
  C  C836  1  0.629000  0.776100  0.331700  1.0  -0.0521
  C  C837  1  0.441900  0.670900  0.045600  1.0  0.0802
  C  C838  1  0.508900  0.723000  0.307500  1.0  -0.2387
  C  C839  1  0.555600  0.723900  0.352900  1.0  -0.052
  C  C840  1  0.273700  0.890700  0.277400  1.0  -0.0532
  C  C841  1  0.466700  0.723800  0.166700  1.0  0.0945
  C  C842  1  0.450100  0.728900  0.073800  1.0  -0.2011
  C  C843  1  0.713200  0.750700  0.412900  1.0  -0.0155
  C  C844  1  0.439400  0.862100  0.307300  1.0  -0.2076
  C  C845  1  0.386700  0.609300  0.883000  1.0  -0.0542
  C  C846  1  0.442900  0.776200  0.242900  1.0  0.0941
  C  C847  1  0.744900  0.751700  0.465200  1.0  0.1268
  C  C848  1  0.378300  0.744800  0.207500  1.0  -0.1353
  C  C849  1  0.831700  0.629000  0.276100  1.0  -0.064
  C  C850  1  0.771000  0.374700  0.329100  1.0  0.0797
  C  C851  1  0.637300  0.457000  0.163900  1.0  -0.1897
  C  C852  1  0.841600  0.354200  0.395200  1.0  0.094
  C  C853  1  0.742900  0.442900  0.276200  1.0  0.0942
  C  C854  1  0.807500  0.508900  0.223000  1.0  -0.2377
  C  C855  1  0.962500  0.662200  0.249300  1.0  -0.0176
  C  C856  1  0.912900  0.713200  0.250700  1.0  -0.011
  C  C857  1  0.744000  0.290200  0.353600  1.0  -0.1645
  C  C858  1  0.774500  0.524500  0.250000  1.0  0.1318
  C  C859  1  0.993200  0.713500  0.248300  1.0  0.1304
  C  C860  1  0.666667  0.466700  0.223800  1.0  0.1039
  C  C861  1  0.545600  0.441900  0.170900  1.0  0.079
  C  C862  1  0.807300  0.439400  0.362100  1.0  -0.2062
  C  C863  1  0.573800  0.450100  0.228900  1.0  -0.2048
  C  C864  1  0.707500  0.378300  0.244800  1.0  -0.1335
  C  C865  1  0.721200  0.344900  0.271100  1.0  -0.201
  C  C866  1  0.965200  0.744900  0.251700  1.0  0.1308
  C  C867  1  0.852900  0.555600  0.223900  1.0  -0.0516
  C  C868  1  0.633500  0.462700  0.255200  1.0  -0.1378
  C  C869  1  0.785900  0.584500  0.277000  1.0  -0.239
  C  C870  1  0.793100  0.473400  0.336100  1.0  -0.1891
  C  C871  1  0.777400  0.273700  0.390700  1.0  -0.0561
  C  C872  1  0.459000  0.446400  0.104800  1.0  0.0916
  C  C873  1  0.864500  0.614500  0.250000  1.0  0.0597
  C  C874  1  0.436600  0.390400  0.146400  1.0  -0.1612
  C  C875  1  0.383000  0.386700  0.109300  1.0  -0.0536
  C  C876  1  0.577300  0.445200  0.137900  1.0  -0.1987
  C  C877  1  0.953800  0.709800  0.063400  1.0  -0.1668
  C  C878  1  0.800300  0.337800  0.587100  1.0  -0.0179
  C  C879  1  0.623700  0.549900  0.778800  1.0  -0.2044
  C  C880  1  0.779700  0.286500  0.534800  1.0  0.1312
  C  C881  1  0.750000  0.475500  0.725500  1.0  0.1318
  C  C882  1  0.987400  0.645800  0.041000  1.0  0.0937
  C  C883  1  0.701400  0.415500  0.692500  1.0  -0.2375
  C  C884  1  0.867900  0.560600  0.922700  1.0  -0.2008
  C  C885  1  0.680300  0.543000  0.706900  1.0  -0.1904
  C  C886  1  0.798600  0.491100  0.714100  1.0  -0.2384
  C  C887  1  0.699700  0.286800  0.537500  1.0  -0.013
  C  C888  1  0.750000  0.385500  0.635500  1.0  0.0595
  C  C889  1  0.800000  0.557100  0.833300  1.0  0.0942
  C  C890  1  0.896300  0.625300  0.954400  1.0  0.0797
  C  C891  1  0.797300  0.444400  0.668300  1.0  -0.0503
  C  C892  1  0.876300  0.655100  0.926200  1.0  -0.2015
  C  C893  1  0.720300  0.255100  0.506800  1.0  0.1313
  C  C894  1  0.603700  0.558100  0.729000  1.0  0.0789
  C  C895  1  0.702700  0.371000  0.647100  1.0  -0.0549
  C  C896  1  0.819700  0.526600  0.862700  1.0  -0.1894
  C  C897  1  0.829200  0.621700  0.866500  1.0  -0.1342
  C  C898  1  0.496300  0.613300  0.722600  1.0  -0.0541
  C  C899  1  0.670800  0.537300  0.792500  1.0  -0.1381
  C  C900  1  0.632100  0.554800  0.692700  1.0  -0.2046
  C  C901  1  0.512600  0.553600  0.658400  1.0  0.0923
  C  C902  1  0.546200  0.609600  0.756000  1.0  -0.1632
  C  C903  1  0.003700  0.726300  0.117000  1.0  -0.0568
  C  C904  1  0.700000  0.533300  0.757100  1.0  0.0939
  C  C905  1  0.244900  0.465200  0.751700  1.0  0.1313
  C  C906  1  0.957000  0.137300  0.663900  1.0  -0.1899
  C  C907  1  0.941900  0.045600  0.670900  1.0  0.0804
  C  C908  1  0.024500  0.274500  0.750000  1.0  0.1318
  C  C909  1  0.114500  0.364500  0.750000  1.0  0.0597
  C  C910  1  0.084500  0.285900  0.777000  1.0  -0.2371
  C  C911  1  0.844900  0.221200  0.771100  1.0  -0.202
  C  C912  1  0.854200  0.341600  0.895200  1.0  0.0948
  C  C913  1  0.162200  0.462500  0.749300  1.0  -0.0128
  C  C914  1  0.129000  0.331700  0.776100  1.0  -0.05
  C  C915  1  0.055600  0.352900  0.723900  1.0  -0.0547
  C  C916  1  0.962700  0.133500  0.755200  1.0  -0.1385
  C  C917  1  0.213500  0.493200  0.748300  1.0  0.1306
  C  C918  1  0.966700  0.166700  0.723800  1.0  0.0948
  C  C919  1  0.213200  0.412900  0.750700  1.0  -0.0185
  C  C920  1  0.939400  0.307300  0.862100  1.0  -0.2046
  C  C921  1  0.886700  0.883000  0.609300  1.0  -0.057
  C  C922  1  0.874700  0.271000  0.829100  1.0  0.0794
  C  C923  1  0.973400  0.293100  0.836100  1.0  -0.1886
  C  C924  1  0.942900  0.242900  0.776200  1.0  0.0945
  C  C925  1  0.790200  0.244000  0.853600  1.0  -0.1678
  C  C926  1  0.890400  0.936600  0.646400  1.0  -0.162
  C  C927  1  0.950100  0.073800  0.728900  1.0  -0.2026
  C  C928  1  0.946400  0.959000  0.604800  1.0  0.0947
  C  C929  1  0.008900  0.307500  0.723000  1.0  -0.2377
  C  C930  1  0.878300  0.207500  0.744800  1.0  -0.133
  C  C931  1  0.773700  0.277400  0.890700  1.0  -0.055
  C  C932  1  0.945200  0.077300  0.637900  1.0  -0.2038
  C  C933  1  0.744800  0.707500  0.878300  1.0  -0.1337
  C  C934  1  0.646400  0.436600  0.890400  1.0  -0.1654
  C  C935  1  0.750000  0.864500  0.114500  1.0  0.0599
  C  C936  1  0.776200  0.742900  0.942900  1.0  0.0947
  C  C937  1  0.895200  0.841600  0.854200  1.0  0.0949
  C  C938  1  0.890700  0.777400  0.773700  1.0  -0.0562
  C  C939  1  0.829100  0.771000  0.874700  1.0  0.0793
  C  C940  1  0.750000  0.774500  0.024500  1.0  0.1317
  C  C941  1  0.755200  0.633500  0.962700  1.0  -0.1358
  C  C942  1  0.750700  0.912900  0.213200  1.0  -0.0107
  C  C943  1  0.604800  0.459000  0.946400  1.0  0.097
  C  C944  1  0.728900  0.573800  0.950100  1.0  -0.2011
  C  C945  1  0.751700  0.965200  0.244900  1.0  0.1311
  C  C946  1  0.609300  0.383000  0.886700  1.0  -0.0587
  C  C947  1  0.776100  0.831700  0.129000  1.0  -0.0503
  C  C948  1  0.771100  0.721200  0.844900  1.0  -0.2016
  C  C949  1  0.777000  0.785900  0.084500  1.0  -0.2374
  C  C950  1  0.663900  0.637300  0.957000  1.0  -0.1882
  C  C951  1  0.836100  0.793100  0.973400  1.0  -0.1887
  C  C952  1  0.853600  0.744000  0.790200  1.0  -0.1662
  C  C953  1  0.862100  0.807300  0.939400  1.0  -0.2021
  C  C954  1  0.748300  0.993200  0.213500  1.0  0.128
  C  C955  1  0.670900  0.545600  0.941900  1.0  0.0785
  C  C956  1  0.723800  0.666667  0.966700  1.0  0.1029
  C  C957  1  0.637900  0.577300  0.945200  1.0  -0.2055
  C  C958  1  0.723900  0.852900  0.055600  1.0  -0.0493
  C  C959  1  0.723000  0.807500  0.008900  1.0  -0.2386
  C  C960  1  0.749300  0.962500  0.162200  1.0  -0.0131
  N  N961  1  0.788900  0.965300  0.465200  1.0  -0.4149
  N  N962  1  0.500000  0.845200  0.500000  1.0  -0.1747
  N  N963  1  0.515700  0.935900  0.733000  1.0  0.0106
  N  N964  1  0.534800  0.000100  0.823700  1.0  -0.4165
  N  N965  1  0.717300  0.920200  0.484300  1.0  0.012
  N  N966  1  0.176300  0.676400  0.211100  1.0  -0.4123
  N  N967  1  0.267000  0.702900  0.282700  1.0  0.0104
  N  N968  1  0.211100  0.176400  0.176300  1.0  -0.4142
  N  N969  1  0.733000  0.435900  0.515700  1.0  0.0103
  N  N970  1  0.282700  0.202900  0.267000  1.0  0.0134
  N  N971  1  0.465200  0.465300  0.788900  1.0  -0.4141
  N  N972  1  0.500000  0.345200  0.500000  1.0  -0.1747
  N  N973  1  0.823700  0.500100  0.534800  1.0  -0.4141
  N  N974  1  0.484300  0.420200  0.717300  1.0  0.0106
  N  N975  1  0.579800  0.797100  0.064100  1.0  0.0131
  N  N976  1  0.797100  0.564100  0.079800  1.0  0.0102
  N  N977  1  0.499900  0.534700  0.323600  1.0  -0.4143
  N  N978  1  0.823600  0.499900  0.034700  1.0  -0.41
  N  N979  1  0.654800  0.654800  0.154800  1.0  -0.1748
  N  N980  1  0.564100  0.579800  0.297100  1.0  0.0106
  N  N981  1  0.534700  0.823600  0.999900  1.0  -0.4144
  N  N982  1  0.000100  0.323700  0.034800  1.0  -0.4143
  N  N983  1  0.845200  0.000000  0.000000  1.0  -0.1741
  N  N984  1  0.965300  0.965200  0.288900  1.0  -0.4156
  N  N985  1  0.935900  0.233000  0.015700  1.0  0.0098
  N  N986  1  0.920200  0.984300  0.217300  1.0  0.0104
  N  N987  1  0.702900  0.782700  0.767000  1.0  0.0132
  N  N988  1  0.676400  0.711100  0.676300  1.0  -0.4154
  N  N989  1  0.000000  0.500000  0.345200  1.0  -0.1742
  N  N990  1  0.233000  0.515700  0.435900  1.0  0.0098
  N  N991  1  0.711100  0.176300  0.176400  1.0  -0.4106
  N  N992  1  0.782700  0.267000  0.202900  1.0  0.01
  N  N993  1  0.965200  0.788900  0.465300  1.0  -0.4111
  N  N994  1  0.323700  0.534800  0.500100  1.0  -0.4138
  N  N995  1  0.984300  0.717300  0.420200  1.0  0.0102
  N  N996  1  0.767000  0.282700  0.702900  1.0  0.011
  N  N997  1  0.000000  0.500000  0.845200  1.0  -0.1742
  N  N998  1  0.288900  0.465200  0.965300  1.0  -0.4121
  N  N999  1  0.676300  0.211100  0.676400  1.0  -0.4125
  N  N1000  1  0.217300  0.484300  0.920200  1.0  0.0096
  N  N1001  1  0.015700  0.733000  0.935900  1.0  0.0095
  N  N1002  1  0.034800  0.823700  0.000100  1.0  -0.415
  N  N1003  1  0.154800  0.154800  0.654800  1.0  -0.1748
  N  N1004  1  0.034700  0.999900  0.823600  1.0  -0.4139
  N  N1005  1  0.064100  0.297100  0.579800  1.0  0.0103
  N  N1006  1  0.297100  0.079800  0.564100  1.0  0.0125
  N  N1007  1  0.079800  0.064100  0.797100  1.0  0.0101
  N  N1008  1  0.323600  0.034700  0.499900  1.0  -0.4164
  N  N1009  1  0.999900  0.323600  0.534700  1.0  -0.4121
  N  N1010  1  0.202900  0.767000  0.782700  1.0  0.0097
  N  N1011  1  0.420200  0.217300  0.984300  1.0  0.0121
  N  N1012  1  0.435900  0.015700  0.233000  1.0  0.0107
  N  N1013  1  0.465300  0.288900  0.965200  1.0  -0.4135
  N  N1014  1  0.500100  0.034800  0.323700  1.0  -0.4171
  N  N1015  1  0.345200  0.000000  0.000000  1.0  -0.1741
  N  N1016  1  0.176400  0.676300  0.711100  1.0  -0.4095
  N  N1017  1  0.285900  0.358500  0.340200  1.0  0.0505
  N  N1018  1  0.227500  0.250000  0.477500  1.0  -0.1763
  N  N1019  1  0.899300  0.085100  0.423600  1.0  -0.303
  N  N1020  1  0.411900  0.250000  0.661900  1.0  0.0047
  N  N1021  1  0.981700  0.141500  0.427400  1.0  0.0482
  N  N1022  1  0.338500  0.414900  0.314200  1.0  -0.3045
  N  N1023  1  0.772500  0.022500  0.750000  1.0  -0.1766
  N  N1024  1  0.100700  0.185800  0.024300  1.0  -0.3048
  N  N1025  1  0.661500  0.076400  0.475700  1.0  -0.306
  N  N1026  1  0.588100  0.838100  0.750000  1.0  0.0048
  N  N1027  1  0.018300  0.159800  0.945700  1.0  0.0481
  N  N1028  1  0.714100  0.072600  0.554300  1.0  0.0502
  N  N1029  1  0.358500  0.840200  0.785900  1.0  0.0476
  N  N1030  1  0.085100  0.923600  0.399300  1.0  -0.3039
  N  N1031  1  0.250000  0.977500  0.727500  1.0  -0.1769
  N  N1032  1  0.414900  0.814200  0.838500  1.0  -0.3037
  N  N1033  1  0.141500  0.927400  0.481700  1.0  0.0503
  N  N1034  1  0.250000  0.161900  0.911900  1.0  0.0043
  N  N1035  1  0.518300  0.945700  0.159800  1.0  0.0489
  N  N1036  1  0.214100  0.554300  0.072600  1.0  0.0485
  N  N1037  1  0.088100  0.750000  0.838100  1.0  0.0041
  N  N1038  1  0.600700  0.024300  0.185800  1.0  -0.2982
  N  N1039  1  0.272500  0.750000  0.022500  1.0  -0.1771
  N  N1040  1  0.161500  0.475700  0.076400  1.0  -0.3027
  N  N1041  1  0.054300  0.714100  0.572600  1.0  0.0487
  N  N1042  1  0.524300  0.100700  0.685800  1.0  -0.3008
  N  N1043  1  0.975700  0.661500  0.576400  1.0  -0.3042
  N  N1044  1  0.250000  0.588100  0.338100  1.0  0.004
  N  N1045  1  0.250000  0.772500  0.522500  1.0  -0.1761
  N  N1046  1  0.445700  0.018300  0.659800  1.0  0.049
  N  N1047  1  0.159800  0.445700  0.518300  1.0  0.0502
  N  N1048  1  0.072600  0.054300  0.214100  1.0  0.0479
  N  N1049  1  0.076400  0.975700  0.161500  1.0  -0.299
  N  N1050  1  0.185800  0.524300  0.600700  1.0  -0.3012
  N  N1051  1  0.838100  0.250000  0.088100  1.0  0.0041
  N  N1052  1  0.022500  0.250000  0.272500  1.0  -0.1771
  N  N1053  1  0.572600  0.214100  0.054300  1.0  0.0491
  N  N1054  1  0.338100  0.088100  0.250000  1.0  0.0048
  N  N1055  1  0.685800  0.600700  0.524300  1.0  -0.2994
  N  N1056  1  0.576400  0.161500  0.975700  1.0  -0.3051
  N  N1057  1  0.659800  0.518300  0.445700  1.0  0.0488
  N  N1058  1  0.522500  0.272500  0.250000  1.0  -0.1769
  N  N1059  1  0.661900  0.750000  0.411900  1.0  0.0047
  N  N1060  1  0.340200  0.858500  0.285900  1.0  0.0491
  N  N1061  1  0.314200  0.914900  0.338500  1.0  -0.3022
  N  N1062  1  0.477500  0.750000  0.227500  1.0  -0.1763
  N  N1063  1  0.427400  0.641500  0.981700  1.0  0.0497
  N  N1064  1  0.423600  0.585100  0.899300  1.0  -0.3053
  N  N1065  1  0.727500  0.477500  0.250000  1.0  -0.1765
  N  N1066  1  0.838500  0.314200  0.414900  1.0  -0.3049
  N  N1067  1  0.399300  0.423600  0.085100  1.0  -0.3041
  N  N1068  1  0.911900  0.661900  0.250000  1.0  0.0034
  N  N1069  1  0.785900  0.340200  0.358500  1.0  0.0483
  N  N1070  1  0.481700  0.427400  0.141500  1.0  0.0467
  N  N1071  1  0.024300  0.685800  0.100700  1.0  -0.3062
  N  N1072  1  0.750000  0.522500  0.772500  1.0  -0.1761
  N  N1073  1  0.554300  0.572600  0.714100  1.0  0.0466
  N  N1074  1  0.750000  0.338100  0.588100  1.0  0.004
  N  N1075  1  0.475700  0.576400  0.661500  1.0  -0.3057
  N  N1076  1  0.945700  0.659800  0.018300  1.0  0.0488
  N  N1077  1  0.161900  0.411900  0.750000  1.0  0.0034
  N  N1078  1  0.977500  0.227500  0.750000  1.0  -0.1761
  N  N1079  1  0.927400  0.981700  0.641500  1.0  0.0471
  N  N1080  1  0.814200  0.338500  0.914900  1.0  -0.3006
  N  N1081  1  0.840200  0.285900  0.858500  1.0  0.0491
  N  N1082  1  0.923600  0.899300  0.585100  1.0  -0.3008
  N  N1083  1  0.858500  0.785900  0.840200  1.0  0.049
  N  N1084  1  0.914900  0.838500  0.814200  1.0  -0.3022
  N  N1085  1  0.585100  0.399300  0.923600  1.0  -0.3019
  N  N1086  1  0.750000  0.727500  0.977500  1.0  -0.1768
  N  N1087  1  0.750000  0.911900  0.161900  1.0  0.0043
  N  N1088  1  0.641500  0.481700  0.927400  1.0  0.0469
