# generated using pymatgen
data_Zn16H215(C171O37)4
_symmetry_space_group_name_H-M   'P 1'
_cell_length_a   42.98060000
_cell_length_b   42.98060000
_cell_length_c   42.98060000
_cell_angle_alpha   90.00000000
_cell_angle_beta   90.00000000
_cell_angle_gamma   90.00000000
_symmetry_Int_Tables_number   1
_chemical_formula_structural   Zn16H215(C171O37)4
_chemical_formula_sum   'Zn32 H430 C1368 O296'
_cell_volume   79399.43674314
_cell_formula_units_Z   2
loop_
 _symmetry_equiv_pos_site_id
 _symmetry_equiv_pos_as_xyz
  1  'x, y, z'
loop_
 _atom_site_type_symbol
 _atom_site_label
 _atom_site_symmetry_multiplicity
 _atom_site_fract_x
 _atom_site_fract_y
 _atom_site_fract_z
 _atom_site_occupancy
 _atom_site_charge
  Zn  Zn1  1  0.277220  0.215550  0.278840  1.0  1.1754
  Zn  Zn2  1  0.727090  0.268320  0.231610  1.0  1.1619
  Zn  Zn3  1  0.727320  0.714350  0.781150  1.0  1.1042
  Zn  Zn4  1  0.276520  0.217580  0.728350  1.0  1.1622
  Zn  Zn5  1  0.227760  0.217520  0.779440  1.0  1.1615
  Zn  Zn6  1  0.776080  0.765640  0.234910  1.0  1.1853
  Zn  Zn7  1  0.725280  0.715480  0.236920  1.0  1.0817
  Zn  Zn8  1  0.777390  0.218720  0.232590  1.0  1.132
  Zn  Zn9  1  0.277640  0.267450  0.778710  1.0  1.1651
  Zn  Zn10  1  0.228570  0.763780  0.231610  1.0  1.1114
  Zn  Zn11  1  0.776370  0.713540  0.730670  1.0  1.1178
  Zn  Zn12  1  0.229520  0.767970  0.779260  1.0  1.1939
  Zn  Zn13  1  0.726960  0.266580  0.778210  1.0  1.1776
  Zn  Zn14  1  0.278070  0.764690  0.282300  1.0  1.1575
  Zn  Zn15  1  0.228090  0.267820  0.729190  1.0  1.1829
  Zn  Zn16  1  0.778680  0.763860  0.780460  1.0  1.1722
  Zn  Zn17  1  0.726830  0.215920  0.729330  1.0  1.1726
  Zn  Zn18  1  0.776530  0.715830  0.285110  1.0  1.0888
  Zn  Zn19  1  0.727170  0.219810  0.282750  1.0  1.1432
  Zn  Zn20  1  0.279220  0.766570  0.730390  1.0  1.1674
  Zn  Zn21  1  0.776980  0.265630  0.729170  1.0  1.1666
  Zn  Zn22  1  0.228850  0.717240  0.730250  1.0  1.1765
  Zn  Zn23  1  0.227430  0.715770  0.283380  1.0  1.182
  Zn  Zn24  1  0.727730  0.763820  0.731260  1.0  1.1001
  Zn  Zn25  1  0.278580  0.716650  0.780170  1.0  1.1771
  Zn  Zn26  1  0.227290  0.265660  0.279010  1.0  1.182
  Zn  Zn27  1  0.726430  0.765800  0.285400  1.0  1.0775
  Zn  Zn28  1  0.278340  0.714240  0.233800  1.0  1.1795
  Zn  Zn29  1  0.226550  0.216560  0.228840  1.0  1.1789
  Zn  Zn30  1  0.777620  0.269060  0.280980  1.0  1.1813
  Zn  Zn31  1  0.776300  0.216140  0.779820  1.0  1.1251
  Zn  Zn32  1  0.277150  0.265100  0.229050  1.0  1.1751
  H  H33  1  0.805380  0.964080  0.242360  1.0  0.1202
  H  H34  1  0.288710  0.563760  0.787630  1.0  0.1147
  H  H35  1  0.479380  0.906600  0.236270  1.0  0.1233
  H  H36  1  0.793050  0.282290  0.429240  1.0  0.1011
  H  H37  1  0.296930  0.726300  0.033820  1.0  0.1153
  H  H38  1  0.574750  0.203280  0.723750  1.0  0.1208
  H  H39  1  0.876560  0.707540  0.290910  1.0  0.1222
  H  H40  1  0.302050  0.461630  0.233940  1.0  0.1175
  H  H41  1  0.077290  0.706660  0.723320  1.0  0.1167
  H  H42  1  0.290500  0.713580  0.932570  1.0  0.1168
  H  H43  1  0.293890  0.460980  0.037000  1.0  0.1206
  H  H44  1  0.712940  0.213940  0.576410  1.0  0.1149
  H  H45  1  0.516410  0.446840  0.837790  1.0  0.1222
  H  H46  1  0.708490  0.763380  0.933140  1.0  0.1135
  H  H47  1  0.216740  0.864370  0.784360  1.0  0.1159
  H  H48  1  0.772080  0.035290  0.648450  1.0  0.1071
  H  H49  1  0.225590  0.616500  0.300400  1.0  0.1223
  H  H50  1  0.213870  0.123240  0.217750  1.0  0.1153
  H  H51  1  0.640690  0.937930  0.496880  1.0  0.1247
  H  H52  1  0.640460  0.445040  0.993280  1.0  0.1185
  H  H53  1  0.471270  0.238360  0.299200  1.0  0.1162
  H  H54  1  0.803640  0.726530  0.934610  1.0  0.1134
  H  H55  1  0.290200  0.120140  0.283090  1.0  0.113
  H  H56  1  0.074900  0.719320  0.298740  1.0  0.1122
  H  H57  1  0.942010  0.329070  0.621530  1.0  0.1234
  H  H58  1  0.373060  0.210190  0.713310  1.0  0.1211
  H  H59  1  0.974020  0.745700  0.302530  1.0  0.1173
  H  H60  1  0.548800  0.788180  0.368220  1.0  0.1218
  H  H61  1  0.291170  0.211330  0.431450  1.0  0.1145
  H  H62  1  0.498480  0.865340  0.299440  1.0  0.1118
  H  H63  1  0.294110  0.916250  0.716630  1.0  0.116
  H  H64  1  0.266290  0.920100  0.306280  1.0  0.1215
  H  H65  1  0.148290  0.442970  0.504520  1.0  0.121
  H  H66  1  0.784070  0.621040  0.717630  1.0  0.1158
  H  H67  1  0.533490  0.364190  0.286620  1.0  0.1055
  H  H68  1  0.168890  0.526470  0.540470  1.0  0.1184
  H  H69  1  0.285910  0.959300  0.544270  1.0  0.1132
  H  H70  1  0.714570  0.361740  0.784950  1.0  0.1198
  H  H71  1  0.711510  0.278910  0.927960  1.0  0.1068
  H  H72  1  0.722780  0.780690  0.638210  1.0  0.1195
  H  H73  1  0.284780  0.031430  0.140790  1.0  0.1093
  H  H74  1  0.355260  0.769440  0.945560  1.0  0.1205
  H  H75  1  0.080190  0.784020  0.787640  1.0  0.1106
  H  H76  1  0.033250  0.366950  0.784960  1.0  0.1037
  H  H77  1  0.623520  0.420570  0.474090  1.0  0.1229
  H  H78  1  0.215800  0.566000  0.719100  1.0  0.1045
  H  H79  1  0.759710  0.962080  0.078620  1.0  0.1189
  H  H80  1  0.019650  0.793730  0.712480  1.0  0.1034
  H  H81  1  0.373270  0.271310  0.792760  1.0  0.1194
  H  H82  1  0.775060  0.201920  0.075130  1.0  0.1192
  H  H83  1  0.037340  0.284250  0.368370  1.0  0.1223
  H  H84  1  0.532250  0.864500  0.785470  1.0  0.1011
  H  H85  1  0.876090  0.207440  0.787170  1.0  0.1221
  H  H86  1  0.632310  0.780780  0.293640  1.0  0.1162
  H  H87  1  0.721630  0.923340  0.292880  1.0  0.1218
  H  H88  1  0.241370  0.917870  0.207790  1.0  0.1142
  H  H89  1  0.279320  0.530910  0.646060  1.0  0.1042
  H  H90  1  0.617330  0.954680  0.189030  1.0  0.1213
  H  H91  1  0.526280  0.292360  0.191130  1.0  0.0825
  H  H92  1  0.805010  0.102620  0.579570  1.0  0.1235
  H  H93  1  0.279950  0.503960  0.561310  1.0  0.1165
  H  H94  1  0.622770  0.839290  0.557340  1.0  0.1265
  H  H95  1  0.686890  0.016830  0.653030  1.0  0.1037
  H  H96  1  0.365040  0.532780  0.210290  1.0  0.1215
  H  H97  1  0.205420  0.021510  0.232650  1.0  0.0951
  H  H98  1  0.051480  0.785840  0.864590  1.0  0.1205
  H  H99  1  0.997840  0.399290  0.743480  1.0  0.1079
  H  H100  1  0.078800  0.274810  0.711970  1.0  0.1083
  H  H101  1  0.293480  0.273190  0.078710  1.0  0.1195
  H  H102  1  0.791210  0.367440  0.489810  1.0  0.1163
  H  H103  1  0.804210  0.726040  0.877680  1.0  0.1377
  H  H104  1  0.121140  0.328590  0.044930  1.0  0.1225
  H  H105  1  0.202350  0.976690  0.123820  1.0  0.1051
  H  H106  1  0.837060  0.941440  0.937930  1.0  0.1214
  H  H107  1  0.815250  0.567650  0.556360  1.0  0.1247
  H  H108  1  0.289900  0.620360  0.788230  1.0  0.1149
  H  H109  1  0.790170  0.709440  0.436200  1.0  0.1177
  H  H110  1  0.040120  0.783860  0.365590  1.0  0.1183
  H  H111  1  0.713260  0.120700  0.722830  1.0  0.1142
  H  H112  1  0.855810  0.269800  0.947400  1.0  0.1211
  H  H113  1  0.783900  0.363050  0.295140  1.0  0.1164
  H  H114  1  0.971550  0.254600  0.303770  1.0  0.1161
  H  H115  1  0.791950  0.279670  0.374110  1.0  0.1144
  H  H116  1  0.202070  0.250910  0.473340  1.0  0.1142
  H  H117  1  0.301080  0.367230  0.999290  1.0  0.1151
  H  H118  1  0.202500  0.757370  0.974270  1.0  0.1174
  H  H119  1  0.210110  0.798680  0.487580  1.0  0.0962
  H  H120  1  0.479810  0.405420  0.737450  1.0  0.1247
  H  H121  1  0.724080  0.783240  0.582510  1.0  0.1117
  H  H122  1  0.208370  0.746350  0.477150  1.0  0.1149
  H  H123  1  0.805370  0.459710  0.743410  1.0  0.1118
  H  H124  1  0.133870  0.026660  0.180930  1.0  0.1253
  H  H125  1  0.730170  0.400280  0.432510  1.0  0.1212
  H  H126  1  0.217990  0.714140  0.436760  1.0  0.1147
  H  H127  1  0.675300  0.476510  0.533060  1.0  0.1163
  H  H128  1  0.927260  0.785270  0.220260  1.0  0.1099
  H  H129  1  0.218810  0.417210  0.715280  1.0  0.117
  H  H130  1  0.035260  0.246800  0.702640  1.0  0.1218
  H  H131  1  0.221500  0.207480  0.932170  1.0  0.1127
  H  H132  1  0.705300  0.740990  0.979480  1.0  0.1103
  H  H133  1  0.719320  0.864900  0.294050  1.0  0.1235
  H  H134  1  0.516610  0.291160  0.712300  1.0  0.1074
  H  H135  1  0.512540  0.418720  0.627620  1.0  0.1201
  H  H136  1  0.707740  0.565330  0.233570  1.0  0.1157
  H  H137  1  0.430850  0.205150  0.284340  1.0  0.1219
  H  H138  1  0.781200  0.477350  0.062390  1.0  0.1196
  H  H139  1  0.219120  0.207330  0.875660  1.0  0.1126
  H  H140  1  0.632320  0.845800  0.059900  1.0  0.123
  H  H141  1  0.678720  0.494340  0.146520  1.0  0.1142
  H  H142  1  0.788310  0.213840  0.931860  1.0  0.118
  H  H143  1  0.028180  0.294320  0.689210  1.0  0.091
  H  H144  1  0.306590  0.743690  0.536780  1.0  0.1217
  H  H145  1  0.018560  0.948810  0.838240  1.0  0.1212
  H  H146  1  0.497520  0.363190  0.798840  1.0  0.1106
  H  H147  1  0.668240  0.499490  0.038710  1.0  0.118
  H  H148  1  0.214700  0.714370  0.578010  1.0  0.1147
  H  H149  1  0.471020  0.747600  0.310310  1.0  0.1252
  H  H150  1  0.732290  0.919620  0.714460  1.0  0.1126
  H  H151  1  0.999610  0.418000  0.132840  1.0  0.1196
  H  H152  1  0.720230  0.212850  0.434720  1.0  0.1168
  H  H153  1  0.781680  0.018120  0.134100  1.0  0.1049
  H  H154  1  0.791160  0.359960  0.719910  1.0  0.1164
  H  H155  1  0.805270  0.244810  0.536440  1.0  0.1194
  H  H156  1  0.933340  0.710180  0.715260  1.0  0.1162
  H  H157  1  0.983340  0.423130  0.826500  1.0  0.1242
  H  H158  1  0.034650  0.746760  0.205070  1.0  0.1258
  H  H159  1  0.785060  0.565790  0.716000  1.0  0.1068
  H  H160  1  0.293890  0.860500  0.720220  1.0  0.1165
  H  H161  1  0.713290  0.064380  0.723370  1.0  0.1088
  H  H162  1  0.717330  0.212570  0.378420  1.0  0.1156
  H  H163  1  0.945190  0.314690  0.121320  1.0  0.122
  H  H164  1  0.533740  0.741610  0.705320  1.0  0.1234
  H  H165  1  0.664030  0.915480  0.720240  1.0  0.1185
  H  H166  1  0.227140  0.930130  0.700520  1.0  0.1026
  H  H167  1  0.623070  0.346030  0.055540  1.0  0.1264
  H  H168  1  0.525560  0.790260  0.692710  1.0  0.0879
  H  H169  1  0.730200  0.904360  0.915530  1.0  0.1203
  H  H170  1  0.494070  0.896770  0.743640  1.0  0.1054
  H  H171  1  0.729360  0.439770  0.703660  1.0  0.1025
  H  H172  1  0.690210  0.000290  0.143790  1.0  0.1223
  H  H173  1  0.848770  0.929970  0.464820  1.0  0.1247
  H  H174  1  0.975010  0.747520  0.805040  1.0  0.114
  H  H175  1  0.493790  0.925950  0.632230  1.0  0.1186
  H  H176  1  0.213870  0.275730  0.429510  1.0  0.1086
  H  H177  1  0.738240  0.410040  0.942310  1.0  0.1179
  H  H178  1  0.791350  0.121460  0.786140  1.0  0.1155
  H  H179  1  0.283900  0.363920  0.793550  1.0  0.117
  H  H180  1  0.074080  0.203700  0.224870  1.0  0.1165
  H  H181  1  0.533270  0.234270  0.707190  1.0  0.1134
  H  H182  1  0.214720  0.067200  0.213320  1.0  0.177
  H  H183  1  0.577510  0.282510  0.785710  1.0  0.1096
  H  H184  1  0.016380  0.367570  0.292030  1.0  0.0969
  H  H185  1  0.279930  0.203490  0.576210  1.0  0.1167
  H  H186  1  0.291240  0.210020  0.374930  1.0  0.1145
  H  H187  1  0.708160  0.719790  0.079970  1.0  0.1153
  H  H188  1  0.363920  0.784850  0.454820  1.0  0.123
  H  H189  1  0.178890  0.980910  0.533240  1.0  0.1159
  H  H190  1  0.293350  0.359260  0.223100  1.0  0.1185
  H  H191  1  0.959850  0.817920  0.617210  1.0  0.1213
  H  H192  1  0.574220  0.715290  0.798540  1.0  0.115
  H  H193  1  0.292000  0.272190  0.134790  1.0  0.1142
  H  H194  1  0.631230  0.203140  0.722100  1.0  0.1164
  H  H195  1  0.079230  0.773030  0.213820  1.0  0.106
  H  H196  1  0.708760  0.621530  0.233240  1.0  0.1188
  H  H197  1  0.928160  0.285420  0.717830  1.0  0.1137
  H  H198  1  0.875180  0.710550  0.714280  1.0  0.1231
  H  H199  1  0.630450  0.217960  0.299110  1.0  0.1184
  H  H200  1  0.788980  0.211630  0.875410  1.0  0.1167
  H  H201  1  0.784380  0.515010  0.632520  1.0  0.0969
  H  H202  1  0.874650  0.771830  0.795320  1.0  0.1218
  H  H203  1  0.541400  0.782140  0.865230  1.0  0.1191
  H  H204  1  0.631910  0.930630  0.979910  1.0  0.1191
  H  H205  1  0.133360  0.279510  0.288220  1.0  0.1169
  H  H206  1  0.871240  0.781150  0.221150  1.0  0.1153
  H  H207  1  0.032370  0.232540  0.208680  1.0  0.1144
  H  H208  1  0.149250  0.423130  0.721150  1.0  0.1251
  H  H209  1  0.289900  0.063980  0.282170  1.0  0.1165
  H  H210  1  0.296530  0.770410  0.636840  1.0  0.1171
  H  H211  1  0.576670  0.783230  0.292760  1.0  0.1123
  H  H212  1  0.116820  0.948310  0.677740  1.0  0.1216
  H  H213  1  0.792920  0.416090  0.720210  1.0  0.1142
  H  H214  1  0.125090  0.924090  0.484070  1.0  0.1241
  H  H215  1  0.784180  0.863620  0.962230  1.0  0.1104
  H  H216  1  0.277520  0.695780  0.133720  1.0  0.1254
  H  H217  1  0.219030  0.361600  0.716960  1.0  0.1167
  H  H218  1  0.577230  0.271990  0.212270  1.0  0.1074
  H  H219  1  0.242900  0.416760  0.014020  1.0  0.1183
  H  H220  1  0.051870  0.904060  0.737430  1.0  0.117
  H  H221  1  0.533820  0.243090  0.203140  1.0  0.111
  H  H222  1  0.515900  0.790570  0.216090  1.0  0.1062
  H  H223  1  0.206320  0.808000  0.989400  1.0  0.0882
  H  H224  1  0.286450  0.018910  0.619050  1.0  0.1031
  H  H225  1  0.298040  0.770620  0.580610  1.0  0.1221
  H  H226  1  0.141580  0.944670  0.008610  1.0  0.1219
  H  H227  1  0.219780  0.456550  0.135620  1.0  0.0956
  H  H228  1  0.698000  0.433580  0.127950  1.0  0.1167
  H  H229  1  0.633760  0.767480  0.713640  1.0  0.118
  H  H230  1  0.206580  0.238750  0.973770  1.0  0.1145
  H  H231  1  0.346990  0.934710  0.960040  1.0  0.1208
  H  H232  1  0.230310  0.788140  0.080730  1.0  0.1153
  H  H233  1  0.208770  0.519670  0.267150  1.0  0.1172
  H  H234  1  0.123170  0.831230  0.555390  1.0  0.1247
  H  H235  1  0.134980  0.272810  0.712740  1.0  0.1134
  H  H236  1  0.750970  0.909890  0.515200  1.0  0.1108
  H  H237  1  0.872840  0.279760  0.291110  1.0  0.1186
  H  H238  1  0.241680  0.861140  0.208220  1.0  0.1177
  H  H239  1  0.183030  0.922520  0.184890  1.0  0.1158
  H  H240  1  0.735640  0.066040  0.305990  1.0  0.1097
  H  H241  1  0.135390  0.770150  0.214840  1.0  0.1142
  H  H242  1  0.022720  0.286260  0.201530  1.0  0.0955
  H  H243  1  0.863950  0.284960  0.455820  1.0  0.1228
  H  H244  1  0.038110  0.283070  0.863490  1.0  0.1204
  H  H245  1  0.216750  0.920830  0.781020  1.0  0.1232
  H  H246  1  0.711610  0.212350  0.633080  1.0  0.1194
  H  H247  1  0.131410  0.716130  0.299500  1.0  0.1198
  H  H248  1  0.374790  0.701640  0.785200  1.0  0.1187
  H  H249  1  0.639940  0.020470  0.679990  1.0  0.1263
  H  H250  1  0.486570  0.414210  0.326870  1.0  0.1202
  H  H251  1  0.831260  0.449380  0.458430  1.0  0.1202
  H  H252  1  0.135850  0.782070  0.787750  1.0  0.1166
  H  H253  1  0.777720  0.202150  0.133320  1.0  0.1219
  H  H254  1  0.428510  0.784800  0.726070  1.0  0.1075
  H  H255  1  0.638290  0.433280  0.235050  1.0  0.1162
  H  H256  1  0.459380  0.315010  0.615370  1.0  0.1221
  H  H257  1  0.501580  0.429140  0.132510  1.0  0.1201
  H  H258  1  0.711550  0.297850  0.486480  1.0  0.1052
  H  H259  1  0.577510  0.938210  0.759920  1.0  0.1177
  H  H260  1  0.127310  0.842060  0.065730  1.0  0.1265
  H  H261  1  0.211990  0.212070  0.076890  1.0  0.1213
  H  H262  1  0.775390  0.696660  0.579330  1.0  0.123
  H  H263  1  0.993870  0.932630  0.135770  1.0  0.1207
  H  H264  1  0.799910  0.764420  0.084010  1.0  0.1182
  H  H265  1  0.715830  0.777400  0.435040  1.0  0.1072
  H  H266  1  0.286920  0.283840  0.928200  1.0  0.1099
  H  H267  1  0.431730  0.702330  0.783090  1.0  0.1165
  H  H268  1  0.287120  0.281120  0.872560  1.0  0.117
  H  H269  1  0.225490  0.063000  0.790720  1.0  0.1178
  H  H270  1  0.803760  0.740010  0.038950  1.0  0.1162
  H  H271  1  0.780150  0.124820  0.217470  1.0  0.1162
  H  H272  1  0.854270  0.050180  0.726910  1.0  0.1237
  H  H273  1  0.214040  0.274210  0.373310  1.0  0.1147
  H  H274  1  0.848650  0.435020  0.964390  1.0  0.1204
  H  H275  1  0.974940  0.408100  0.326490  1.0  0.1243
  H  H276  1  0.185780  0.483060  0.030190  1.0  0.1161
  H  H277  1  0.616400  0.452250  0.686530  1.0  0.1203
  H  H278  1  0.282130  0.124930  0.711880  1.0  0.1142
  H  H279  1  0.374290  0.204110  0.286760  1.0  0.1178
  H  H280  1  0.222440  0.119550  0.792310  1.0  0.1149
  H  H281  1  0.031820  0.867710  0.287320  1.0  0.1046
  H  H282  1  0.211530  0.211960  0.133570  1.0  0.1139
  H  H283  1  0.796420  0.461730  0.267460  1.0  0.1184
  H  H284  1  0.781760  0.069200  0.216750  1.0  0.1019
  H  H285  1  0.256850  0.408530  0.522730  1.0  0.1227
  H  H286  1  0.983420  0.922930  0.330060  1.0  0.1216
  H  H287  1  0.282290  0.069880  0.708020  1.0  0.1004
  H  H288  1  0.723990  0.290130  0.079270  1.0  0.1116
  H  H289  1  0.724650  0.617900  0.798450  1.0  0.1139
  H  H290  1  0.077830  0.282330  0.287520  1.0  0.0993
  H  H291  1  0.126050  0.341270  0.558070  1.0  0.1244
  H  H292  1  0.303930  0.249290  0.034160  1.0  0.1172
  H  H293  1  0.370290  0.279100  0.220080  1.0  0.1179
  H  H294  1  0.777980  0.696730  0.635790  1.0  0.1182
  H  H295  1  0.774070  0.859500  0.805540  1.0  0.1216
  H  H296  1  0.731050  0.122690  0.304800  1.0  0.1143
  H  H297  1  0.551220  0.401560  0.737470  1.0  0.1132
  H  H298  1  0.798450  0.962310  0.770330  1.0  0.1235
  H  H299  1  0.246990  0.410810  0.450390  1.0  0.1225
  H  H300  1  0.472930  0.744480  0.802900  1.0  0.1192
  H  H301  1  0.995010  0.900750  0.246420  1.0  0.109
  H  H302  1  0.252620  0.914820  0.017140  1.0  0.112
  H  H303  1  0.934200  0.208230  0.784150  1.0  0.1207
  H  H304  1  0.792760  0.358370  0.984780  1.0  0.1116
  H  H305  1  0.295980  0.777500  0.428460  1.0  0.0992
  H  H306  1  0.784210  0.589420  0.084860  1.0  0.1241
  H  H307  1  0.212860  0.362980  0.282620  1.0  0.1184
  H  H308  1  0.729470  0.561510  0.799700  1.0  0.1195
  H  H309  1  0.350680  0.554890  0.733180  1.0  0.1225
  H  H310  1  0.198290  0.460730  0.630060  1.0  0.1124
  H  H311  1  0.817230  0.058510  0.052520  1.0  0.1264
  H  H312  1  0.549940  0.283830  0.863500  1.0  0.1227
  H  H313  1  0.425950  0.282080  0.219750  1.0  0.1088
  H  H314  1  0.716320  0.418070  0.785560  1.0  0.1189
  H  H315  1  0.132170  0.216820  0.796150  1.0  0.1162
  H  H316  1  0.359230  0.267180  0.450350  1.0  0.1192
  H  H317  1  0.694710  0.495500  0.644990  1.0  0.1205
  H  H318  1  0.780910  0.419330  0.298020  1.0  0.1238
  H  H319  1  0.700800  0.258980  0.973480  1.0  0.1104
  H  H320  1  0.618860  0.328770  0.546790  1.0  0.1263
  H  H321  1  0.702830  0.022540  0.751250  1.0  0.1038
  H  H322  1  0.429520  0.271470  0.792910  1.0  0.1127
  H  H323  1  0.014200  0.921240  0.628580  1.0  0.1211
  H  H324  1  0.513210  0.913820  0.126310  1.0  0.1223
  H  H325  1  0.780880  0.510560  0.146310  1.0  0.1077
  H  H326  1  0.075590  0.218950  0.795600  1.0  0.1108
  H  H327  1  0.279360  0.622230  0.216040  1.0  0.1166
  H  H328  1  0.633250  0.280650  0.785930  1.0  0.1181
  H  H329  1  0.702390  0.751680  0.477540  1.0  0.1156
  H  H330  1  0.287640  0.999570  0.057100  1.0  0.1099
  H  H331  1  0.208790  0.021190  0.763030  1.0  0.1106
  H  H332  1  0.228390  0.559660  0.298240  1.0  0.1185
  H  H333  1  0.791490  0.064970  0.786700  1.0  0.118
  H  H334  1  0.076200  0.941860  0.263950  1.0  0.1212
  H  H335  1  0.133670  0.706530  0.721660  1.0  0.116
  H  H336  1  0.940590  0.829560  0.125040  1.0  0.1228
  H  H337  1  0.429740  0.208730  0.714140  1.0  0.1167
  H  H338  1  0.179830  0.042850  0.033090  1.0  0.1186
  H  H339  1  0.790490  0.564190  0.290850  1.0  0.1186
  H  H340  1  0.371930  0.773270  0.296100  1.0  0.1149
  H  H341  1  0.722910  0.287510  0.135170  1.0  0.1259
  H  H342  1  0.520040  0.950620  0.334710  1.0  0.1216
  H  H343  1  0.078250  0.440190  0.762940  1.0  0.1184
  H  H344  1  0.157990  0.517210  0.655640  1.0  0.1147
  H  H345  1  0.268670  0.861140  0.306240  1.0  0.1264
  H  H346  1  0.133730  0.422930  0.977560  1.0  0.1209
  H  H347  1  0.984330  0.391310  0.243620  1.0  0.1059
  H  H348  1  0.302500  0.963210  0.730940  1.0  0.1222
  H  H349  1  0.716240  0.363150  0.220870  1.0  0.1115
  H  H350  1  0.354820  0.053740  0.229330  1.0  0.1216
  H  H351  1  0.707080  0.718650  0.138270  1.0  0.119
  H  H352  1  0.297620  0.232610  0.534330  1.0  0.1161
  H  H353  1  0.130560  0.203340  0.222890  1.0  0.1161
  H  H354  1  0.573790  0.219270  0.297850  1.0  0.1111
  H  H355  1  0.342360  0.448650  0.970480  1.0  0.1193
  H  H356  1  0.495820  0.395810  0.242560  1.0  0.1116
  H  H357  1  0.715460  0.776050  0.378950  1.0  0.1152
  H  H358  1  0.290340  0.515930  0.124490  1.0  0.1021
  H  H359  1  0.216540  0.296080  0.989730  1.0  0.1052
  H  H360  1  0.633440  0.271220  0.213990  1.0  0.1148
  H  H361  1  0.228920  0.902760  0.435410  1.0  0.1157
  H  H362  1  0.298940  0.355940  0.491310  1.0  0.1118
  H  H363  1  0.934670  0.709750  0.288410  1.0  0.1187
  H  H364  1  0.282330  0.204110  0.632660  1.0  0.1185
  H  H365  1  0.372140  0.782800  0.725870  1.0  0.1167
  H  H366  1  0.280180  0.420550  0.794890  1.0  0.1144
  H  H367  1  0.294380  0.414950  0.220070  1.0  0.1131
  H  H368  1  0.213870  0.713230  0.634670  1.0  0.1191
  H  H369  1  0.707850  0.244610  0.475410  1.0  0.1142
  H  H370  1  0.864440  0.540490  0.709930  1.0  0.1187
  H  H371  1  0.215740  0.955370  0.637640  1.0  0.0881
  H  H372  1  0.996530  0.431460  0.632900  1.0  0.1193
  H  H373  1  0.220790  0.283370  0.634570  1.0  0.118
  H  H374  1  0.844520  0.559230  0.228880  1.0  0.1229
  H  H375  1  0.215130  0.711730  0.380460  1.0  0.1184
  H  H376  1  0.373380  0.705740  0.221670  1.0  0.1185
  H  H377  1  0.856670  0.763860  0.450820  1.0  0.1219
  H  H378  1  0.798810  0.762270  0.140350  1.0  0.1189
  H  H379  1  0.292320  0.857180  0.985240  1.0  0.1123
  H  H380  1  0.237940  0.918080  0.506670  1.0  0.1153
  H  H381  1  0.472460  0.245800  0.804030  1.0  0.1142
  H  H382  1  0.666667  0.016550  0.539820  1.0  0.1168
  H  H383  1  0.066210  0.451200  0.270940  1.0  0.1181
  H  H384  1  0.235570  0.908490  0.945770  1.0  0.1216
  H  H385  1  0.363340  0.036110  0.702930  1.0  0.1191
  H  H386  1  0.027150  0.795160  0.192460  1.0  0.0938
  H  H387  1  0.712320  0.276470  0.871920  1.0  0.1161
  H  H388  1  0.456670  0.811050  0.119620  1.0  0.1206
  H  H389  1  0.439160  0.823350  0.624410  1.0  0.1244
  H  H390  1  0.287690  0.612410  0.597760  1.0  0.1273
  H  H391  1  0.573800  0.704400  0.230270  1.0  0.1171
  H  H392  1  0.980430  0.908440  0.738030  1.0  0.1198
  H  H393  1  0.298490  0.963350  0.269020  1.0  0.1221
  H  H394  1  0.698730  0.522150  0.261000  1.0  0.1199
  H  H395  1  0.332090  0.948940  0.458230  1.0  0.1213
  H  H396  1  0.745260  0.911180  0.986660  1.0  0.118
  H  H397  1  0.676080  0.967620  0.034270  1.0  0.1117
  H  H398  1  0.119640  0.456110  0.171960  1.0  0.1212
  H  H399  1  0.750560  0.001100  0.579110  1.0  0.1197
  H  H400  1  0.307250  0.108840  0.084830  1.0  0.1234
  H  H401  1  0.864870  0.040780  0.209510  1.0  0.1274
  H  H402  1  0.707900  0.757720  0.875390  1.0  0.1234
  H  H403  1  0.929080  0.280280  0.290230  1.0  0.1199
  H  H404  1  0.215520  0.622500  0.720770  1.0  0.1155
  H  H405  1  0.738640  0.903530  0.443630  1.0  0.1193
  H  H406  1  0.790230  0.708880  0.379760  1.0  0.1133
  H  H407  1  0.796120  0.725790  0.538550  1.0  0.1162
  H  H408  1  0.794330  0.269390  0.636350  1.0  0.1171
  H  H409  1  0.213410  0.419570  0.280170  1.0  0.1192
  H  H410  1  0.307580  0.070280  0.566850  1.0  0.123
  H  H411  1  0.791260  0.918120  0.218850  1.0  0.115
  H  H412  1  0.363350  0.282080  0.953250  1.0  0.1213
  H  H413  1  0.279750  0.567000  0.212090  1.0  0.0982
  H  H414  1  0.762890  0.466280  0.573180  1.0  0.1179
  H  H415  1  0.928630  0.209600  0.218530  1.0  0.1165
  H  H416  1  0.240450  0.402590  0.942520  1.0  0.1214
  H  H417  1  0.428130  0.773680  0.297020  1.0  0.1142
  H  H418  1  0.734820  0.417810  0.503840  1.0  0.1145
  H  H419  1  0.771780  0.918340  0.808070  1.0  0.12
  H  H420  1  0.715720  0.419150  0.221480  1.0  0.1036
  H  H421  1  0.861610  0.779700  0.953400  1.0  0.1227
  H  H422  1  0.732080  0.862820  0.713010  1.0  0.1151
  H  H423  1  0.694950  0.791030  0.980780  1.0  0.0843
  H  H424  1  0.294270  0.773140  0.373870  1.0  0.1135
  H  H425  1  0.580660  0.440150  0.265260  1.0  0.1156
  H  H426  1  0.538690  0.278800  0.363530  1.0  0.1194
  H  H427  1  0.706120  0.309580  0.984830  1.0  0.0957
  H  H428  1  0.713520  0.025990  0.276310  1.0  0.1192
  H  H429  1  0.035780  0.737300  0.707950  1.0  0.1161
  H  H430  1  0.532230  0.734280  0.213860  1.0  0.1137
  H  H431  1  0.228760  0.784790  0.136690  1.0  0.1212
  H  H432  1  0.357230  0.431770  0.476900  1.0  0.1201
  H  H433  1  0.291450  0.711810  0.876070  1.0  0.1175
  H  H434  1  0.485240  0.920540  0.827060  1.0  0.1229
  H  H435  1  0.577650  0.769600  0.713880  1.0  0.1063
  H  H436  1  0.974520  0.242370  0.800150  1.0  0.1142
  H  H437  1  0.872010  0.282590  0.719000  1.0  0.1204
  H  H438  1  0.794800  0.853040  0.488940  1.0  0.1138
  H  H439  1  0.000110  0.865020  0.798970  1.0  0.11
  H  H440  1  0.791030  0.620660  0.290910  1.0  0.1159
  H  H441  1  0.872130  0.210210  0.218600  1.0  0.1176
  H  H442  1  0.630180  0.704180  0.228820  1.0  0.1187
  H  H443  1  0.794950  0.229270  0.033520  1.0  0.1163
  H  H444  1  0.789380  0.861370  0.220410  1.0  0.1189
  H  H445  1  0.750400  0.417850  0.014910  1.0  0.1217
  H  H446  1  0.429920  0.705720  0.222810  1.0  0.1164
  H  H447  1  0.550110  0.900130  0.235550  1.0  0.1152
  H  H448  1  0.708740  0.802770  0.490450  1.0  0.1047
  H  H449  1  0.221370  0.285370  0.578770  1.0  0.1107
  H  H450  1  0.443820  0.327820  0.119260  1.0  0.1245
  H  H451  1  0.275510  0.697020  0.075230  1.0  0.119
  H  H452  1  0.711870  0.520200  0.771560  1.0  0.1144
  H  H453  1  0.795880  0.270770  0.580280  1.0  0.1188
  H  H454  1  0.226480  0.428840  0.201710  1.0  0.1013
  H  H455  1  0.290600  0.866850  0.488530  1.0  0.1158
  H  H456  1  0.730690  0.947830  0.206090  1.0  0.1025
  H  H457  1  0.204930  0.302420  0.483980  1.0  0.099
  H  H458  1  0.310540  0.564750  0.084480  1.0  0.1244
  H  H459  1  0.931050  0.772950  0.795690  1.0  0.1117
  H  H460  1  0.630890  0.711620  0.798640  1.0  0.1229
  H  H461  1  0.214830  0.779850  0.928990  1.0  0.1069
  H  H462  1  0.215660  0.777670  0.872790  1.0  0.1163
  C  C463  1  0.038910  0.802470  0.348610  1.0  -0.0661
  C  C464  1  0.753010  0.855930  0.759980  1.0  -0.0848
  C  C465  1  0.750460  0.659430  0.261690  1.0  0.7225
  C  C466  1  0.122250  0.723210  0.736700  1.0  -0.0716
  C  C467  1  0.143230  0.469520  0.657240  1.0  -0.023
  C  C468  1  0.752460  0.823040  0.258810  1.0  0.5594
  C  C469  1  0.670960  0.480070  0.165760  1.0  -0.0911
  C  C470  1  0.726320  0.423370  0.009900  1.0  -0.0716
  C  C471  1  0.532920  0.290040  0.315380  1.0  -0.0098
  C  C472  1  0.809010  0.902920  0.923290  1.0  -0.0512
  C  C473  1  0.754660  0.245780  0.371100  1.0  0.0225
  C  C474  1  0.536380  0.407400  0.815050  1.0  -0.0147
  C  C475  1  0.122620  0.758710  0.233320  1.0  -0.0799
  C  C476  1  0.717390  0.065500  0.649980  1.0  -0.0155
  C  C477  1  0.230690  0.260720  0.418360  1.0  -0.093
  C  C478  1  0.184010  0.947100  0.720380  1.0  -0.0179
  C  C479  1  0.272820  0.576050  0.772450  1.0  -0.117
  C  C480  1  0.731820  0.761640  0.423690  1.0  -0.0963
  C  C481  1  0.028950  0.446010  0.765350  1.0  0.0197
  C  C482  1  0.417740  0.721020  0.238690  1.0  -0.109
  C  C483  1  0.970890  0.746730  0.252450  1.0  -0.0423
  C  C484  1  0.014420  0.942350  0.675040  1.0  0.1495
  C  C485  1  0.473990  0.247940  0.697900  1.0  0.0671
  C  C486  1  0.202840  0.940670  0.479250  1.0  -0.0081
  C  C487  1  0.679660  0.479840  0.557640  1.0  -0.0708
  C  C488  1  0.884690  0.765200  0.235260  1.0  -0.0899
  C  C489  1  0.171820  0.243470  0.754570  1.0  0.7236
  C  C490  1  0.752080  0.740210  0.144340  1.0  -0.0389
  C  C491  1  0.149770  0.923520  0.489140  1.0  -0.1142
  C  C492  1  0.530490  0.261030  0.810810  1.0  0.0901
  C  C493  1  0.777510  0.265400  0.419600  1.0  -0.0675
  C  C494  1  0.745420  0.078400  0.286340  1.0  -0.1229
  C  C495  1  0.652710  0.847940  0.014680  1.0  -0.0102
  C  C496  1  0.729490  0.244490  0.488410  1.0  -0.0531
  C  C497  1  0.505110  0.416440  0.651620  1.0  0.0959
  C  C498  1  0.921470  0.224710  0.769970  1.0  -0.1369
  C  C499  1  0.938300  0.741170  0.754810  1.0  -0.0943
  C  C500  1  0.847900  0.533050  0.692400  1.0  -0.0934
  C  C501  1  0.019450  0.236520  0.229980  1.0  -0.0672
  C  C502  1  0.295770  0.535410  0.664490  1.0  -0.1203
  C  C503  1  0.807130  0.251650  0.978420  1.0  0.0752
  C  C504  1  0.302030  0.084770  0.079410  1.0  -0.0523
  C  C505  1  0.279580  0.757630  0.591760  1.0  -0.1015
  C  C506  1  0.142120  0.448060  0.180090  1.0  -0.0765
  C  C507  1  0.763120  0.906690  0.787480  1.0  -0.111
  C  C508  1  0.774020  0.724650  0.424260  1.0  -0.1003
  C  C509  1  0.636410  0.741920  0.261800  1.0  0.0335
  C  C510  1  0.642740  0.975620  0.635890  1.0  0.0505
  C  C511  1  0.543680  0.911300  0.257220  1.0  -0.1804
  C  C512  1  0.229290  0.225400  0.121800  1.0  -0.0764
  C  C513  1  0.989320  0.251380  0.721910  1.0  -0.0018
  C  C514  1  0.192420  0.899560  0.517490  1.0  0.2249
  C  C515  1  0.171730  0.741110  0.257390  1.0  0.7232
  C  C516  1  0.779220  0.007550  0.760600  1.0  0.0242
  C  C517  1  0.813220  0.023650  0.236160  1.0  0.0884
  C  C518  1  0.800910  0.453040  0.964980  1.0  0.1562
  C  C519  1  0.020550  0.749750  0.784690  1.0  -0.0089
  C  C520  1  0.687140  0.316190  0.999620  1.0  -0.0735
  C  C521  1  0.754700  0.859550  0.408890  1.0  -0.0061
  C  C522  1  0.300570  0.817490  0.489460  1.0  0.2015
  C  C523  1  0.525680  0.949180  0.731890  1.0  0.034
  C  C524  1  0.032320  0.302810  0.352070  1.0  -0.1042
  C  C525  1  0.516880  0.245750  0.280280  1.0  0.0387
  C  C526  1  0.472600  0.754940  0.697700  1.0  0.05
  C  C527  1  0.252740  0.058940  0.248330  1.0  -0.0928
  C  C528  1  0.137210  0.241080  0.255760  1.0  -0.0588
  C  C529  1  0.018760  0.443240  0.235130  1.0  0.0602
  C  C530  1  0.810500  0.028790  0.716780  1.0  0.0029
  C  C531  1  0.262050  0.368920  0.413200  1.0  -0.0072
  C  C532  1  0.765450  0.715390  0.624380  1.0  -0.0829
  C  C533  1  0.921410  0.724440  0.732230  1.0  -0.1081
  C  C534  1  0.746900  0.244330  0.036830  1.0  -0.0228
  C  C535  1  0.268280  0.221590  0.621190  1.0  -0.0745
  C  C536  1  0.258590  0.746930  0.473010  1.0  -0.0267
  C  C537  1  0.035870  0.889820  0.841430  1.0  0.0289
  C  C538  1  0.668610  0.964490  0.728330  1.0  -0.0151
  C  C539  1  0.024240  0.469100  0.144960  1.0  -0.0245
  C  C540  1  0.482140  0.326530  0.758470  1.0  -0.0485
  C  C541  1  0.278970  0.761650  0.419720  1.0  -0.0561
  C  C542  1  0.013520  0.332500  0.248190  1.0  -0.0565
  C  C543  1  0.800740  0.947230  0.465910  1.0  0.1653
  C  C544  1  0.886890  0.723980  0.732080  1.0  -0.1026
  C  C545  1  0.459510  0.289210  0.148590  1.0  0.3289
  C  C546  1  0.205300  0.903260  0.030190  1.0  0.2359
  C  C547  1  0.710520  0.418120  0.497160  1.0  -0.1534
  C  C548  1  0.535340  0.891240  0.340300  1.0  0.0376
  C  C549  1  0.755040  0.422790  0.753300  1.0  0.0272
  C  C550  1  0.319090  0.991950  0.564660  1.0  0.1721
  C  C551  1  0.726960  0.745960  0.991260  1.0  -0.0864
  C  C552  1  0.539720  0.832300  0.857190  1.0  0.2056
  C  C553  1  0.296190  0.517580  0.174110  1.0  0.2417
  C  C554  1  0.760940  0.061880  0.262390  1.0  0.0063
  C  C555  1  0.175120  0.844250  0.002830  1.0  0.222
  C  C556  1  0.786030  0.394840  0.937540  1.0  0.1932
  C  C557  1  0.158760  0.955960  0.155660  1.0  0.1738
  C  C558  1  0.017910  0.439900  0.267730  1.0  0.0122
  C  C559  1  0.729200  0.754360  0.922180  1.0  -0.0756
  C  C560  1  0.640590  0.337100  0.039770  1.0  -0.0926
  C  C561  1  0.151480  0.948600  0.715100  1.0  0.2041
  C  C562  1  0.046330  0.442380  0.283580  1.0  -0.1099
  C  C563  1  0.691410  0.490140  0.620620  1.0  -0.1149
  C  C564  1  0.667520  0.900960  0.998060  1.0  0.02
  C  C565  1  0.195990  0.852420  0.954890  1.0  -0.023
  C  C566  1  0.471790  0.259140  0.194500  1.0  0.0562
  C  C567  1  0.527080  0.940350  0.312830  1.0  -0.0996
  C  C568  1  0.308120  0.249310  0.477130  1.0  0.0651
  C  C569  1  0.487420  0.238940  0.726480  1.0  0.0045
  C  C570  1  0.701160  0.845050  0.452870  1.0  -0.0344
  C  C571  1  0.318230  0.407500  0.955870  1.0  -0.0117
  C  C572  1  0.277370  0.759960  0.387180  1.0  -0.0841
  C  C573  1  0.327010  0.487460  0.591420  1.0  -0.0039
  C  C574  1  0.038290  0.247580  0.752860  1.0  0.0385
  C  C575  1  0.165920  0.909560  0.131140  1.0  0.0124
  C  C576  1  0.348840  0.521200  0.104580  1.0  0.0347
  C  C577  1  0.752180  0.485970  0.668140  1.0  -0.0713
  C  C578  1  0.619890  0.280910  0.579570  1.0  -0.0143
  C  C579  1  0.333140  0.427990  0.470550  1.0  0.2042
  C  C580  1  0.088130  0.263330  0.274940  1.0  -0.097
  C  C581  1  0.751820  0.742730  0.474660  1.0  0.0026
  C  C582  1  0.513950  0.936970  0.171780  1.0  0.1582
  C  C583  1  0.970860  0.244990  0.748730  1.0  -0.0463
  C  C584  1  0.489600  0.886260  0.160400  1.0  -0.0037
  C  C585  1  0.385300  0.257570  0.775410  1.0  -0.0817
  C  C586  1  0.619780  0.220290  0.736590  1.0  -0.0693
  C  C587  1  0.747000  0.424900  0.260930  1.0  0.0301
  C  C588  1  0.742840  0.111110  0.285800  1.0  -0.07
  C  C589  1  0.052070  0.898560  0.787480  1.0  0.2007
  C  C590  1  0.123090  0.044990  0.044070  1.0  -0.0257
  C  C591  1  0.745430  0.999320  0.172760  1.0  -0.078
  C  C592  1  0.309680  0.450150  0.478710  1.0  0.1301
  C  C593  1  0.019980  0.248300  0.780400  1.0  0.0417
  C  C594  1  0.242560  0.015060  0.655590  1.0  -0.037
  C  C595  1  0.229610  0.506730  0.261110  1.0  -0.058
  C  C596  1  0.253990  0.423260  0.250030  1.0  0.048
  C  C597  1  0.183700  0.449260  0.218720  1.0  0.0011
  C  C598  1  0.920760  0.262020  0.121680  1.0  -0.004
  C  C599  1  0.202470  0.931150  0.698490  1.0  -0.1218
  C  C600  1  0.309420  0.939480  0.452540  1.0  -0.1265
  C  C601  1  0.776980  0.029400  0.040870  1.0  0.2116
  C  C602  1  0.762720  0.909150  0.448410  1.0  -0.1698
  C  C603  1  0.755670  0.128590  0.261280  1.0  -0.1087
  C  C604  1  0.689090  0.458680  0.985970  1.0  0.1788
  C  C605  1  0.517980  0.452270  0.730040  1.0  0.0677
  C  C606  1  0.031320  0.888980  0.345010  1.0  0.0497
  C  C607  1  0.224670  0.008750  0.241650  1.0  -0.1025
  C  C608  1  0.692000  0.448140  0.108250  1.0  -0.0898
  C  C609  1  0.251800  0.243810  0.469970  1.0  0.0456
  C  C610  1  0.752170  0.126330  0.754600  1.0  0.037
  C  C611  1  0.815700  0.557610  0.125490  1.0  0.0557
  C  C612  1  0.844200  0.797940  0.953690  1.0  -0.078
  C  C613  1  0.231090  0.407030  0.267370  1.0  -0.099
  C  C614  1  0.850760  0.320430  0.946990  1.0  0.1655
  C  C615  1  0.005550  0.947330  0.183120  1.0  0.1738
  C  C616  1  0.010300  0.435680  0.711430  1.0  -0.0263
  C  C617  1  0.714830  0.524390  0.178060  1.0  -0.038
  C  C618  1  0.650270  0.999200  0.584870  1.0  0.1952
  C  C619  1  0.682290  0.828600  0.939790  1.0  -0.0159
  C  C620  1  0.172190  0.436120  0.508650  1.0  -0.123
  C  C621  1  0.536040  0.409500  0.323550  1.0  0.0728
  C  C622  1  0.136890  0.032150  0.239000  1.0  0.0028
  C  C623  1  0.266770  0.408140  0.777520  1.0  -0.1064
  C  C624  1  0.274220  0.728170  0.920060  1.0  -0.1163
  C  C625  1  0.664580  0.439750  0.998220  1.0  -0.1128
  C  C626  1  0.726130  0.576710  0.246430  1.0  -0.0863
  C  C627  1  0.256220  0.742820  0.573920  1.0  0.0587
  C  C628  1  0.037500  0.301680  0.846470  1.0  -0.0751
  C  C629  1  0.304600  0.535390  0.592630  1.0  0.1781
  C  C630  1  0.229830  0.008580  0.757090  1.0  -0.0449
  C  C631  1  0.381170  0.592910  0.701930  1.0  -0.007
  C  C632  1  0.819810  0.519430  0.702580  1.0  0.0067
  C  C633  1  0.198610  0.254920  0.032910  1.0  0.0653
  C  C634  1  0.154350  0.290410  0.038490  1.0  0.1812
  C  C635  1  0.253370  0.243310  0.071360  1.0  -0.0797
  C  C636  1  0.981490  0.270880  0.177310  1.0  0.0177
  C  C637  1  0.472540  0.747170  0.204480  1.0  0.0702
  C  C638  1  0.777470  0.257430  0.591090  1.0  -0.1025
  C  C639  1  0.243400  0.496240  0.040380  1.0  0.0442
  C  C640  1  0.982940  0.281880  0.671190  1.0  0.0545
  C  C641  1  0.252680  0.456360  0.611890  1.0  0.0029
  C  C642  1  0.486970  0.908020  0.212260  1.0  -0.1261
  C  C643  1  0.899220  0.813260  0.924720  1.0  -0.0105
  C  C644  1  0.305290  0.837930  0.975470  1.0  -0.1298
  C  C645  1  0.902750  0.556930  0.669740  1.0  -0.004
  C  C646  1  0.536570  0.241210  0.756890  1.0  -0.0214
  C  C647  1  0.274490  0.258950  0.122390  1.0  -0.0854
  C  C648  1  0.749410  0.559170  0.261780  1.0  0.0476
  C  C649  1  0.510220  0.848270  0.313770  1.0  -0.1179
  C  C650  1  0.312570  0.030130  0.088680  1.0  0.1715
  C  C651  1  0.476340  0.868460  0.642460  1.0  0.0294
  C  C652  1  0.647120  0.446390  0.215400  1.0  -0.095
  C  C653  1  0.815650  0.524780  0.581880  1.0  -0.0206
  C  C654  1  0.245300  0.512950  0.159140  1.0  -0.0309
  C  C655  1  0.275950  0.372170  0.235960  1.0  -0.0831
  C  C656  1  0.833970  0.032850  0.105940  1.0  0.02
  C  C657  1  0.705980  0.948410  0.203210  1.0  -0.1081
  C  C658  1  0.752790  0.240860  0.639890  1.0  -0.0474
  C  C659  1  0.605970  0.962500  0.245350  1.0  -0.0066
  C  C660  1  0.278970  0.239680  0.488520  1.0  0.0158
  C  C661  1  0.280780  0.473640  0.239830  1.0  -0.0358
  C  C662  1  0.274350  0.037420  0.546930  1.0  0.1871
  C  C663  1  0.041880  0.835490  0.858960  1.0  0.208
  C  C664  1  0.530990  0.440540  0.266280  1.0  0.0082
  C  C665  1  0.670640  0.241230  0.754000  1.0  0.7132
  C  C666  1  0.677770  0.296740  0.024240  1.0  0.0167
  C  C667  1  0.669820  0.017130  0.564830  1.0  0.0496
  C  C668  1  0.123490  0.765030  0.773910  1.0  -0.0834
  C  C669  1  0.251900  0.160930  0.753580  1.0  0.7302
  C  C670  1  0.233210  0.725840  0.390910  1.0  -0.0839
  C  C671  1  0.157470  0.422520  0.985990  1.0  -0.1266
  C  C672  1  0.339650  0.356140  0.969920  1.0  -0.0286
  C  C673  1  0.512690  0.442270  0.180480  1.0  0.1763
  C  C674  1  0.165370  0.497830  0.701720  1.0  0.2457
  C  C675  1  0.787700  0.954110  0.937710  1.0  0.1791
  C  C676  1  0.026440  0.939860  0.816080  1.0  -0.0779
  C  C677  1  0.197500  0.455340  0.498720  1.0  0.1866
  C  C678  1  0.249080  0.243300  0.571430  1.0  0.0017
  C  C679  1  0.985290  0.828350  0.758480  1.0  -0.0492
  C  C680  1  0.006540  0.919160  0.652480  1.0  0.0858
  C  C681  1  0.367000  0.241010  0.253090  1.0  -0.0526
  C  C682  1  0.801080  0.544840  0.099140  1.0  0.0172
  C  C683  1  0.542130  0.315170  0.408240  1.0  -0.0202
  C  C684  1  0.255750  0.244530  0.936290  1.0  0.0504
  C  C685  1  0.773770  0.723900  0.391530  1.0  -0.0759
  C  C686  1  0.612830  0.910400  0.796350  1.0  0.0144
  C  C687  1  0.752240  0.059140  0.755360  1.0  0.0246
  C  C688  1  0.190580  0.422580  0.168610  1.0  0.1843
  C  C689  1  0.175330  0.511050  0.559370  1.0  -0.064
  C  C690  1  0.530680  0.759410  0.810840  1.0  0.0705
  C  C691  1  0.029690  0.263010  0.312100  1.0  0.0387
  C  C692  1  0.729230  0.407670  0.239200  1.0  -0.113
  C  C693  1  0.506260  0.941380  0.679150  1.0  0.1768
  C  C694  1  0.345840  0.286900  0.458550  1.0  -0.0745
  C  C695  1  0.281980  0.958090  0.455370  1.0  0.1855
  C  C696  1  0.638740  0.889860  0.674750  1.0  0.0186
  C  C697  1  0.359900  0.529610  0.159800  1.0  0.1586
  C  C698  1  0.336420  0.942000  0.567080  1.0  -0.0112
  C  C699  1  0.349140  0.528640  0.191160  1.0  -0.0905
  C  C700  1  0.746430  0.458420  0.262310  1.0  0.0067
  C  C701  1  0.257770  0.745580  0.439230  1.0  0.0472
  C  C702  1  0.782170  0.742640  0.026260  1.0  -0.0755
  C  C703  1  0.303440  0.021810  0.637300  1.0  -0.1395
  C  C704  1  0.833990  0.244760  0.255570  1.0  0.716
  C  C705  1  0.834820  0.739700  0.754430  1.0  0.5646
  C  C706  1  0.624260  0.450510  0.544530  1.0  -0.0157
  C  C707  1  0.255230  0.857180  0.752520  1.0  -0.064
  C  C708  1  0.833720  0.742010  0.258110  1.0  0.5503
  C  C709  1  0.251210  0.243360  0.638910  1.0  -0.0606
  C  C710  1  0.121110  0.290120  0.584910  1.0  -0.0014
  C  C711  1  0.171120  0.461420  0.073750  1.0  0.171
  C  C712  1  0.030160  0.388190  0.842680  1.0  0.0498
  C  C713  1  0.765100  0.220720  0.121880  1.0  -0.1068
  C  C714  1  0.544330  0.820430  0.908580  1.0  -0.0191
  C  C715  1  0.531810  0.828540  0.742250  1.0  -0.0776
  C  C716  1  0.536780  0.966510  0.134370  1.0  -0.0236
  C  C717  1  0.173750  0.909800  0.023940  1.0  -0.0152
  C  C718  1  0.451680  0.442590  0.289990  1.0  -0.0018
  C  C719  1  0.753310  0.432920  0.113870  1.0  -0.0115
  C  C720  1  0.722370  0.255180  0.985880  1.0  -0.0646
  C  C721  1  0.022830  0.738780  0.729550  1.0  -0.0808
  C  C722  1  0.524760  0.291860  0.821160  1.0  0.0251
  C  C723  1  0.251910  0.490180  0.674580  1.0  -0.0363
  C  C724  1  0.752110  0.741250  0.341200  1.0  0.7282
  C  C725  1  0.620920  0.263200  0.772570  1.0  -0.0863
  C  C726  1  0.968240  0.244210  0.254720  1.0  0.0413
  C  C727  1  0.853630  0.037170  0.159850  1.0  0.1752
  C  C728  1  0.142880  0.331950  0.541780  1.0  0.1937
  C  C729  1  0.774150  0.109400  0.772210  1.0  -0.0731
  C  C730  1  0.148850  0.987250  0.154270  1.0  -0.0316
  C  C731  1  0.386110  0.719670  0.771740  1.0  -0.074
  C  C732  1  0.067600  0.825240  0.904030  1.0  -0.0206
  C  C733  1  0.693790  0.943470  0.173010  1.0  0.2131
  C  C734  1  0.461960  0.319160  0.134480  1.0  0.0962
  C  C735  1  0.804510  0.519610  0.250550  1.0  0.0501
  C  C736  1  0.637450  0.241440  0.754420  1.0  0.0096
  C  C737  1  0.779200  0.753070  0.127480  1.0  -0.1072
  C  C738  1  0.772180  0.608530  0.735980  1.0  -0.0903
  C  C739  1  0.671280  0.412150  0.014470  1.0  -0.0082
  C  C740  1  0.668010  0.831330  0.990920  1.0  0.2157
  C  C741  1  0.193210  0.474570  0.052720  1.0  -0.0686
  C  C742  1  0.019670  0.749450  0.282750  1.0  0.0397
  C  C743  1  0.266550  0.360360  0.911820  1.0  -0.0044
  C  C744  1  0.560750  0.917350  0.803020  1.0  0.1704
  C  C745  1  0.008410  0.801690  0.177440  1.0  -0.103
  C  C746  1  0.759850  0.510740  0.550930  1.0  -0.0082
  C  C747  1  0.486380  0.738910  0.233100  1.0  0.0044
  C  C748  1  0.458160  0.354010  0.230980  1.0  -0.0209
  C  C749  1  0.701030  0.438900  0.473790  1.0  -0.0141
  C  C750  1  0.265590  0.716450  0.087830  1.0  -0.1118
  C  C751  1  0.026940  0.947170  0.267930  1.0  0.0104
  C  C752  1  0.508350  0.822130  0.178340  1.0  0.2192
  C  C753  1  0.290280  0.395690  0.943360  1.0  0.227
  C  C754  1  0.230290  0.388680  0.160100  1.0  0.0014
  C  C755  1  0.337930  0.342920  0.463360  1.0  -0.0022
  C  C756  1  0.681040  0.284000  0.523800  1.0  -0.0361
  C  C757  1  0.732720  0.406020  0.770770  1.0  -0.1124
  C  C758  1  0.036240  0.320110  0.907780  1.0  -0.0296
  C  C759  1  0.770090  0.124290  0.538220  1.0  -0.0082
  C  C760  1  0.689130  0.951890  0.488830  1.0  0.1746
  C  C761  1  0.284860  0.744790  0.524030  1.0  -0.0717
  C  C762  1  0.833950  0.242110  0.753760  1.0  0.4948
  C  C763  1  0.519050  0.746540  0.783130  1.0  0.0182
  C  C764  1  0.818370  0.052710  0.655600  1.0  -0.0742
  C  C765  1  0.831770  0.357410  0.462680  1.0  -0.0581
  C  C766  1  0.071580  0.746390  0.256160  1.0  0.0634
  C  C767  1  0.688270  0.992080  0.120080  1.0  -0.1416
  C  C768  1  0.900290  0.323200  0.431680  1.0  -0.0068
  C  C769  1  0.818680  0.023320  0.203630  1.0  -0.0287
  C  C770  1  0.728910  0.751720  0.887950  1.0  -0.1191
  C  C771  1  0.340000  0.564630  0.684340  1.0  0.1743
  C  C772  1  0.948630  0.952510  0.294150  1.0  0.0034
  C  C773  1  0.814480  0.283060  0.971730  1.0  0.0139
  C  C774  1  0.488050  0.363300  0.640010  1.0  0.0493
  C  C775  1  0.831470  0.548220  0.210310  1.0  -0.0537
  C  C776  1  0.145690  0.003560  0.126000  1.0  0.0724
  C  C777  1  0.786490  0.888190  0.440010  1.0  0.1965
  C  C778  1  0.255080  0.546690  0.566840  1.0  -0.01
  C  C779  1  0.229860  0.966130  0.591950  1.0  0.2334
  C  C780  1  0.753260  0.821130  0.758260  1.0  0.5727
  C  C781  1  0.330050  0.844480  0.955070  1.0  -0.0527
  C  C782  1  0.653940  0.292240  0.540630  1.0  0.2093
  C  C783  1  0.766120  0.076280  0.559940  1.0  0.1864
  C  C784  1  0.757610  0.246900  0.438350  1.0  0.0109
  C  C785  1  0.320040  0.439270  0.963470  1.0  0.0628
  C  C786  1  0.994150  0.908300  0.222530  1.0  -0.1581
  C  C787  1  0.726170  0.750940  0.025340  1.0  -0.0382
  C  C788  1  0.536760  0.384640  0.344660  1.0  0.044
  C  C789  1  0.517940  0.247900  0.783650  1.0  -0.0118
  C  C790  1  0.754330  0.242690  0.572920  1.0  0.032
  C  C791  1  0.648170  0.457390  0.159930  1.0  -0.0443
  C  C792  1  0.727290  0.728400  0.126810  1.0  -0.1053
  C  C793  1  0.524540  0.437800  0.815670  1.0  -0.0854
  C  C794  1  0.732750  0.507110  0.766070  1.0  -0.0744
  C  C795  1  0.704770  0.441970  0.700740  1.0  -0.1043
  C  C796  1  0.102210  0.439380  0.314640  1.0  -0.0183
  C  C797  1  0.214910  0.018390  0.058540  1.0  -0.0028
  C  C798  1  0.660130  0.804120  0.050620  1.0  0.3133
  C  C799  1  0.894820  0.798310  0.423890  1.0  -0.0056
  C  C800  1  0.750990  0.324810  0.257070  1.0  0.715
  C  C801  1  0.283370  0.250940  0.988600  1.0  -0.0198
  C  C802  1  0.177670  0.406520  0.521380  1.0  -0.0383
  C  C803  1  0.753640  0.857890  0.257890  1.0  -0.1085
  C  C804  1  0.894270  0.304590  0.921340  1.0  -0.0021
  C  C805  1  0.807530  0.017550  0.747550  1.0  0.078
  C  C806  1  0.237880  0.766590  0.091220  1.0  -0.12
  C  C807  1  0.154700  0.994580  0.981460  1.0  0.0049
  C  C808  1  0.111110  0.912690  0.299780  1.0  -0.0018
  C  C809  1  0.319540  0.557370  0.659670  1.0  -0.0739
  C  C810  1  0.156020  0.855150  0.027210  1.0  -0.0664
  C  C811  1  0.252440  0.746760  0.936370  1.0  0.024
  C  C812  1  0.551010  0.897030  0.285810  1.0  0.2064
  C  C813  1  0.989530  0.866070  0.640850  1.0  0.0428
  C  C814  1  0.270610  0.952960  0.623530  1.0  -0.0564
  C  C815  1  0.484040  0.744990  0.288870  1.0  0.0038
  C  C816  1  0.213600  0.339020  0.952690  1.0  -0.0254
  C  C817  1  0.276730  0.404790  0.234770  1.0  -0.0992
  C  C818  1  0.664940  0.932820  0.501440  1.0  -0.1038
  C  C819  1  0.816580  0.400550  0.948000  1.0  -0.0065
  C  C820  1  0.782580  0.564570  0.080940  1.0  -0.0749
  C  C821  1  0.986690  0.240420  0.227440  1.0  0.0316
  C  C822  1  0.198070  0.767650  0.036990  1.0  0.0562
  C  C823  1  0.959700  0.821090  0.139130  1.0  0.1158
  C  C824  1  0.274390  0.225680  0.419350  1.0  -0.1162
  C  C825  1  0.298400  0.483840  0.046640  1.0  -0.103
  C  C826  1  0.292490  0.457900  0.964910  1.0  0.1525
  C  C827  1  0.160460  0.479550  0.603760  1.0  0.0076
  C  C828  1  0.803290  0.942090  0.111080  1.0  -0.0227
  C  C829  1  0.277470  0.905980  0.732420  1.0  -0.0772
  C  C830  1  0.239180  0.371880  0.564200  1.0  -0.0103
  C  C831  1  0.986670  0.395070  0.665260  1.0  -0.0042
  C  C832  1  0.057800  0.436760  0.777300  1.0  -0.1144
  C  C833  1  0.256060  0.557360  0.255900  1.0  0.0135
  C  C834  1  0.144630  0.003900  0.182060  1.0  -0.1115
  C  C835  1  0.776120  0.404960  0.735280  1.0  -0.092
  C  C836  1  0.368290  0.240870  0.753010  1.0  -0.0879
  C  C837  1  0.252910  0.624210  0.258840  1.0  -0.1121
  C  C838  1  0.253690  0.458550  0.487750  1.0  0.0805
  C  C839  1  0.267180  0.221520  0.588340  1.0  -0.1064
  C  C840  1  0.239570  0.572860  0.279930  1.0  -0.1202
  C  C841  1  0.003980  0.427490  0.812670  1.0  -0.121
  C  C842  1  0.520230  0.236060  0.728710  1.0  -0.0819
  C  C843  1  0.476340  0.886010  0.190430  1.0  0.199
  C  C844  1  0.188000  0.814130  0.005190  1.0  -0.0835
  C  C845  1  0.986010  0.398780  0.219820  1.0  -0.1368
  C  C846  1  0.412290  0.772020  0.628000  1.0  -0.0053
  C  C847  1  0.809050  0.439260  0.452080  1.0  -0.1249
  C  C848  1  0.586930  0.726970  0.780210  1.0  -0.1173
  C  C849  1  0.751620  0.025590  0.757020  1.0  0.0692
  C  C850  1  0.984260  0.341480  0.644560  1.0  0.0084
  C  C851  1  0.725920  0.542850  0.631930  1.0  -0.0434
  C  C852  1  0.764700  0.467130  0.179940  1.0  -0.0338
  C  C853  1  0.734970  0.875940  0.277690  1.0  -0.1035
  C  C854  1  0.179690  0.793820  0.029380  1.0  0.0196
  C  C855  1  0.721810  0.046210  0.126850  1.0  -0.0279
  C  C856  1  0.152380  0.843200  0.517100  1.0  -0.0316
  C  C857  1  0.674780  0.484370  0.057820  1.0  -0.0702
  C  C858  1  0.709470  0.505680  0.597880  1.0  0.2032
  C  C859  1  0.278280  0.441610  0.474230  1.0  -0.0093
  C  C860  1  0.981730  0.887910  0.199990  1.0  0.1877
  C  C861  1  0.776000  0.907050  0.235530  1.0  -0.0806
  C  C862  1  0.165720  0.958870  0.577110  1.0  0.1759
  C  C863  1  0.140300  0.942050  0.684490  1.0  -0.063
  C  C864  1  0.300170  0.306090  0.486070  1.0  0.2045
  C  C865  1  0.343240  0.031210  0.597370  1.0  0.0496
  C  C866  1  0.170620  0.945300  0.475080  1.0  0.1703
  C  C867  1  0.285250  0.588400  0.590470  1.0  -0.0281
  C  C868  1  0.029740  0.857650  0.838150  1.0  -0.0332
  C  C869  1  0.131480  0.972620  0.452400  1.0  -0.0098
  C  C870  1  0.695610  0.270560  0.033480  1.0  0.0738
  C  C871  1  0.654150  0.956740  0.224120  1.0  0.1802
  C  C872  1  0.658680  0.962870  0.081990  1.0  0.2013
  C  C873  1  0.991260  0.891660  0.661390  1.0  -0.0094
  C  C874  1  0.231370  0.764290  0.918160  1.0  -0.0838
  C  C875  1  0.161040  0.932490  0.661250  1.0  -0.004
  C  C876  1  0.059590  0.418990  0.805050  1.0  0.1468
  C  C877  1  0.027550  0.452900  0.733460  1.0  0.0789
  C  C878  1  0.224700  0.478370  0.060790  1.0  0.0246
  C  C879  1  0.654690  0.850630  0.521050  1.0  0.0133
  C  C880  1  0.235320  0.457190  0.969080  1.0  0.0351
  C  C881  1  0.868590  0.743210  0.256420  1.0  -0.0896
  C  C882  1  0.533400  0.887000  0.842550  1.0  0.0419
  C  C883  1  0.154840  0.941580  0.630250  1.0  0.0109
  C  C884  1  0.586980  0.220580  0.737390  1.0  -0.1171
  C  C885  1  0.251240  0.357450  0.755550  1.0  -0.0636
  C  C886  1  0.818240  0.994580  0.952740  1.0  -0.0186
  C  C887  1  0.316600  0.023020  0.692450  1.0  -0.0627
  C  C888  1  0.794900  0.974640  0.605530  1.0  -0.0025
  C  C889  1  0.703050  0.899360  0.526280  1.0  0.2143
  C  C890  1  0.566140  0.323380  0.903050  1.0  -0.0263
  C  C891  1  0.744740  0.955370  0.475040  1.0  0.0523
  C  C892  1  0.267710  0.942340  0.963630  1.0  -0.0647
  C  C893  1  0.698160  0.466550  0.752300  1.0  0.0791
  C  C894  1  0.787000  0.010110  0.250220  1.0  -0.0027
  C  C895  1  0.727980  0.506880  0.543890  1.0  0.0773
  C  C896  1  0.304650  0.566130  0.604230  1.0  0.0388
  C  C897  1  0.196350  0.398180  0.019090  1.0  0.2276
  C  C898  1  0.917370  0.264150  0.274860  1.0  -0.0922
  C  C899  1  0.750130  0.738400  0.642050  1.0  -0.0059
  C  C900  1  0.415480  0.277160  0.121750  1.0  -0.0144
  C  C901  1  0.282220  0.506490  0.241220  1.0  -0.0161
  C  C902  1  0.299110  0.951980  0.964480  1.0  0.1639
  C  C903  1  0.807550  0.445170  0.603300  1.0  -0.0083
  C  C904  1  0.843060  0.783590  0.458600  1.0  -0.0468
  C  C905  1  0.506960  0.932370  0.203540  1.0  -0.023
  C  C906  1  0.733040  0.269250  0.089870  1.0  -0.0829
  C  C907  1  0.141620  0.823010  0.540300  1.0  0.1281
  C  C908  1  0.490020  0.332210  0.650540  1.0  0.0044
  C  C909  1  0.470380  0.743180  0.753020  1.0  -0.0512
  C  C910  1  0.727600  0.247640  0.521170  1.0  0.0239
  C  C911  1  0.813510  0.262360  0.479700  1.0  0.0477
  C  C912  1  0.176560  0.950540  0.606940  1.0  0.0088
  C  C913  1  0.540260  0.837700  0.360320  1.0  0.207
  C  C914  1  0.781530  0.070460  0.007920  1.0  -0.0322
  C  C915  1  0.230610  0.110550  0.231640  1.0  -0.0747
  C  C916  1  0.384610  0.764850  0.738430  1.0  -0.0909
  C  C917  1  0.120850  0.229600  0.777610  1.0  -0.0678
  C  C918  1  0.726850  0.609430  0.245950  1.0  -0.0642
  C  C919  1  0.253950  0.743410  0.836020  1.0  0.723
  C  C920  1  0.230420  0.077930  0.229770  1.0  -0.105
  C  C921  1  0.222210  0.251890  0.519070  1.0  0.0305
  C  C922  1  0.834950  0.536840  0.605780  1.0  0.0266
  C  C923  1  0.763990  0.221040  0.087230  1.0  -0.1223
  C  C924  1  0.669590  0.741230  0.261610  1.0  0.7195
  C  C925  1  0.847430  0.034310  0.192460  1.0  -0.0621
  C  C926  1  0.367510  0.739440  0.258880  1.0  0.0352
  C  C927  1  0.777790  0.241090  0.988350  1.0  -0.0028
  C  C928  1  0.987890  0.242440  0.778730  1.0  -0.0836
  C  C929  1  0.835240  0.984740  0.479930  1.0  -0.0352
  C  C930  1  0.506900  0.796450  0.677450  1.0  -0.1075
  C  C931  1  0.177220  0.341190  0.497900  1.0  0.2064
  C  C932  1  0.263610  0.442830  0.961000  1.0  -0.0039
  C  C933  1  0.753560  0.245250  0.337970  1.0  0.7238
  C  C934  1  0.507300  0.932140  0.710670  1.0  -0.0271
  C  C935  1  0.089490  0.723530  0.737500  1.0  -0.1183
  C  C936  1  0.661990  0.949780  0.167930  1.0  -0.0252
  C  C937  1  0.649940  0.954110  0.137730  1.0  0.0441
  C  C938  1  0.256660  0.026030  0.748780  1.0  0.0105
  C  C939  1  0.534950  0.846510  0.802790  1.0  -0.1132
  C  C940  1  0.228240  0.920730  0.014520  1.0  -0.1547
  C  C941  1  0.698400  0.037260  0.609260  1.0  0.1846
  C  C942  1  0.530000  0.447290  0.234280  1.0  0.0863
  C  C943  1  0.505510  0.912980  0.150280  1.0  0.0993
  C  C944  1  0.771920  0.226440  0.886560  1.0  -0.0721
  C  C945  1  0.228860  0.748630  0.522600  1.0  0.0398
  C  C946  1  0.988080  0.911040  0.714150  1.0  -0.1229
  C  C947  1  0.486400  0.743330  0.781560  1.0  -0.0817
  C  C948  1  0.690360  0.302810  0.498680  1.0  -0.0886
  C  C949  1  0.487240  0.859810  0.141020  1.0  0.034
  C  C950  1  0.679070  0.974400  0.058350  1.0  -0.1476
  C  C951  1  0.738430  0.880190  0.035180  1.0  -0.0083
  C  C952  1  0.035180  0.293370  0.814880  1.0  -0.0051
  C  C953  1  0.752320  0.410930  0.438130  1.0  -0.165
  C  C954  1  0.384970  0.720710  0.238290  1.0  -0.0747
  C  C955  1  0.747600  0.739060  0.541590  1.0  -0.0116
  C  C956  1  0.042370  0.821120  0.409720  1.0  -0.0203
  C  C957  1  0.508110  0.825860  0.662780  1.0  0.2228
  C  C958  1  0.253190  0.242800  0.835560  1.0  0.7091
  C  C959  1  0.539710  0.333440  0.858360  1.0  0.2006
  C  C960  1  0.130950  0.467240  0.039680  1.0  -0.0309
  C  C961  1  0.749890  0.246590  0.935610  1.0  0.018
  C  C962  1  0.236200  0.108830  0.774130  1.0  -0.0756
  C  C963  1  0.753750  0.366590  0.906500  1.0  -0.0008
  C  C964  1  0.183970  0.027060  0.052300  1.0  -0.0724
  C  C965  1  0.706330  0.496580  0.566480  1.0  0.0404
  C  C966  1  0.259600  0.578900  0.571740  1.0  0.1599
  C  C967  1  0.138180  0.468170  0.624910  1.0  0.0697
  C  C968  1  0.181760  0.331280  0.994310  1.0  0.1948
  C  C969  1  0.341510  0.788930  0.953700  1.0  -0.0109
  C  C970  1  0.560340  0.434780  0.279190  1.0  0.1065
  C  C971  1  0.138570  0.742690  0.257110  1.0  -0.052
  C  C972  1  0.692380  0.438340  0.670500  1.0  0.196
  C  C973  1  0.253590  0.744510  0.869240  1.0  -0.0616
  C  C974  1  0.252940  0.943160  0.452240  1.0  -0.0391
  C  C975  1  0.759790  0.325790  0.017340  1.0  -0.0463
  C  C976  1  0.516680  0.749210  0.290110  1.0  -0.0049
  C  C977  1  0.228240  0.240090  0.986660  1.0  -0.0877
  C  C978  1  0.996970  0.406890  0.719600  1.0  -0.1595
  C  C979  1  0.684190  0.484420  0.195420  1.0  0.2205
  C  C980  1  0.698530  0.973110  0.254530  1.0  0.0675
  C  C981  1  0.418010  0.257050  0.775820  1.0  -0.0939
  C  C982  1  0.744830  0.830920  0.985440  1.0  -0.0793
  C  C983  1  0.237770  0.075890  0.772930  1.0  -0.1248
  C  C984  1  0.435350  0.239940  0.753600  1.0  0.0074
  C  C985  1  0.165400  0.493430  0.481000  1.0  0.0048
  C  C986  1  0.644730  0.972130  0.668430  1.0  -0.0043
  C  C987  1  0.509540  0.345640  0.812330  1.0  -0.1167
  C  C988  1  0.832660  0.839420  0.459660  1.0  -0.0169
  C  C989  1  0.036190  0.333290  0.856460  1.0  0.1811
  C  C990  1  0.089930  0.760030  0.232510  1.0  -0.099
  C  C991  1  0.726870  0.916150  0.511300  1.0  -0.1459
  C  C992  1  0.727750  0.729660  0.092360  1.0  -0.0811
  C  C993  1  0.234720  0.223620  0.886900  1.0  -0.0706
  C  C994  1  0.800720  0.317930  0.490350  1.0  0.2089
  C  C995  1  0.334380  0.739370  0.258440  1.0  0.7185
  C  C996  1  0.584460  0.862400  0.263780  1.0  -0.0115
  C  C997  1  0.656890  0.993900  0.719850  1.0  0.2249
  C  C998  1  0.253370  0.858110  0.407100  1.0  -0.0088
  C  C999  1  0.485240  0.243880  0.782390  1.0  0.0099
  C  C1000  1  0.241980  0.628490  0.565830  1.0  -0.0234
  C  C1001  1  0.330870  0.857020  0.460950  1.0  -0.0612
  C  C1002  1  0.588200  0.263560  0.773260  1.0  -0.0766
  C  C1003  1  0.868780  0.243320  0.752730  1.0  -0.0899
  C  C1004  1  0.232320  0.726030  0.623230  1.0  -0.0711
  C  C1005  1  0.468040  0.242730  0.249360  1.0  -0.0339
  C  C1006  1  0.722070  0.750380  0.523360  1.0  0.0085
  C  C1007  1  0.887110  0.758350  0.778070  1.0  -0.1139
  C  C1008  1  0.620080  0.295320  0.083600  1.0  -0.0086
  C  C1009  1  0.166510  0.002810  0.100480  1.0  -0.0636
  C  C1010  1  0.252150  0.025380  0.248760  1.0  0.0213
  C  C1011  1  0.314210  0.899600  0.946890  1.0  -0.0141
  C  C1012  1  0.468010  0.739810  0.260620  1.0  0.0151
  C  C1013  1  0.917770  0.266600  0.730860  1.0  -0.0737
  C  C1014  1  0.499910  0.422760  0.156830  1.0  -0.1182
  C  C1015  1  0.157940  0.992990  0.210380  1.0  0.2073
  C  C1016  1  0.249200  0.864260  0.910180  1.0  0.0068
  C  C1017  1  0.249150  0.741380  0.038110  1.0  -0.0359
  C  C1018  1  0.251810  0.924050  0.258340  1.0  -0.031
  C  C1019  1  0.182450  0.785440  0.527250  1.0  0.0072
  C  C1020  1  0.959960  0.290090  0.649040  1.0  0.3453
  C  C1021  1  0.338340  0.524400  0.135610  1.0  -0.0012
  C  C1022  1  0.738690  0.606670  0.780760  1.0  -0.0784
  C  C1023  1  0.009400  0.445590  0.680110  1.0  0.1793
  C  C1024  1  0.973940  0.760010  0.197060  1.0  0.0416
  C  C1025  1  0.841780  0.289400  0.954780  1.0  -0.0603
  C  C1026  1  0.605270  0.455600  0.743610  1.0  -0.0103
  C  C1027  1  0.116550  0.278340  0.073540  1.0  -0.0087
  C  C1028  1  0.289180  0.022670  0.066700  1.0  -0.0447
  C  C1029  1  0.103340  0.961310  0.732890  1.0  0.0031
  C  C1030  1  0.984210  0.386700  0.697060  1.0  0.1856
  C  C1031  1  0.965850  0.352880  0.733850  1.0  -0.0524
  C  C1032  1  0.269890  0.111920  0.729670  1.0  -0.0878
  C  C1033  1  0.120870  0.262510  0.274410  1.0  -0.0841
  C  C1034  1  0.021120  0.482790  0.644260  1.0  -0.0119
  C  C1035  1  0.938000  0.429620  0.286880  1.0  0.0037
  C  C1036  1  0.709740  0.939350  0.965580  1.0  -0.0406
  C  C1037  1  0.761660  0.028340  0.262230  1.0  -0.0308
  C  C1038  1  0.030730  0.762130  0.310770  1.0  0.0641
  C  C1039  1  0.950000  0.452740  0.789290  1.0  0.0012
  C  C1040  1  0.000420  0.943990  0.287080  1.0  0.269
  C  C1041  1  0.020160  0.318320  0.298910  1.0  0.219
  C  C1042  1  0.886990  0.223790  0.771410  1.0  -0.1189
  C  C1043  1  0.215700  0.488650  0.591840  1.0  0.2711
  C  C1044  1  0.838750  0.376370  0.948770  1.0  0.0335
  C  C1045  1  0.335810  0.549420  0.713570  1.0  -0.0976
  C  C1046  1  0.804880  0.037060  0.057370  1.0  -0.0951
  C  C1047  1  0.060550  0.839070  0.175710  1.0  0.003
  C  C1048  1  0.756180  0.926230  0.256480  1.0  -0.0726
  C  C1049  1  0.534630  0.345500  0.303380  1.0  -0.1007
  C  C1050  1  0.740360  0.874430  0.733780  1.0  -0.1155
  C  C1051  1  0.646040  0.879810  0.011090  1.0  0.0674
  C  C1052  1  0.534100  0.814960  0.793420  1.0  0.2063
  C  C1053  1  0.630750  0.468780  0.442100  1.0  -0.0244
  C  C1054  1  0.230880  0.888410  0.660250  1.0  -0.0123
  C  C1055  1  0.227040  0.976210  0.750810  1.0  0.0028
  C  C1056  1  0.026400  0.294580  0.320970  1.0  -0.0436
  C  C1057  1  0.302800  0.046140  0.561370  1.0  -0.0774
  C  C1058  1  0.731460  0.956080  0.947560  1.0  0.0363
  C  C1059  1  0.207980  0.955900  0.614010  1.0  -0.1405
  C  C1060  1  0.750340  0.924140  0.763000  1.0  -0.0512
  C  C1061  1  0.270950  0.079260  0.728140  1.0  -0.0805
  C  C1062  1  0.259170  0.323630  0.514940  1.0  -0.0472
  C  C1063  1  0.280080  0.526540  0.572380  1.0  -0.0707
  C  C1064  1  0.739890  0.925320  0.154040  1.0  -0.0026
  C  C1065  1  0.723260  0.009130  0.754280  1.0  -0.0709
  C  C1066  1  0.489940  0.388850  0.660610  1.0  -0.0077
  C  C1067  1  0.754870  0.740620  0.837450  1.0  0.5086
  C  C1068  1  0.243820  0.960140  0.977440  1.0  0.0951
  C  C1069  1  0.233650  0.265530  0.622270  1.0  -0.0805
  C  C1070  1  0.334290  0.029140  0.628990  1.0  0.015
  C  C1071  1  0.314240  0.348380  0.988930  1.0  -0.1103
  C  C1072  1  0.618730  0.721150  0.243490  1.0  -0.0626
  C  C1073  1  0.030280  0.261360  0.808540  1.0  0.0726
  C  C1074  1  0.286250  0.749750  0.491550  1.0  -0.0135
  C  C1075  1  0.666230  0.968890  0.113330  1.0  -0.0536
  C  C1076  1  0.990820  0.431850  0.284510  1.0  0.3102
  C  C1077  1  0.695230  0.033780  0.576700  1.0  0.027
  C  C1078  1  0.277690  0.077080  0.058280  1.0  0.1645
  C  C1079  1  0.688750  0.809100  0.503970  1.0  -0.0993
  C  C1080  1  0.021580  0.957010  0.788000  1.0  0.1844
  C  C1081  1  0.646560  0.997750  0.688700  1.0  -0.0943
  C  C1082  1  0.465420  0.776900  0.156500  1.0  0.2107
  C  C1083  1  0.695450  0.958670  0.746310  1.0  0.0258
  C  C1084  1  0.585000  0.362990  0.765010  1.0  -0.0061
  C  C1085  1  0.834950  0.558440  0.178910  1.0  0.1636
  C  C1086  1  0.888760  0.078900  0.690240  1.0  -0.0291
  C  C1087  1  0.982320  0.384700  0.165320  1.0  0.0518
  C  C1088  1  0.780160  0.394050  0.434270  1.0  0.2165
  C  C1089  1  0.753730  0.163420  0.260260  1.0  0.71
  C  C1090  1  0.034930  0.348650  0.802100  1.0  -0.1085
  C  C1091  1  0.226340  0.243580  0.019490  1.0  -0.0157
  C  C1092  1  0.006170  0.291500  0.183560  1.0  -0.1042
  C  C1093  1  0.550630  0.835020  0.207500  1.0  -0.0271
  C  C1094  1  0.528180  0.942810  0.763810  1.0  -0.0263
  C  C1095  1  0.728380  0.263580  0.917320  1.0  -0.0864
  C  C1096  1  0.247160  0.424750  0.756860  1.0  -0.0209
  C  C1097  1  0.009550  0.300770  0.674060  1.0  -0.1023
  C  C1098  1  0.124320  0.789570  0.090740  1.0  -0.0082
  C  C1099  1  0.974540  0.259640  0.693880  1.0  0.0497
  C  C1100  1  0.143630  0.472610  0.948600  1.0  -0.0188
  C  C1101  1  0.550270  0.396130  0.787510  1.0  0.2037
  C  C1102  1  0.230780  0.374280  0.269000  1.0  -0.0882
  C  C1103  1  0.336600  0.875640  0.946720  1.0  0.0423
  C  C1104  1  0.253410  0.740880  0.338930  1.0  0.7297
  C  C1105  1  0.752890  0.657790  0.757670  1.0  0.7243
  C  C1106  1  0.528600  0.478850  0.145600  1.0  -0.0223
  C  C1107  1  0.566450  0.829090  0.405450  1.0  -0.0211
  C  C1108  1  0.311120  0.528690  0.718600  1.0  0.0233
  C  C1109  1  0.793430  0.080270  0.578450  1.0  -0.0683
  C  C1110  1  0.829950  0.029110  0.138540  1.0  -0.0271
  C  C1111  1  0.233120  0.415990  0.518480  1.0  -0.0995
  C  C1112  1  0.762830  0.023130  0.579030  1.0  -0.1528
  C  C1113  1  0.766940  0.407640  0.280620  1.0  -0.1251
  C  C1114  1  0.506970  0.420380  0.313380  1.0  -0.0116
  C  C1115  1  0.985340  0.776210  0.680450  1.0  -0.0529
  C  C1116  1  0.171950  0.945190  0.183930  1.0  -0.1129
  C  C1117  1  0.235970  0.996460  0.542510  1.0  0.0452
  C  C1118  1  0.734380  0.227560  0.389370  1.0  -0.084
  C  C1119  1  0.821160  0.065340  0.625250  1.0  0.0288
  C  C1120  1  0.220080  0.995190  0.081260  1.0  0.2792
  C  C1121  1  0.493320  0.903900  0.719620  1.0  -0.1137
  C  C1122  1  0.306980  0.542450  0.073250  1.0  -0.0914
  C  C1123  1  0.187360  0.309990  0.499960  1.0  -0.0913
  C  C1124  1  0.570220  0.241730  0.756330  1.0  0.0476
  C  C1125  1  0.155650  0.802620  0.050090  1.0  0.2609
  C  C1126  1  0.309210  0.001960  0.466650  1.0  0.0033
  C  C1127  1  0.056230  0.938060  0.278880  1.0  -0.1057
  C  C1128  1  0.322520  0.929720  0.956460  1.0  0.1662
  C  C1129  1  0.587200  0.764250  0.280300  1.0  -0.0861
  C  C1130  1  0.223630  0.248930  0.486220  1.0  -0.0449
  C  C1131  1  0.748990  0.525630  0.261920  1.0  0.0455
  C  C1132  1  0.155980  0.496700  0.670190  1.0  -0.1383
  C  C1133  1  0.483430  0.273380  0.679260  1.0  -0.0244
  C  C1134  1  0.768380  0.374950  0.279240  1.0  -0.0826
  C  C1135  1  0.003600  0.927770  0.315720  1.0  -0.1177
  C  C1136  1  0.417290  0.765780  0.738160  1.0  -0.1461
  C  C1137  1  0.151880  0.453760  0.211280  1.0  0.1819
  C  C1138  1  0.350020  0.300910  0.963480  1.0  -0.0289
  C  C1139  1  0.848280  0.303270  0.463210  1.0  -0.0817
  C  C1140  1  0.044750  0.913970  0.759470  1.0  -0.1729
  C  C1141  1  0.486230  0.249690  0.222340  1.0  -0.0734
  C  C1142  1  0.538530  0.301400  0.849430  1.0  -0.0623
  C  C1143  1  0.674430  0.346190  0.995520  1.0  0.2219
  C  C1144  1  0.660520  0.455500  0.103960  1.0  0.0022
  C  C1145  1  0.438280  0.868060  0.222580  1.0  0.0156
  C  C1146  1  0.468180  0.279220  0.650660  1.0  0.1995
  C  C1147  1  0.803810  0.494160  0.583400  1.0  0.1708
  C  C1148  1  0.871400  0.594660  0.191820  1.0  -0.0196
  C  C1149  1  0.776140  0.538010  0.542450  1.0  0.1966
  C  C1150  1  0.340130  0.048630  0.209460  1.0  -0.077
  C  C1151  1  0.719120  0.476810  0.257420  1.0  -0.0356
  C  C1152  1  0.252440  0.243580  0.436250  1.0  0.0178
  C  C1153  1  0.786200  0.505540  0.748070  1.0  -0.0059
  C  C1154  1  0.550830  0.336440  0.706680  1.0  -0.0248
  C  C1155  1  0.256870  0.523810  0.253970  1.0  0.0173
  C  C1156  1  0.245880  0.905960  0.229510  1.0  -0.1135
  C  C1157  1  0.677930  0.947340  0.965810  1.0  0.162
  C  C1158  1  0.981980  0.782560  0.174510  1.0  0.0452
  C  C1159  1  0.157260  0.352770  0.521240  1.0  -0.0013
  C  C1160  1  0.788370  0.021780  0.693350  1.0  0.1999
  C  C1161  1  0.504830  0.295350  0.690640  1.0  -0.1562
  C  C1162  1  0.019790  0.349530  0.309060  1.0  -0.1584
  C  C1163  1  0.181030  0.453330  0.103980  1.0  0.0128
  C  C1164  1  0.232180  0.763420  0.885420  1.0  -0.0864
  C  C1165  1  0.224860  0.536440  0.558910  1.0  0.0166
  C  C1166  1  0.500090  0.496830  0.812530  1.0  -0.0502
  C  C1167  1  0.717190  0.047060  0.556180  1.0  0.0307
  C  C1168  1  0.752550  0.742060  0.374270  1.0  0.0175
  C  C1169  1  0.111740  0.411160  0.800190  1.0  -0.0107
  C  C1170  1  0.418900  0.720090  0.770640  1.0  -0.1323
  C  C1171  1  0.167780  0.469400  0.717740  1.0  -0.0028
  C  C1172  1  0.982780  0.842280  0.147980  1.0  0.0099
  C  C1173  1  0.776160  0.264750  0.386940  1.0  -0.0759
  C  C1174  1  0.537980  0.805300  0.353180  1.0  -0.0682
  C  C1175  1  0.174690  0.832520  0.495500  1.0  0.2076
  C  C1176  1  0.813140  0.518880  0.734970  1.0  0.0647
  C  C1177  1  0.124290  0.965330  0.544730  1.0  -0.0171
  C  C1178  1  0.750940  0.738210  0.675070  1.0  0.7373
  C  C1179  1  0.238080  0.605670  0.281400  1.0  -0.0722
  C  C1180  1  0.831370  0.345160  0.956290  1.0  -0.011
  C  C1181  1  0.681450  0.802180  0.998320  1.0  -0.0596
  C  C1182  1  0.251660  0.241550  0.172410  1.0  0.7223
  C  C1183  1  0.235760  0.224140  0.919750  1.0  -0.1199
  C  C1184  1  0.202330  0.432340  0.197700  1.0  -0.0793
  C  C1185  1  0.695290  0.763130  0.537480  1.0  0.0861
  C  C1186  1  0.233870  0.875430  0.769550  1.0  -0.0801
  C  C1187  1  0.586310  0.231160  0.279510  1.0  -0.116
  C  C1188  1  0.036320  0.974190  0.639010  1.0  -0.0266
  C  C1189  1  0.656920  0.998580  0.617100  1.0  -0.0505
  C  C1190  1  0.758570  0.552020  0.061900  1.0  0.1719
  C  C1191  1  0.222740  0.975990  0.244520  1.0  -0.0582
  C  C1192  1  0.328780  0.518750  0.078920  1.0  0.1043
  C  C1193  1  0.304680  0.317300  0.993450  1.0  0.2173
  C  C1194  1  0.269730  0.576510  0.232890  1.0  -0.1019
  C  C1195  1  0.256380  0.743950  0.540440  1.0  -0.0224
  C  C1196  1  0.335110  0.741330  0.755500  1.0  0.7322
  C  C1197  1  0.481110  0.372090  0.139930  1.0  0.0424
  C  C1198  1  0.783660  0.245490  0.523450  1.0  -0.0764
  C  C1199  1  0.748960  0.048630  0.563970  1.0  -0.0126
  C  C1200  1  0.720470  0.509400  0.261030  1.0  -0.0298
  C  C1201  1  0.326380  0.490090  0.063160  1.0  0.1872
  C  C1202  1  0.250490  0.740730  0.071670  1.0  -0.0883
  C  C1203  1  0.276310  0.235810  0.521200  1.0  -0.0445
  C  C1204  1  0.034470  0.331700  0.740990  1.0  -0.0691
  C  C1205  1  0.383020  0.262380  0.233970  1.0  -0.0855
  C  C1206  1  0.399320  0.823160  0.429420  1.0  -0.0102
  C  C1207  1  0.569150  0.742690  0.263060  1.0  0.0475
  C  C1208  1  0.274210  0.224540  0.386500  1.0  -0.0725
  C  C1209  1  0.808190  0.746180  0.482740  1.0  0.0636
  C  C1210  1  0.506630  0.433220  0.705830  1.0  -0.0174
  C  C1211  1  0.231150  0.577320  0.735240  1.0  -0.0653
  C  C1212  1  0.228370  0.886060  0.553930  1.0  -0.0404
  C  C1213  1  0.749550  0.247850  0.969130  1.0  -0.0774
  C  C1214  1  0.346530  0.374260  0.457770  1.0  0.0237
  C  C1215  1  0.611990  0.487040  0.045170  1.0  -0.0279
  C  C1216  1  0.011030  0.330310  0.659760  1.0  0.2206
  C  C1217  1  0.518980  0.951930  0.226950  1.0  0.074
  C  C1218  1  0.086400  0.220860  0.238590  1.0  -0.1315
  C  C1219  1  0.279690  0.740140  0.989230  1.0  -0.0279
  C  C1220  1  0.177570  0.290310  0.524250  1.0  0.0372
  C  C1221  1  0.403170  0.318860  0.932580  1.0  0.0029
  C  C1222  1  0.621550  0.755740  0.732280  1.0  -0.0851
  C  C1223  1  0.774760  0.372240  0.734590  1.0  -0.0851
  C  C1224  1  0.539920  0.800410  0.847890  1.0  -0.0648
  C  C1225  1  0.141520  0.320530  0.032500  1.0  0.0724
  C  C1226  1  0.009580  0.831370  0.163330  1.0  0.2224
  C  C1227  1  0.837180  0.045990  0.708840  1.0  -0.0887
  C  C1228  1  0.071740  0.247040  0.753710  1.0  0.062
  C  C1229  1  0.161070  0.899140  0.507760  1.0  -0.0246
  C  C1230  1  0.306210  0.517080  0.749060  1.0  0.0806
  C  C1231  1  0.638950  0.371520  0.507870  1.0  0.0563
  C  C1232  1  0.481710  0.771800  0.184670  1.0  -0.0567
  C  C1233  1  0.619190  0.229950  0.280020  1.0  -0.045
  C  C1234  1  0.005890  0.434530  0.180650  1.0  0.1933
  C  C1235  1  0.736270  0.415310  0.651750  1.0  -0.0004
  C  C1236  1  0.699790  0.897460  0.003210  1.0  0.2199
  C  C1237  1  0.012150  0.847580  0.812590  1.0  -0.1166
  C  C1238  1  0.802900  0.056890  0.599260  1.0  -0.0377
  C  C1239  1  0.537280  0.353180  0.335040  1.0  0.0387
  C  C1240  1  0.820890  0.294480  0.478810  1.0  0.0107
  C  C1241  1  0.040540  0.803430  0.850210  1.0  -0.0563
  C  C1242  1  0.024420  0.414110  0.327220  1.0  0.0829
  C  C1243  1  0.775240  0.730930  0.525340  1.0  -0.0553
  C  C1244  1  0.035960  0.242310  0.258080  1.0  -0.0167
  C  C1245  1  0.031860  0.413120  0.821660  1.0  0.092
  C  C1246  1  0.670540  0.243830  0.257090  1.0  0.7177
  C  C1247  1  0.796920  0.308310  0.983700  1.0  0.1993
  C  C1248  1  0.801110  0.989570  0.087720  1.0  0.1874
  C  C1249  1  0.053100  0.839590  0.706550  1.0  -0.027
  C  C1250  1  0.271120  0.415320  0.456190  1.0  -0.1184
  C  C1251  1  0.759240  0.557500  0.758860  1.0  -0.0134
  C  C1252  1  0.645890  0.833100  0.042870  1.0  0.1133
  C  C1253  1  0.984490  0.896100  0.168180  1.0  -0.0025
  C  C1254  1  0.227770  0.383640  0.059160  1.0  -0.0361
  C  C1255  1  0.685970  0.451280  0.725800  1.0  -0.0109
  C  C1256  1  0.596900  0.408700  0.202670  1.0  -0.0167
  C  C1257  1  0.007200  0.798060  0.691220  1.0  -0.1494
  C  C1258  1  0.059080  0.920120  0.306450  1.0  0.1711
  C  C1259  1  0.202940  0.349630  0.452260  1.0  -0.0203
  C  C1260  1  0.757630  0.941400  0.934550  1.0  -0.014
  C  C1261  1  0.274090  0.505700  0.046090  1.0  0.024
  C  C1262  1  0.887170  0.724050  0.275140  1.0  -0.1047
  C  C1263  1  0.509390  0.324290  0.675900  1.0  0.2097
  C  C1264  1  0.945040  0.350910  0.231210  1.0  -0.0283
  C  C1265  1  0.262770  0.412670  0.948460  1.0  -0.1689
  C  C1266  1  0.987180  0.745400  0.280970  1.0  -0.0664
  C  C1267  1  0.528140  0.940060  0.256120  1.0  -0.0413
  C  C1268  1  0.730140  0.225240  0.621900  1.0  -0.0723
  C  C1269  1  0.991530  0.835000  0.651460  1.0  -0.0039
  C  C1270  1  0.791340  0.036540  0.664330  1.0  -0.1249
  C  C1271  1  0.937330  0.745840  0.253210  1.0  -0.0769
  C  C1272  1  0.028300  0.942230  0.759470  1.0  -0.0343
  C  C1273  1  0.151810  0.494510  0.576000  1.0  0.1659
  C  C1274  1  0.405890  0.048310  0.665700  1.0  -0.0166
  C  C1275  1  0.343790  0.387500  0.960850  1.0  0.0366
  C  C1276  1  0.639550  0.451100  0.128810  1.0  0.0666
  C  C1277  1  0.087650  0.730920  0.280390  1.0  -0.125
  C  C1278  1  0.561230  0.335560  0.176390  1.0  0.0028
  C  C1279  1  0.056220  0.331220  0.188610  1.0  0.0009
  C  C1280  1  0.011710  0.816260  0.803000  1.0  0.2057
  C  C1281  1  0.086320  0.865580  0.764160  1.0  -0.0053
  C  C1282  1  0.488660  0.829200  0.153040  1.0  -0.0129
  C  C1283  1  0.251540  0.912760  0.440280  1.0  -0.1762
  C  C1284  1  0.784080  0.749400  0.994250  1.0  -0.0527
  C  C1285  1  0.225120  0.957430  0.462020  1.0  0.0359
  C  C1286  1  0.031960  0.913860  0.323890  1.0  0.0991
  C  C1287  1  0.783620  0.734130  0.889740  1.0  -0.1115
  C  C1288  1  0.809560  0.525410  0.218540  1.0  0.0566
  C  C1289  1  0.764250  0.715590  0.591660  1.0  -0.1202
  C  C1290  1  0.762420  0.415630  0.946750  1.0  -0.1152
  C  C1291  1  0.759210  0.004040  0.051770  1.0  -0.0061
  C  C1292  1  0.749940  0.357920  0.258100  1.0  -0.0018
  C  C1293  1  0.741240  0.573900  0.781210  1.0  -0.12
  C  C1294  1  0.493560  0.920370  0.656810  1.0  -0.0991
  C  C1295  1  0.274930  0.451930  0.121650  1.0  -0.0601
  C  C1296  1  0.778590  0.736660  0.493130  1.0  0.0164
  C  C1297  1  0.072790  0.744100  0.757130  1.0  0.0481
  C  C1298  1  0.672030  0.905140  0.517240  1.0  0.0106
  C  C1299  1  0.588820  0.756570  0.732300  1.0  -0.0947
  C  C1300  1  0.730260  0.076210  0.737720  1.0  -0.0809
  C  C1301  1  0.258890  0.087610  0.540290  1.0  -0.0319
  C  C1302  1  0.867260  0.244960  0.254940  1.0  0.0221
  C  C1303  1  0.785380  0.250440  0.490980  1.0  -0.0209
  C  C1304  1  0.254510  0.741680  0.674090  1.0  0.7269
  C  C1305  1  0.588140  0.259750  0.231360  1.0  -0.1099
  C  C1306  1  0.314290  0.761880  0.480230  1.0  0.0938
  C  C1307  1  0.993790  0.926370  0.160190  1.0  -0.0986
  C  C1308  1  0.173070  0.743190  0.754920  1.0  0.7237
  C  C1309  1  0.816990  0.894450  0.450290  1.0  -0.0284
  C  C1310  1  0.659390  0.466630  0.580530  1.0  0.1869
  C  C1311  1  0.669020  0.442720  0.467590  1.0  0.1727
  C  C1312  1  0.333250  0.241580  0.752960  1.0  0.6922
  C  C1313  1  0.521010  0.744170  0.726890  1.0  -0.0925
  C  C1314  1  0.723990  0.455630  0.457430  1.0  0.067
  C  C1315  1  0.255070  0.741810  0.640920  1.0  0.0048
  C  C1316  1  0.253050  0.738270  0.175290  1.0  0.5059
  C  C1317  1  0.805530  0.338870  0.975280  1.0  -0.1348
  C  C1318  1  0.266460  0.715440  0.122480  1.0  -0.1142
  C  C1319  1  0.962730  0.854480  0.236770  1.0  -0.0499
  C  C1320  1  0.001760  0.998640  0.813730  1.0  -0.0473
  C  C1321  1  0.522320  0.956350  0.284050  1.0  0.1674
  C  C1322  1  0.755500  0.745840  0.939760  1.0  -0.0382
  C  C1323  1  0.460040  0.851590  0.735170  1.0  -0.0348
  C  C1324  1  0.268540  0.608980  0.234550  1.0  -0.0798
  C  C1325  1  0.976260  0.750740  0.699220  1.0  0.066
  C  C1326  1  0.153330  0.300470  0.544150  1.0  0.3234
  C  C1327  1  0.356670  0.317930  0.453350  1.0  0.167
  C  C1328  1  0.824510  0.430460  0.958640  1.0  0.1368
  C  C1329  1  0.483300  0.890680  0.665620  1.0  0.0155
  C  C1330  1  0.233780  0.908240  0.767420  1.0  -0.101
  C  C1331  1  0.035570  0.857660  0.335950  1.0  0.0382
  C  C1332  1  0.736180  0.910440  0.276880  1.0  -0.1033
  C  C1333  1  0.537350  0.743830  0.755580  1.0  0.0211
  C  C1334  1  0.277040  0.873240  0.733970  1.0  -0.0869
  C  C1335  1  0.346410  0.062270  0.179840  1.0  0.16
  C  C1336  1  0.298030  0.807330  0.984870  1.0  0.2077
  C  C1337  1  0.721680  0.257050  0.018790  1.0  0.02
  C  C1338  1  0.482630  0.385310  0.195610  1.0  0.1948
  C  C1339  1  0.227980  0.443400  0.501380  1.0  -0.0252
  C  C1340  1  0.305930  0.848630  0.480370  1.0  -0.1461
  C  C1341  1  0.773920  0.575940  0.735880  1.0  -0.0896
  C  C1342  1  0.656800  0.927040  0.981480  1.0  -0.1327
  C  C1343  1  0.231660  0.610170  0.735680  1.0  -0.0689
  C  C1344  1  0.325000  0.399130  0.457530  1.0  -0.0141
  C  C1345  1  0.139930  0.743720  0.755210  1.0  0.0188
  C  C1346  1  0.652170  0.799150  0.545940  1.0  0.2586
  C  C1347  1  0.667680  0.469200  0.612150  1.0  -0.0619
  C  C1348  1  0.438520  0.367740  0.721760  1.0  0.0135
  C  C1349  1  0.674430  0.330330  0.490690  1.0  0.1999
  C  C1350  1  0.346970  0.031790  0.684250  1.0  -0.0849
  C  C1351  1  0.647840  0.420660  0.480700  1.0  -0.1066
  C  C1352  1  0.034190  0.818040  0.294350  1.0  0.2176
  C  C1353  1  0.253940  0.243650  0.037770  1.0  -0.0158
  C  C1354  1  0.017340  0.250950  0.284400  1.0  -0.0137
  C  C1355  1  0.800810  0.020100  0.150130  1.0  -0.1569
  C  C1356  1  0.488190  0.746920  0.725370  1.0  0.021
  C  C1357  1  0.503940  0.436080  0.284440  1.0  0.2836
  C  C1358  1  0.839540  0.870570  0.451310  1.0  0.0288
  C  C1359  1  0.730360  0.374980  0.238060  1.0  -0.071
  C  C1360  1  0.793330  0.509400  0.194720  1.0  0.2033
  C  C1361  1  0.349420  0.819980  0.945020  1.0  0.1692
  C  C1362  1  0.807930  0.407170  0.445850  1.0  -0.056
  C  C1363  1  0.156450  0.341590  0.012540  1.0  -0.024
  C  C1364  1  0.990050  0.741460  0.727510  1.0  0.0056
  C  C1365  1  0.034740  0.356870  0.833760  1.0  0.0291
  C  C1366  1  0.158420  0.445500  0.126710  1.0  0.042
  C  C1367  1  0.268790  0.127790  0.045770  1.0  -0.0044
  C  C1368  1  0.752530  0.441630  0.449400  1.0  -0.0538
  C  C1369  1  0.526350  0.258390  0.308870  1.0  0.0677
  C  C1370  1  0.001840  0.443420  0.783770  1.0  0.2763
  C  C1371  1  0.723350  0.385530  0.550450  1.0  -0.011
  C  C1372  1  0.187080  0.972440  0.555520  1.0  -0.0348
  C  C1373  1  0.240740  0.878120  0.060450  1.0  -0.0041
  C  C1374  1  0.747610  0.244170  0.070550  1.0  -0.081
  C  C1375  1  0.149680  0.444150  0.707180  1.0  -0.0736
  C  C1376  1  0.655020  0.987270  0.469400  1.0  -0.0313
  C  C1377  1  0.640660  0.830120  0.542110  1.0  -0.1077
  C  C1378  1  0.418030  0.223150  0.731130  1.0  -0.1063
  C  C1379  1  0.834150  0.388290  0.451590  1.0  0.0286
  C  C1380  1  0.720100  0.941250  0.491460  1.0  -0.0399
  C  C1381  1  0.616940  0.787940  0.583800  1.0  -0.0226
  C  C1382  1  0.776650  0.507340  0.262510  1.0  0.0379
  C  C1383  1  0.639500  0.980060  0.950090  1.0  -0.0254
  C  C1384  1  0.136210  0.444250  0.676810  1.0  0.1951
  C  C1385  1  0.195730  0.467520  0.243310  1.0  0.0429
  C  C1386  1  0.254580  0.856070  0.258200  1.0  -0.0612
  C  C1387  1  0.803290  0.517420  0.648640  1.0  -0.1464
  C  C1388  1  0.648610  0.882850  0.522910  1.0  0.0542
  C  C1389  1  0.434500  0.739610  0.260050  1.0  0.0492
  C  C1390  1  0.272850  0.264550  0.885130  1.0  -0.0803
  C  C1391  1  0.750110  0.626260  0.261890  1.0  0.0103
  C  C1392  1  0.368280  0.741820  0.755240  1.0  0.0022
  C  C1393  1  0.175630  0.965430  0.209250  1.0  0.0264
  C  C1394  1  0.295340  0.020880  0.188530  1.0  0.1848
  C  C1395  1  0.508770  0.816520  0.305790  1.0  0.2092
  C  C1396  1  0.784970  0.977220  0.249130  1.0  0.0264
  C  C1397  1  0.219700  0.476790  0.747440  1.0  -0.043
  C  C1398  1  0.328230  0.979810  0.093700  1.0  -0.0071
  C  C1399  1  0.724690  0.507940  0.054540  1.0  0.026
  C  C1400  1  0.416840  0.758060  0.280830  1.0  -0.1044
  C  C1401  1  0.754950  0.243950  0.539470  1.0  -0.0233
  C  C1402  1  0.254820  0.823890  0.753630  1.0  0.7144
  C  C1403  1  0.680220  0.789920  0.028690  1.0  0.0504
  C  C1404  1  0.974160  0.378820  0.196600  1.0  0.1933
  C  C1405  1  0.797630  0.510230  0.680060  1.0  0.2429
  C  C1406  1  0.385210  0.223550  0.730900  1.0  -0.0708
  C  C1407  1  0.824610  0.924810  0.459860  1.0  0.2014
  C  C1408  1  0.021850  0.748990  0.226620  1.0  -0.0874
  C  C1409  1  0.409750  0.540130  0.174310  1.0  -0.0167
  C  C1410  1  0.734260  0.761980  0.625770  1.0  -0.0922
  C  C1411  1  0.772850  0.608930  0.277990  1.0  -0.0676
  C  C1412  1  0.259930  0.914110  0.949010  1.0  -0.1192
  C  C1413  1  0.435090  0.742930  0.753560  1.0  0.0151
  C  C1414  1  0.850560  0.827540  0.939900  1.0  0.1735
  C  C1415  1  0.749860  0.243510  0.139600  1.0  -0.0879
  C  C1416  1  0.557610  0.934500  0.774980  1.0  -0.0993
  C  C1417  1  0.978480  0.361570  0.142380  1.0  0.0357
  C  C1418  1  0.977970  0.889790  0.691340  1.0  0.1948
  C  C1419  1  0.468980  0.239650  0.754040  1.0  0.0075
  C  C1420  1  0.806560  0.349130  0.481790  1.0  -0.1449
  C  C1421  1  0.719970  0.448170  0.989600  1.0  -0.0024
  C  C1422  1  0.753670  0.912390  0.920060  1.0  -0.1717
  C  C1423  1  0.496030  0.404130  0.218930  1.0  -0.1233
  C  C1424  1  0.435630  0.262040  0.612580  1.0  -0.0185
  C  C1425  1  0.022170  0.248780  0.724040  1.0  -0.0686
  C  C1426  1  0.731890  0.761220  0.391030  1.0  -0.0852
  C  C1427  1  0.585950  0.721600  0.244080  1.0  -0.1128
  C  C1428  1  0.007070  0.937260  0.214360  1.0  -0.0312
  C  C1429  1  0.160930  0.550340  0.703520  1.0  -0.0332
  C  C1430  1  0.254590  0.742020  0.372020  1.0  -0.0566
  C  C1431  1  0.736450  0.876780  0.560590  1.0  0.0097
  C  C1432  1  0.914770  0.277830  0.624260  1.0  -0.0085
  C  C1433  1  0.748910  0.959280  0.764210  1.0  -0.0412
  C  C1434  1  0.799070  0.802950  0.488580  1.0  0.2018
  C  C1435  1  0.752870  0.355660  0.752630  1.0  0.0156
  C  C1436  1  0.163280  0.436950  0.158020  1.0  0.0147
  C  C1437  1  0.032880  0.762940  0.811840  1.0  0.0848
  C  C1438  1  0.275650  0.259160  0.089590  1.0  -0.1208
  C  C1439  1  0.776330  0.257040  0.623750  1.0  -0.0875
  C  C1440  1  0.320740  0.574360  0.631530  1.0  0.0789
  C  C1441  1  0.353550  0.834630  0.453390  1.0  0.1927
  C  C1442  1  0.034440  0.849420  0.304360  1.0  -0.1137
  C  C1443  1  0.753320  0.742070  0.076020  1.0  -0.0985
  C  C1444  1  0.252610  0.626810  0.754800  1.0  -0.0648
  C  C1445  1  0.334500  0.989420  0.976270  1.0  -0.0186
  C  C1446  1  0.027120  0.793840  0.821850  1.0  0.0176
  C  C1447  1  0.762430  0.820770  0.522690  1.0  -0.0509
  C  C1448  1  0.519210  0.736460  0.235350  1.0  -0.0843
  C  C1449  1  0.256440  0.244410  0.970080  1.0  -0.0356
  C  C1450  1  0.854360  0.334910  0.455200  1.0  0.1604
  C  C1451  1  0.792820  0.815100  0.970080  1.0  0.2229
  C  C1452  1  0.309520  0.520530  0.230180  1.0  0.0743
  C  C1453  1  0.200040  0.957760  0.229480  1.0  0.0545
  C  C1454  1  0.224340  0.754270  0.986440  1.0  -0.0829
  C  C1455  1  0.306790  0.519500  0.143050  1.0  -0.1349
  C  C1456  1  0.434310  0.242350  0.250250  1.0  0.0052
  C  C1457  1  0.723670  0.748320  0.490590  1.0  -0.0342
  C  C1458  1  0.764570  0.872120  0.785920  1.0  -0.0931
  C  C1459  1  0.385270  0.220850  0.271450  1.0  -0.074
  C  C1460  1  0.539080  0.329180  0.357260  1.0  0.1886
  C  C1461  1  0.253010  0.660210  0.755190  1.0  0.7146
  C  C1462  1  0.559070  0.833810  0.675130  1.0  -0.0091
  C  C1463  1  0.619540  0.724420  0.780140  1.0  -0.1033
  C  C1464  1  0.771770  0.228120  0.919330  1.0  -0.1182
  C  C1465  1  0.505270  0.924880  0.812370  1.0  -0.1253
  C  C1466  1  0.481660  0.827050  0.261270  1.0  -0.0488
  C  C1467  1  0.729340  0.980920  0.262450  1.0  -0.0005
  C  C1468  1  0.757180  0.961330  0.255630  1.0  -0.0488
  C  C1469  1  0.760250  0.523760  0.758570  1.0  0.0068
  C  C1470  1  0.729050  0.262500  0.884590  1.0  -0.0854
  C  C1471  1  0.273620  0.265310  0.917890  1.0  -0.0844
  C  C1472  1  0.841670  0.057990  0.678140  1.0  0.161
  C  C1473  1  0.740010  0.906950  0.734820  1.0  -0.114
  C  C1474  1  0.320930  0.794120  0.478130  1.0  0.0121
  C  C1475  1  0.689210  0.398120  0.511980  1.0  0.2134
  C  C1476  1  0.282120  0.008270  0.736550  1.0  -0.0245
  C  C1477  1  0.262520  0.824200  0.020520  1.0  -0.0333
  C  C1478  1  0.511660  0.431980  0.211720  1.0  -0.009
  C  C1479  1  0.277360  0.976000  0.263450  1.0  -0.1054
  C  C1480  1  0.481380  0.280910  0.171810  1.0  0.0356
  C  C1481  1  0.754420  0.624660  0.758360  1.0  -0.0621
  C  C1482  1  0.291140  0.983470  0.549210  1.0  -0.1145
  C  C1483  1  0.267360  0.005440  0.544910  1.0  0.0556
  C  C1484  1  0.816490  0.544460  0.155620  1.0  -0.0681
  C  C1485  1  0.120390  0.728640  0.280600  1.0  -0.0529
  C  C1486  1  0.255460  0.924530  0.748650  1.0  0.0091
  C  C1487  1  0.276110  0.732620  0.021020  1.0  -0.0732
  C  C1488  1  0.246400  0.873500  0.229660  1.0  -0.1028
  C  C1489  1  0.638930  0.803660  0.099200  1.0  -0.0169
  C  C1490  1  0.534990  0.471590  0.638380  1.0  -0.025
  C  C1491  1  0.190260  0.804260  0.501640  1.0  -0.0855
  C  C1492  1  0.816150  0.777540  0.476280  1.0  0.0378
  C  C1493  1  0.977640  0.874440  0.144400  1.0  0.0255
  C  C1494  1  0.569900  0.245750  0.254930  1.0  0.0172
  C  C1495  1  0.658520  0.396780  0.500320  1.0  -0.0183
  C  C1496  1  0.869660  0.740390  0.754370  1.0  -0.0936
  C  C1497  1  0.680510  0.017970  0.628870  1.0  -0.1108
  C  C1498  1  0.563360  0.417860  0.307400  1.0  0.2421
  C  C1499  1  0.194980  0.301980  0.000900  1.0  -0.1528
  C  C1500  1  0.774480  0.076610  0.772200  1.0  -0.1069
  C  C1501  1  0.235010  0.467230  0.090060  1.0  0.2252
  C  C1502  1  0.476890  0.386910  0.690710  1.0  0.2031
  C  C1503  1  0.720450  0.915230  0.984940  1.0  -0.1458
  C  C1504  1  0.237490  0.039650  0.047270  1.0  0.0493
  C  C1505  1  0.749600  0.857520  0.887530  1.0  0.0008
  C  C1506  1  0.273950  0.474550  0.763250  1.0  0.0129
  C  C1507  1  0.308650  0.017810  0.244610  1.0  0.0803
  C  C1508  1  0.884590  0.264330  0.275010  1.0  -0.0839
  C  C1509  1  0.250040  0.958990  0.258050  1.0  -0.0339
  C  C1510  1  0.088100  0.231290  0.777550  1.0  -0.118
  C  C1511  1  0.934560  0.244850  0.254360  1.0  0.0298
  C  C1512  1  0.198750  0.838730  0.448680  1.0  -0.0145
  C  C1513  1  0.758960  0.331520  0.520170  1.0  -0.0379
  C  C1514  1  0.035420  0.794150  0.317150  1.0  0.0644
  C  C1515  1  0.002240  0.426230  0.212310  1.0  -0.0199
  C  C1516  1  0.344830  0.484940  0.497420  1.0  -0.0076
  C  C1517  1  0.165960  0.938500  0.010250  1.0  -0.1087
  C  C1518  1  0.034540  0.317270  0.792050  1.0  0.2221
  C  C1519  1  0.260910  0.907660  0.285050  1.0  -0.1136
  C  C1520  1  0.620900  0.259620  0.232530  1.0  -0.0899
  C  C1521  1  0.772480  0.983070  0.073000  1.0  -0.1489
  C  C1522  1  0.252610  0.241890  0.368840  1.0  -0.0698
  C  C1523  1  0.769550  0.443840  0.961720  1.0  -0.0325
  C  C1524  1  0.249010  0.954370  0.099020  1.0  -0.0203
  C  C1525  1  0.513220  0.439510  0.674280  1.0  0.1607
  C  C1526  1  0.245900  0.458460  0.757370  1.0  -0.011
  C  C1527  1  0.814320  0.019300  0.083200  1.0  -0.0335
  C  C1528  1  0.113570  0.508760  0.542400  1.0  -0.0126
  C  C1529  1  0.969080  0.782270  0.652480  1.0  0.2222
  C  C1530  1  0.251720  0.747590  0.969870  1.0  -0.1049
  C  C1531  1  0.702200  0.406070  0.023820  1.0  0.2315
  C  C1532  1  0.033950  0.832500  0.243410  1.0  -0.0817
  C  C1533  1  0.268610  0.045520  0.055990  1.0  -0.0245
  C  C1534  1  0.934140  0.765870  0.616210  1.0  -0.0256
  C  C1535  1  0.089770  0.261600  0.730360  1.0  -0.1048
  C  C1536  1  0.799770  0.844540  0.957440  1.0  -0.1446
  C  C1537  1  0.741310  0.599860  0.047150  1.0  -0.0119
  C  C1538  1  0.673300  0.465550  0.220250  1.0  0.0305
  C  C1539  1  0.780050  0.753560  0.094970  1.0  -0.0933
  C  C1540  1  0.989000  0.752020  0.225020  1.0  0.0077
  C  C1541  1  0.802570  0.512910  0.091590  1.0  0.1789
  C  C1542  1  0.755490  0.742520  0.871810  1.0  -0.0365
  C  C1543  1  0.796140  0.520160  0.163770  1.0  -0.1531
  C  C1544  1  0.252430  0.324170  0.755040  1.0  0.7185
  C  C1545  1  0.346230  0.442000  0.053500  1.0  1e-04
  C  C1546  1  0.268800  0.375290  0.776910  1.0  -0.0892
  C  C1547  1  0.252540  0.241110  0.335510  1.0  0.7184
  C  C1548  1  0.501810  0.940200  0.783260  1.0  0.3156
  C  C1549  1  0.902940  0.054490  0.168000  1.0  -0.0084
  C  C1550  1  0.166430  0.397910  0.005560  1.0  -0.0191
  C  C1551  1  0.700520  0.259990  0.535220  1.0  0.0517
  C  C1552  1  0.018940  0.955050  0.730780  1.0  0.0804
  C  C1553  1  0.652810  0.306380  0.043470  1.0  0.2612
  C  C1554  1  0.469800  0.805720  0.140460  1.0  0.1012
  C  C1555  1  0.143820  0.833700  0.048610  1.0  0.177
  C  C1556  1  0.750790  0.243200  0.174570  1.0  0.567
  C  C1557  1  0.750640  0.243780  0.868490  1.0  -0.0137
  C  C1558  1  0.150530  0.887450  0.030830  1.0  0.0817
  C  C1559  1  0.182110  0.281690  0.023090  1.0  -0.0535
  C  C1560  1  0.038100  0.747730  0.255320  1.0  0.0306
  C  C1561  1  0.619920  0.763600  0.279960  1.0  -0.0797
  C  C1562  1  0.520810  0.246310  0.224460  1.0  -0.0893
  C  C1563  1  0.251760  0.241990  0.139110  1.0  0.0168
  C  C1564  1  0.538170  0.909690  0.313220  1.0  0.007
  C  C1565  1  0.533270  0.387770  0.841220  1.0  0.0248
  C  C1566  1  0.884210  0.225680  0.234420  1.0  -0.0751
  C  C1567  1  0.721500  0.976260  0.756120  1.0  0.0055
  C  C1568  1  0.637220  0.244370  0.256590  1.0  -0.0612
  C  C1569  1  0.195120  0.263860  0.533150  1.0  0.0867
  C  C1570  1  0.050280  0.428870  0.313510  1.0  0.1866
  C  C1571  1  0.220290  0.946130  0.995570  1.0  -0.017
  C  C1572  1  0.699260  0.353550  0.949310  1.0  -0.0304
  C  C1573  1  0.251460  0.559310  0.753670  1.0  0.0401
  C  C1574  1  0.851900  0.814570  0.450260  1.0  0.1645
  C  C1575  1  0.752090  0.240500  0.673040  1.0  0.725
  C  C1576  1  0.774810  0.474750  0.266630  1.0  -0.0399
  C  C1577  1  0.262370  0.873090  0.284980  1.0  -0.0913
  C  C1578  1  0.753510  0.743770  0.042720  1.0  -0.0469
  C  C1579  1  0.527450  0.329830  0.242470  1.0  -0.0758
  C  C1580  1  0.293950  0.019020  0.668760  1.0  0.246
  C  C1581  1  0.231080  0.406600  0.734450  1.0  -0.113
  C  C1582  1  0.219000  0.418000  0.006080  1.0  -0.1451
  C  C1583  1  0.273730  0.075970  0.267060  1.0  -0.1125
  C  C1584  1  0.527150  0.355620  0.837860  1.0  0.0311
  C  C1585  1  0.391440  0.804400  0.916950  1.0  -0.0018
  C  C1586  1  0.314150  0.029400  0.214290  1.0  0.0315
  C  C1587  1  0.653650  0.357710  0.018150  1.0  0.0007
  C  C1588  1  0.038540  0.909580  0.815260  1.0  0.0119
  C  C1589  1  0.315400  0.782350  0.972190  1.0  0.0451
  C  C1590  1  0.784250  0.472560  0.748190  1.0  -0.0087
  C  C1591  1  0.024500  0.954530  0.236190  1.0  0.0528
  C  C1592  1  0.645680  0.941920  0.681110  1.0  0.1773
  C  C1593  1  0.973070  0.811830  0.637770  1.0  0.1247
  C  C1594  1  0.429870  0.759570  0.121270  1.0  -0.0171
  C  C1595  1  0.226300  0.475000  0.252820  1.0  -0.0092
  C  C1596  1  0.543550  0.411480  0.759350  1.0  -0.1747
  C  C1597  1  0.253660  0.243520  0.868850  1.0  -0.065
  C  C1598  1  0.640100  0.041920  0.734250  1.0  -0.0017
  C  C1599  1  0.503730  0.793910  0.194500  1.0  -0.1387
  C  C1600  1  0.333290  0.888020  0.450160  1.0  0.0252
  C  C1601  1  0.007520  0.936180  0.706540  1.0  -0.0121
  C  C1602  1  0.807370  0.833410  0.479470  1.0  -0.1313
  C  C1603  1  0.774760  0.488160  0.569230  1.0  -0.1487
  C  C1604  1  0.731860  0.373260  0.770660  1.0  -0.0766
  C  C1605  1  0.113830  0.396830  0.683220  1.0  0.0048
  C  C1606  1  0.733950  0.012360  0.270360  1.0  -0.0626
  C  C1607  1  0.294610  0.394860  0.445900  1.0  0.1801
  C  C1608  1  0.531700  0.314360  0.293000  1.0  0.229
  C  C1609  1  0.251910  0.159790  0.252290  1.0  0.7186
  C  C1610  1  0.042790  0.321620  0.412380  1.0  -0.0218
  C  C1611  1  0.642030  0.952560  0.193520  1.0  -0.1157
  C  C1612  1  0.641050  0.449100  0.691010  1.0  -0.1079
  C  C1613  1  0.282250  0.247470  0.021410  1.0  -0.0816
  C  C1614  1  0.527120  0.439770  0.758980  1.0  -0.0439
  C  C1615  1  0.781100  0.457280  0.453350  1.0  0.1707
  C  C1616  1  0.832760  0.880940  0.929040  1.0  0.0491
  C  C1617  1  0.744990  0.462010  0.973590  1.0  0.0652
  C  C1618  1  0.388820  0.088440  0.197830  1.0  -0.0131
  C  C1619  1  0.706810  0.005440  0.096470  1.0  0.2045
  C  C1620  1  0.356340  0.034870  0.652590  1.0  0.1671
  C  C1621  1  0.633970  0.442150  0.185180  1.0  0.1939
  C  C1622  1  0.777090  0.583370  0.515280  1.0  0.0011
  C  C1623  1  0.230170  0.745720  0.489780  1.0  -0.0517
  C  C1624  1  0.259160  0.831090  0.519750  1.0  -0.0456
  C  C1625  1  0.223850  0.754990  0.021180  1.0  -0.0888
  C  C1626  1  0.995360  0.413440  0.157260  1.0  0.051
  C  C1627  1  0.984490  0.250260  0.282580  1.0  -0.0513
  C  C1628  1  0.029670  0.389630  0.348210  1.0  0.0395
  C  C1629  1  0.653270  0.451150  0.721860  1.0  0.1873
  C  C1630  1  0.756960  0.355960  0.405660  1.0  -0.0051
  C  C1631  1  0.279460  0.536420  0.056090  1.0  0.1777
  C  C1632  1  0.189420  0.957460  0.996010  1.0  0.1779
  C  C1633  1  0.014360  0.985710  0.147690  1.0  -0.022
  C  C1634  1  0.274560  0.726780  0.887270  1.0  -0.0728
  C  C1635  1  0.138690  0.244550  0.754450  1.0  -0.0032
  C  C1636  1  0.701900  0.767730  0.039990  1.0  0.0519
  C  C1637  1  0.323350  0.023450  0.572700  1.0  0.0739
  C  C1638  1  0.418120  0.221640  0.270190  1.0  -0.1215
  C  C1639  1  0.322110  0.293250  0.978900  1.0  0.0145
  C  C1640  1  0.457320  0.785020  0.652690  1.0  0.3522
  C  C1641  1  0.315800  0.061550  0.097660  1.0  0.0347
  C  C1642  1  0.914040  0.777940  0.127300  1.0  -0.0189
  C  C1643  1  0.733530  0.268530  0.122470  1.0  -0.0658
  C  C1644  1  0.940200  0.869700  0.722570  1.0  0.0194
  C  C1645  1  0.616080  0.414730  0.303330  1.0  0.006
  C  C1646  1  0.318170  0.521270  0.198470  1.0  -0.0161
  C  C1647  1  0.676040  0.838920  0.499070  1.0  0.2157
  C  C1648  1  0.255660  0.059960  0.750110  1.0  0.0064
  C  C1649  1  0.301050  0.035200  0.159530  1.0  -0.133
  C  C1650  1  0.779630  0.500820  0.071150  1.0  -0.0537
  C  C1651  1  0.202330  0.761210  0.537460  1.0  0.0451
  C  C1652  1  0.234640  0.727770  0.423670  1.0  -0.111
  C  C1653  1  0.704930  0.992850  0.066140  1.0  -0.0408
  C  C1654  1  0.971770  0.741470  0.755140  1.0  0.0055
  C  C1655  1  0.026020  0.357960  0.340040  1.0  0.0101
  C  C1656  1  0.222420  0.509640  0.746550  1.0  0.0315
  C  C1657  1  0.854390  0.537880  0.660020  1.0  0.1689
  C  C1658  1  0.104320  0.472190  0.225370  1.0  -0.0144
  C  C1659  1  0.511050  0.328470  0.160670  1.0  0.2305
  C  C1660  1  0.770700  0.112370  0.237230  1.0  -0.0736
  C  C1661  1  0.827390  0.850710  0.941130  1.0  -0.0201
  C  C1662  1  0.536850  0.855390  0.834130  1.0  0.0091
  C  C1663  1  0.291760  0.520130  0.693240  1.0  0.1761
  C  C1664  1  0.619690  0.982840  0.544890  1.0  0.0063
  C  C1665  1  0.535710  0.791500  0.816640  1.0  0.0536
  C  C1666  1  0.263570  0.332190  0.023650  1.0  -0.0548
  C  C1667  1  0.961020  0.320470  0.635680  1.0  0.0898
  C  C1668  1  0.509120  0.314350  0.802590  1.0  0.2102
  C  C1669  1  0.213280  0.919140  0.501530  1.0  -0.1492
  C  C1670  1  0.279440  0.007620  0.255260  1.0  0.0484
  C  C1671  1  0.794910  0.015850  0.182050  1.0  0.2538
  C  C1672  1  0.994630  0.418110  0.314300  1.0  0.0159
  C  C1673  1  0.283140  0.893470  0.938440  1.0  0.1865
  C  C1674  1  0.777140  0.975620  0.767660  1.0  -0.0625
  C  C1675  1  0.727640  0.000360  0.043600  1.0  0.0528
  C  C1676  1  0.638250  0.739740  0.755490  1.0  -0.0956
  C  C1677  1  0.307300  0.907560  0.445680  1.0  -0.0564
  C  C1678  1  0.254320  0.958150  0.745140  1.0  0.023
  C  C1679  1  0.206760  0.510630  0.568850  1.0  -0.0019
  C  C1680  1  0.650080  0.453860  0.635390  1.0  0.0328
  C  C1681  1  0.238090  0.765300  0.123720  1.0  -0.0937
  C  C1682  1  0.730670  0.226560  0.589120  1.0  -0.1029
  C  C1683  1  0.624430  0.942780  0.047300  1.0  -0.0121
  C  C1684  1  0.961140  0.277450  0.152250  1.0  0.3103
  C  C1685  1  0.937400  0.244780  0.749510  1.0  -0.0798
  C  C1686  1  0.450120  0.949060  0.790600  1.0  -0.0012
  C  C1687  1  0.472120  0.308940  0.636260  1.0  -0.109
  C  C1688  1  0.528890  0.763190  0.316910  1.0  0.0803
  C  C1689  1  0.326480  0.055200  0.154670  1.0  -0.0718
  C  C1690  1  0.480460  0.777260  0.674850  1.0  0.0431
  C  C1691  1  0.520100  0.454810  0.787400  1.0  0.165
  C  C1692  1  0.751820  0.159590  0.754610  1.0  0.7126
  C  C1693  1  0.804310  0.545030  0.558780  1.0  -0.0827
  C  C1694  1  0.755940  0.456410  0.753430  1.0  0.0204
  C  C1695  1  0.159270  0.019610  0.073220  1.0  0.167
  C  C1696  1  0.752760  0.743250  0.441190  1.0  0.0221
  C  C1697  1  0.535460  0.742180  0.263490  1.0  -0.0164
  C  C1698  1  0.533750  0.911350  0.820770  1.0  0.0926
  C  C1699  1  0.748070  0.739020  0.575140  1.0  0.0201
  C  C1700  1  0.677990  0.789490  0.527870  1.0  0.0182
  C  C1701  1  0.254220  0.821360  0.257820  1.0  0.5651
  C  C1702  1  0.783340  0.734820  0.922320  1.0  -0.091
  C  C1703  1  0.919690  0.758450  0.778550  1.0  -0.0936
  C  C1704  1  0.885200  0.265720  0.732280  1.0  -0.0884
  C  C1705  1  0.256830  0.990190  0.168350  1.0  -0.0406
  C  C1706  1  0.153010  0.385130  0.525120  1.0  0.0811
  C  C1707  1  0.480200  0.883400  0.697600  1.0  0.1838
  C  C1708  1  0.252390  0.659120  0.259710  1.0  0.707
  C  C1709  1  0.276970  0.506960  0.759490  1.0  0.08
  C  C1710  1  0.485280  0.339830  0.143900  1.0  0.0022
  C  C1711  1  0.252420  0.321390  0.253660  1.0  0.7075
  C  C1712  1  0.987890  0.745640  0.783460  1.0  0.0066
  C  C1713  1  0.229160  0.225880  0.089070  1.0  -0.1145
  C  C1714  1  0.655600  0.494370  0.965940  1.0  -0.0135
  C  C1715  1  0.826460  0.466070  0.097330  1.0  0.0045
  C  C1716  1  0.458240  0.815110  0.638680  1.0  0.096
  C  C1717  1  0.011320  0.827110  0.676440  1.0  0.2128
  C  C1718  1  0.196340  0.989650  0.103330  1.0  -0.1288
  C  C1719  1  0.972820  0.247350  0.198550  1.0  0.0545
  C  C1720  1  0.774170  0.235080  0.020420  1.0  -0.0795
  C  C1721  1  0.232610  0.726980  0.590460  1.0  -0.1007
  C  C1722  1  0.309010  0.750990  0.979720  1.0  0.0762
  C  C1723  1  0.273370  0.108720  0.268190  1.0  -0.0814
  C  C1724  1  0.233070  0.265890  0.589470  1.0  -0.096
  C  C1725  1  0.733950  0.762740  0.593150  1.0  -0.1162
  C  C1726  1  0.317470  0.280780  0.473790  1.0  0.0461
  C  C1727  1  0.647660  0.390000  0.020210  1.0  0.0406
  C  C1728  1  0.251960  0.126590  0.250850  1.0  -0.047
  C  C1729  1  0.415710  0.263320  0.232910  1.0  -0.1075
  C  C1730  1  0.979240  0.373680  0.641380  1.0  0.0202
  C  C1731  1  0.983510  0.329890  0.149040  1.0  0.0087
  C  C1732  1  0.330290  0.070360  0.125700  1.0  0.0364
  C  C1733  1  0.487250  0.408070  0.713500  1.0  -0.0824
  C  C1734  1  0.769510  0.937570  0.463030  1.0  -0.0367
  C  C1735  1  0.251770  0.243160  0.672220  1.0  0.7191
  C  C1736  1  0.735280  0.380780  0.056630  1.0  -0.0265
  C  C1737  1  0.638540  0.320790  0.533240  1.0  -0.1146
  C  C1738  1  0.189550  0.919700  0.670560  1.0  0.1961
  C  C1739  1  0.758070  0.247060  0.472100  1.0  -0.017
  C  C1740  1  0.671340  0.739060  0.755550  1.0  0.7272
  C  C1741  1  0.751150  0.740180  0.179000  1.0  0.5645
  C  C1742  1  0.125550  0.782950  0.587430  1.0  -0.0147
  C  C1743  1  0.273220  0.608950  0.773170  1.0  -0.0648
  C  C1744  1  0.686800  0.957440  0.228140  1.0  -0.0504
  C  C1745  1  0.481380  0.836420  0.647020  1.0  0.0069
  C  C1746  1  0.835820  0.489900  0.979740  1.0  -0.0087
  C  C1747  1  0.192080  0.461580  0.738360  1.0  0.0376
  C  C1748  1  0.311010  0.262380  0.975620  1.0  0.0879
  C  C1749  1  0.400950  0.301570  0.429460  1.0  -0.0067
  C  C1750  1  0.958900  0.790670  0.152420  1.0  0.3486
  C  C1751  1  0.311090  0.336590  0.480850  1.0  -0.1174
  C  C1752  1  0.504110  0.999680  0.308140  1.0  -0.0428
  C  C1753  1  0.755130  0.747470  0.974850  1.0  -0.0456
  C  C1754  1  0.517500  0.977940  0.642510  1.0  -0.014
  C  C1755  1  0.812040  0.762530  0.983450  1.0  0.072
  C  C1756  1  0.537660  0.297700  0.346850  1.0  -0.0753
  C  C1757  1  0.996670  0.425100  0.657290  1.0  -0.1135
  C  C1758  1  0.262460  0.586420  0.059970  1.0  -0.0165
  C  C1759  1  0.208150  0.398520  0.530590  1.0  0.2191
  C  C1760  1  0.774740  0.874470  0.236180  1.0  -0.1024
  C  C1761  1  0.706540  0.482870  0.066070  1.0  0.0673
  C  C1762  1  0.917250  0.766710  0.233930  1.0  -0.079
  C  C1763  1  0.250250  0.525640  0.753650  1.0  0.0898
  C  C1764  1  0.031920  0.334460  0.362170  1.0  0.1877
  C  C1765  1  0.813660  0.934090  0.932100  1.0  -0.0623
  C  C1766  1  0.747140  0.992460  0.676610  1.0  -0.0398
  C  C1767  1  0.348010  0.803040  0.462010  1.0  -0.0844
  C  C1768  1  0.658090  0.938450  0.711600  1.0  -0.1107
  C  C1769  1  0.192100  0.475200  0.610350  1.0  -0.1209
  C  C1770  1  0.253400  0.456780  0.247060  1.0  -0.0138
  C  C1771  1  0.232420  0.373920  0.734410  1.0  -0.0791
  C  C1772  1  0.772800  0.079840  0.237500  1.0  -0.1033
  C  C1773  1  0.038320  0.834120  0.358550  1.0  0.1889
  C  C1774  1  0.917040  0.225710  0.234050  1.0  -0.1335
  C  C1775  1  0.921670  0.725710  0.273870  1.0  -0.1172
  C  C1776  1  0.536310  0.245720  0.253410  1.0  -0.039
  C  C1777  1  0.218750  0.976870  0.562760  1.0  -0.0099
  C  C1778  1  0.715580  0.461350  0.089530  1.0  0.2309
  C  C1779  1  0.146030  0.372740  0.010800  1.0  0.0475
  C  C1780  1  0.701630  0.336170  0.445600  1.0  -0.0236
  C  C1781  1  0.253010  0.356330  0.253010  1.0  -0.1023
  C  C1782  1  0.806850  0.501990  0.464800  1.0  -0.0159
  C  C1783  1  0.090790  0.765420  0.774650  1.0  -0.0802
  C  C1784  1  0.179770  0.444710  0.975190  1.0  0.1647
  C  C1785  1  0.772770  0.576170  0.277560  1.0  -0.0946
  C  C1786  1  0.170470  0.240840  0.254970  1.0  0.7216
  C  C1787  1  0.252570  0.127580  0.752670  1.0  -0.0758
  C  C1788  1  0.962520  0.307500  0.138160  1.0  0.1446
  C  C1789  1  0.211230  0.440080  0.983230  1.0  -0.0181
  C  C1790  1  0.281200  0.975270  0.736710  1.0  -0.0475
  C  C1791  1  0.523930  0.794670  0.325480  1.0  0.0141
  C  C1792  1  0.359470  0.332460  0.959100  1.0  0.1838
  C  C1793  1  0.528370  0.859120  0.338610  1.0  -0.0396
  C  C1794  1  0.791100  0.026490  0.595380  1.0  0.1806
  C  C1795  1  0.119260  0.220340  0.237670  1.0  -0.0704
  C  C1796  1  0.248420  0.242680  0.537610  1.0  -0.0568
  C  C1797  1  0.815480  0.791370  0.968050  1.0  0.0421
  C  C1798  1  0.570820  0.742660  0.756160  1.0  0.0663
  C  C1799  1  0.384150  0.758250  0.279970  1.0  -0.0811
  C  C1800  1  0.730510  0.108990  0.737000  1.0  -0.08
  C  C1801  1  0.729150  0.475110  0.759230  1.0  0.0506
  C  C1802  1  0.661190  0.446960  0.665440  1.0  -0.0165
  C  C1803  1  0.252550  0.738920  0.140420  1.0  -0.0869
  C  C1804  1  0.008140  0.320750  0.168720  1.0  0.2131
  C  C1805  1  0.650380  0.340820  0.510400  1.0  -0.0043
  C  C1806  1  0.751010  0.242550  0.835300  1.0  0.7186
  C  C1807  1  0.278560  0.757800  0.624460  1.0  -0.0782
  C  C1808  1  0.735810  0.228160  0.422120  1.0  -0.116
  C  C1809  1  0.196290  0.967060  0.743530  1.0  0.0496
  C  C1810  1  0.508380  0.299130  0.175250  1.0  -0.1046
  C  C1811  1  0.156820  0.794020  0.546110  1.0  0.2362
  C  C1812  1  0.487690  0.393400  0.164080  1.0  0.0053
  C  C1813  1  0.141480  0.874170  0.516010  1.0  0.0492
  C  C1814  1  0.231060  0.260210  0.385560  1.0  -0.0833
  C  C1815  1  0.039160  0.743500  0.757790  1.0  -0.0141
  C  C1816  1  0.212460  0.457780  0.111830  1.0  -0.1277
  C  C1817  1  0.333720  0.240450  0.253720  1.0  0.7112
  C  C1818  1  0.061990  0.337560  0.672360  1.0  -0.0133
  C  C1819  1  0.278780  0.895310  0.434990  1.0  0.2147
  C  C1820  1  0.122450  0.260850  0.731060  1.0  -0.086
  C  C1821  1  0.688600  0.462920  0.249260  1.0  0.0806
  C  C1822  1  0.651210  0.470260  0.076410  1.0  0.1963
  C  C1823  1  0.754700  0.519390  0.061460  1.0  -0.0282
  C  C1824  1  0.484550  0.239820  0.277750  1.0  -0.0744
  C  C1825  1  0.319340  0.502260  0.974780  1.0  -0.0182
  C  C1826  1  0.309140  0.021910  0.724490  1.0  0.0746
  C  C1827  1  0.752320  0.322460  0.752820  1.0  0.7071
  C  C1828  1  0.779420  0.893480  0.912590  1.0  0.2155
  C  C1829  1  0.069760  0.242040  0.257680  1.0  0.0391
  C  C1830  1  0.831460  0.529790  0.637950  1.0  -0.0598
  O  O1831  1  0.383270  0.324920  0.438740  1.0  -0.214
  O  O1832  1  0.327410  0.516330  0.601940  1.0  -0.2873
  O  O1833  1  0.745530  0.454380  0.093270  1.0  -0.3458
  O  O1834  1  0.453810  0.865270  0.196220  1.0  -0.29
  O  O1835  1  0.684540  0.484680  0.969440  1.0  -0.2801
  O  O1836  1  0.245540  0.480900  0.594790  1.0  -0.3573
  O  O1837  1  0.633250  0.945840  0.076500  1.0  -0.2268
  O  O1838  1  0.234470  0.261860  0.687500  1.0  -0.6245
  O  O1839  1  0.318480  0.258520  0.235830  1.0  -0.6318
  O  O1840  1  0.315420  0.477320  0.492780  1.0  -0.2211
  O  O1841  1  0.271150  0.497150  0.697450  1.0  -0.3259
  O  O1842  1  0.271310  0.674830  0.773600  1.0  -0.6285
  O  O1843  1  0.685690  0.261030  0.238120  1.0  -0.6384
  O  O1844  1  0.476910  0.446410  0.272880  1.0  -0.3041
  O  O1845  1  0.771550  0.805460  0.775570  1.0  -0.6164
  O  O1846  1  0.279270  0.309790  0.009750  1.0  -0.3346
  O  O1847  1  0.866810  0.074100  0.669280  1.0  -0.222
  O  O1848  1  0.273190  0.759210  0.689120  1.0  -0.631
  O  O1849  1  0.733590  0.261850  0.190010  1.0  -0.6151
  O  O1850  1  0.528650  0.465760  0.667850  1.0  -0.2079
  O  O1851  1  0.569140  0.371430  0.789890  1.0  -0.2883
  O  O1852  1  0.683310  0.857010  0.474750  1.0  -0.3313
  O  O1853  1  0.777010  0.309560  0.508680  1.0  -0.3423
  O  O1854  1  0.669290  0.972590  0.949780  1.0  -0.1958
  O  O1855  1  0.507240  0.483130  0.785970  1.0  -0.2149
  O  O1856  1  0.769660  0.674290  0.278820  1.0  -0.6285
  O  O1857  1  0.770610  0.258220  0.688100  1.0  -0.6314
  O  O1858  1  0.032840  0.810100  0.264370  1.0  -0.3442
  O  O1859  1  0.279310  0.867790  0.420330  1.0  -0.3026
  O  O1860  1  0.633140  0.451300  0.573870  1.0  -0.2275
  O  O1861  1  0.273010  0.717940  0.190720  1.0  -0.5966
  O  O1862  1  0.527350  0.307110  0.263110  1.0  -0.3379
  O  O1863  1  0.879390  0.344400  0.439280  1.0  -0.2264
  O  O1864  1  0.318900  0.259980  0.771390  1.0  -0.6298
  O  O1865  1  0.708970  0.878830  0.026480  1.0  -0.3057
  O  O1866  1  0.969220  0.360270  0.704200  1.0  -0.3412
  O  O1867  1  0.754070  0.098280  0.541510  1.0  -0.2211
  O  O1868  1  0.254030  0.742010  0.755070  1.0  -1.2959
  O  O1869  1  0.685810  0.720980  0.774260  1.0  -0.6308
  O  O1870  1  0.143030  0.280420  0.565670  1.0  -0.1999
  O  O1871  1  0.149150  0.774870  0.569480  1.0  -0.1824
  O  O1872  1  0.536200  0.346820  0.162610  1.0  -0.2987
  O  O1873  1  0.187540  0.724410  0.737040  1.0  -0.6364
  O  O1874  1  0.034310  0.850330  0.164380  1.0  -0.2922
  O  O1875  1  0.767130  0.007030  0.192870  1.0  -0.3309
  O  O1876  1  0.880960  0.550040  0.649230  1.0  -0.2386
  O  O1877  1  0.935920  0.770200  0.147420  1.0  -0.2279
  O  O1878  1  0.769320  0.758150  0.194000  1.0  -0.6256
  O  O1879  1  0.265430  0.466850  0.096460  1.0  -0.3441
  O  O1880  1  0.554750  0.849180  0.385370  1.0  -0.2261
  O  O1881  1  0.233930  0.307080  0.271950  1.0  -0.6328
  O  O1882  1  0.191570  0.349690  0.971160  1.0  -0.3056
  O  O1883  1  0.252460  0.057660  0.537910  1.0  -0.2352
  O  O1884  1  0.819610  0.473280  0.600320  1.0  -0.283
  O  O1885  1  0.179770  0.849840  0.470080  1.0  -0.3299
  O  O1886  1  0.768260  0.719010  0.689490  1.0  -0.6308
  O  O1887  1  0.660720  0.465430  0.447990  1.0  -0.1983
  O  O1888  1  0.234280  0.259130  0.320470  1.0  -0.6319
  O  O1889  1  0.652740  0.015060  0.742220  1.0  -0.3285
  O  O1890  1  0.187230  0.757550  0.238080  1.0  -0.6336
  O  O1891  1  0.194030  0.482970  0.484790  1.0  -0.2776
  O  O1892  1  0.781310  0.369790  0.919600  1.0  -0.262
  O  O1893  1  0.765060  0.046460  0.017730  1.0  -0.2138
  O  O1894  1  0.320210  0.759840  0.737730  1.0  -0.6311
  O  O1895  1  0.771960  0.262560  0.322390  1.0  -0.6321
  O  O1896  1  0.020500  0.461350  0.174460  1.0  -0.1913
  O  O1897  1  0.587640  0.905370  0.813220  1.0  -0.2666
  O  O1898  1  0.569470  0.872110  0.288720  1.0  -0.2889
  O  O1899  1  0.762540  0.557150  0.522000  1.0  -0.2124
  O  O1900  1  0.955870  0.868360  0.696170  1.0  -0.3429
  O  O1901  1  0.681240  0.364750  0.971430  1.0  -0.3246
  O  O1902  1  0.770230  0.723000  0.326450  1.0  -0.6334
  O  O1903  1  0.169500  0.524280  0.717450  1.0  -0.2785
  O  O1904  1  0.234900  0.806320  0.236570  1.0  -0.6224
  O  O1905  1  0.349190  0.469290  0.067320  1.0  -0.283
  O  O1906  1  0.636450  0.962530  0.249120  1.0  -0.187
  O  O1907  1  0.770550  0.307200  0.735120  1.0  -0.6305
  O  O1908  1  0.464460  0.857590  0.705350  1.0  -0.3347
  O  O1909  1  0.173110  0.468380  0.956100  1.0  -0.2438
  O  O1910  1  0.637770  0.918090  0.662660  1.0  -0.2288
  O  O1911  1  0.657140  0.790260  0.078400  1.0  -0.1872
  O  O1912  1  0.819300  0.721580  0.278800  1.0  -0.6004
  O  O1913  1  0.609960  0.423300  0.179000  1.0  -0.2227
  O  O1914  1  0.734220  0.757450  0.690200  1.0  -0.6267
  O  O1915  1  0.590510  0.407770  0.318880  1.0  -0.2914
  O  O1916  1  0.021550  0.473530  0.673560  1.0  -0.2035
  O  O1917  1  0.305100  0.980610  0.975140  1.0  -0.1998
  O  O1918  1  0.710690  0.933350  0.148830  1.0  -0.316
  O  O1919  1  0.033470  0.309360  0.762040  1.0  -0.3486
  O  O1920  1  0.531280  0.344750  0.684510  1.0  -0.3345
  O  O1921  1  0.270610  0.306280  0.235750  1.0  -0.6284
  O  O1922  1  0.643130  0.286430  0.065360  1.0  -0.1998
  O  O1923  1  0.201360  0.379970  0.043880  1.0  -0.3253
  O  O1924  1  0.876910  0.821530  0.433030  1.0  -0.2277
  O  O1925  1  0.161660  0.968550  0.456430  1.0  -0.2198
  O  O1926  1  0.320360  0.722660  0.773320  1.0  -0.6301
  O  O1927  1  0.142260  0.270150  0.058850  1.0  -0.2578
  O  O1928  1  0.211630  0.881110  0.051170  1.0  -0.3146
  O  O1929  1  0.541650  0.841880  0.886760  1.0  -0.2251
  O  O1930  1  0.153860  0.006560  0.238100  1.0  -0.2793
  O  O1931  1  0.140850  0.457920  0.067210  1.0  -0.2777
  O  O1932  1  0.777030  0.797100  0.509740  1.0  -0.3562
  O  O1933  1  0.266160  0.513820  0.181660  1.0  -0.3286
  O  O1934  1  0.205130  0.402770  0.149450  1.0  -0.2589
  O  O1935  1  0.464920  0.360340  0.201660  1.0  -0.3342
  O  O1936  1  0.246140  0.978450  0.080100  1.0  -0.3756
  O  O1937  1  0.235310  0.756520  0.190450  1.0  -0.6188
  O  O1938  1  0.780080  0.487540  0.460590  1.0  -0.2297
  O  O1939  1  0.449820  0.256740  0.639320  1.0  -0.1882
  O  O1940  1  0.271840  0.758060  0.323300  1.0  -0.6265
  O  O1941  1  0.273060  0.808290  0.736170  1.0  -0.6247
  O  O1942  1  0.955420  0.354570  0.202500  1.0  -0.3217
  O  O1943  1  0.626380  0.981890  0.574840  1.0  -0.1934
  O  O1944  1  0.270200  0.174030  0.271110  1.0  -0.6307
  O  O1945  1  0.806360  0.002950  0.608970  1.0  -0.2657
  O  O1946  1  0.819150  0.221900  0.774420  1.0  -0.6022
  O  O1947  1  0.233660  0.175190  0.234700  1.0  -0.6346
  O  O1948  1  0.686460  0.756680  0.737260  1.0  -0.638
  O  O1949  1  0.708600  0.427470  0.646190  1.0  -0.3077
  O  O1950  1  0.331610  0.009250  0.101770  1.0  -0.2665
  O  O1951  1  0.777340  0.866330  0.897400  1.0  -0.2544
  O  O1952  1  0.732520  0.721900  0.823370  1.0  -0.6053
  O  O1953  1  0.731510  0.674260  0.244370  1.0  -0.633
  O  O1954  1  0.378260  0.844190  0.437020  1.0  -0.2205
  O  O1955  1  0.940000  0.255800  0.144810  1.0  -0.1852
  O  O1956  1  0.274760  0.300100  0.502930  1.0  -0.3155
  O  O1957  1  0.518470  0.969130  0.671930  1.0  -0.2032
  O  O1958  1  0.434230  0.764570  0.648190  1.0  -0.2202
  O  O1959  1  0.531780  0.806490  0.763620  1.0  -0.34
  O  O1960  1  0.751970  0.241010  0.754120  1.0  -1.3505
  O  O1961  1  0.204270  0.900600  0.650840  1.0  -0.2662
  O  O1962  1  0.454730  0.365560  0.695740  1.0  -0.2743
  O  O1963  1  0.936770  0.269830  0.644160  1.0  -0.2023
  O  O1964  1  0.733130  0.260570  0.819750  1.0  -0.632
  O  O1965  1  0.769770  0.807210  0.240670  1.0  -0.6234
  O  O1966  1  0.273890  0.998630  0.192480  1.0  -0.3402
  O  O1967  1  0.029870  0.968580  0.668510  1.0  -0.2044
  O  O1968  1  0.877380  0.834840  0.925850  1.0  -0.2374
  O  O1969  1  0.825450  0.495990  0.104230  1.0  -0.3032
  O  O1970  1  0.706830  0.384280  0.045630  1.0  -0.3166
  O  O1971  1  0.252480  0.242540  0.753990  1.0  -1.3116
  O  O1972  1  0.774340  0.302210  0.004160  1.0  -0.3411
  O  O1973  1  0.277320  0.809140  0.508380  1.0  -0.3422
  O  O1974  1  0.966850  0.861420  0.207110  1.0  -0.3856
  O  O1975  1  0.819270  0.719220  0.734660  1.0  -0.6081
  O  O1976  1  0.200440  0.881830  0.541830  1.0  -0.3383
  O  O1977  1  0.818940  0.226000  0.238140  1.0  -0.6327
  O  O1978  1  0.708090  0.878500  0.548900  1.0  -0.3004
  O  O1979  1  0.234870  0.224430  0.821090  1.0  -0.6323
  O  O1980  1  0.752770  0.739130  0.756210  1.0  -1.3311
  O  O1981  1  0.389490  0.535180  0.151740  1.0  -0.2144
  O  O1982  1  0.291640  0.369070  0.927190  1.0  -0.3192
  O  O1983  1  0.680820  0.347180  0.465260  1.0  -0.3338
  O  O1984  1  0.270630  0.222590  0.320760  1.0  -0.6298
  O  O1985  1  0.036000  0.348950  0.660600  1.0  -0.2884
  O  O1986  1  0.271290  0.260760  0.820220  1.0  -0.633
  O  O1987  1  0.362130  0.585850  0.678860  1.0  -0.206
  O  O1988  1  0.685200  0.226490  0.276300  1.0  -0.6257
  O  O1989  1  0.781970  0.366340  0.420090  1.0  -0.315
  O  O1990  1  0.819240  0.263110  0.273660  1.0  -0.6321
  O  O1991  1  0.963240  0.437100  0.271040  1.0  -0.2371
  O  O1992  1  0.684020  0.722390  0.243970  1.0  -0.6276
  O  O1993  1  0.008660  0.985300  0.786930  1.0  -0.2181
  O  O1994  1  0.133560  0.959540  0.738100  1.0  -0.2355
  O  O1995  1  0.277630  0.868250  0.920990  1.0  -0.2663
  O  O1996  1  0.185900  0.723600  0.276760  1.0  -0.6311
  O  O1997  1  0.766490  0.000340  0.699170  1.0  -0.3529
  O  O1998  1  0.495160  0.806530  0.279660  1.0  -0.3331
  O  O1999  1  0.184960  0.222700  0.236460  1.0  -0.6349
  O  O2000  1  0.771470  0.178070  0.241570  1.0  -0.6299
  O  O2001  1  0.271530  0.806100  0.276410  1.0  -0.6169
  O  O2002  1  0.271900  0.724500  0.821730  1.0  -0.6369
  O  O2003  1  0.530060  0.962470  0.164080  1.0  -0.2016
  O  O2004  1  0.769830  0.672690  0.738610  1.0  -0.6277
  O  O2005  1  0.805980  0.976030  0.476510  1.0  -0.2164
  O  O2006  1  0.975430  0.455290  0.772240  1.0  -0.2876
  O  O2007  1  0.973530  0.955600  0.276430  1.0  -0.2842
  O  O2008  1  0.818260  0.259540  0.735670  1.0  -0.6197
  O  O2009  1  0.185680  0.360700  0.475090  1.0  -0.3244
  O  O2010  1  0.340800  0.971630  0.573930  1.0  -0.301
  O  O2011  1  0.751370  0.740930  0.260320  1.0  -1.3424
  O  O2012  1  0.635750  0.455260  0.747280  1.0  -0.2241
  O  O2013  1  0.733690  0.307990  0.770940  1.0  -0.6325
  O  O2014  1  0.264290  0.014650  0.677290  1.0  -0.3246
  O  O2015  1  0.234180  0.175410  0.772680  1.0  -0.6276
  O  O2016  1  0.949680  0.760200  0.642100  1.0  -0.1847
  O  O2017  1  0.684110  0.977870  0.472440  1.0  -0.2468
  O  O2018  1  0.235090  0.675470  0.737020  1.0  -0.6329
  O  O2019  1  0.237930  0.598440  0.560790  1.0  -0.2185
  O  O2020  1  0.819840  0.757630  0.772660  1.0  -0.6131
  O  O2021  1  0.806470  0.481540  0.976210  1.0  -0.2132
  O  O2022  1  0.532820  0.844870  0.663620  1.0  -0.2974
  O  O2023  1  0.766680  0.809470  0.985880  1.0  -0.3441
  O  O2024  1  0.188220  0.761550  0.772680  1.0  -0.6386
  O  O2025  1  0.817630  0.759680  0.240600  1.0  -0.6172
  O  O2026  1  0.685670  0.259940  0.771450  1.0  -0.6338
  O  O2027  1  0.733260  0.222770  0.687630  1.0  -0.6331
  O  O2028  1  0.085840  0.406210  0.815950  1.0  -0.2781
  O  O2029  1  0.016210  0.975920  0.176750  1.0  -0.2155
  O  O2030  1  0.769060  0.223720  0.821160  1.0  -0.6296
  O  O2031  1  0.717810  0.059250  0.619880  1.0  -0.3301
  O  O2032  1  0.055670  0.846030  0.884810  1.0  -0.2285
  O  O2033  1  0.235460  0.724150  0.688700  1.0  -0.6324
  O  O2034  1  0.553830  0.344060  0.883980  1.0  -0.2237
  O  O2035  1  0.620660  0.472790  0.070970  1.0  -0.2887
  O  O2036  1  0.269440  0.224230  0.686780  1.0  -0.6332
  O  O2037  1  0.734620  0.672520  0.776100  1.0  -0.6229
  O  O2038  1  0.269320  0.176290  0.735040  1.0  -0.6317
  O  O2039  1  0.385150  0.042820  0.643710  1.0  -0.2086
  O  O2040  1  0.135270  0.955220  0.571560  1.0  -0.2928
  O  O2041  1  0.685300  0.222430  0.736250  1.0  -0.635
  O  O2042  1  0.319150  0.222010  0.272030  1.0  -0.6293
  O  O2043  1  0.876240  0.327680  0.930600  1.0  -0.2268
  O  O2044  1  0.292180  0.488200  0.971950  1.0  -0.2916
  O  O2045  1  0.183630  0.984220  0.981180  1.0  -0.2876
  O  O2046  1  0.017110  0.310300  0.268980  1.0  -0.3461
  O  O2047  1  0.211530  0.375460  0.551270  1.0  -0.3138
  O  O2048  1  0.696200  0.380720  0.536880  1.0  -0.3339
  O  O2049  1  0.129900  0.029390  0.069660  1.0  -0.2143
  O  O2050  1  0.039770  0.843050  0.388380  1.0  -0.216
  O  O2051  1  0.815660  0.969920  0.107040  1.0  -0.2727
  O  O2052  1  0.474850  0.951560  0.772540  1.0  -0.28
  O  O2053  1  0.998990  0.807290  0.776070  1.0  -0.3318
  O  O2054  1  0.370170  0.081680  0.174350  1.0  -0.1966
  O  O2055  1  0.641030  0.779040  0.566940  1.0  -0.2064
  O  O2056  1  0.436150  0.269320  0.143090  1.0  -0.2178
  O  O2057  1  0.236060  0.761580  0.820660  1.0  -0.6321
  O  O2058  1  0.733670  0.174340  0.736270  1.0  -0.6379
  O  O2059  1  0.730350  0.720530  0.194240  1.0  -0.6162
  O  O2060  1  0.185750  0.259070  0.272820  1.0  -0.6369
  O  O2061  1  0.146600  0.781540  0.071180  1.0  -0.1822
  O  O2062  1  0.281960  0.988180  0.463330  1.0  -0.2541
  O  O2063  1  0.776870  0.484130  0.202440  1.0  -0.3415
  O  O2064  1  0.733450  0.759020  0.326410  1.0  -0.6334
  O  O2065  1  0.236220  0.809620  0.771940  1.0  -0.6301
  O  O2066  1  0.530660  0.842660  0.185520  1.0  -0.3298
  O  O2067  1  0.033230  0.847710  0.684640  1.0  -0.3325
  O  O2068  1  0.373670  0.827380  0.926970  1.0  -0.2272
  O  O2069  1  0.734340  0.227510  0.323930  1.0  -0.6295
  O  O2070  1  0.289790  0.371280  0.426120  1.0  -0.2533
  O  O2071  1  0.120040  0.420540  0.664710  1.0  -0.2089
  O  O2072  1  0.781980  0.862750  0.422600  1.0  -0.3295
  O  O2073  1  0.257190  0.557570  0.050780  1.0  -0.2639
  O  O2074  1  0.769690  0.174590  0.773080  1.0  -0.633
  O  O2075  1  0.737670  0.569350  0.046590  1.0  -0.2199
  O  O2076  1  0.133570  0.466650  0.232960  1.0  -0.2339
  O  O2077  1  0.706250  0.505640  0.200900  1.0  -0.3388
  O  O2078  1  0.724830  0.030530  0.100610  1.0  -0.307
  O  O2079  1  0.186240  0.225290  0.773180  1.0  -0.6309
  O  O2080  1  0.270930  0.309360  0.772870  1.0  -0.6231
  O  O2081  1  0.644990  0.273190  0.563610  1.0  -0.1964
  O  O2082  1  0.510320  0.984990  0.281880  1.0  -0.2171
  O  O2083  1  0.031800  0.340720  0.172550  1.0  -0.2923
  O  O2084  1  0.732480  0.808410  0.279740  1.0  -0.6068
  O  O2085  1  0.121620  0.494550  0.568420  1.0  -0.2246
  O  O2086  1  0.270700  0.258670  0.187490  1.0  -0.6307
  O  O2087  1  0.234560  0.309180  0.736530  1.0  -0.6375
  O  O2088  1  0.085800  0.907560  0.316430  1.0  -0.261
  O  O2089  1  0.277060  0.800880  0.006920  1.0  -0.3475
  O  O2090  1  0.234240  0.723050  0.324930  1.0  -0.6258
  O  O2091  1  0.271070  0.673810  0.242010  1.0  -0.6241
  O  O2092  1  0.445610  0.754700  0.147200  1.0  -0.1912
  O  O2093  1  0.526930  0.469400  0.174790  1.0  -0.1838
  O  O2094  1  0.180180  0.863370  0.978770  1.0  -0.3303
  O  O2095  1  0.770510  0.222380  0.189750  1.0  -0.604
  O  O2096  1  0.790010  0.983150  0.948720  1.0  -0.2123
  O  O2097  1  0.854280  0.581260  0.170110  1.0  -0.2154
  O  O2098  1  0.037390  0.343480  0.391480  1.0  -0.217
  O  O2099  1  0.252060  0.240630  0.254030  1.0  -1.3347
  O  O2100  1  0.260820  0.098240  0.042830  1.0  -0.207
  O  O2101  1  0.727720  0.530200  0.604010  1.0  -0.315
  O  O2102  1  0.260170  0.967670  0.598560  1.0  -0.3168
  O  O2103  1  0.541510  0.337520  0.387180  1.0  -0.2086
  O  O2104  1  0.186960  0.260940  0.735900  1.0  -0.6303
  O  O2105  1  0.880700  0.047120  0.148120  1.0  -0.238
  O  O2106  1  0.233590  0.673790  0.277460  1.0  -0.6181
  O  O2107  1  0.752220  0.243960  0.256780  1.0  -1.3402
  O  O2108  1  0.077700  0.426690  0.328180  1.0  -0.1948
  O  O2109  1  0.318140  0.223730  0.734650  1.0  -0.6316
  O  O2110  1  0.319720  0.720750  0.240650  1.0  -0.6312
  O  O2111  1  0.771340  0.496670  0.689480  1.0  -0.3222
  O  O2112  1  0.156290  0.938720  0.129830  1.0  -0.2885
  O  O2113  1  0.319370  0.757990  0.276050  1.0  -0.6314
  O  O2114  1  0.232680  0.224050  0.187140  1.0  -0.6304
  O  O2115  1  0.253030  0.739780  0.257620  1.0  -1.3291
  O  O2116  1  0.733090  0.309850  0.238710  1.0  -0.6319
  O  O2117  1  0.035670  0.342120  0.886350  1.0  -0.2151
  O  O2118  1  0.669100  0.844400  0.962600  1.0  -0.3104
  O  O2119  1  0.071070  0.873960  0.789430  1.0  -0.2884
  O  O2120  1  0.769840  0.310180  0.274800  1.0  -0.6325
  O  O2121  1  0.734680  0.178060  0.277750  1.0  -0.6222
  O  O2122  1  0.733360  0.806410  0.737310  1.0  -0.6142
  O  O2123  1  0.684880  0.759630  0.279270  1.0  -0.6333
  O  O2124  1  0.773900  0.756870  0.821700  1.0  -0.5916
  O  O2125  1  0.384910  0.341090  0.943340  1.0  -0.2079
  O  O2126  1  0.496230  0.305470  0.775730  1.0  -0.3377
