# generated using pymatgen
data_Zr18H132C360O97F180
_symmetry_space_group_name_H-M   'P 1'
_cell_length_a   16.79200000
_cell_length_b   41.04650000
_cell_length_c   41.04650000
_cell_angle_alpha   120.00000000
_cell_angle_beta   90.00000000
_cell_angle_gamma   90.00000000
_symmetry_Int_Tables_number   1
_chemical_formula_structural   Zr18H132C360O97F180
_chemical_formula_sum   'Zr18 H132 C360 O97 F180'
_cell_volume   24501.08514214
_cell_formula_units_Z   1
loop_
 _symmetry_equiv_pos_site_id
 _symmetry_equiv_pos_as_xyz
  1  'x, y, z'
loop_
 _atom_site_type_symbol
 _atom_site_label
 _atom_site_symmetry_multiplicity
 _atom_site_fract_x
 _atom_site_fract_y
 _atom_site_fract_z
 _atom_site_occupancy
 _atom_site_charge
  Zr  Zr1  1  0.042210  0.548280  0.460830  1.0  1.9801
  Zr  Zr2  1  0.950910  0.014510  0.535880  1.0  1.9883
  Zr  Zr3  1  0.041820  0.082160  0.526140  1.0  1.9446
  Zr  Zr4  1  0.156760  0.013270  0.528960  1.0  1.9891
  Zr  Zr5  1  0.137980  0.015070  0.446170  1.0  1.9518
  Zr  Zr6  1  0.955950  0.468830  0.447980  1.0  1.9817
  Zr  Zr7  1  0.933620  0.552090  0.531320  1.0  1.9722
  Zr  Zr8  1  0.162320  0.478570  0.457050  1.0  1.9346
  Zr  Zr9  1  0.934240  0.014470  0.451690  1.0  1.9792
  Zr  Zr10  1  0.043480  0.948930  0.458430  1.0  1.9407
  Zr  Zr11  1  0.936560  0.554830  0.992500  1.0  1.97
  Zr  Zr12  1  0.141050  0.555100  0.992230  1.0  2.0114
  Zr  Zr13  1  0.934490  0.470950  0.992220  1.0  1.964
  Zr  Zr14  1  0.040050  0.479870  0.927540  1.0  1.9456
  Zr  Zr15  1  0.046070  0.481750  0.526220  1.0  1.9199
  Zr  Zr16  1  0.138660  0.470770  0.994600  1.0  1.9988
  Zr  Zr17  1  0.134980  0.561620  0.540090  1.0  1.9773
  Zr  Zr18  1  0.037210  0.546600  0.058560  1.0  1.9901
  H  H19  1  0.770770  0.466590  0.080170  1.0  0.1577
  H  H20  1  0.245670  0.342490  0.536800  1.0  0.1602
  H  H21  1  0.311430  0.100970  0.442060  1.0  0.1564
  H  H22  1  0.931920  0.185410  0.529980  1.0  0.1625
  H  H23  1  0.822430  0.512450  0.741940  1.0  0.1633
  H  H24  1  0.821140  0.262050  0.486960  1.0  0.1721
  H  H25  1  0.849350  0.470140  0.771830  1.0  0.1606
  H  H26  1  0.161210  0.470580  0.824060  1.0  0.1673
  H  H27  1  0.222170  0.548560  0.212210  1.0  0.168
  H  H28  1  0.789680  0.562430  0.630750  1.0  0.1483
  H  H29  1  0.170640  0.393060  0.534180  1.0  0.155
  H  H30  1  0.613540  0.512070  0.659580  1.0  0.1582
  H  H31  1  0.855460  0.794470  0.308660  1.0  0.1649
  H  H32  1  0.777620  0.381150  0.445170  1.0  0.1553
  H  H33  1  0.375700  0.872680  0.299440  1.0  0.168
  H  H34  1  0.147030  0.549730  0.161460  1.0  0.1576
  H  H35  1  0.306720  0.926550  0.350910  1.0  0.1633
  H  H36  1  0.697990  0.465120  0.131490  1.0  0.1694
  H  H37  1  0.701710  0.329040  0.443530  1.0  0.1476
  H  H38  1  0.254730  0.763710  0.239880  1.0  0.1696
  H  H39  1  0.610620  0.846040  0.490560  1.0  0.1542
  H  H40  1  0.910240  0.181970  0.617840  1.0  0.1618
  H  H41  1  0.841410  0.554610  0.315910  1.0  0.161
  H  H42  1  0.470200  0.506680  0.821810  1.0  0.1561
  H  H43  1  0.698040  0.878720  0.540270  1.0  0.1578
  H  H44  1  0.605900  0.177010  0.663220  1.0  0.164
  H  H45  1  0.374130  0.568510  0.686790  1.0  0.155
  H  H46  1  0.459870  0.176250  0.665150  1.0  0.1524
  H  H47  1  0.815380  0.260620  0.744160  1.0  0.1656
  H  H48  1  0.707000  0.459860  0.303220  1.0  0.1692
  H  H49  1  0.928340  0.384270  0.531250  1.0  0.1582
  H  H50  1  0.755600  0.388580  0.903850  1.0  0.1559
  H  H51  1  0.607540  0.350150  0.817440  1.0  0.1605
  H  H52  1  0.614810  0.522000  0.166200  1.0  0.1577
  H  H53  1  0.611340  0.511790  0.325210  1.0  0.1567
  H  H54  1  0.684800  0.334150  0.854220  1.0  0.1561
  H  H55  1  0.849050  0.694670  0.212080  1.0  0.1606
  H  H56  1  0.837170  0.464460  0.665120  1.0  0.1603
  H  H57  1  0.706320  0.149040  0.683610  1.0  0.1522
  H  H58  1  0.311700  0.377350  0.907630  1.0  0.1606
  H  H59  1  0.853490  0.796080  0.456400  1.0  0.1721
  H  H60  1  0.254340  0.260930  0.746780  1.0  0.1693
  H  H61  1  0.770360  0.928860  0.536700  1.0  0.1568
  H  H62  1  0.322110  0.478210  0.081270  1.0  0.1601
  H  H63  1  0.615170  0.505220  0.820670  1.0  0.1571
  H  H64  1  0.929370  0.846510  0.455020  1.0  0.1585
  H  H65  1  0.228870  0.796840  0.316670  1.0  0.1618
  H  H66  1  0.308990  0.650080  0.543610  1.0  0.1539
  H  H67  1  0.855650  0.327370  0.773000  1.0  0.1689
  H  H68  1  0.288190  0.365120  0.430480  1.0  0.1563
  H  H69  1  0.381100  0.153380  0.442110  1.0  0.17
  H  H70  1  0.234870  0.231990  0.533860  1.0  0.163
  H  H71  1  0.237350  0.555220  0.315230  1.0  0.161
  H  H72  1  0.156350  0.388480  0.830550  1.0  0.156
  H  H73  1  0.257390  0.102780  0.647840  1.0  0.1593
  H  H74  1  0.614090  0.681360  0.490190  1.0  0.1585
  H  H75  1  0.923810  0.643280  0.160620  1.0  0.1597
  H  H76  1  0.161990  0.178970  0.532670  1.0  0.1582
  H  H77  1  0.465770  0.511730  0.324700  1.0  0.1561
  H  H78  1  0.369450  0.877710  0.548370  1.0  0.1674
  H  H79  1  0.605140  0.839890  0.329690  1.0  0.1556
  H  H80  1  0.613900  0.184720  0.496880  1.0  0.1599
  H  H81  1  0.704190  0.702780  0.543510  1.0  0.1675
  H  H82  1  0.159560  0.554970  0.366030  1.0  0.1607
  H  H83  1  0.260300  0.767490  0.500550  1.0  0.1657
  H  H84  1  0.380710  0.325030  0.854720  1.0  0.1684
  H  H85  1  0.336390  0.153740  0.698600  1.0  0.164
  H  H86  1  0.241770  0.471780  0.669580  1.0  0.1604
  H  H87  1  0.832870  0.232030  0.669270  1.0  0.1612
  H  H88  1  0.261660  0.517780  0.745800  1.0  0.1666
  H  H89  1  0.464860  0.676260  0.165150  1.0  0.1586
  H  H90  1  0.931550  0.845660  0.359750  1.0  0.1602
  H  H91  1  0.158640  0.644430  0.456090  1.0  0.1593
  H  H92  1  0.300080  0.569070  0.634970  1.0  0.1532
  H  H93  1  0.912180  0.463130  0.612870  1.0  0.158
  H  H94  1  0.234020  0.695980  0.456710  1.0  0.1609
  H  H95  1  0.259640  0.262200  0.489200  1.0  0.1709
  H  H96  1  0.761910  0.644360  0.080180  1.0  0.157
  H  H97  1  0.468210  0.513930  0.660870  1.0  0.1632
  H  H98  1  0.465390  0.846970  0.493320  1.0  0.1602
  H  H99  1  0.611600  0.347480  0.493450  1.0  0.1597
  H  H100  1  0.821290  0.766990  0.496500  1.0  0.1707
  H  H101  1  0.469010  0.184710  0.497320  1.0  0.1613
  H  H102  1  0.754850  0.925030  0.368610  1.0  0.156
  H  H103  1  0.382110  0.561290  0.855390  1.0  0.1664
  H  H104  1  0.224850  0.689780  0.209140  1.0  0.1601
  H  H105  1  0.714070  0.563750  0.682750  1.0  0.1623
  H  H106  1  0.774270  0.558180  0.904320  1.0  0.1521
  H  H107  1  0.259670  0.509740  0.240360  1.0  0.159
  H  H108  1  0.919380  0.640630  0.450200  1.0  0.1582
  H  H109  1  0.267360  0.228450  0.658710  1.0  0.1664
  H  H110  1  0.238450  0.794640  0.452910  1.0  0.1623
  H  H111  1  0.235720  0.472130  0.773260  1.0  0.1576
  H  H112  1  0.460610  0.841860  0.327420  1.0  0.1598
  H  H113  1  0.469540  0.681750  0.491880  1.0  0.16
  H  H114  1  0.609350  0.677070  0.165270  1.0  0.1584
  H  H115  1  0.465960  0.345790  0.490430  1.0  0.1557
  H  H116  1  0.192450  0.177000  0.606850  1.0  0.1555
  H  H117  1  0.364510  0.315820  0.433700  1.0  0.1556
  H  H118  1  0.391920  0.473110  0.131030  1.0  0.1574
  H  H119  1  0.775890  0.100760  0.449150  1.0  0.1575
  H  H120  1  0.381960  0.703000  0.545490  1.0  0.1651
  H  H121  1  0.308560  0.559330  0.906290  1.0  0.157
  H  H122  1  0.690790  0.697830  0.131360  1.0  0.1604
  H  H123  1  0.923040  0.469380  0.823190  1.0  0.1603
  H  H124  1  0.318350  0.644430  0.079070  1.0  0.1607
  H  H125  1  0.158350  0.851140  0.368140  1.0  0.1587
  H  H126  1  0.924410  0.552730  0.161470  1.0  0.159
  H  H127  1  0.815840  0.765260  0.241750  1.0  0.1655
  H  H128  1  0.782570  0.098670  0.631310  1.0  0.1562
  H  H129  1  0.853820  0.234540  0.528010  1.0  0.1672
  H  H130  1  0.155220  0.636980  0.155630  1.0  0.1568
  H  H131  1  0.158870  0.844680  0.452370  1.0  0.1574
  H  H132  1  0.699800  0.150190  0.445050  1.0  0.1606
  H  H133  1  0.292730  0.459480  0.352200  1.0  0.1587
  H  H134  1  0.850920  0.332970  0.530310  1.0  0.1613
  H  H135  1  0.783010  0.460750  0.355070  1.0  0.1604
  H  H136  1  0.850310  0.551910  0.212700  1.0  0.1607
  H  H137  1  0.383560  0.698470  0.131650  1.0  0.1572
  H  H138  1  0.820670  0.508530  0.241430  1.0  0.1657
  H  H139  1  0.462900  0.349170  0.820180  1.0  0.1605
  H  H140  1  0.931430  0.379130  0.823730  1.0  0.1601
  H  H141  1  0.684720  0.875120  0.314110  1.0  0.1489
  H  H142  1  0.369910  0.459410  0.301050  1.0  0.1661
  H  H143  1  0.845980  0.693320  0.451990  1.0  0.16
  H  H144  1  0.917970  0.555230  0.367180  1.0  0.1616
  H  H145  1  0.470330  0.525180  0.167670  1.0  0.1611
  H  H146  1  0.227080  0.336140  0.777070  1.0  0.1586
  H  H147  1  0.702540  0.559940  0.852970  1.0  0.1689
  H  H148  1  0.775890  0.649160  0.540880  1.0  0.1559
  H  H149  1  0.289370  0.927900  0.548110  1.0  0.1525
  H  H150  1  0.167190  0.472410  0.618410  1.0  0.1622
  C  C151  1  0.224030  0.681100  0.032310  1.0  0.2212
  C  C152  1  0.329750  0.547050  0.671890  1.0  -0.0174
  C  C153  1  0.446620  0.732880  0.211730  1.0  0.0135
  C  C154  1  0.760350  0.195920  0.681460  1.0  -0.0414
  C  C155  1  0.872510  0.654330  0.153380  1.0  -0.0446
  C  C156  1  0.825240  0.486100  0.658040  1.0  -0.0625
  C  C157  1  0.250690  0.823520  0.474040  1.0  -0.0602
  C  C158  1  0.672270  0.279840  0.358080  1.0  0.3745
  C  C159  1  0.862360  0.137630  0.489590  1.0  -0.0516
  C  C160  1  0.905030  0.103490  0.585790  1.0  0.655
  C  C161  1  0.749660  0.539440  0.845660  1.0  -0.0504
  C  C162  1  0.853940  0.134920  0.618680  1.0  -0.0656
  C  C163  1  0.363850  0.292760  0.487740  1.0  -0.1087
  C  C164  1  0.385140  0.450700  0.452280  1.0  0.1942
  C  C165  1  0.494100  0.261940  0.487520  1.0  -0.0596
  C  C166  1  0.445060  0.229470  0.716750  1.0  0.0259
  C  C167  1  0.827380  0.533780  0.323850  1.0  -0.0697
  C  C168  1  0.908420  0.509210  0.399570  1.0  0.6553
  C  C169  1  0.252290  0.203590  0.513400  1.0  -0.0568
  C  C170  1  0.246390  0.344510  0.805360  1.0  -0.0409
  C  C171  1  0.791940  0.657990  0.520930  1.0  -0.0521
  C  C172  1  0.804760  0.632190  0.617450  1.0  0.2484
  C  C173  1  0.717500  0.514140  0.711880  1.0  -0.0842
  C  C174  1  0.312980  0.830990  0.500280  1.0  -0.0171
  C  C175  1  0.260350  0.129650  0.649050  1.0  -0.0468
  C  C176  1  0.241890  0.026340  0.341210  1.0  0.2071
  C  C177  1  0.562550  0.098210  0.725920  1.0  0.212
  C  C178  1  0.834110  0.824800  0.474440  1.0  -0.0745
  C  C179  1  0.322520  0.332190  0.456020  1.0  -0.0738
  C  C180  1  0.715630  0.508130  0.272160  1.0  -0.0859
  C  C181  1  0.868700  0.485250  0.627420  1.0  -0.0458
  C  C182  1  0.177860  0.608850  0.498780  1.0  0.6412
  C  C183  1  0.765360  0.509030  0.177600  1.0  -0.0408
  C  C184  1  0.319150  0.763370  0.240610  1.0  0.0389
  C  C185  1  0.786570  0.667220  0.019240  1.0  0.2185
  C  C186  1  0.296100  0.820170  0.123870  1.0  0.2105
  C  C187  1  0.914860  0.107880  0.493420  1.0  0.5754
  C  C188  1  0.176980  0.514080  0.083550  1.0  0.6385
  C  C189  1  0.298170  0.860470  0.130310  1.0  0.3777
  C  C190  1  0.228190  0.721550  0.038380  1.0  0.1761
  C  C191  1  0.766600  0.326080  0.487450  1.0  -0.0203
  C  C192  1  0.227250  0.388570  0.874670  1.0  -0.0754
  C  C193  1  0.766020  0.703160  0.497310  1.0  -0.0511
  C  C194  1  0.831860  0.489750  0.800490  1.0  -0.0559
  C  C195  1  0.749700  0.156980  0.669320  1.0  -0.0312
  C  C196  1  0.450000  0.508380  0.270660  1.0  0.0086
  C  C197  1  0.629780  0.292330  0.487330  1.0  0.0205
  C  C198  1  0.316680  0.519660  0.682930  1.0  -0.0356
  C  C199  1  0.245840  0.680680  0.180940  1.0  -0.0593
  C  C200  1  0.316520  0.511590  0.177410  1.0  -0.0431
  C  C201  1  0.630370  0.232080  0.487960  1.0  0.0191
  C  C202  1  0.255620  0.493360  0.662640  1.0  -0.0624
  C  C203  1  0.860600  0.388480  0.488570  1.0  -0.0469
  C  C204  1  0.451490  0.511820  0.212000  1.0  0.0356
  C  C205  1  0.204260  0.852760  0.473770  1.0  -0.0589
  C  C206  1  0.325000  0.480910  0.315090  1.0  -0.0227
  C  C207  1  0.851570  0.389270  0.869360  1.0  -0.0471
  C  C208  1  0.340100  0.491140  0.138860  1.0  -0.0416
  C  C209  1  0.712990  0.983690  0.314260  1.0  0.1821
  C  C210  1  0.360210  0.732010  0.209990  1.0  -0.0753
  C  C211  1  0.731040  0.958340  0.653440  1.0  0.1919
  C  C212  1  0.711590  0.733570  0.210830  1.0  -0.0822
  C  C213  1  0.246680  0.824910  0.323530  1.0  -0.0413
  C  C214  1  0.452420  0.517690  0.715120  1.0  0.0148
  C  C215  1  0.494760  0.509480  0.300190  1.0  -0.0073
  C  C216  1  0.300540  0.013710  0.549250  1.0  0.5896
  C  C217  1  0.227910  0.397390  0.049030  1.0  0.2201
  C  C218  1  0.307940  0.740230  0.693850  1.0  0.216
  C  C219  1  0.168260  0.507430  0.396740  1.0  0.59
  C  C220  1  0.586650  0.510450  0.800160  1.0  -0.0347
  C  C221  1  0.355950  0.339950  0.161150  1.0  0.3816
  C  C222  1  0.832600  0.822830  0.320700  1.0  -0.0636
  C  C223  1  0.630050  0.510740  0.212090  1.0  0.024
  C  C224  1  0.578010  0.820070  0.303290  1.0  -0.0439
  C  C225  1  0.215740  0.891590  0.500180  1.0  -0.062
  C  C226  1  0.779150  0.897030  0.355430  1.0  -0.0483
  C  C227  1  0.796630  0.481730  0.347280  1.0  -0.0521
  C  C228  1  0.878300  0.854350  0.473510  1.0  -0.0359
  C  C229  1  0.453050  0.515530  0.774450  1.0  0.0103
  C  C230  1  0.191400  0.651950  0.993080  1.0  0.2313
  C  C231  1  0.183810  0.383010  0.011260  1.0  0.257
  C  C232  1  0.843980  0.643010  0.986470  1.0  0.2416
  C  C233  1  0.212390  0.493710  0.632680  1.0  -0.0382
  C  C234  1  0.291840  0.539730  0.877500  1.0  -0.0565
  C  C235  1  0.279860  0.480850  0.344850  1.0  -0.0418
  C  C236  1  0.334320  0.159890  0.462600  1.0  -0.0427
  C  C237  1  0.857590  0.017890  0.399720  1.0  0.605
  C  C238  1  0.276940  0.899060  0.527000  1.0  -0.046
  C  C239  1  0.495770  0.516890  0.744820  1.0  -0.0481
  C  C240  1  0.898670  0.012470  0.631220  1.0  0.2419
  C  C241  1  0.312130  0.325440  0.810300  1.0  -0.0464
  C  C242  1  0.366690  0.516420  0.776030  1.0  -0.0936
  C  C243  1  0.334750  0.685280  0.137940  1.0  -0.0589
  C  C244  1  0.701830  0.297930  0.916860  1.0  0.1769
  C  C245  1  0.264340  0.791130  0.084240  1.0  0.1765
  C  C246  1  0.918550  0.012920  0.595780  1.0  0.6122
  C  C247  1  0.334850  0.540800  0.847740  1.0  -0.0372
  C  C248  1  0.205850  0.856550  0.353640  1.0  -0.0332
  C  C249  1  0.288510  0.898550  0.344150  1.0  -0.05
  C  C250  1  0.586500  0.508800  0.241160  1.0  -0.058
  C  C251  1  0.943280  0.155080  0.290800  1.0  0.3766
  C  C252  1  0.310580  0.829120  0.303130  1.0  -0.0473
  C  C253  1  0.183530  0.421350  0.909420  1.0  0.6166
  C  C254  1  0.740570  0.685970  0.138690  1.0  -0.0327
  C  C255  1  0.494920  0.825250  0.496350  1.0  -0.0248
  C  C256  1  0.205580  0.533930  0.352450  1.0  -0.0438
  C  C257  1  0.450540  0.797860  0.499340  1.0  0.0264
  C  C258  1  0.881030  0.176690  0.511290  1.0  -0.0236
  C  C259  1  0.756210  0.508990  0.241560  1.0  0.0261
  C  C260  1  0.717920  0.513920  0.773910  1.0  -0.0757
  C  C261  1  0.366100  0.518290  0.714840  1.0  -0.0576
  C  C262  1  0.574040  0.204500  0.875340  1.0  0.368
  C  C263  1  0.287090  0.382420  0.097910  1.0  0.1727
  C  C264  1  0.871940  0.653380  0.470620  1.0  -0.0438
  C  C265  1  0.324120  0.262380  0.489230  1.0  0.0064
  C  C266  1  0.221950  0.384510  0.482100  1.0  -0.0966
  C  C267  1  0.277940  0.361020  0.454160  1.0  -0.0657
  C  C268  1  0.182700  0.929580  0.397660  1.0  0.6262
  C  C269  1  0.489050  0.763850  0.241410  1.0  -0.0492
  C  C270  1  0.746620  0.484890  0.138850  1.0  -0.0384
  C  C271  1  0.947850  0.336950  0.364840  1.0  0.1956
  C  C272  1  0.495250  0.321520  0.488680  1.0  0.0042
  C  C273  1  0.624680  0.292030  0.773680  1.0  0.0234
  C  C274  1  0.757970  0.513080  0.742360  1.0  0.0101
  C  C275  1  0.807040  0.982520  0.659850  1.0  0.1699
  C  C276  1  0.765900  0.831670  0.497550  1.0  -0.0505
  C  C277  1  0.359730  0.292660  0.776680  1.0  -0.0855
  C  C278  1  0.799540  0.540190  0.636970  1.0  -0.0414
  C  C279  1  0.926540  0.367300  0.354440  1.0  0.2251
  C  C280  1  0.954470  0.195700  0.323210  1.0  0.1989
  C  C281  1  0.582150  0.635830  0.650970  1.0  0.1703
  C  C282  1  0.494460  0.767980  0.499640  1.0  -0.0558
  C  C283  1  0.511680  0.359770  0.384150  1.0  0.1853
  C  C284  1  0.903110  0.510810  0.083040  1.0  0.6465
  C  C285  1  0.716930  0.736180  0.497380  1.0  -0.0875
  C  C286  1  0.711100  0.292610  0.774960  1.0  -0.056
  C  C287  1  0.412920  0.657420  0.725810  1.0  0.3729
  C  C288  1  0.238930  0.367040  0.060650  1.0  0.1836
  C  C289  1  0.212120  0.376370  0.511730  1.0  -0.0356
  C  C290  1  0.851380  0.891080  0.369550  1.0  -0.0578
  C  C291  1  0.629720  0.797830  0.498000  1.0  0.0066
  C  C292  1  0.248430  0.025220  0.302870  1.0  0.1816
  C  C293  1  0.309020  0.783880  0.717530  1.0  0.1859
  C  C294  1  0.831840  0.532890  0.184040  1.0  -0.0529
  C  C295  1  0.667860  0.945860  0.290430  1.0  0.1761
  C  C296  1  0.766520  0.513750  0.678870  1.0  -0.0438
  C  C297  1  0.935390  0.296200  0.331810  1.0  0.1665
  C  C298  1  0.856640  0.512030  0.615460  1.0  -0.0551
  C  C299  1  0.332370  0.338520  0.848520  1.0  -0.0427
  C  C300  1  0.363490  0.508720  0.271300  1.0  -0.0404
  C  C301  1  0.365790  0.736670  0.499980  1.0  -0.0826
  C  C302  1  0.791790  0.538620  0.875680  1.0  -0.0353
  C  C303  1  0.316670  0.198170  0.488550  1.0  -0.0448
  C  C304  1  0.451440  0.232520  0.489190  1.0  0.0224
  C  C305  1  0.347040  0.368530  0.147550  1.0  0.1947
  C  C306  1  0.210160  0.172720  0.512860  1.0  -0.028
  C  C307  1  0.578010  0.200140  0.687410  1.0  -0.0483
  C  C308  1  0.548580  0.064560  0.685570  1.0  0.1933
  C  C309  1  0.186720  0.602130  0.076970  1.0  0.6289
  C  C310  1  0.765100  0.507700  0.304670  1.0  -0.043
  C  C311  1  0.905790  0.511500  0.582600  1.0  0.6614
  C  C312  1  0.874840  0.533440  0.154070  1.0  -0.0445
  C  C313  1  0.766940  0.514420  0.806930  1.0  -0.0437
  C  C314  1  0.579460  0.323560  0.798820  1.0  -0.0751
  C  C315  1  0.580450  0.337810  0.389840  1.0  0.1873
  C  C316  1  0.167860  0.102660  0.589300  1.0  0.5783
  C  C317  1  0.794620  0.371340  0.464220  1.0  -0.0177
  C  C318  1  0.450430  0.291950  0.487350  1.0  0.0157
  C  C319  1  0.737110  0.343990  0.846330  1.0  -0.0203
  C  C320  1  0.760890  0.701250  0.177410  1.0  -0.0442
  C  C321  1  0.902610  0.605200  0.493330  1.0  0.6485
  C  C322  1  0.394250  0.044500  0.604600  1.0  0.2093
  C  C323  1  0.832830  0.339800  0.801390  1.0  -0.078
  C  C324  1  0.226660  0.513930  0.115900  1.0  -0.0456
  C  C325  1  0.820730  0.203180  0.661680  1.0  -0.0525
  C  C326  1  0.173810  0.615390  0.991620  1.0  0.6214
  C  C327  1  0.630600  0.737180  0.497770  1.0  0.0133
  C  C328  1  0.901050  0.421970  0.901810  1.0  0.6347
  C  C329  1  0.226000  0.894500  0.365160  1.0  -0.0879
  C  C330  1  0.587000  0.261840  0.487020  1.0  -0.0564
  C  C331  1  0.313820  0.324300  0.485800  1.0  -0.0242
  C  C332  1  0.840840  0.379430  0.991650  1.0  0.2526
  C  C333  1  0.317870  0.516260  0.808880  1.0  -0.0482
  C  C334  1  0.899700  0.605370  0.082360  1.0  0.6412
  C  C335  1  0.427470  0.038660  0.247430  1.0  0.2004
  C  C336  1  0.451920  0.645950  0.687640  1.0  0.1849
  C  C337  1  0.750080  0.689310  0.522400  1.0  -0.0372
  C  C338  1  0.835530  0.205630  0.510090  1.0  -0.0822
  C  C339  1  0.631610  0.514180  0.773300  1.0  0.0161
  C  C340  1  0.911360  0.421060  0.489240  1.0  0.6487
  C  C341  1  0.706330  0.956050  0.688750  1.0  0.1662
  C  C342  1  0.875540  0.413450  0.992150  1.0  0.613
  C  C343  1  0.324760  0.767430  0.499900  1.0  0.0176
  C  C344  1  0.543590  0.650120  0.690190  1.0  0.1811
  C  C345  1  0.756840  0.767130  0.496790  1.0  0.0089
  C  C346  1  0.610550  0.946790  0.261230  1.0  0.1877
  C  C347  1  0.364070  0.798620  0.499960  1.0  -0.1248
  C  C348  1  0.756690  0.262160  0.487390  1.0  0.0152
  C  C349  1  0.493760  0.509080  0.240960  1.0  -0.0363
  C  C350  1  0.178770  0.417590  0.480370  1.0  0.6029
  C  C351  1  0.710550  0.228730  0.714180  1.0  -0.0457
  C  C352  1  0.554240  0.812160  0.073310  1.0  0.3693
  C  C353  1  0.692870  0.724960  0.049360  1.0  0.1713
  C  C354  1  0.319030  0.472560  0.445050  1.0  0.2602
  C  C355  1  0.286650  0.547380  0.641790  1.0  -0.054
  C  C356  1  0.901150  0.923740  0.402030  1.0  0.6394
  C  C357  1  0.937490  0.405670  0.388090  1.0  0.6243
  C  C358  1  0.263330  0.750330  0.077490  1.0  0.1637
  C  C359  1  0.580640  0.702770  0.185690  1.0  -0.0389
  C  C360  1  0.583340  0.824970  0.495250  1.0  -0.0456
  C  C361  1  0.334370  0.690200  0.525190  1.0  -0.041
  C  C362  1  0.167700  0.415120  0.004390  1.0  0.6133
  C  C363  1  0.328870  0.867090  0.314110  1.0  -0.0318
  C  C364  1  0.446020  0.291990  0.774690  1.0  0.027
  C  C365  1  0.323970  0.869790  0.527020  1.0  -0.0177
  C  C366  1  0.497580  0.707050  0.495610  1.0  -0.028
  C  C367  1  0.750960  0.260810  0.744270  1.0  0.0051
  C  C368  1  0.794630  0.129620  0.466090  1.0  -0.0451
  C  C369  1  0.650690  0.755950  0.044420  1.0  0.1628
  C  C370  1  0.876830  0.370300  0.831070  1.0  -0.0406
  C  C371  1  0.854800  0.510010  0.115400  1.0  -0.0597
  C  C372  1  0.620840  0.088800  0.748950  1.0  0.3991
  C  C373  1  0.317050  0.704180  0.500430  1.0  -0.0224
  C  C374  1  0.628920  0.932720  0.682000  1.0  0.2004
  C  C375  1  0.205590  0.649700  0.149770  1.0  -0.0361
  C  C376  1  0.789280  0.485600  0.108840  1.0  -0.041
  C  C377  1  0.326110  0.517210  0.745420  1.0  0.0167
  C  C378  1  0.229900  0.635110  0.111740  1.0  -0.0947
  C  C379  1  0.951780  0.266280  0.343720  1.0  0.1647
  C  C380  1  0.229770  0.134490  0.487430  1.0  -0.0739
  C  C381  1  0.903980  0.512960  0.901590  1.0  0.6301
  C  C382  1  0.878570  0.372990  0.512000  1.0  -0.0545
  C  C383  1  0.364980  0.231510  0.489340  1.0  -0.0794
  C  C384  1  0.510320  0.909200  0.207990  1.0  0.3689
  C  C385  1  0.318810  0.261090  0.746420  1.0  0.0136
  C  C386  1  0.226720  0.520550  0.620980  1.0  -0.0565
  C  C387  1  0.298300  0.493300  0.109480  1.0  -0.0429
  C  C388  1  0.585670  0.516430  0.186360  1.0  -0.0612
  C  C389  1  0.266530  0.201190  0.656810  1.0  -0.0552
  C  C390  1  0.747020  0.870650  0.520590  1.0  -0.0128
  C  C391  1  0.833470  0.342880  0.511370  1.0  -0.0721
  C  C392  1  0.600090  0.932290  0.717340  1.0  0.3773
  C  C393  1  0.178480  0.513700  0.902730  1.0  0.6445
  C  C394  1  0.388700  0.799310  0.739050  1.0  0.1969
  C  C395  1  0.334530  0.033070  0.294570  1.0  0.1858
  C  C396  1  0.251440  0.686610  0.476080  1.0  -0.0705
  C  C397  1  0.877830  0.611040  0.990010  1.0  0.6107
  C  C398  1  0.581800  0.764230  0.241770  1.0  -0.0575
  C  C399  1  0.185110  0.099990  0.485230  1.0  0.6268
  C  C400  1  0.489820  0.820600  0.302280  1.0  -0.0602
  C  C401  1  0.492520  0.702270  0.185620  1.0  -0.044
  C  C402  1  0.472360  0.040610  0.622630  1.0  0.184
  C  C403  1  0.939890  0.225360  0.310880  1.0  0.1804
  C  C404  1  0.167440  0.923430  0.498370  1.0  0.6132
  C  C405  1  0.756120  0.541100  0.667570  1.0  -0.0322
  C  C406  1  0.829470  0.684370  0.471800  1.0  -0.0521
  C  C407  1  0.754570  0.319950  0.952630  1.0  0.1772
  C  C408  1  0.613770  0.239360  0.877590  1.0  0.1959
  C  C409  1  0.482190  0.072820  0.664280  1.0  0.1674
  C  C410  1  0.716470  0.293290  0.487340  1.0  -0.0478
  C  C411  1  0.752110  0.481310  0.317100  1.0  -0.0344
  C  C412  1  0.865670  0.173850  0.631470  1.0  -0.0428
  C  C413  1  0.343060  0.028040  0.254580  1.0  0.1866
  C  C414  1  0.855650  0.513430  0.869170  1.0  -0.0657
  C  C415  1  0.716390  0.798720  0.497570  1.0  -0.094
  C  C416  1  0.874600  0.489240  0.830520  1.0  -0.0342
  C  C417  1  0.710920  0.795620  0.273590  1.0  -0.0689
  C  C418  1  0.365060  0.511160  0.210290  1.0  -0.0592
  C  C419  1  0.716860  0.230770  0.487120  1.0  -0.0698
  C  C420  1  0.445380  0.793720  0.271510  1.0  0.0089
  C  C421  1  0.760590  0.325700  0.807750  1.0  -0.0456
  C  C422  1  0.244870  0.532410  0.183800  1.0  -0.088
  C  C423  1  0.767200  0.197990  0.487080  1.0  -0.0482
  C  C424  1  0.571970  0.907880  0.235000  1.0  0.2147
  C  C425  1  0.631130  0.515580  0.713600  1.0  0.0172
  C  C426  1  0.201340  0.533370  0.154150  1.0  -0.0479
  C  C427  1  0.876760  0.852790  0.350880  1.0  -0.0343
  C  C428  1  0.583780  0.322130  0.489640  1.0  -0.0212
  C  C429  1  0.305300  0.159520  0.678930  1.0  -0.038
  C  C430  1  0.291910  0.369040  0.879440  1.0  -0.0433
  C  C431  1  0.207820  0.656390  0.475620  1.0  -0.0384
  C  C432  1  0.312910  0.507860  0.303320  1.0  -0.0326
  C  C433  1  0.497620  0.517680  0.186800  1.0  -0.0754
  C  C434  1  0.850610  0.638240  0.114810  1.0  -0.0662
  C  C435  1  0.587210  0.767950  0.499000  1.0  -0.0449
  C  C436  1  0.359060  0.794920  0.271550  1.0  -0.0789
  C  C437  1  0.226770  0.641600  0.499510  1.0  -0.0638
  C  C438  1  0.857860  0.893120  0.495610  1.0  -0.0651
  C  C439  1  0.794420  0.127520  0.638830  1.0  -0.0402
  C  C440  1  0.452040  0.737370  0.499140  1.0  0.0224
  C  C441  1  0.624030  0.229200  0.715720  1.0  0.008
  C  C442  1  0.491390  0.323290  0.799870  1.0  -0.0583
  C  C443  1  0.581360  0.260290  0.745340  1.0  -0.0464
  C  C444  1  0.624290  0.794010  0.272740  1.0  0.0248
  C  C445  1  0.143820  0.665110  0.633070  1.0  0.2502
  C  C446  1  0.760210  0.828860  0.306430  1.0  -0.04
  C  C447  1  0.749970  0.341030  0.463430  1.0  -0.0306
  C  C448  1  0.851370  0.603300  0.584450  1.0  0.5908
  C  C449  1  0.830660  0.984230  0.624120  1.0  0.2144
  C  C450  1  0.583240  0.509470  0.300490  1.0  -0.0118
  C  C451  1  0.324110  0.510140  0.240740  1.0  0.0412
  C  C452  1  0.789560  0.356530  0.956000  1.0  0.2202
  C  C453  1  0.625290  0.733750  0.212110  1.0  0.0186
  C  C454  1  0.585470  0.514770  0.684480  1.0  -0.022
  C  C455  1  0.871880  0.534180  0.353910  1.0  -0.0398
  C  C456  1  0.149540  0.020150  0.386760  1.0  0.6115
  C  C457  1  0.664830  0.261750  0.913730  1.0  0.1706
  C  C458  1  0.384460  0.014090  0.562460  1.0  0.2231
  C  C459  1  0.751440  0.764730  0.242180  1.0  0.0045
  C  C460  1  0.252890  0.491480  0.802040  1.0  -0.0592
  C  C461  1  0.209600  0.490520  0.831750  1.0  -0.0239
  C  C462  1  0.716280  0.509520  0.210680  1.0  -0.087
  C  C463  1  0.392130  0.842560  0.760680  1.0  0.3765
  C  C464  1  0.629110  0.508110  0.271140  1.0  0.0234
  C  C465  1  0.497090  0.205700  0.492680  1.0  -0.0471
  C  C466  1  0.488680  0.260430  0.745780  1.0  -0.0702
  C  C467  1  0.736830  0.867430  0.324230  1.0  -0.0086
  C  C468  1  0.154960  0.022070  0.351200  1.0  0.2348
  C  C469  1  0.309500  0.196340  0.683830  1.0  -0.0111
  C  C470  1  0.222890  0.171210  0.626650  1.0  -0.0547
  C  C471  1  0.854130  0.638710  0.494780  1.0  -0.0639
  C  C472  1  0.296000  0.653960  0.107100  1.0  -0.0604
  C  C473  1  0.312770  0.699230  0.176140  1.0  -0.0385
  C  C474  1  0.908200  0.925030  0.494650  1.0  0.653
  C  C475  1  0.438080  0.031460  0.207120  1.0  0.3815
  C  C476  1  0.418680  0.417570  0.415030  1.0  0.1668
  C  C477  1  0.829200  0.684600  0.183530  1.0  -0.0705
  C  C478  1  0.761830  0.983910  0.346450  1.0  0.2371
  C  C479  1  0.585340  0.205520  0.492130  1.0  -0.0377
  C  C480  1  0.748160  0.699670  0.015580  1.0  0.1738
  C  C481  1  0.227810  0.514430  0.870560  1.0  -0.0571
  C  C482  1  0.749460  0.158730  0.464410  1.0  -0.0173
  C  C483  1  0.291430  0.659580  0.524370  1.0  -0.054
  C  C484  1  0.599090  0.782680  0.079000  1.0  0.2055
  C  C485  1  0.813380  0.019420  0.368570  1.0  0.2567
  C  C486  1  0.205420  0.375160  0.836520  1.0  -0.0317
  C  C487  1  0.228160  0.681590  0.646130  1.0  0.2051
  C  C488  1  0.358810  0.229180  0.716100  1.0  -0.0573
  C  C489  1  0.485500  0.395170  0.421480  1.0  0.1652
  C  C490  1  0.714450  0.622790  0.614700  1.0  0.1812
  C  C491  1  0.857950  0.508340  0.366890  1.0  -0.0696
  C  C492  1  0.497160  0.515910  0.685280  1.0  -0.0232
  C  C493  1  0.498470  0.511160  0.800760  1.0  -0.0433
  C  C494  1  0.177960  0.520410  0.588340  1.0  0.6345
  C  C495  1  0.225710  0.724430  0.675360  1.0  0.1812
  C  C496  1  0.673240  0.642930  0.653710  1.0  0.1759
  C  C497  1  0.489510  0.199990  0.688210  1.0  -0.0002
  C  C498  1  0.790180  0.900150  0.519020  1.0  -0.0434
  C  C499  1  0.218850  0.507490  0.364680  1.0  -0.0763
  C  C500  1  0.297200  0.352990  0.110840  1.0  0.1761
  C  C501  1  0.250740  0.534010  0.322740  1.0  -0.063
  C  C502  1  0.782770  0.655060  0.108610  1.0  -0.0645
  C  C503  1  0.256020  0.346970  0.513300  1.0  -0.0356
  C  C504  1  0.293220  0.129270  0.462390  1.0  -0.0522
  C  C505  1  0.585680  0.706890  0.494760  1.0  -0.046
  C  C506  1  0.604980  0.302090  0.352610  1.0  0.2017
  C  C507  1  0.143490  0.625950  0.599720  1.0  0.6382
  C  C508  1  0.218570  0.134390  0.621630  1.0  -0.0505
  C  C509  1  0.588390  0.515990  0.744110  1.0  -0.0653
  C  C510  1  0.779500  0.375310  0.875690  1.0  -0.0604
  O  O511  1  0.136280  0.043020  0.501400  1.0  -0.8325
  O  O512  1  0.038110  0.575050  0.026910  1.0  -0.8077
  O  O513  1  0.003770  0.420080  0.402340  1.0  -0.5659
  O  O514  1  0.825940  0.018870  0.428190  1.0  -0.573
  O  O515  1  0.879440  0.490950  0.047800  1.0  -0.5782
  O  O516  1  0.153980  0.979970  0.469910  1.0  -0.8101
  O  O517  1  0.878990  0.588720  0.512180  1.0  -0.603
  O  O518  1  0.929750  0.495930  0.958580  1.0  -0.7204
  O  O519  1  0.987780  0.010670  0.582880  1.0  -0.5759
  O  O520  1  0.039220  0.539870  0.958650  1.0  -0.7709
  O  O521  1  0.115610  0.107890  0.569880  1.0  -0.5957
  O  O522  1  0.037810  0.450890  0.958940  1.0  -0.7899
  O  O523  1  0.213030  0.588870  0.042830  1.0  -0.6199
  O  O524  1  0.196820  0.543180  0.575440  1.0  -0.5922
  O  O525  1  0.059180  0.454580  0.466740  1.0  -0.7581
  O  O526  1  0.892030  0.486320  0.412470  1.0  -0.5719
  O  O527  1  0.881580  0.427310  0.407190  1.0  -0.5732
  O  O528  1  0.202400  0.532980  0.937970  1.0  -0.5589
  O  O529  1  0.926410  0.602450  0.583020  1.0  -0.5344
  O  O530  1  0.970550  0.491540  0.571840  1.0  -0.5456
  O  O531  1  0.932080  0.014790  0.400690  1.0  -0.5353
  O  O532  1  0.033030  0.575710  0.520580  1.0  -0.7668
  O  O533  1  0.206170  0.963850  0.408960  1.0  -0.5941
  O  O534  1  0.207120  0.433260  0.943730  1.0  -0.5632
  O  O535  1  0.239560  0.011430  0.566000  1.0  -0.5984
  O  O536  1  0.176470  0.066460  0.572990  1.0  -0.598
  O  O537  1  0.965860  0.533720  0.413690  1.0  -0.5634
  O  O538  1  0.114700  0.531480  0.416440  1.0  -0.5988
  O  O539  1  0.972530  0.120340  0.517190  1.0  -0.5807
  O  O540  1  0.887500  0.067650  0.571570  1.0  -0.598
  O  O541  1  0.149560  0.495650  0.959650  1.0  -0.7934
  O  O542  1  0.202260  0.495850  0.048490  1.0  -0.6175
  O  O543  1  0.039540  0.043420  0.467820  1.0  -0.7669
  O  O544  1  0.085640  0.015840  0.400130  1.0  -0.5635
  O  O545  1  0.150610  0.537490  0.481920  1.0  -0.8198
  O  O546  1  0.937810  0.493200  0.506030  1.0  -0.8223
  O  O547  1  0.053750  0.048260  0.552760  1.0  -0.8148
  O  O548  1  0.868040  0.016180  0.574890  1.0  -0.554
  O  O549  1  0.123510  0.928000  0.416730  1.0  -0.6235
  O  O550  1  0.258830  0.448710  0.421860  1.0  -0.5604
  O  O551  1  0.224840  0.594420  0.994610  1.0  -0.6329
  O  O552  1  0.933400  0.048720  0.511470  1.0  -0.846
  O  O553  1  0.035970  0.980180  0.429160  1.0  -0.7999
  O  O554  1  0.208700  0.065780  0.462490  1.0  -0.6495
  O  O555  1  0.034630  0.541490  0.554250  1.0  -0.7724
  O  O556  1  0.964020  0.114240  0.572840  1.0  -0.5421
  O  O557  1  0.080550  0.608870  0.584130  1.0  -0.5658
  O  O558  1  0.278580  0.497390  0.478050  1.0  -0.5992
  O  O559  1  0.881370  0.530780  0.566650  1.0  -0.5637
  O  O560  1  0.967090  0.914640  0.412120  1.0  -0.5523
  O  O561  1  0.935140  0.981080  0.477400  1.0  -0.7846
  O  O562  1  0.967130  0.491830  0.892360  1.0  -0.5464
  O  O563  1  0.203080  0.606090  0.582220  1.0  -0.5647
  O  O564  1  0.909100  0.071010  0.474710  1.0  -0.6359
  O  O565  1  0.950910  0.605590  0.992220  1.0  -0.5541
  O  O566  1  0.194150  0.425300  0.453890  1.0  -0.5772
  O  O567  1  0.876390  0.589400  0.047000  1.0  -0.5455
  O  O568  1  0.219860  0.436580  0.003140  1.0  -0.5959
  O  O569  1  0.099720  0.425100  0.999980  1.0  -0.5635
  O  O570  1  0.966020  0.532020  0.092390  1.0  -0.5532
  O  O571  1  0.057780  0.488490  0.433860  1.0  -0.7406
  O  O572  1  0.837610  0.584950  0.989800  1.0  -0.6011
  O  O573  1  0.880290  0.533090  0.936860  1.0  -0.6115
  O  O574  1  0.123000  0.439520  0.907440  1.0  -0.6179
  O  O575  1  0.935490  0.526990  0.472330  1.0  -0.8073
  O  O576  1  0.153290  0.503550  0.516120  1.0  -0.7925
  O  O577  1  0.966520  0.594460  0.472860  1.0  -0.5482
  O  O578  1  0.891170  0.435730  0.468230  1.0  -0.5988
  O  O579  1  0.199920  0.593930  0.519320  1.0  -0.593
  O  O580  1  0.123240  0.585500  0.078800  1.0  -0.6012
  O  O581  1  0.875900  0.438520  0.936940  1.0  -0.5771
  O  O582  1  0.126280  0.439760  0.504220  1.0  -0.6207
  O  O583  1  0.128220  0.528310  0.023410  1.0  -0.7552
  O  O584  1  0.927290  0.530230  0.026790  1.0  -0.7348
  O  O585  1  0.207170  0.022220  0.407400  1.0  -0.6108
  O  O586  1  0.114180  0.493250  0.893410  1.0  -0.5456
  O  O587  1  0.119530  0.496390  0.574150  1.0  -0.5478
  O  O588  1  0.179310  0.487560  0.412900  1.0  -0.5973
  O  O589  1  0.038770  0.488890  0.021780  1.0  -0.8769
  O  O590  1  0.110520  0.532870  0.092560  1.0  -0.5553
  O  O591  1  0.119780  0.914050  0.470000  1.0  -0.5521
  O  O592  1  0.887500  0.960720  0.515390  1.0  -0.5834
  O  O593  1  0.966690  0.432390  0.892810  1.0  -0.5506
  O  O594  1  0.280270  0.015340  0.520340  1.0  -0.5484
  O  O595  1  0.124200  0.102140  0.505420  1.0  -0.6101
  O  O596  1  0.948830  0.419910  0.992010  1.0  -0.5583
  O  O597  1  0.105020  0.601970  0.988530  1.0  -0.5635
  O  O598  1  0.876310  0.959010  0.418410  1.0  -0.5699
  O  O599  1  0.969830  0.915010  0.472360  1.0  -0.5615
  O  O600  1  0.175900  0.958630  0.525120  1.0  -0.592
  O  O601  1  0.835470  0.439690  0.992640  1.0  -0.5819
  O  O602  1  0.351020  0.492680  0.428980  1.0  -0.5411
  O  O603  1  0.822690  0.575400  0.555270  1.0  -0.5755
  O  O604  1  0.963460  0.594230  0.091850  1.0  -0.5305
  O  O605  1  0.053410  0.980450  0.518340  1.0  -0.7365
  O  O606  1  0.972580  0.433610  0.511750  1.0  -0.5508
  O  O607  1  0.116170  0.596460  0.476560  1.0  -0.5553
  F  F608  1  0.422600  0.378100  0.141600  1.0  -0.1283
  F  F609  1  0.029380  0.270360  0.356700  1.0  -0.1529
  F  F610  1  0.334750  0.321380  0.082610  1.0  -0.1465
  F  F611  1  0.540060  0.278340  0.337440  1.0  -0.1246
  F  F612  1  0.694530  0.992060  0.718710  1.0  -0.1575
  F  F613  1  0.678830  0.633540  0.591060  1.0  -0.1458
  F  F614  1  0.875590  0.048460  0.657940  1.0  -0.1411
  F  F615  1  0.330290  0.857420  0.786290  1.0  -0.1416
  F  F616  1  0.630520  0.882270  0.213570  1.0  -0.1374
  F  F617  1  0.109880  0.052410  0.356010  1.0  -0.1298
  F  F618  1  0.398650  0.787030  0.764690  1.0  -0.1361
  F  F619  1  0.287190  0.997330  0.339640  1.0  -0.1425
  F  F620  1  0.635400  0.702730  0.052950  1.0  -0.157
  F  F621  1  0.866430  0.149600  0.276860  1.0  -0.1348
  F  F622  1  0.836710  0.347160  0.924830  1.0  -0.1526
  F  F623  1  0.661430  0.227500  0.846080  1.0  -0.1419
  F  F624  1  0.737990  0.741870  0.082010  1.0  -0.1655
  F  F625  1  0.723210  0.917350  0.271780  1.0  -0.1812
  F  F626  1  0.372500  0.810410  0.128470  1.0  -0.1568
  F  F627  1  0.448990  0.431890  0.393330  1.0  -0.151
  F  F628  1  0.992140  0.218690  0.282070  1.0  -0.1479
  F  F629  1  0.171460  0.730940  0.703440  1.0  -0.1518
  F  F630  1  0.463370  0.854190  0.780110  1.0  -0.142
  F  F631  1  0.271680  0.060210  0.369570  1.0  -0.1508
  F  F632  1  0.704280  0.684300  0.982580  1.0  -0.153
  F  F633  1  0.104410  0.664220  0.662260  1.0  -0.1449
  F  F634  1  0.847920  0.363460  0.342840  1.0  -0.1449
  F  F635  1  0.534200  0.894860  0.256320  1.0  -0.1436
  F  F636  1  0.727500  0.379250  0.956940  1.0  -0.1637
  F  F637  1  0.855430  0.948830  0.596650  1.0  -0.1488
  F  F638  1  0.500610  0.794920  0.043920  1.0  -0.1176
  F  F639  1  0.272270  0.676220  0.615280  1.0  -0.1583
  F  F640  1  0.274950  0.721140  0.010360  1.0  -0.1401
  F  F641  1  0.592980  0.128430  0.723710  1.0  -0.1462
  F  F642  1  0.458550  0.383860  0.446170  1.0  -0.1954
  F  F643  1  0.645930  0.361280  0.404310  1.0  -0.2146
  F  F644  1  0.706440  0.630000  0.676070  1.0  -0.1885
  F  F645  1  0.278550  0.336440  0.032140  1.0  -0.1354
  F  F646  1  0.568100  0.947440  0.670440  1.0  -0.1287
  F  F647  1  0.562810  0.687680  0.713470  1.0  -0.1514
  F  F648  1  0.764910  0.994480  0.610810  1.0  -0.1831
  F  F649  1  0.441620  0.076450  0.272160  1.0  -0.1439
  F  F650  1  0.691200  0.248830  0.323740  1.0  -0.1274
  F  F651  1  0.512570  0.835890  0.105700  1.0  -0.1181
  F  F652  1  0.536100  0.370820  0.358880  1.0  -0.1634
  F  F653  1  0.687200  0.681280  0.670560  1.0  -0.1341
  F  F654  1  0.556510  0.327210  0.415500  1.0  -0.1929
  F  F655  1  0.340550  0.739820  0.079950  1.0  -0.1471
  F  F656  1  0.299670  0.669870  0.035970  1.0  -0.1588
  F  F657  1  0.222650  0.342540  0.116910  1.0  -0.148
  F  F658  1  0.411220  0.077940  0.683470  1.0  -0.1759
  F  F659  1  0.793440  0.018580  0.689200  1.0  -0.1632
  F  F660  1  0.707650  0.777100  0.038840  1.0  -0.1552
  F  F661  1  0.264400  0.662200  0.661630  1.0  -0.1768
  F  F662  1  0.986280  0.290110  0.302730  1.0  -0.1454
  F  F663  1  0.312000  0.792120  0.057190  1.0  -0.1605
  F  F664  1  0.617280  0.271810  0.944930  1.0  -0.1409
  F  F665  1  0.224390  0.990060  0.274540  1.0  -0.1463
  F  F666  1  0.726780  0.644230  0.019810  1.0  -0.1576
  F  F667  1  0.187700  0.801350  0.080510  1.0  -0.1441
  F  F668  1  0.551010  0.972820  0.280340  1.0  -0.1719
  F  F669  1  0.446910  0.335910  0.368900  1.0  -0.1573
  F  F670  1  0.619010  0.056610  0.665420  1.0  -0.1682
  F  F671  1  0.222980  0.871750  0.126220  1.0  -0.1372
  F  F672  1  0.401860  0.355560  0.193460  1.0  -0.139
  F  F673  1  0.491170  0.109200  0.745380  1.0  -0.1327
  F  F674  1  0.906250  0.664970  0.986090  1.0  -0.1505
  F  F675  1  0.857790  0.292260  0.318920  1.0  -0.1539
  F  F676  1  0.640830  0.321110  0.917720  1.0  -0.1628
  F  F677  1  0.543460  0.762000  0.086020  1.0  -0.1375
  F  F678  1  0.709160  0.329280  0.984270  1.0  -0.1402
  F  F679  1  0.297470  0.798350  0.693770  1.0  -0.1543
  F  F680  1  0.471680  0.006180  0.621250  1.0  -0.1658
  F  F681  1  0.956950  0.130410  0.303930  1.0  -0.1363
  F  F682  1  0.623790  0.937860  0.314110  1.0  -0.1716
  F  F683  1  0.121730  0.664930  0.985420  1.0  -0.1455
  F  F684  1  0.632620  0.120440  0.783770  1.0  -0.1219
  F  F685  1  0.725390  0.238670  0.913460  1.0  -0.1452
  F  F686  1  0.100750  0.687620  0.623160  1.0  -0.1482
  F  F687  1  0.026880  0.341520  0.376100  1.0  -0.1448
  F  F688  1  0.386740  0.008710  0.297820  1.0  -0.1535
  F  F689  1  0.481530  0.873300  0.184580  1.0  -0.117
  F  F690  1  0.828960  0.682120  0.052620  1.0  -0.1561
  F  F691  1  0.996460  0.147000  0.261980  1.0  -0.1445
  F  F692  1  0.218250  0.749610  0.105410  1.0  -0.1627
  F  F693  1  0.804130  0.628020  0.952490  1.0  -0.1417
  F  F694  1  0.747980  0.288000  0.885290  1.0  -0.1585
  F  F695  1  0.602400  0.738900  0.012850  1.0  -0.1448
  F  F696  1  0.349550  0.862740  0.105170  1.0  -0.1234
  F  F697  1  0.534000  0.909210  0.708330  1.0  -0.1383
  F  F698  1  0.630800  0.180170  0.875530  1.0  -0.1245
  F  F699  1  0.647310  0.801560  0.110420  1.0  -0.1242
  F  F700  1  0.400470  0.978740  0.557260  1.0  -0.1607
  F  F701  1  0.112000  0.366640  0.011760  1.0  -0.1349
  F  F702  1  0.164660  0.355250  0.065350  1.0  -0.15
  F  F703  1  0.330830  0.041790  0.624750  1.0  -0.1624
  F  F704  1  0.642180  0.895900  0.653930  1.0  -0.1337
  F  F705  1  0.544400  0.922410  0.186100  1.0  -0.1145
  F  F706  1  0.869850  0.967340  0.669740  1.0  -0.1437
  F  F707  1  0.302150  0.410110  0.045670  1.0  -0.1601
  F  F708  1  0.451810  0.786030  0.713970  1.0  -0.1331
  F  F709  1  0.499800  0.105920  0.664470  1.0  -0.1874
  F  F710  1  0.229730  0.356500  0.981980  1.0  -0.1399
  F  F711  1  0.430110  0.694530  0.751720  1.0  -0.1056
  F  F712  1  0.606830  0.833540  0.065830  1.0  -0.1332
  F  F713  1  0.357070  0.393230  0.395220  1.0  -0.1641
  F  F714  1  0.862790  0.221350  0.297350  1.0  -0.1483
  F  F715  1  0.767360  0.939460  0.698020  1.0  -0.1492
  F  F716  1  0.354620  0.437190  0.474550  1.0  -0.1823
  F  F717  1  0.152010  0.732830  0.035470  1.0  -0.1418
  F  F718  1  0.900830  0.342750  0.395000  1.0  -0.1662
  F  F719  1  0.327650  0.990840  0.228070  1.0  -0.1639
  F  F720  1  0.703710  0.584370  0.599090  1.0  -0.1993
  F  F721  1  0.693570  0.077690  0.730950  1.0  -0.1223
  F  F722  1  0.031370  0.199190  0.336800  1.0  -0.1417
  F  F723  1  0.536750  0.041290  0.601910  1.0  -0.1584
  F  F724  1  0.247080  0.795920  0.743280  1.0  -0.1496
  F  F725  1  0.975060  0.364000  0.325680  1.0  -0.1384
  F  F726  1  0.484440  0.017890  0.253490  1.0  -0.1424
  F  F727  1  0.436970  0.021160  0.540720  1.0  -0.1413
  F  F728  1  0.709430  0.981800  0.371420  1.0  -0.1824
  F  F729  1  0.429490  0.993600  0.181180  1.0  -0.1117
  F  F730  1  0.447050  0.932170  0.227810  1.0  -0.1437
  F  F731  1  0.652170  0.958140  0.239480  1.0  -0.1413
  F  F732  1  0.522490  0.214870  0.905270  1.0  -0.1373
  F  F733  1  0.765860  0.051150  0.383850  1.0  -0.1445
  F  F734  1  0.630650  0.312300  0.326880  1.0  -0.1311
  F  F735  1  0.837820  0.634220  0.649320  1.0  -0.1474
  F  F736  1  0.530950  0.185680  0.842270  1.0  -0.1271
  F  F737  1  0.311140  0.400550  0.176020  1.0  -0.1459
  F  F738  1  0.554290  0.262200  0.876520  1.0  -0.1292
  F  F739  1  0.361850  0.393460  0.092810  1.0  -0.1661
  F  F740  1  0.573810  0.629630  0.705880  1.0  -0.1716
  F  F741  1  0.199910  0.743390  0.657280  1.0  -0.1578
  F  F742  1  0.815040  0.666750  0.619750  1.0  -0.1384
  F  F743  1  0.175390  0.681210  0.059690  1.0  -0.1774
  F  F744  1  0.513680  0.042580  0.203340  1.0  -0.148
  F  F745  1  0.550460  0.418660  0.437650  1.0  -0.1526
  F  F746  1  0.658830  0.013110  0.329840  1.0  -0.139
  F  F747  1  0.763850  0.989220  0.290880  1.0  -0.1481
  F  F748  1  0.365660  0.728590  0.666100  1.0  -0.1664
  F  F749  1  0.421290  0.668260  0.674270  1.0  -0.1795
  F  F750  1  0.567300  0.597610  0.629040  1.0  -0.1673
  F  F751  1  0.331190  0.653510  0.721410  1.0  -0.1302
  F  F752  1  0.648670  0.267390  0.382300  1.0  -0.1341
  F  F753  1  0.185160  0.427270  0.076840  1.0  -0.1734
  F  F754  1  0.811910  0.952950  0.331500  1.0  -0.166
  F  F755  1  0.744640  0.922290  0.623810  1.0  -0.1485
  F  F756  1  0.901900  0.201640  0.351680  1.0  -0.128
  F  F757  1  0.355140  0.069590  0.321130  1.0  -0.1558
  F  F758  1  0.121870  0.989450  0.322410  1.0  -0.1462
  F  F759  1  0.658800  0.918720  0.731070  1.0  -0.1385
  F  F760  1  0.431670  0.609010  0.662570  1.0  -0.1871
  F  F761  1  0.247820  0.820170  0.151240  1.0  -0.138
  F  F762  1  0.868310  0.021970  0.344750  1.0  -0.1445
  F  F763  1  0.816700  0.297060  0.951240  1.0  -0.1439
  F  F764  1  0.324430  0.884920  0.166440  1.0  -0.1142
  F  F765  1  0.197720  0.051950  0.303060  1.0  -0.156
  F  F766  1  0.578610  0.968090  0.745120  1.0  -0.1312
  F  F767  1  0.739670  0.301870  0.372280  1.0  -0.1436
  F  F768  1  0.392360  0.079560  0.607400  1.0  -0.165
  F  F769  1  0.590510  0.060550  0.754470  1.0  -0.0941
  F  F770  1  0.794760  0.391380  0.023590  1.0  -0.1417
  F  F771  1  0.966000  0.002840  0.644010  1.0  -0.1394
  F  F772  1  0.383020  0.051820  0.199470  1.0  -0.1398
  F  F773  1  0.287500  0.050520  0.250190  1.0  -0.1465
  F  F774  1  0.526920  0.033250  0.688020  1.0  -0.1622
  F  F775  1  0.446150  0.475520  0.472060  1.0  -0.1393
  F  F776  1  0.387830  0.856400  0.736140  1.0  -0.129
  F  F777  1  0.902440  0.357440  0.992500  1.0  -0.1379
  F  F778  1  0.248300  0.413670  0.126030  1.0  -0.1711
  F  F779  1  0.393120  0.307560  0.134080  1.0  -0.13
  F  F780  1  0.246720  0.645580  0.965510  1.0  -0.1447
  F  F781  1  0.282300  0.330710  0.169360  1.0  -0.1364
  F  F782  1  0.439400  0.634710  0.739610  1.0  -0.12
  F  F783  1  0.808020  0.721740  0.013420  1.0  -0.1501
  F  F784  1  0.668660  0.973930  0.643760  1.0  -0.1759
  F  F785  1  0.326000  0.725780  0.717060  1.0  -0.179
  F  F786  1  0.900780  0.272530  0.372830  1.0  -0.1749
  F  F787  1  0.547770  0.653940  0.633640  1.0  -0.1674
