# generated using pymatgen
data_Zn4H26C46N10O13
_symmetry_space_group_name_H-M   'P 1'
_cell_length_a   53.72750000
_cell_length_b   53.72740000
_cell_length_c   53.72740000
_cell_angle_alpha   109.47100000
_cell_angle_beta   109.47100000
_cell_angle_gamma   109.47100000
_symmetry_Int_Tables_number   1
_chemical_formula_structural   Zn4H26C46N10O13
_chemical_formula_sum   'Zn96 H624 C1104 N240 O312'
_cell_volume   119390.54610281
_cell_formula_units_Z   24
loop_
 _symmetry_equiv_pos_site_id
 _symmetry_equiv_pos_as_xyz
  1  'x, y, z'
loop_
 _atom_site_type_symbol
 _atom_site_label
 _atom_site_symmetry_multiplicity
 _atom_site_fract_x
 _atom_site_fract_y
 _atom_site_fract_z
 _atom_site_occupancy
 _atom_site_charge
  Zn  Zn1  1  0.345070  0.650740  0.053980  1.0  0.898
  Zn  Zn2  1  0.053980  0.903240  0.208910  1.0  0.8979
  Zn  Zn3  1  0.305670  0.708910  0.154930  1.0  0.901
  Zn  Zn4  1  0.708910  0.053980  0.403240  1.0  0.9016
  Zn  Zn5  1  0.208910  0.403240  0.053980  1.0  0.9028
  Zn  Zn6  1  0.238960  0.424510  0.208600  1.0  0.9076
  Zn  Zn7  1  0.903240  0.708910  0.553980  1.0  0.9036
  Zn  Zn8  1  0.845070  0.791090  0.694330  1.0  0.901
  Zn  Zn9  1  0.075490  0.814450  0.284090  1.0  0.9082
  Zn  Zn10  1  0.596760  0.446020  0.291090  1.0  0.8986
  Zn  Zn11  1  0.715910  0.685550  0.924510  1.0  0.9049
  Zn  Zn12  1  0.349260  0.903240  0.694330  1.0  0.9003
  Zn  Zn13  1  0.215910  0.291400  0.030360  1.0  0.9072
  Zn  Zn14  1  0.784090  0.075490  0.314450  1.0  0.9063
  Zn  Zn15  1  0.946020  0.096760  0.791090  1.0  0.9008
  Zn  Zn16  1  0.738960  0.208600  0.424510  1.0  0.9061
  Zn  Zn17  1  0.708600  0.238960  0.924510  1.0  0.9052
  Zn  Zn18  1  0.805670  0.154930  0.708910  1.0  0.8977
  Zn  Zn19  1  0.030360  0.791400  0.215910  1.0  0.9064
  Zn  Zn20  1  0.849260  0.154930  0.446020  1.0  0.8998
  Zn  Zn21  1  0.291400  0.530360  0.715910  1.0  0.9064
  Zn  Zn22  1  0.738960  0.530360  0.814450  1.0  0.9067
  Zn  Zn23  1  0.150740  0.305670  0.096760  1.0  0.8979
  Zn  Zn24  1  0.208910  0.805670  0.654930  1.0  0.9025
  Zn  Zn25  1  0.924510  0.738960  0.708600  1.0  0.9066
  Zn  Zn26  1  0.053980  0.150740  0.345070  1.0  0.8983
  Zn  Zn27  1  0.969640  0.761040  0.685550  1.0  0.9051
  Zn  Zn28  1  0.694330  0.291090  0.845070  1.0  0.9028
  Zn  Zn29  1  0.469640  0.784090  0.208600  1.0  0.9041
  Zn  Zn30  1  0.424510  0.708600  0.738960  1.0  0.9081
  Zn  Zn31  1  0.650740  0.096760  0.305670  1.0  0.8983
  Zn  Zn32  1  0.575490  0.284090  0.814450  1.0  0.9037
  Zn  Zn33  1  0.424510  0.715910  0.185550  1.0  0.9054
  Zn  Zn34  1  0.291090  0.345070  0.194330  1.0  0.9029
  Zn  Zn35  1  0.284090  0.969640  0.708600  1.0  0.9056
  Zn  Zn36  1  0.185550  0.969640  0.261040  1.0  0.9068
  Zn  Zn37  1  0.208600  0.924510  0.238960  1.0  0.9077
  Zn  Zn38  1  0.349260  0.446020  0.154930  1.0  0.8986
  Zn  Zn39  1  0.215910  0.924510  0.685550  1.0  0.9055
  Zn  Zn40  1  0.694330  0.403240  0.349260  1.0  0.9026
  Zn  Zn41  1  0.791400  0.715910  0.530360  1.0  0.904
  Zn  Zn42  1  0.154930  0.946020  0.349260  1.0  0.9017
  Zn  Zn43  1  0.403240  0.849260  0.194330  1.0  0.8966
  Zn  Zn44  1  0.708600  0.469640  0.284090  1.0  0.9082
  Zn  Zn45  1  0.150740  0.845070  0.553980  1.0  0.8982
  Zn  Zn46  1  0.903240  0.194330  0.849260  1.0  0.9023
  Zn  Zn47  1  0.791090  0.194330  0.345070  1.0  0.9036
  Zn  Zn48  1  0.291400  0.761040  0.075490  1.0  0.9057
  Zn  Zn49  1  0.650740  0.553980  0.845070  1.0  0.8985
  Zn  Zn50  1  0.708910  0.654930  0.805670  1.0  0.9025
  Zn  Zn51  1  0.575490  0.291400  0.261040  1.0  0.907
  Zn  Zn52  1  0.814450  0.030360  0.738960  1.0  0.9058
  Zn  Zn53  1  0.805670  0.650740  0.596760  1.0  0.8969
  Zn  Zn54  1  0.469640  0.685550  0.761040  1.0  0.9064
  Zn  Zn55  1  0.814450  0.784090  0.575490  1.0  0.9046
  Zn  Zn56  1  0.446020  0.791090  0.096760  1.0  0.9024
  Zn  Zn57  1  0.685550  0.424510  0.215910  1.0  0.9086
  Zn  Zn58  1  0.030360  0.238960  0.314450  1.0  0.9055
  Zn  Zn59  1  0.715910  0.030360  0.291400  1.0  0.9056
  Zn  Zn60  1  0.096760  0.805670  0.150740  1.0  0.9032
  Zn  Zn61  1  0.261040  0.469640  0.185550  1.0  0.9064
  Zn  Zn62  1  0.849260  0.694330  0.903240  1.0  0.8982
  Zn  Zn63  1  0.553980  0.208910  0.903240  1.0  0.9013
  Zn  Zn64  1  0.194330  0.349260  0.403240  1.0  0.8964
  Zn  Zn65  1  0.791400  0.075490  0.761040  1.0  0.9059
  Zn  Zn66  1  0.305670  0.596760  0.650740  1.0  0.9033
  Zn  Zn67  1  0.761040  0.185550  0.469640  1.0  0.9078
  Zn  Zn68  1  0.314450  0.575490  0.784090  1.0  0.9081
  Zn  Zn69  1  0.096760  0.291090  0.446020  1.0  0.9007
  Zn  Zn70  1  0.446020  0.654930  0.849260  1.0  0.902
  Zn  Zn71  1  0.685550  0.261040  0.969640  1.0  0.9066
  Zn  Zn72  1  0.654930  0.349260  0.946020  1.0  0.8955
  Zn  Zn73  1  0.185550  0.215910  0.424510  1.0  0.9044
  Zn  Zn74  1  0.969640  0.208600  0.784090  1.0  0.9084
  Zn  Zn75  1  0.154930  0.208910  0.305670  1.0  0.9032
  Zn  Zn76  1  0.553980  0.345070  0.150740  1.0  0.9031
  Zn  Zn77  1  0.784090  0.708600  0.969640  1.0  0.9062
  Zn  Zn78  1  0.654930  0.305670  0.208910  1.0  0.8985
  Zn  Zn79  1  0.791090  0.596760  0.946020  1.0  0.903
  Zn  Zn80  1  0.208600  0.284090  0.469640  1.0  0.905
  Zn  Zn81  1  0.530360  0.314450  0.238960  1.0  0.905
  Zn  Zn82  1  0.261040  0.791400  0.575490  1.0  0.9072
  Zn  Zn83  1  0.403240  0.553980  0.708910  1.0  0.8986
  Zn  Zn84  1  0.946020  0.849260  0.654930  1.0  0.8965
  Zn  Zn85  1  0.530360  0.215910  0.791400  1.0  0.9049
  Zn  Zn86  1  0.345070  0.694330  0.791090  1.0  0.898
  Zn  Zn87  1  0.291090  0.946020  0.596760  1.0  0.9036
  Zn  Zn88  1  0.845070  0.053980  0.650740  1.0  0.9035
  Zn  Zn89  1  0.596760  0.150740  0.805670  1.0  0.8981
  Zn  Zn90  1  0.761040  0.575490  0.791400  1.0  0.9071
  Zn  Zn91  1  0.238960  0.814450  0.530360  1.0  0.9073
  Zn  Zn92  1  0.194330  0.845070  0.291090  1.0  0.9003
  Zn  Zn93  1  0.284090  0.314450  0.075490  1.0  0.9058
  Zn  Zn94  1  0.075490  0.261040  0.291400  1.0  0.9048
  Zn  Zn95  1  0.924510  0.185550  0.715910  1.0  0.9085
  Zn  Zn96  1  0.314450  0.738960  0.030360  1.0  0.9046
  H  H97  1  0.218400  0.284500  0.201300  1.0  0.1118
  H  H98  1  0.287500  0.635300  0.577200  1.0  0.0994
  H  H99  1  0.679100  0.485800  0.940300  1.0  0.1362
  H  H100  1  0.475500  0.674500  0.814800  1.0  0.0905
  H  H101  1  0.710300  0.287500  0.152200  1.0  0.1021
  H  H102  1  0.732600  0.116200  0.444800  1.0  0.0439
  H  H103  1  0.720100  0.433000  0.792900  1.0  0.0998
  H  H104  1  0.759100  0.609200  0.472300  1.0  0.0691
  H  H105  1  0.131700  0.061800  0.331300  1.0  0.1476
  H  H106  1  0.306700  0.820900  0.261200  1.0  0.1366
  H  H107  1  0.715500  0.298700  0.281600  1.0  0.11
  H  H108  1  0.152200  0.364700  0.941900  1.0  0.0989
  H  H109  1  0.310200  0.649600  0.693000  1.0  0.352
  H  H110  1  0.636900  0.350100  0.109200  1.0  0.0712
  H  H111  1  0.956600  0.807000  0.617200  1.0  0.3537
  H  H112  1  0.605100  0.713100  0.938600  1.0  0.1168
  H  H113  1  0.806700  0.545500  0.485800  1.0  0.1373
  H  H114  1  0.438600  0.833500  0.725500  1.0  0.1168
  H  H115  1  0.427200  0.640100  0.207100  1.0  0.1016
  H  H116  1  0.339300  0.814800  0.140300  1.0  0.0905
  H  H117  1  0.441600  0.593600  0.774400  1.0  0.3278
  H  H118  1  0.715500  0.416800  0.933900  1.0  0.1103
  H  H119  1  0.725600  0.558400  0.906400  1.0  0.3318
  H  H120  1  0.072800  0.792900  0.359900  1.0  0.1019
  H  H121  1  0.061400  0.786900  0.394900  1.0  0.1181
  H  H122  1  0.444800  0.828600  0.212200  1.0  0.0458
  H  H123  1  0.135300  0.787500  0.077200  1.0  0.1005
  H  H124  1  0.267400  0.383600  0.212200  1.0  0.0445
  H  H125  1  0.783800  0.496800  0.937200  1.0  0.0906
  H  H126  1  0.800400  0.131700  0.569900  1.0  0.147
  H  H127  1  0.559600  0.562800  0.846600  1.0  0.0906
  H  H128  1  0.713000  0.153400  0.716200  1.0  0.0901
  H  H129  1  0.058400  0.832800  0.152000  1.0  0.328
  H  H130  1  0.438600  0.605100  0.213100  1.0  0.1173
  H  H131  1  0.713100  0.274500  0.108000  1.0  0.117
  H  H132  1  0.561400  0.394900  0.786900  1.0  0.1174
  H  H133  1  0.806700  0.261200  0.820900  1.0  0.1391
  H  H134  1  0.422800  0.864700  0.712500  1.0  0.0995
  H  H135  1  0.892000  0.666500  0.105100  1.0  0.1147
  H  H136  1  0.045500  0.738800  0.559700  1.0  0.1397
  H  H137  1  0.818300  0.617100  0.477200  1.0  0.0904
  H  H138  1  0.616200  0.232600  0.944800  1.0  0.0455
  H  H139  1  0.543400  0.160600  0.850400  1.0  0.3539
  H  H140  1  0.941900  0.077200  0.289700  1.0  0.1
  H  H141  1  0.859700  0.685200  0.660700  1.0  0.092
  H  H142  1  0.674500  0.314800  0.975500  1.0  0.0922
  H  H143  1  0.583200  0.017100  0.298700  1.0  0.1118
  H  H144  1  0.359900  0.292900  0.072800  1.0  0.1033
  H  H145  1  0.890800  0.740900  0.027700  1.0  0.0692
  H  H146  1  0.652000  0.593600  0.819200  1.0  0.3275
  H  H147  1  0.022800  0.181700  0.882900  1.0  0.0886
  H  H148  1  0.798700  0.583200  0.517100  1.0  0.1102
  H  H149  1  0.792900  0.933000  0.720100  1.0  0.1036
  H  H150  1  0.240900  0.850100  0.213200  1.0  0.0698
  H  H151  1  0.438200  0.368300  0.168700  1.0  0.1482
  H  H152  1  0.527700  0.636900  0.786800  1.0  0.0692
  H  H153  1  0.864700  0.652200  0.441900  1.0  0.0996
  H  H154  1  0.941900  0.864700  0.152200  1.0  0.0982
  H  H155  1  0.712900  0.072800  0.779900  1.0  0.1021
  H  H156  1  0.514200  0.954500  0.193300  1.0  0.136
  H  H157  1  0.890800  0.149900  0.363100  1.0  0.0698
  H  H158  1  0.181700  0.382900  0.522800  1.0  0.09
  H  H159  1  0.066100  0.083200  0.284500  1.0  0.1113
  H  H160  1  0.298800  0.617100  0.139900  1.0  0.0903
  H  H161  1  0.131700  0.069900  0.300400  1.0  0.1471
  H  H162  1  0.850100  0.713200  0.740900  1.0  0.0705
  H  H163  1  0.561800  0.930100  0.230500  1.0  0.1471
  H  H164  1  0.045500  0.306700  0.985800  1.0  0.1355
  H  H165  1  0.712500  0.364700  0.422800  1.0  0.0997
  H  H166  1  0.027700  0.240900  0.890800  1.0  0.0701
  H  H167  1  0.433900  0.718400  0.017100  1.0  0.112
  H  H168  1  0.982900  0.201300  0.916800  1.0  0.1126
  H  H169  1  0.382900  0.360100  0.201200  1.0  0.091
  H  H170  1  0.215500  0.933900  0.416800  1.0  0.1119
  H  H171  1  0.667200  0.225600  0.819200  1.0  0.3272
  H  H172  1  0.944800  0.212200  0.828600  1.0  0.0435
  H  H173  1  0.738800  0.679100  0.693300  1.0  0.1354
  H  H174  1  0.577200  0.441900  0.789700  1.0  0.1007
  H  H175  1  0.117100  0.798800  0.639900  1.0  0.0914
  H  H176  1  0.210300  0.058100  0.422800  1.0  0.0998
  H  H177  1  0.383600  0.712200  0.767400  1.0  0.0438
  H  H178  1  0.660600  0.617200  0.810200  1.0  0.3533
  H  H179  1  0.831300  0.131700  0.561800  1.0  0.1468
  H  H180  1  0.117200  0.160600  0.310200  1.0  0.3542
  H  H181  1  0.174500  0.975500  0.314800  1.0  0.0916
  H  H182  1  0.699600  0.269500  0.331300  1.0  0.1473
  H  H183  1  0.485800  0.440300  0.179100  1.0  0.1371
  H  H184  1  0.346600  0.787000  0.783800  1.0  0.0906
  H  H185  1  0.774400  0.680800  0.832800  1.0  0.325
  H  H186  1  0.225600  0.319200  0.167200  1.0  0.3287
  H  H187  1  0.640300  0.339300  0.314800  1.0  0.0915
  H  H188  1  0.193000  0.310200  0.149600  1.0  0.3535
  H  H189  1  0.220100  0.427200  0.287100  1.0  0.1009
  H  H190  1  0.555200  0.171400  0.787800  1.0  0.0461
  H  H191  1  0.543400  0.382800  0.193000  1.0  0.3539
  H  H192  1  0.261200  0.940300  0.454500  1.0  0.136
  H  H193  1  0.566100  0.284500  0.083200  1.0  0.1118
  H  H194  1  0.318300  0.841100  0.201200  1.0  0.0899
  H  H195  1  0.922800  0.210300  0.558100  1.0  0.0998
  H  H196  1  0.066100  0.982900  0.281600  1.0  0.1122
  H  H197  1  0.274400  0.441600  0.093600  1.0  0.3287
  H  H198  1  0.740900  0.213200  0.850100  1.0  0.0704
  H  H199  1  0.440300  0.679100  0.985800  1.0  0.1354
  H  H200  1  0.864700  0.212500  0.922800  1.0  0.0999
  H  H201  1  0.617200  0.307000  0.956600  1.0  0.3506
  H  H202  1  0.820900  0.761200  0.806700  1.0  0.1375
  H  H203  1  0.517100  0.433900  0.218400  1.0  0.111
  H  H204  1  0.524500  0.325500  0.185200  1.0  0.0917
  H  H205  1  0.933900  0.916800  0.715500  1.0  0.1124
  H  H206  1  0.814800  0.640300  0.839300  1.0  0.0934
  H  H207  1  0.693000  0.543400  0.882800  1.0  0.3524
  H  H208  1  0.567000  0.859900  0.287100  1.0  0.1012
  H  H209  1  0.140100  0.212900  0.933000  1.0  0.1036
  H  H210  1  0.093600  0.152000  0.319200  1.0  0.3281
  H  H211  1  0.938600  0.213100  0.605100  1.0  0.1188
  H  H212  1  0.105100  0.166500  0.892000  1.0  0.1169
  H  H213  1  0.406400  0.725600  0.058400  1.0  0.3274
  H  H214  1  0.789700  0.941900  0.577200  1.0  0.1002
  H  H215  1  0.332800  0.774400  0.180800  1.0  0.3287
  H  H216  1  0.631700  0.331300  0.061800  1.0  0.1466
  H  H217  1  0.059600  0.213000  0.996800  1.0  0.0905
  H  H218  1  0.382800  0.689800  0.839400  1.0  0.3529
  H  H219  1  0.189800  0.307000  0.350400  1.0  0.3499
  H  H220  1  0.640100  0.707100  0.927200  1.0  0.1022
  H  H221  1  0.545500  0.559700  0.738800  1.0  0.1361
  H  H222  1  0.301000  0.325500  0.140300  1.0  0.0911
  H  H223  1  0.784500  0.718400  0.701300  1.0  0.1127
  H  H224  1  0.649900  0.390800  0.863100  1.0  0.0696
  H  H225  1  0.712900  0.640100  0.433000  1.0  0.1017
  H  H226  1  0.839300  0.699000  0.524500  1.0  0.0929
  H  H227  1  0.269500  0.831300  0.199600  1.0  0.1484
  H  H228  1  0.289700  0.712500  0.847800  1.0  0.1017
  H  H229  1  0.212900  0.433000  0.640100  1.0  0.1004
  H  H230  1  0.954500  0.693300  0.014200  1.0  0.1339
  H  H231  1  0.160700  0.301000  0.475500  1.0  0.0925
  H  H232  1  0.562800  0.346600  0.059600  1.0  0.0913
  H  H233  1  0.116200  0.171400  0.383600  1.0  0.0459
  H  H234  1  0.680800  0.332800  0.274400  1.0  0.3286
  H  H235  1  0.819200  0.093600  0.652000  1.0  0.3285
  H  H236  1  0.839400  0.189800  0.382800  1.0  0.3512
  H  H237  1  0.319200  0.667200  0.725600  1.0  0.3264
  H  H238  1  0.701300  0.482900  0.416800  1.0  0.1114
  H  H239  1  0.720100  0.287100  0.427200  1.0  0.0999
  H  H240  1  0.787100  0.567000  0.359900  1.0  0.0996
  H  H241  1  0.938600  0.725500  0.833500  1.0  0.1173
  H  H242  1  0.940300  0.954500  0.761200  1.0  0.136
  H  H243  1  0.319200  0.652000  0.093600  1.0  0.3295
  H  H244  1  0.985800  0.179100  0.440300  1.0  0.1365
  H  H245  1  0.069900  0.269500  0.938200  1.0  0.1488
  H  H246  1  0.220100  0.792900  0.433000  1.0  0.1009
  H  H247  1  0.689800  0.339400  0.882800  1.0  0.3504
  H  H248  1  0.566100  0.281600  0.982900  1.0  0.1126
  H  H249  1  0.616400  0.287800  0.232600  1.0  0.0438
  H  H250  1  0.894900  0.061400  0.286900  1.0  0.1152
  H  H251  1  0.938200  0.769500  0.069900  1.0  0.1466
  H  H252  1  0.569900  0.631700  0.800400  1.0  0.1488
  H  H253  1  0.818300  0.201200  0.841100  1.0  0.0916
  H  H254  1  0.807000  0.689800  0.850400  1.0  0.3538
  H  H255  1  0.152200  0.787500  0.710300  1.0  0.1003
  H  H256  1  0.332800  0.558400  0.652000  1.0  0.3288
  H  H257  1  0.135300  0.347800  0.558100  1.0  0.0991
  H  H258  1  0.798700  0.215500  0.781600  1.0  0.1105
  H  H259  1  0.286800  0.527700  0.136900  1.0  0.0702
  H  H260  1  0.392000  0.286900  0.225500  1.0  0.1166
  H  H261  1  0.572800  0.212900  0.279900  1.0  0.1026
  H  H262  1  0.503200  0.562800  0.716200  1.0  0.0904
  H  H263  1  0.438200  0.069900  0.769500  1.0  0.1475
  H  H264  1  0.061400  0.274500  0.166500  1.0  0.1166
  H  H265  1  0.314800  0.475500  0.174500  1.0  0.0924
  H  H266  1  0.139900  0.117100  0.298800  1.0  0.0892
  H  H267  1  0.287000  0.846600  0.283800  1.0  0.0909
  H  H268  1  0.906400  0.848000  0.680800  1.0  0.3275
  H  H269  1  0.180800  0.274400  0.332800  1.0  0.3276
  H  H270  1  0.933000  0.712900  0.140100  1.0  0.1004
  H  H271  1  0.572800  0.359900  0.792900  1.0  0.1022
  H  H272  1  0.207100  0.140100  0.427200  1.0  0.1009
  H  H273  1  0.514200  0.559700  0.820900  1.0  0.138
  H  H274  1  0.847800  0.635300  0.058100  1.0  0.0985
  H  H275  1  0.658900  0.477200  0.860100  1.0  0.09
  H  H276  1  0.167200  0.819200  0.225600  1.0  0.3283
  H  H277  1  0.680800  0.348000  0.906400  1.0  0.3267
  H  H278  1  0.859900  0.787100  0.067000  1.0  0.1032
  H  H279  1  0.828600  0.712200  0.944800  1.0  0.0427
  H  H280  1  0.093600  0.941600  0.274400  1.0  0.3279
  H  H281  1  0.730500  0.561800  0.430100  1.0  0.1479
  H  H282  1  0.281600  0.482900  0.066100  1.0  0.1105
  H  H283  1  0.440300  0.761200  0.954500  1.0  0.1367
  H  H284  1  0.210300  0.152200  0.287500  1.0  0.0988
  H  H285  1  0.577200  0.135300  0.287500  1.0  0.0987
  H  H286  1  0.685200  0.160700  0.359700  1.0  0.0916
  H  H287  1  0.333500  0.938600  0.225500  1.0  0.1155
  H  H288  1  0.171400  0.883600  0.616200  1.0  0.0452
  H  H289  1  0.382800  0.693000  0.043400  1.0  0.3521
  H  H290  1  0.160600  0.350400  0.043400  1.0  0.3516
  H  H291  1  0.567000  0.707100  0.779900  1.0  0.1024
  H  H292  1  0.055200  0.787800  0.171400  1.0  0.0433
  H  H293  1  0.136900  0.027700  0.286800  1.0  0.0691
  H  H294  1  0.067000  0.287100  0.859900  1.0  0.1005
  H  H295  1  0.774400  0.093600  0.441600  1.0  0.3274
  H  H296  1  0.485800  0.045500  0.806700  1.0  0.1355
  H  H297  1  0.269500  0.438200  0.569900  1.0  0.1467
  H  H298  1  0.320900  0.806700  0.761200  1.0  0.1366
  H  H299  1  0.212200  0.883600  0.267400  1.0  0.0449
  H  H300  1  0.274400  0.832800  0.680800  1.0  0.3287
  H  H301  1  0.067000  0.779900  0.707100  1.0  0.1014
  H  H302  1  0.868300  0.938200  0.668700  1.0  0.1479
  H  H303  1  0.789700  0.847800  0.712500  1.0  0.0981
  H  H304  1  0.784500  0.066100  0.583200  1.0  0.1117
  H  H305  1  0.649600  0.456600  0.339400  1.0  0.3515
  H  H306  1  0.916800  0.701300  0.982900  1.0  0.1107
  H  H307  1  0.160600  0.810200  0.617200  1.0  0.3525
  H  H308  1  0.201200  0.860100  0.382900  1.0  0.0908
  H  H309  1  0.863100  0.890800  0.649900  1.0  0.0698
  H  H310  1  0.954500  0.261200  0.440300  1.0  0.1401
  H  H311  1  0.348000  0.941600  0.667200  1.0  0.3286
  H  H312  1  0.199000  0.859700  0.674500  1.0  0.092
  H  H313  1  0.286900  0.725500  0.892000  1.0  0.1166
  H  H314  1  0.083200  0.784500  0.566100  1.0  0.11
  H  H315  1  0.825500  0.801000  0.640300  1.0  0.0931
  H  H316  1  0.941600  0.774400  0.593600  1.0  0.3281
  H  H317  1  0.341100  0.522800  0.139900  1.0  0.0904
  H  H318  1  0.347800  0.058100  0.635300  1.0  0.0992
  H  H319  1  0.716200  0.653400  0.713000  1.0  0.0901
  H  H320  1  0.406400  0.680800  0.848000  1.0  0.3273
  H  H321  1  0.975500  0.814800  0.674500  1.0  0.0909
  H  H322  1  0.061800  0.831300  0.631700  1.0  0.1481
  H  H323  1  0.259100  0.472300  0.609200  1.0  0.0702
  H  H324  1  0.152000  0.819200  0.593600  1.0  0.3252
  H  H325  1  0.859900  0.072800  0.292900  1.0  0.1037
  H  H326  1  0.212500  0.789700  0.347800  1.0  0.0993
  H  H327  1  0.787100  0.220100  0.927200  1.0  0.0999
  H  H328  1  0.792900  0.859900  0.572800  1.0  0.1015
  H  H329  1  0.359700  0.660700  0.685200  1.0  0.0916
  H  H330  1  0.149900  0.286800  0.259100  1.0  0.0713
  H  H331  1  0.213000  0.716200  0.153400  1.0  0.0898
  H  H332  1  0.328600  0.383800  0.116400  1.0  0.046
  H  H333  1  0.199600  0.868300  0.430100  1.0  0.1463
  H  H334  1  0.300400  0.730500  0.668700  1.0  0.1493
  H  H335  1  0.062800  0.003200  0.216200  1.0  0.09
  H  H336  1  0.787000  0.283800  0.846600  1.0  0.0906
  H  H337  1  0.158900  0.298800  0.181700  1.0  0.0908
  H  H338  1  0.077200  0.789700  0.441900  1.0  0.0992
  H  H339  1  0.985800  0.806700  0.045500  1.0  0.1364
  H  H340  1  0.558100  0.847800  0.135300  1.0  0.0994
  H  H341  1  0.043400  0.850400  0.160600  1.0  0.3547
  H  H342  1  0.781600  0.066100  0.482900  1.0  0.1118
  H  H343  1  0.848000  0.180800  0.406400  1.0  0.3269
  H  H344  1  0.800400  0.668700  0.730500  1.0  0.1475
  H  H345  1  0.583200  0.566100  0.784500  1.0  0.1109
  H  H346  1  0.769500  0.199600  0.831300  1.0  0.1474
  H  H347  1  0.593600  0.319200  0.152000  1.0  0.3255
  H  H348  1  0.631700  0.300400  0.069900  1.0  0.1463
  H  H349  1  0.274500  0.666500  0.561400  1.0  0.1165
  H  H350  1  0.482900  0.566100  0.781600  1.0  0.111
  H  H351  1  0.846600  0.062800  0.559600  1.0  0.0898
  H  H352  1  0.558100  0.710300  0.922800  1.0  0.1003
  H  H353  1  0.441900  0.289700  0.077200  1.0  0.1006
  H  H354  1  0.693000  0.149600  0.310200  1.0  0.3555
  H  H355  1  0.348000  0.406400  0.180800  1.0  0.3274
  H  H356  1  0.649600  0.193000  0.810200  1.0  0.3542
  H  H357  1  0.058100  0.922800  0.710300  1.0  0.1003
  H  H358  1  0.149600  0.810200  0.193000  1.0  0.3511
  H  H359  1  0.199600  0.331300  0.269500  1.0  0.1476
  H  H360  1  0.653400  0.213000  0.216200  1.0  0.0897
  H  H361  1  0.937200  0.996800  0.783800  1.0  0.0891
  H  H362  1  0.149600  0.339400  0.456600  1.0  0.3514
  H  H363  1  0.058400  0.225600  0.406400  1.0  0.327
  H  H364  1  0.593600  0.274400  0.941600  1.0  0.3279
  H  H365  1  0.933000  0.220100  0.292900  1.0  0.1022
  H  H366  1  0.850400  0.660600  0.543400  1.0  0.3504
  H  H367  1  0.180800  0.906400  0.348000  1.0  0.3263
  H  H368  1  0.292900  0.720100  0.933000  1.0  0.1038
  H  H369  1  0.882800  0.839400  0.689800  1.0  0.3531
  H  H370  1  0.140100  0.927200  0.707100  1.0  0.1027
  H  H371  1  0.635300  0.077200  0.787500  1.0  0.1
  H  H372  1  0.284500  0.583200  0.066100  1.0  0.1105
  H  H373  1  0.364700  0.441900  0.652200  1.0  0.1
  H  H374  1  0.199000  0.339300  0.024500  1.0  0.0915
  H  H375  1  0.996800  0.713000  0.059600  1.0  0.0899
  H  H376  1  0.368300  0.668700  0.938200  1.0  0.1473
  H  H377  1  0.350400  0.807000  0.189800  1.0  0.3525
  H  H378  1  0.517100  0.083200  0.798700  1.0  0.1115
  H  H379  1  0.284500  0.701300  0.718400  1.0  0.1101
  H  H380  1  0.289700  0.577200  0.941900  1.0  0.101
  H  H381  1  0.940400  0.153400  0.437200  1.0  0.0902
  H  H382  1  0.658900  0.181700  0.298800  1.0  0.0889
  H  H383  1  0.072800  0.279900  0.212900  1.0  0.1035
  H  H384  1  0.213100  0.105100  0.438600  1.0  0.1174
  H  H385  1  0.179100  0.238800  0.193300  1.0  0.1356
  H  H386  1  0.382900  0.022800  0.681700  1.0  0.0906
  H  H387  1  0.444800  0.616200  0.732600  1.0  0.0459
  H  H388  1  0.136900  0.109200  0.350100  1.0  0.0696
  H  H389  1  0.027700  0.786800  0.636900  1.0  0.0703
  H  H390  1  0.712200  0.444800  0.328600  1.0  0.0449
  H  H391  1  0.774500  0.213100  0.608000  1.0  0.1168
  H  H392  1  0.671400  0.055200  0.287800  1.0  0.0461
  H  H393  1  0.996800  0.283800  0.437200  1.0  0.0909
  H  H394  1  0.454500  0.440300  0.261200  1.0  0.1359
  H  H395  1  0.713000  0.559600  0.496800  1.0  0.0907
  H  H396  1  0.701200  0.318300  0.341100  1.0  0.0899
  H  H397  1  0.201200  0.341100  0.318300  1.0  0.0905
  H  H398  1  0.310200  0.660600  0.117200  1.0  0.3516
  H  H399  1  0.761200  0.306700  0.320900  1.0  0.1358
  H  H400  1  0.189800  0.882800  0.339400  1.0  0.3548
  H  H401  1  0.701200  0.382900  0.860100  1.0  0.0907
  H  H402  1  0.640100  0.933000  0.212900  1.0  0.1038
  H  H403  1  0.230500  0.800400  0.168700  1.0  0.1498
  H  H404  1  0.716200  0.062800  0.503200  1.0  0.0903
  H  H405  1  0.779900  0.207100  0.567000  1.0  0.1008
  H  H406  1  0.783800  0.287000  0.346600  1.0  0.0908
  H  H407  1  0.274500  0.608000  0.213100  1.0  0.1148
  H  H408  1  0.940400  0.787000  0.003200  1.0  0.0917
  H  H409  1  0.306700  0.485800  0.545500  1.0  0.1379
  H  H410  1  0.882900  0.681700  0.022800  1.0  0.0901
  H  H411  1  0.761200  0.454500  0.940300  1.0  0.1363
  H  H412  1  0.259100  0.786800  0.149900  1.0  0.0706
  H  H413  1  0.292900  0.572800  0.859900  1.0  0.1022
  H  H414  1  0.083200  0.298700  0.017100  1.0  0.1103
  H  H415  1  0.140300  0.825500  0.301000  1.0  0.0932
  H  H416  1  0.787500  0.577200  0.635300  1.0  0.099
  H  H417  1  0.699000  0.024500  0.339300  1.0  0.0913
  H  H418  1  0.108000  0.333500  0.894900  1.0  0.1159
  H  H419  1  0.225500  0.786900  0.392000  1.0  0.1173
  H  H420  1  0.116400  0.232600  0.287800  1.0  0.0457
  H  H421  1  0.652200  0.941900  0.364700  1.0  0.099
  H  H422  1  0.286800  0.759100  0.649900  1.0  0.0703
  H  H423  1  0.193300  0.738800  0.179100  1.0  0.1385
  H  H424  1  0.216200  0.713000  0.653400  1.0  0.09
  H  H425  1  0.307000  0.850400  0.689800  1.0  0.3558
  H  H426  1  0.608000  0.894900  0.333500  1.0  0.116
  H  H427  1  0.456600  0.839400  0.149600  1.0  0.3547
  H  H428  1  0.238800  0.693300  0.679100  1.0  0.1358
  H  H429  1  0.839300  0.140300  0.814800  1.0  0.092
  H  H430  1  0.168700  0.868300  0.438200  1.0  0.1464
  H  H431  1  0.059600  0.846600  0.562800  1.0  0.0913
  H  H432  1  0.287800  0.555200  0.671400  1.0  0.0453
  H  H433  1  0.787000  0.503200  0.440400  1.0  0.0899
  H  H434  1  0.608000  0.713100  0.774500  1.0  0.1169
  H  H435  1  0.786800  0.136900  0.527700  1.0  0.0704
  H  H436  1  0.561400  0.166500  0.274500  1.0  0.1176
  H  H437  1  0.359700  0.699000  0.174500  1.0  0.0926
  H  H438  1  0.674500  0.359700  0.199000  1.0  0.0937
  H  H439  1  0.261200  0.320900  0.306700  1.0  0.1358
  H  H440  1  0.527700  0.890800  0.240900  1.0  0.0694
  H  H441  1  0.668700  0.230500  0.300400  1.0  0.1465
  H  H442  1  0.216200  0.503200  0.062800  1.0  0.0904
  H  H443  1  0.108000  0.774500  0.713100  1.0  0.1149
  H  H444  1  0.906400  0.058400  0.725600  1.0  0.3289
  H  H445  1  0.707100  0.279900  0.067000  1.0  0.1049
  H  H446  1  0.213200  0.350100  0.240900  1.0  0.0705
  H  H447  1  0.383800  0.767400  0.055200  1.0  0.0458
  H  H448  1  0.779900  0.572800  0.712900  1.0  0.101
  H  H449  1  0.109200  0.850100  0.636900  1.0  0.0698
  H  H450  1  0.347800  0.289700  0.212500  1.0  0.1001
  H  H451  1  0.437200  0.783800  0.996800  1.0  0.0908
  H  H452  1  0.300400  0.569900  0.131700  1.0  0.1474
  H  H453  1  0.477200  0.360100  0.158900  1.0  0.0909
  H  H454  1  0.212900  0.779900  0.072800  1.0  0.1002
  H  H455  1  0.298700  0.781600  0.215500  1.0  0.1105
  H  H456  1  0.433900  0.715500  0.916800  1.0  0.1113
  H  H457  1  0.956600  0.149600  0.839400  1.0  0.3562
  H  H458  1  0.325500  0.640300  0.801000  1.0  0.0934
  H  H459  1  0.153400  0.937200  0.440400  1.0  0.0903
  H  H460  1  0.503200  0.940400  0.287000  1.0  0.0909
  H  H461  1  0.109200  0.259100  0.972300  1.0  0.0701
  H  H462  1  0.810200  0.117200  0.660600  1.0  0.3527
  H  H463  1  0.927200  0.720100  0.787100  1.0  0.1036
  H  H464  1  0.616400  0.328600  0.883800  1.0  0.0456
  H  H465  1  0.158900  0.860100  0.477200  1.0  0.0904
  H  H466  1  0.681700  0.522800  0.382900  1.0  0.0898
  H  H467  1  0.024500  0.185200  0.325500  1.0  0.0907
  H  H468  1  0.314800  0.839300  0.640300  1.0  0.0918
  H  H469  1  0.341100  0.818300  0.701200  1.0  0.0884
  H  H470  1  0.287000  0.440400  0.503200  1.0  0.091
  H  H471  1  0.767400  0.555200  0.883800  1.0  0.0456
  H  H472  1  0.545500  0.985800  0.306700  1.0  0.1359
  H  H473  1  0.167200  0.348000  0.441600  1.0  0.3286
  H  H474  1  0.555200  0.383800  0.267400  1.0  0.0453
  H  H475  1  0.940300  0.985800  0.679100  1.0  0.1361
  H  H476  1  0.059700  0.045500  0.238800  1.0  0.1364
  H  H477  1  0.828600  0.116400  0.383800  1.0  0.0452
  H  H478  1  0.215500  0.281600  0.298700  1.0  0.112
  H  H479  1  0.166500  0.774500  0.061400  1.0  0.1156
  H  H480  1  0.168700  0.300400  0.230500  1.0  0.1464
  H  H481  1  0.938200  0.168700  0.368300  1.0  0.1482
  H  H482  1  0.201300  0.416800  0.482900  1.0  0.11
  H  H483  1  0.116400  0.883800  0.328600  1.0  0.0441
  H  H484  1  0.685200  0.524500  0.825500  1.0  0.0918
  H  H485  1  0.149900  0.863100  0.390800  1.0  0.0703
  H  H486  1  0.359900  0.067000  0.787100  1.0  0.1033
  H  H487  1  0.559700  0.320900  0.014200  1.0  0.1352
  H  H488  1  0.240900  0.390800  0.527700  1.0  0.0689
  H  H489  1  0.185200  0.825500  0.524500  1.0  0.0934
  H  H490  1  0.440400  0.437200  0.153400  1.0  0.0913
  H  H491  1  0.441900  0.152200  0.864700  1.0  0.099
  H  H492  1  0.152000  0.332800  0.058400  1.0  0.3281
  H  H493  1  0.653400  0.440400  0.937200  1.0  0.0908
  H  H494  1  0.699000  0.674500  0.859700  1.0  0.0913
  H  H495  1  0.660700  0.475500  0.301000  1.0  0.0918
  H  H496  1  0.839400  0.649600  0.956600  1.0  0.3537
  H  H497  1  0.883800  0.055200  0.767400  1.0  0.046
  H  H498  1  0.287100  0.359900  0.567000  1.0  0.1019
  H  H499  1  0.833500  0.608000  0.394900  1.0  0.1173
  H  H500  1  0.427200  0.787100  0.720100  1.0  0.1031
  H  H501  1  0.725500  0.392000  0.786900  1.0  0.1158
  H  H502  1  0.635300  0.558100  0.347800  1.0  0.0995
  H  H503  1  0.833500  0.225500  0.938600  1.0  0.1146
  H  H504  1  0.433000  0.140100  0.712900  1.0  0.1013
  H  H505  1  0.701300  0.218400  0.784500  1.0  0.1096
  H  H506  1  0.937200  0.940400  0.653400  1.0  0.0915
  H  H507  1  0.649900  0.259100  0.286800  1.0  0.0697
  H  H508  1  0.801000  0.140300  0.325500  1.0  0.0922
  H  H509  1  0.807000  0.117200  0.456600  1.0  0.3542
  H  H510  1  0.201300  0.784500  0.218400  1.0  0.1103
  H  H511  1  0.639900  0.298800  0.117100  1.0  0.0894
  H  H512  1  0.652000  0.058400  0.332800  1.0  0.3279
  H  H513  1  0.617200  0.310200  0.160600  1.0  0.3545
  H  H514  1  0.798800  0.658900  0.681700  1.0  0.0913
  H  H515  1  0.933900  0.017100  0.718400  1.0  0.1117
  H  H516  1  0.325500  0.685200  0.024500  1.0  0.092
  H  H517  1  0.014200  0.820900  0.559700  1.0  0.1387
  H  H518  1  0.786900  0.892000  0.725500  1.0  0.1162
  H  H519  1  0.225600  0.906400  0.558400  1.0  0.3286
  H  H520  1  0.718400  0.517100  0.933900  1.0  0.1116
  H  H521  1  0.298800  0.681700  0.658900  1.0  0.0898
  H  H522  1  0.639900  0.341100  0.022800  1.0  0.0917
  H  H523  1  0.689800  0.350400  0.307000  1.0  0.3529
  H  H524  1  0.055200  0.267400  0.383800  1.0  0.0464
  H  H525  1  0.213100  0.108000  0.274500  1.0  0.1165
  H  H526  1  0.786900  0.894900  0.561400  1.0  0.1172
  H  H527  1  0.058100  0.135300  0.847800  1.0  0.0982
  H  H528  1  0.972300  0.213200  0.363100  1.0  0.0705
  H  H529  1  0.416800  0.433900  0.215500  1.0  0.1109
  H  H530  1  0.077200  0.287500  0.135300  1.0  0.0998
  H  H531  1  0.117100  0.318300  0.977200  1.0  0.0888
  H  H532  1  0.759100  0.149900  0.786800  1.0  0.0696
  H  H533  1  0.944800  0.732600  0.616200  1.0  0.0455
  H  H534  1  0.230500  0.430100  0.561800  1.0  0.1473
  H  H535  1  0.713100  0.438600  0.105100  1.0  0.1153
  H  H536  1  0.832800  0.180800  0.774400  1.0  0.3245
  H  H537  1  0.472300  0.109200  0.759100  1.0  0.0695
  H  H538  1  0.482900  0.916800  0.201300  1.0  0.1114
  H  H539  1  0.841100  0.139900  0.522800  1.0  0.0911
  H  H540  1  0.710300  0.422800  0.058100  1.0  0.1012
  H  H541  1  0.666500  0.061400  0.774500  1.0  0.1163
  H  H542  1  0.863100  0.972300  0.713200  1.0  0.0696
  H  H543  1  0.846600  0.783800  0.787000  1.0  0.0903
  H  H544  1  0.977200  0.818300  0.117100  1.0  0.0884
  H  H545  1  0.225500  0.438600  0.333500  1.0  0.1153
  H  H546  1  0.681700  0.158900  0.798800  1.0  0.0905
  H  H547  1  0.287500  0.652200  0.210300  1.0  0.0989
  H  H548  1  0.475500  0.801000  0.160700  1.0  0.093
  H  H549  1  0.339300  0.524500  0.699000  1.0  0.0921
  H  H550  1  0.941600  0.167200  0.848000  1.0  0.3266
  H  H551  1  0.390800  0.027700  0.740900  1.0  0.0693
  H  H552  1  0.160700  0.859700  0.185200  1.0  0.092
  H  H553  1  0.982900  0.781600  0.566100  1.0  0.1095
  H  H554  1  0.212200  0.328600  0.444800  1.0  0.0446
  H  H555  1  0.430100  0.061800  0.730500  1.0  0.1485
  H  H556  1  0.394900  0.286900  0.061400  1.0  0.1167
  H  H557  1  0.787800  0.116400  0.732600  1.0  0.0456
  H  H558  1  0.892000  0.225500  0.286900  1.0  0.1161
  H  H559  1  0.318300  0.477200  0.617100  1.0  0.0904
  H  H560  1  0.003200  0.716200  0.562800  1.0  0.0903
  H  H561  1  0.712500  0.347800  0.789700  1.0  0.0989
  H  H562  1  0.339400  0.382800  0.189800  1.0  0.3554
  H  H563  1  0.422800  0.558100  0.210300  1.0  0.1007
  H  H564  1  0.693300  0.514200  0.454500  1.0  0.1377
  H  H565  1  0.859700  0.174500  0.699000  1.0  0.0922
  H  H566  1  0.017100  0.218400  0.433900  1.0  0.1108
  H  H567  1  0.383600  0.671400  0.116200  1.0  0.0453
  H  H568  1  0.730500  0.168700  0.800400  1.0  0.1483
  H  H569  1  0.232600  0.444800  0.116200  1.0  0.0456
  H  H570  1  0.181700  0.798800  0.158900  1.0  0.0909
  H  H571  1  0.616200  0.383600  0.171400  1.0  0.0454
  H  H572  1  0.279900  0.712900  0.572800  1.0  0.1003
  H  H573  1  0.569900  0.938200  0.269500  1.0  0.1471
  H  H574  1  0.767400  0.212200  0.383600  1.0  0.0435
  H  H575  1  0.666500  0.605100  0.392000  1.0  0.1187
  H  H576  1  0.116200  0.944800  0.232600  1.0  0.0457
  H  H577  1  0.636900  0.286800  0.027700  1.0  0.0703
  H  H578  1  0.363100  0.649900  0.890800  1.0  0.0703
  H  H579  1  0.605100  0.892000  0.166500  1.0  0.1187
  H  H580  1  0.212500  0.422800  0.364700  1.0  0.1002
  H  H581  1  0.179100  0.940300  0.485800  1.0  0.1361
  H  H582  1  0.331300  0.561800  0.131700  1.0  0.1471
  H  H583  1  0.328600  0.944800  0.712200  1.0  0.0457
  H  H584  1  0.017100  0.798700  0.083200  1.0  0.1111
  H  H585  1  0.333500  0.394900  0.608000  1.0  0.1179
  H  H586  1  0.383800  0.616400  0.828600  1.0  0.0453
  H  H587  1  0.832800  0.652000  0.558400  1.0  0.328
  H  H588  1  0.841100  0.701200  0.818300  1.0  0.0894
  H  H589  1  0.930100  0.730500  0.061800  1.0  0.1471
  H  H590  1  0.825500  0.024500  0.685200  1.0  0.0914
  H  H591  1  0.394900  0.108000  0.833500  1.0  0.1182
  H  H592  1  0.883600  0.116200  0.671400  1.0  0.045
  H  H593  1  0.522800  0.882900  0.181700  1.0  0.0894
  H  H594  1  0.166500  0.392000  0.605100  1.0  0.1166
  H  H595  1  0.238800  0.545500  0.059700  1.0  0.1368
  H  H596  1  0.640300  0.301000  0.825500  1.0  0.0931
  H  H597  1  0.069900  0.800400  0.631700  1.0  0.1474
  H  H598  1  0.477200  0.117100  0.818300  1.0  0.0894
  H  H599  1  0.350400  0.543400  0.660600  1.0  0.3543
  H  H600  1  0.786800  0.649900  0.759100  1.0  0.071
  H  H601  1  0.740900  0.527700  0.390800  1.0  0.0696
  H  H602  1  0.559700  0.238800  0.045500  1.0  0.1374
  H  H603  1  0.213000  0.496800  0.559600  1.0  0.0902
  H  H604  1  0.454500  0.014200  0.693300  1.0  0.1356
  H  H605  1  0.368300  0.699600  0.930100  1.0  0.1463
  H  H606  1  0.267400  0.883800  0.555200  1.0  0.0449
  H  H607  1  0.561800  0.631700  0.831300  1.0  0.1479
  H  H608  1  0.558400  0.406400  0.225600  1.0  0.327
  H  H609  1  0.024500  0.839300  0.199000  1.0  0.0917
  H  H610  1  0.522800  0.639900  0.841100  1.0  0.0911
  H  H611  1  0.848000  0.667200  0.941600  1.0  0.3276
  H  H612  1  0.105100  0.938600  0.713100  1.0  0.1145
  H  H613  1  0.801000  0.660700  0.975500  1.0  0.0913
  H  H614  1  0.232600  0.787800  0.616400  1.0  0.0444
  H  H615  1  0.472300  0.363100  0.213200  1.0  0.0693
  H  H616  1  0.559600  0.996800  0.213000  1.0  0.0905
  H  H617  1  0.496800  0.437200  0.283800  1.0  0.0901
  H  H618  1  0.185200  0.359700  0.160700  1.0  0.093
  H  H619  1  0.883600  0.767400  0.712200  1.0  0.0451
  H  H620  1  0.360100  0.658900  0.977200  1.0  0.0904
  H  H621  1  0.207100  0.067000  0.279900  1.0  0.1037
  H  H622  1  0.916800  0.215500  0.433900  1.0  0.1103
  H  H623  1  0.062800  0.059600  0.346600  1.0  0.0906
  H  H624  1  0.022800  0.841100  0.639900  1.0  0.0909
  H  H625  1  0.390800  0.363100  0.149900  1.0  0.0689
  H  H626  1  0.850400  0.189800  0.807000  1.0  0.3522
  H  H627  1  0.652200  0.710300  0.787500  1.0  0.1006
  H  H628  1  0.456600  0.617200  0.807000  1.0  0.3535
  H  H629  1  0.283800  0.937200  0.496800  1.0  0.0898
  H  H630  1  0.283800  0.346600  0.287000  1.0  0.0909
  H  H631  1  0.218400  0.933900  0.517100  1.0  0.1117
  H  H632  1  0.930100  0.199600  0.368300  1.0  0.1494
  H  H633  1  0.660600  0.043400  0.350400  1.0  0.352
  H  H634  1  0.307000  0.456600  0.117200  1.0  0.354
  H  H635  1  0.346600  0.559600  0.062800  1.0  0.0912
  H  H636  1  0.774500  0.561400  0.666500  1.0  0.1159
  H  H637  1  0.850100  0.136900  0.609200  1.0  0.0714
  H  H638  1  0.671400  0.616200  0.883600  1.0  0.0452
  H  H639  1  0.279900  0.567000  0.207100  1.0  0.1
  H  H640  1  0.668700  0.438200  0.868300  1.0  0.1473
  H  H641  1  0.153400  0.216200  0.213000  1.0  0.0895
  H  H642  1  0.882900  0.201200  0.360100  1.0  0.0905
  H  H643  1  0.524500  0.199000  0.839300  1.0  0.0928
  H  H644  1  0.860100  0.882900  0.701200  1.0  0.0894
  H  H645  1  0.679100  0.193300  0.238800  1.0  0.1361
  H  H646  1  0.117200  0.956600  0.307000  1.0  0.3512
  H  H647  1  0.003200  0.287000  0.940400  1.0  0.091
  H  H648  1  0.617100  0.977200  0.318300  1.0  0.0909
  H  H649  1  0.281600  0.798700  0.715500  1.0  0.1127
  H  H650  1  0.363100  0.713200  0.972300  1.0  0.071
  H  H651  1  0.174500  0.199000  0.359700  1.0  0.0931
  H  H652  1  0.617100  0.639900  0.798800  1.0  0.0906
  H  H653  1  0.975500  0.160700  0.801000  1.0  0.0917
  H  H654  1  0.883800  0.828600  0.616400  1.0  0.0458
  H  H655  1  0.699600  0.430100  0.868300  1.0  0.1491
  H  H656  1  0.213200  0.863100  0.472300  1.0  0.0707
  H  H657  1  0.139900  0.022800  0.341100  1.0  0.0912
  H  H658  1  0.061800  0.230500  0.930100  1.0  0.1476
  H  H659  1  0.437200  0.653400  0.940400  1.0  0.0908
  H  H660  1  0.496800  0.059600  0.713000  1.0  0.0918
  H  H661  1  0.718400  0.201300  0.284500  1.0  0.1122
  H  H662  1  0.416800  0.982900  0.701300  1.0  0.1121
  H  H663  1  0.059700  0.014200  0.320900  1.0  0.1363
  H  H664  1  0.819200  0.725600  0.667200  1.0  0.3271
  H  H665  1  0.441600  0.848000  0.167200  1.0  0.3273
  H  H666  1  0.440400  0.003200  0.787000  1.0  0.0892
  H  H667  1  0.820900  0.059700  0.514200  1.0  0.1364
  H  H668  1  0.810200  0.693000  0.649600  1.0  0.3505
  H  H669  1  0.769500  0.569900  0.438200  1.0  0.1488
  H  H670  1  0.725600  0.167200  0.319200  1.0  0.3272
  H  H671  1  0.360100  0.701200  0.882900  1.0  0.0904
  H  H672  1  0.609200  0.636900  0.850100  1.0  0.0697
  H  H673  1  0.713200  0.240900  0.350100  1.0  0.0703
  H  H674  1  0.738800  0.059700  0.545500  1.0  0.1365
  H  H675  1  0.707100  0.427200  0.140100  1.0  0.1009
  H  H676  1  0.667200  0.441600  0.348000  1.0  0.3313
  H  H677  1  0.171400  0.287800  0.055200  1.0  0.0435
  H  H678  1  0.712200  0.267400  0.883600  1.0  0.0457
  H  H679  1  0.286900  0.561400  0.894900  1.0  0.1159
  H  H680  1  0.193300  0.454500  0.514200  1.0  0.1381
  H  H681  1  0.882800  0.043400  0.693000  1.0  0.3521
  H  H682  1  0.193000  0.882800  0.543400  1.0  0.353
  H  H683  1  0.922800  0.712500  0.864700  1.0  0.1002
  H  H684  1  0.350100  0.609200  0.136900  1.0  0.0694
  H  H685  1  0.430100  0.368300  0.199600  1.0  0.1474
  H  H686  1  0.331300  0.769500  0.699600  1.0  0.1478
  H  H687  1  0.868300  0.930100  0.699600  1.0  0.1476
  H  H688  1  0.831300  0.699600  0.769500  1.0  0.1462
  H  H689  1  0.732600  0.616400  0.787800  1.0  0.0458
  H  H690  1  0.320900  0.514200  0.059700  1.0  0.1363
  H  H691  1  0.847800  0.212500  0.289700  1.0  0.1007
  H  H692  1  0.781600  0.715500  0.798700  1.0  0.1122
  H  H693  1  0.392000  0.105100  0.666500  1.0  0.1166
  H  H694  1  0.972300  0.759100  0.109200  1.0  0.0703
  H  H695  1  0.787800  0.671400  0.555200  1.0  0.0452
  H  H696  1  0.927200  0.207100  0.640100  1.0  0.1016
  H  H697  1  0.562800  0.216200  0.003200  1.0  0.0902
  H  H698  1  0.287800  0.732600  0.116400  1.0  0.0462
  H  H699  1  0.713200  0.472300  0.863100  1.0  0.0699
  H  H700  1  0.350100  0.740900  0.713200  1.0  0.0701
  H  H701  1  0.693300  0.179100  0.738800  1.0  0.139
  H  H702  1  0.609200  0.972300  0.259100  1.0  0.0693
  H  H703  1  0.798800  0.139900  0.617100  1.0  0.0903
  H  H704  1  0.894900  0.833500  0.108000  1.0  0.1173
  H  H705  1  0.043400  0.193000  0.382800  1.0  0.3537
  H  H706  1  0.660700  0.185200  0.859700  1.0  0.0909
  H  H707  1  0.339400  0.956600  0.649600  1.0  0.3516
  H  H708  1  0.140300  0.314800  0.339300  1.0  0.0918
  H  H709  1  0.364700  0.922800  0.212500  1.0  0.1008
  H  H710  1  0.301000  0.975500  0.660700  1.0  0.0914
  H  H711  1  0.014200  0.193300  0.954500  1.0  0.135
  H  H712  1  0.787500  0.210300  0.652200  1.0  0.0998
  H  H713  1  0.860100  0.977200  0.658900  1.0  0.0906
  H  H714  1  0.558400  0.152000  0.832800  1.0  0.3285
  H  H715  1  0.725500  0.333500  0.438600  1.0  0.1152
  H  H716  1  0.287100  0.927200  0.220100  1.0  0.1017
  H  H717  1  0.433000  0.292900  0.220100  1.0  0.1024
  H  H718  1  0.814800  0.174500  0.475500  1.0  0.0928
  H  H719  1  0.977200  0.158900  0.360100  1.0  0.0898
  H  H720  1  0.298700  0.517100  0.583200  1.0  0.1108
  C  C721  1  0.603000  0.340900  0.828100  1.0  0.7094
  C  C722  1  0.688840  0.149490  0.368950  1.0  0.1813
  C  C723  1  0.300100  0.718500  0.889600  1.0  -0.1406
  C  C724  1  0.512800  0.671900  0.774900  1.0  0.706
  C  C725  1  0.742430  0.254250  0.817660  1.0  -0.1712
  C  C726  1  0.224250  0.431650  0.576200  1.0  -0.1362
  C  C727  1  0.432540  0.737210  0.141290  1.0  0.2746
  C  C728  1  0.874990  0.687440  0.612430  1.0  0.1217
  C  C729  1  0.569480  0.564510  0.791650  1.0  -0.0999
  C  C730  1  0.752150  0.285910  0.313580  1.0  -0.1921
  C  C731  1  0.380120  0.844730  0.706970  1.0  -0.0956
  C  C732  1  0.313580  0.527670  0.061430  1.0  -0.1958
  C  C733  1  0.062540  0.007990  0.234390  1.0  -0.0347
  C  C734  1  0.368950  0.649490  0.688840  1.0  0.1771
  C  C735  1  0.222170  0.791650  0.227140  1.0  -0.1004
  C  C736  1  0.173150  0.035390  0.380120  1.0  -0.0963
  C  C737  1  0.224620  0.936980  0.458860  1.0  -0.0281
  C  C738  1  0.541140  0.563020  0.775380  1.0  -0.0264
  C  C739  1  0.273600  0.828150  0.265610  1.0  -0.0441
  C  C740  1  0.108280  0.278580  0.236300  1.0  0.0069
  C  C741  1  0.688610  0.072530  0.293420  1.0  0.2298
  C  C742  1  0.220890  0.427470  0.116080  1.0  0.2325
  C  C743  1  0.237440  0.312450  0.125010  1.0  0.1198
  C  C744  1  0.918400  0.199900  0.589500  1.0  -0.1398
  C  C745  1  0.418400  0.828900  0.718500  1.0  -0.1413
  C  C746  1  0.630230  0.504350  0.332880  1.0  0.6809
  C  C747  1  0.581600  0.410500  0.800100  1.0  -0.1406
  C  C748  1  0.722170  0.495030  0.430520  1.0  -0.1019
  C  C749  1  0.535390  0.673150  0.880120  1.0  -0.0994
  C  C750  1  0.492010  0.437460  0.265610  1.0  -0.0393
  C  C751  1  0.786100  0.149170  0.544070  1.0  -0.1069
  C  C752  1  0.247850  0.533760  0.061430  1.0  -0.1874
  C  C753  1  0.781200  0.591300  0.715300  1.0  -0.1097
  C  C754  1  0.062540  0.054550  0.328150  1.0  -0.0408
  C  C755  1  0.144550  0.076200  0.351950  1.0  -0.1383
  C  C756  1  0.664610  0.396000  0.936630  1.0  0.6667
  C  C757  1  0.705840  0.384130  0.845190  1.0  -0.0814
  C  C758  1  0.860650  0.705840  0.821710  1.0  -0.0881
  C  C759  1  0.637760  0.673150  0.793030  1.0  -0.0968
  C  C760  1  0.281200  0.715300  0.591300  1.0  -0.1021
  C  C761  1  0.063020  0.021880  0.287640  1.0  -0.0267
  C  C762  1  0.539350  0.319890  0.188840  1.0  0.1783
  C  C763  1  0.604810  0.311390  0.883920  1.0  0.2317
  C  C764  1  0.387570  0.575010  0.762560  1.0  0.1217
  C  C765  1  0.135850  0.348500  0.939150  1.0  -0.0665
  C  C766  1  0.328150  0.554550  0.062540  1.0  -0.036
  C  C767  1  0.863070  0.713900  0.757970  1.0  -0.1031
  C  C768  1  0.035390  0.155270  0.862240  1.0  -0.0966
  C  C769  1  0.504970  0.435490  0.227140  1.0  -0.1
  C  C770  1  0.804670  0.067460  0.708750  1.0  0.2776
  C  C771  1  0.939150  0.848500  0.135850  1.0  -0.0617
  C  C772  1  0.801430  0.212300  0.870930  1.0  0.1351
  C  C773  1  0.291650  0.569480  0.064510  1.0  -0.0969
  C  C774  1  0.287520  0.412670  0.095850  1.0  0.3777
  C  C775  1  0.301430  0.430500  0.589130  1.0  0.1387
  C  C776  1  0.754250  0.242430  0.317660  1.0  -0.1748
  C  C777  1  0.094200  0.196400  0.910200  1.0  0.2088
  C  C778  1  0.405800  0.316000  0.102200  1.0  0.2135
  C  C779  1  0.575230  0.011820  0.257570  1.0  -0.1712
  C  C780  1  0.234240  0.458860  0.521880  1.0  -0.0266
  C  C781  1  0.724250  0.576200  0.431650  1.0  -0.1352
  C  C782  1  0.540630  0.436630  0.272020  1.0  0.6658
  C  C783  1  0.103000  0.828100  0.340900  1.0  0.7112
  C  C784  1  0.811390  0.706580  0.927470  1.0  0.2298
  C  C785  1  0.757570  0.575230  0.511820  1.0  -0.1676
  C  C786  1  0.507990  0.562540  0.734390  1.0  -0.0403
  C  C787  1  0.512800  0.840900  0.237900  1.0  0.7123
  C  C788  1  0.604000  0.563370  0.835390  1.0  0.6654
  C  C789  1  0.734240  0.521880  0.458860  1.0  -0.023
  C  C790  1  0.087330  0.212480  0.404150  1.0  0.3802
  C  C791  1  0.374850  0.587330  0.683180  1.0  0.3792
  C  C792  1  0.081600  0.800100  0.410500  1.0  -0.1416
  C  C793  1  0.803300  0.864150  0.712650  1.0  -0.0612
  C  C794  1  0.067460  0.858710  0.262790  1.0  0.2772
  C  C795  1  0.265610  0.937460  0.492010  1.0  -0.0373
  C  C796  1  0.908700  0.189900  0.624000  1.0  -0.11
  C  C797  1  0.564510  0.291650  0.069480  1.0  -0.0976
  C  C798  1  0.791650  0.727140  0.722170  1.0  -0.0967
  C  C799  1  0.151500  0.364150  0.560850  1.0  -0.0622
  C  C800  1  0.897000  0.171900  0.659100  1.0  0.7129
  C  C801  1  0.423800  0.355450  0.148050  1.0  -0.1327
  C  C802  1  0.115870  0.321710  0.961060  1.0  -0.0866
  C  C803  1  0.430520  0.995030  0.722170  1.0  -0.0998
  C  C804  1  0.671850  0.445450  0.937460  1.0  -0.037
  C  C805  1  0.408700  0.784700  0.718800  1.0  -0.1051
  C  C806  1  0.605100  0.955930  0.242030  1.0  -0.1031
  C  C807  1  0.355450  0.707400  0.931650  1.0  -0.1374
  C  C808  1  0.780540  0.131050  0.319890  1.0  0.1768
  C  C809  1  0.348500  0.439150  0.635850  1.0  -0.0579
  C  C810  1  0.696700  0.287350  0.135850  1.0  -0.0579
  C  C811  1  0.408700  0.624000  0.189900  1.0  -0.1098
  C  C812  1  0.358710  0.791250  0.095920  1.0  0.2749
  C  C813  1  0.813580  0.752150  0.785910  1.0  -0.1982
  C  C814  1  0.927470  0.720890  0.616080  1.0  0.2309
  C  C815  1  0.576200  0.931650  0.224250  1.0  -0.1326
  C  C816  1  0.891720  0.170300  0.628020  1.0  0.008
  C  C817  1  0.964610  0.119880  0.326850  1.0  -0.0967
  C  C818  1  0.068350  0.275750  0.923800  1.0  -0.1341
  C  C819  1  0.063370  0.959370  0.227980  1.0  0.6673
  C  C820  1  0.012800  0.774900  0.671900  1.0  0.7101
  C  C821  1  0.957720  0.736300  0.128020  1.0  0.0126
  C  C822  1  0.383920  0.604810  0.811390  1.0  0.2264
  C  C823  1  0.897000  0.725100  0.737900  1.0  0.713
  C  C824  1  0.625150  0.212480  0.808330  1.0  0.3778
  C  C825  1  0.091300  0.281200  0.215300  1.0  -0.1077
  C  C826  1  0.918400  0.718500  0.828900  1.0  -0.1417
  C  C827  1  0.351950  0.775750  0.707400  1.0  -0.1362
  C  C828  1  0.155270  0.362240  0.535390  1.0  -0.0964
  C  C829  1  0.874990  0.187550  0.762560  1.0  0.1199
  C  C830  1  0.712360  0.234240  0.275380  1.0  -0.0273
  C  C831  1  0.281500  0.671100  0.581600  1.0  -0.1381
  C  C832  1  0.904150  0.087330  0.712480  1.0  0.3767
  C  C833  1  0.787520  0.691670  0.874850  1.0  0.3809
  C  C834  1  0.434100  0.124000  0.715300  1.0  -0.1094
  C  C835  1  0.464610  0.326850  0.119880  1.0  -0.0976
  C  C836  1  0.724620  0.458860  0.936980  1.0  -0.0251
  C  C837  1  0.312560  0.887570  0.625010  1.0  0.1239
  C  C838  1  0.511820  0.436590  0.254250  1.0  -0.1719
  C  C839  1  0.908700  0.718800  0.784700  1.0  -0.1043
  C  C840  1  0.171100  0.389600  0.589500  1.0  -0.1389
  C  C841  1  0.214090  0.466240  0.527670  1.0  -0.1946
  C  C842  1  0.871980  0.108280  0.329700  1.0  0.0055
  C  C843  1  0.561430  0.313580  0.027670  1.0  -0.1953
  C  C844  1  0.610400  0.699900  0.781500  1.0  -0.1438
  C  C845  1  0.639350  0.461060  0.845190  1.0  -0.0884
  C  C846  1  0.135850  0.787350  0.696700  1.0  -0.0595
  C  C847  1  0.321710  0.860650  0.205840  1.0  -0.0886
  C  C848  1  0.828100  0.840900  0.603000  1.0  0.71
  C  C849  1  0.397000  0.737900  0.725100  1.0  0.7104
  C  C850  1  0.936980  0.958860  0.724620  1.0  -0.0267
  C  C851  1  0.089500  0.171100  0.889600  1.0  -0.1439
  C  C852  1  0.765760  0.224620  0.787640  1.0  -0.0265
  C  C853  1  0.896000  0.164610  0.436630  1.0  0.6664
  C  C854  1  0.116080  0.188610  0.395190  1.0  0.2279
  C  C855  1  0.615870  0.961060  0.321710  1.0  -0.0903
  C  C856  1  0.329700  0.721420  0.957720  1.0  0.0085
  C  C857  1  0.011820  0.254250  0.436590  1.0  -0.1717
  C  C858  1  0.312450  0.625010  0.737440  1.0  0.1226
  C  C859  1  0.575010  0.262560  0.887570  1.0  0.1227
  C  C860  1  0.063410  0.075230  0.317660  1.0  -0.1737
  C  C861  1  0.317660  0.742430  0.754250  1.0  -0.1683
  C  C862  1  0.389600  0.089500  0.671100  1.0  -0.1386
  C  C863  1  0.237440  0.924990  0.612430  1.0  0.1214
  C  C864  1  0.812450  0.075010  0.687440  1.0  0.121
  C  C865  1  0.630230  0.125880  0.797350  1.0  0.6787
  C  C866  1  0.560850  0.864150  0.151500  1.0  -0.0638
  C  C867  1  0.252150  0.938570  0.466240  1.0  -0.1964
  C  C868  1  0.202650  0.828530  0.332880  1.0  0.6836
  C  C869  1  0.404080  0.762790  0.195330  1.0  0.2758
  C  C870  1  0.297350  0.630230  0.625880  1.0  0.6795
  C  C871  1  0.689900  0.408700  0.124000  1.0  -0.1079
  C  C872  1  0.816820  0.191670  0.404150  1.0  0.381
  C  C873  1  0.812450  0.737440  0.625010  1.0  0.1224
  C  C874  1  0.923800  0.148050  0.355450  1.0  -0.1378
  C  C875  1  0.171900  0.159100  0.397000  1.0  0.7128
  C  C876  1  0.303600  0.405800  0.589800  1.0  0.216
  C  C877  1  0.293030  0.637760  0.173150  1.0  -0.0958
  C  C878  1  0.595850  0.308330  0.183180  1.0  0.3797
  C  C879  1  0.430520  0.435490  0.208350  1.0  -0.1017
  C  C880  1  0.765610  0.273600  0.328150  1.0  -0.0378
  C  C881  1  0.715300  0.624000  0.434100  1.0  -0.1097
  C  C882  1  0.905800  0.102200  0.316000  1.0  0.2118
  C  C883  1  0.328100  0.725100  0.987200  1.0  0.7118
  C  C884  1  0.959370  0.231390  0.896000  1.0  0.665
  C  C885  1  0.737210  0.641290  0.932540  1.0  0.276
  C  C886  1  0.649490  0.460650  0.280540  1.0  0.1811
  C  C887  1  0.286200  0.696400  0.602200  1.0  0.2147
  C  C888  1  0.572530  0.383920  0.279110  1.0  0.2271
  C  C889  1  0.874120  0.171470  0.504350  1.0  0.6823
  C  C890  1  0.828100  0.987200  0.725100  1.0  0.7097
  C  C891  1  0.752150  0.466240  0.938570  1.0  -0.1986
  C  C892  1  0.317660  0.575230  0.063410  1.0  -0.1684
  C  C893  1  0.718800  0.284700  0.408700  1.0  -0.1046
  C  C894  1  0.301430  0.870930  0.212300  1.0  0.135
  C  C895  1  0.112430  0.237440  0.424990  1.0  0.1237
  C  C896  1  0.828530  0.832880  0.702650  1.0  0.681
  C  C897  1  0.855450  0.931650  0.707400  1.0  -0.1368
  C  C898  1  0.364150  0.060850  0.651500  1.0  -0.0607
  C  C899  1  0.461060  0.115870  0.821710  1.0  -0.0841
  C  C900  1  0.936630  0.040630  0.772020  1.0  0.6682
  C  C901  1  0.004350  0.874120  0.671470  1.0  0.6789
  C  C902  1  0.595920  0.358710  0.291250  1.0  0.2749
  C  C903  1  0.328900  0.918400  0.218500  1.0  -0.1405
  C  C904  1  0.397800  0.803600  0.713800  1.0  0.2078
  C  C905  1  0.931650  0.724250  0.076200  1.0  -0.1372
  C  C906  1  0.923800  0.775750  0.068350  1.0  -0.1358
  C  C907  1  0.459370  0.896000  0.231390  1.0  0.6671
  C  C908  1  0.457720  0.329700  0.221420  1.0  0.0089
  C  C909  1  0.841370  0.930500  0.629070  1.0  0.1404
  C  C910  1  0.404150  0.691670  0.816820  1.0  0.3803
  C  C911  1  0.214090  0.747850  0.186420  1.0  -0.1992
  C  C912  1  0.784700  0.218800  0.908700  1.0  -0.1043
  C  C913  1  0.427470  0.811390  0.206580  1.0  0.2289
  C  C914  1  0.791250  0.195330  0.432540  1.0  0.2775
  C  C915  1  0.431650  0.355450  0.207400  1.0  -0.1353
  C  C916  1  0.287700  0.698570  0.629070  1.0  0.1393
  C  C917  1  0.745750  0.063410  0.488180  1.0  -0.1732
  C  C918  1  0.167120  0.797350  0.671470  1.0  0.6791
  C  C919  1  0.035390  0.880120  0.673150  1.0  -0.1001
  C  C920  1  0.612430  0.424990  0.237440  1.0  0.1213
  C  C921  1  0.287640  0.521880  0.063020  1.0  -0.0257
  C  C922  1  0.641290  0.432540  0.237210  1.0  0.2746
  C  C923  1  0.687440  0.575010  0.812450  1.0  0.1211
  C  C924  1  0.507990  0.945450  0.273600  1.0  -0.0344
  C  C925  1  0.777830  0.569480  0.504970  1.0  -0.0972
  C  C926  1  0.344730  0.464610  0.637760  1.0  -0.0965
  C  C927  1  0.104000  0.835390  0.563370  1.0  0.6666
  C  C928  1  0.961060  0.139350  0.345190  1.0  -0.0881
  C  C929  1  0.158630  0.069500  0.370930  1.0  0.1415
  C  C930  1  0.639350  0.178290  0.294160  1.0  -0.0887
  C  C931  1  0.988180  0.745750  0.563410  1.0  -0.1724
  C  C932  1  0.845190  0.961060  0.639350  1.0  -0.0873
  C  C933  1  0.787640  0.063020  0.521880  1.0  -0.0284
  C  C934  1  0.291650  0.722170  0.727140  1.0  -0.1016
  C  C935  1  0.220890  0.793420  0.604810  1.0  0.2277
  C  C936  1  0.104000  0.268610  0.040630  1.0  0.6654
  C  C937  1  0.708750  0.141290  0.404080  1.0  0.277
  C  C938  1  0.427470  0.616080  0.720890  1.0  0.2286
  C  C939  1  0.775380  0.063020  0.541140  1.0  -0.0271
  C  C940  1  0.102200  0.816000  0.405800  1.0  0.2108
  C  C941  1  0.350510  0.539350  0.719460  1.0  0.1778
  C  C942  1  0.275380  0.734240  0.712360  1.0  -0.0251
  C  C943  1  0.826850  0.964610  0.619880  1.0  -0.0985
  C  C944  1  0.851950  0.707400  0.775750  1.0  -0.1369
  C  C945  1  0.374120  0.504350  0.171470  1.0  0.6802
  C  C946  1  0.844730  0.206970  0.880120  1.0  -0.1009
  C  C947  1  0.360650  0.538940  0.154810  1.0  -0.0868
  C  C948  1  0.124000  0.908700  0.689900  1.0  -0.1084
  C  C949  1  0.242430  0.424770  0.488180  1.0  -0.1701
  C  C950  1  0.410500  0.110400  0.828900  1.0  -0.1407
  C  C951  1  0.628020  0.957720  0.236300  1.0  0.0093
  C  C952  1  0.960650  0.811160  0.680110  1.0  0.1812
  C  C953  1  0.164610  0.936630  0.396000  1.0  0.6638
  C  C954  1  0.719460  0.039350  0.350510  1.0  0.178
  C  C955  1  0.195330  0.262790  0.404080  1.0  0.275
  C  C956  1  0.063410  0.988180  0.245750  1.0  -0.1746
  C  C957  1  0.816000  0.910200  0.713800  1.0  0.2096
  C  C958  1  0.103000  0.274900  0.262100  1.0  0.7113
  C  C959  1  0.896000  0.731390  0.959370  1.0  0.6626
  C  C960  1  0.992010  0.265610  0.437460  1.0  -0.0363
  C  C961  1  0.027670  0.214090  0.966240  1.0  -0.1926
  C  C962  1  0.206580  0.311390  0.427470  1.0  0.2323
  C  C963  1  0.737900  0.225100  0.897000  1.0  0.7098
  C  C964  1  0.321710  0.461060  0.615870  1.0  -0.0881
  C  C965  1  0.275380  0.541140  0.063020  1.0  -0.0266
  C  C966  1  0.934100  0.218800  0.310100  1.0  -0.1056
  C  C967  1  0.637760  0.964610  0.344730  1.0  -0.0967
  C  C968  1  0.237210  0.932540  0.641290  1.0  0.278
  C  C969  1  0.242030  0.455930  0.605100  1.0  -0.1052
  C  C970  1  0.332880  0.004350  0.630230  1.0  0.6801
  C  C971  1  0.257970  0.863070  0.213900  1.0  -0.1036
  C  C972  1  0.698570  0.569500  0.410870  1.0  0.1381
  C  C973  1  0.563370  0.227980  0.959370  1.0  0.6662
  C  C974  1  0.286100  0.742030  0.636930  1.0  -0.1103
  C  C975  1  0.811390  0.104810  0.383920  1.0  0.2309
  C  C976  1  0.472330  0.438570  0.186420  1.0  -0.1976
  C  C977  1  0.699900  0.418400  0.089500  1.0  -0.1423
  C  C978  1  0.033760  0.747850  0.561430  1.0  -0.2008
  C  C979  1  0.793420  0.688610  0.572530  1.0  0.2306
  C  C980  1  0.538940  0.654810  0.860650  1.0  -0.0909
  C  C981  1  0.069480  0.277830  0.004970  1.0  -0.1029
  C  C982  1  0.218800  0.408700  0.284700  1.0  -0.1104
  C  C983  1  0.188840  0.819890  0.539350  1.0  0.1776
  C  C984  1  0.680110  0.368950  0.219460  1.0  0.1803
  C  C985  1  0.868950  0.180110  0.719460  1.0  0.1782
  C  C986  1  0.511820  0.075230  0.757570  1.0  -0.1738
  C  C987  1  0.737440  0.125010  0.312450  1.0  0.1216
  C  C988  1  0.544070  0.894900  0.257970  1.0  -0.1035
  C  C989  1  0.616080  0.395190  0.188610  1.0  0.2266
  C  C990  1  0.184000  0.089800  0.286200  1.0  0.2073
  C  C991  1  0.955930  0.213900  0.350830  1.0  -0.1098
  C  C992  1  0.762100  0.659100  0.487200  1.0  0.7102
  C  C993  1  0.213800  0.397800  0.303600  1.0  0.21
  C  C994  1  0.404080  0.641290  0.708750  1.0  0.2749
  C  C995  1  0.803300  0.939150  0.590650  1.0  -0.0602
  C  C996  1  0.874850  0.191670  0.787520  1.0  0.3816
  C  C997  1  0.705840  0.321710  0.360650  1.0  -0.0895
  C  C998  1  0.364150  0.303300  0.212650  1.0  -0.0645
  C  C999  1  0.159100  0.897000  0.671900  1.0  0.7101
  C  C1000  1  0.560850  0.696700  0.909350  1.0  -0.0656
  C  C1001  1  0.072530  0.279110  0.383920  1.0  0.23
  C  C1002  1  0.671850  0.226400  0.234390  1.0  -0.0394
  C  C1003  1  0.966240  0.714090  0.027670  1.0  -0.1929
  C  C1004  1  0.170300  0.128020  0.391720  1.0  0.0095
  C  C1005  1  0.554550  0.562540  0.828150  1.0  -0.0439
  C  C1006  1  0.345190  0.705840  0.884130  1.0  -0.0874
  C  C1007  1  0.787350  0.590650  0.651500  1.0  -0.0639
  C  C1008  1  0.287350  0.635850  0.196700  1.0  -0.0643
  C  C1009  1  0.786100  0.636930  0.742030  1.0  -0.1111
  C  C1010  1  0.673150  0.380120  0.035390  1.0  -0.094
  C  C1011  1  0.212480  0.904150  0.587330  1.0  0.3794
  C  C1012  1  0.787700  0.158630  0.589130  1.0  0.1402
  C  C1013  1  0.280540  0.319890  0.131050  1.0  0.1772
  C  C1014  1  0.863070  0.149170  0.605100  1.0  -0.1123
  C  C1015  1  0.695330  0.291250  0.932540  1.0  0.2757
  C  C1016  1  0.801430  0.589130  0.430500  1.0  0.1366
  C  C1017  1  0.387570  0.812560  0.125010  1.0  0.1208
  C  C1018  1  0.924770  0.742430  0.988180  1.0  -0.1708
  C  C1019  1  0.722170  0.227140  0.791650  1.0  -0.0932
  C  C1020  1  0.773600  0.507990  0.445450  1.0  -0.0389
  C  C1021  1  0.568350  0.644550  0.792600  1.0  -0.1304
  C  C1022  1  0.087330  0.874850  0.183180  1.0  0.3802
  C  C1023  1  0.682340  0.424770  0.936590  1.0  -0.1674
  C  C1024  1  0.187550  0.924990  0.312560  1.0  0.1221
  C  C1025  1  0.212480  0.308330  0.125150  1.0  0.3795
  C  C1026  1  0.924990  0.812560  0.687550  1.0  0.1214
  C  C1027  1  0.787350  0.196700  0.635850  1.0  -0.0633
  C  C1028  1  0.887570  0.762560  0.575010  1.0  0.1213
  C  C1029  1  0.747850  0.686420  0.714090  1.0  -0.1947
  C  C1030  1  0.678290  0.538940  0.384130  1.0  -0.0873
  C  C1031  1  0.277830  0.504970  0.569480  1.0  -0.0999
  C  C1032  1  0.149170  0.105100  0.363070  1.0  -0.1036
  C  C1033  1  0.862240  0.206970  0.326850  1.0  -0.1016
  C  C1034  1  0.488180  0.563410  0.745750  1.0  -0.1713
  C  C1035  1  0.292600  0.724250  0.648050  1.0  -0.1376
  C  C1036  1  0.858710  0.762790  0.567460  1.0  0.2766
  C  C1037  1  0.423800  0.068350  0.775750  1.0  -0.1372
  C  C1038  1  0.615870  0.654810  0.794160  1.0  -0.0834
  C  C1039  1  0.227980  0.768610  0.664610  1.0  0.6652
  C  C1040  1  0.726400  0.171850  0.734390  1.0  -0.0368
  C  C1041  1  0.178290  0.384130  0.538940  1.0  -0.0857
  C  C1042  1  0.410500  0.300100  0.081600  1.0  -0.1431
  C  C1043  1  0.221420  0.829700  0.457720  1.0  0.0072
  C  C1044  1  0.696400  0.102200  0.786200  1.0  0.2141
  C  C1045  1  0.504970  0.069480  0.777830  1.0  -0.0984
  C  C1046  1  0.227980  0.459370  0.063370  1.0  0.6663
  C  C1047  1  0.226400  0.492010  0.554550  1.0  -0.0332
  C  C1048  1  0.268610  0.540630  0.604000  1.0  0.6661
  C  C1049  1  0.149170  0.044070  0.286100  1.0  -0.1028
  C  C1050  1  0.702650  0.369770  0.374120  1.0  0.677
  C  C1051  1  0.196400  0.786200  0.102200  1.0  0.2137
  C  C1052  1  0.964610  0.844730  0.137760  1.0  -0.0953
  C  C1053  1  0.183180  0.808330  0.595850  1.0  0.381
  C  C1054  1  0.862240  0.655270  0.035390  1.0  -0.0956
  C  C1055  1  0.129070  0.287700  0.198570  1.0  0.1391
  C  C1056  1  0.718500  0.328900  0.418400  1.0  -0.1371
  C  C1057  1  0.326850  0.706970  0.862240  1.0  -0.0954
  C  C1058  1  0.826850  0.862240  0.706970  1.0  -0.0958
  C  C1059  1  0.308330  0.625150  0.712480  1.0  0.3806
  C  C1060  1  0.226400  0.734390  0.171850  1.0  -0.0379
  C  C1061  1  0.702650  0.332880  0.828530  1.0  0.6804
  C  C1062  1  0.237900  0.340900  0.512800  1.0  0.7121
  C  C1063  1  0.791650  0.064510  0.569480  1.0  -0.0995
  C  C1064  1  0.374850  0.787520  0.191670  1.0  0.3808
  C  C1065  1  0.044070  0.257970  0.894900  1.0  -0.1057
  C  C1066  1  0.374120  0.869770  0.702650  1.0  0.6793
  C  C1067  1  0.418400  0.589500  0.199900  1.0  -0.1405
  C  C1068  1  0.695330  0.404080  0.262790  1.0  0.2785
  C  C1069  1  0.281200  0.565900  0.189900  1.0  -0.1038
  C  C1070  1  0.649170  0.286100  0.044070  1.0  -0.102
  C  C1071  1  0.869770  0.667120  0.495650  1.0  0.6802
  C  C1072  1  0.706970  0.344730  0.380120  1.0  -0.0943
  C  C1073  1  0.252150  0.313580  0.285910  1.0  -0.1972
  C  C1074  1  0.115870  0.794160  0.654810  1.0  -0.0883
  C  C1075  1  0.544070  0.649170  0.786100  1.0  -0.1049
  C  C1076  1  0.215300  0.781200  0.091300  1.0  -0.1045
  C  C1077  1  0.090650  0.803300  0.439150  1.0  -0.0623
  C  C1078  1  0.054550  0.226400  0.992010  1.0  -0.044
  C  C1079  1  0.897800  0.713800  0.803600  1.0  0.2093
  C  C1080  1  0.136930  0.286100  0.242030  1.0  -0.1082
  C  C1081  1  0.149490  0.868950  0.188840  1.0  0.1771
  C  C1082  1  0.104810  0.220890  0.293420  1.0  0.2276
  C  C1083  1  0.624000  0.934100  0.215300  1.0  -0.1076
  C  C1084  1  0.504350  0.671470  0.874120  1.0  0.6811
  C  C1085  1  0.808330  0.712480  0.625150  1.0  0.3787
  C  C1086  1  0.563410  0.317660  0.075230  1.0  -0.176
  C  C1087  1  0.139350  0.845190  0.461060  1.0  -0.0886
  C  C1088  1  0.144550  0.068350  0.292600  1.0  -0.1332
  C  C1089  1  0.591300  0.215300  0.281200  1.0  -0.1084
  C  C1090  1  0.170300  0.042280  0.278580  1.0  0.0079
  C  C1091  1  0.328900  0.410500  0.610400  1.0  -0.1417
  C  C1092  1  0.316000  0.602200  0.905800  1.0  0.211
  C  C1093  1  0.311390  0.383920  0.104810  1.0  0.2281
  C  C1094  1  0.257570  0.511820  0.575230  1.0  -0.1709
  C  C1095  1  0.262100  0.774900  0.103000  1.0  0.7107
  C  C1096  1  0.284700  0.376000  0.565900  1.0  -0.1092
  C  C1097  1  0.829700  0.871980  0.608280  1.0  0.0078
  C  C1098  1  0.369770  0.874120  0.202650  1.0  0.6775
  C  C1099  1  0.221420  0.391720  0.263700  1.0  0.0105
  C  C1100  1  0.742030  0.136930  0.786100  1.0  -0.1088
  C  C1101  1  0.432540  0.695330  0.791250  1.0  0.2772
  C  C1102  1  0.651500  0.560850  0.364150  1.0  -0.0573
  C  C1103  1  0.904150  0.816820  0.691670  1.0  0.3774
  C  C1104  1  0.409350  0.560850  0.196700  1.0  -0.0575
  C  C1105  1  0.431650  0.076200  0.724250  1.0  -0.136
  C  C1106  1  0.430500  0.341370  0.129070  1.0  0.1426
  C  C1107  1  0.110400  0.781500  0.699900  1.0  -0.1365
  C  C1108  1  0.927470  0.206580  0.811390  1.0  0.2282
  C  C1109  1  0.303600  0.897800  0.213800  1.0  0.2154
  C  C1110  1  0.935490  0.930520  0.708350  1.0  -0.0986
  C  C1111  1  0.219460  0.868950  0.680110  1.0  0.1772
  C  C1112  1  0.137760  0.344730  0.964610  1.0  -0.0943
  C  C1113  1  0.040630  0.272020  0.436630  1.0  0.6646
  C  C1114  1  0.457720  0.128020  0.736300  1.0  0.011
  C  C1115  1  0.105100  0.242030  0.955930  1.0  -0.0982
  C  C1116  1  0.437460  0.671850  0.945450  1.0  -0.048
  C  C1117  1  0.263700  0.371980  0.542280  1.0  0.0084
  C  C1118  1  0.021880  0.787640  0.563020  1.0  -0.0271
  C  C1119  1  0.396000  0.959370  0.731390  1.0  0.6688
  C  C1120  1  0.081600  0.281500  0.171100  1.0  -0.1389
  C  C1121  1  0.063020  0.041140  0.275380  1.0  -0.027
  C  C1122  1  0.667120  0.671470  0.797350  1.0  0.6814
  C  C1123  1  0.787700  0.629070  0.698570  1.0  0.1404
  C  C1124  1  0.625150  0.412670  0.316820  1.0  0.3811
  C  C1125  1  0.424990  0.687550  0.812560  1.0  0.1214
  C  C1126  1  0.813580  0.061430  0.527670  1.0  -0.1884
  C  C1127  1  0.004970  0.777830  0.069480  1.0  -0.1023
  C  C1128  1  0.682340  0.257570  0.245750  1.0  -0.1704
  C  C1129  1  0.648050  0.423800  0.855450  1.0  -0.1339
  C  C1130  1  0.458860  0.436980  0.224620  1.0  -0.0265
  C  C1131  1  0.816820  0.625150  0.912670  1.0  0.3785
  C  C1132  1  0.206970  0.380120  0.344730  1.0  -0.0936
  C  C1133  1  0.125010  0.312560  0.387570  1.0  0.12
  C  C1134  1  0.850510  0.719460  0.539350  1.0  0.1775
  C  C1135  1  0.978120  0.212360  0.436980  1.0  -0.0242
  C  C1136  1  0.840900  0.737900  0.012800  1.0  0.7072
  C  C1137  1  0.713900  0.257970  0.363070  1.0  -0.1088
  C  C1138  1  0.757570  0.182340  0.745750  1.0  -0.1713
  C  C1139  1  0.141290  0.237210  0.432540  1.0  0.2764
  C  C1140  1  0.762560  0.075010  0.387570  1.0  0.1209
  C  C1141  1  0.380120  0.535390  0.173150  1.0  -0.0964
  C  C1142  1  0.435490  0.727140  0.004970  1.0  -0.0977
  C  C1143  1  0.294160  0.678290  0.639350  1.0  -0.0875
  C  C1144  1  0.183180  0.374850  0.087330  1.0  0.3809
  C  C1145  1  0.667120  0.995650  0.369770  1.0  0.6815
  C  C1146  1  0.188610  0.895190  0.616080  1.0  0.23
  C  C1147  1  0.293420  0.720890  0.104810  1.0  0.2301
  C  C1148  1  0.254250  0.317660  0.242430  1.0  -0.1747
  C  C1149  1  0.222170  0.430520  0.495030  1.0  -0.0914
  C  C1150  1  0.094200  0.897800  0.684000  1.0  0.2127
  C  C1151  1  0.076200  0.851950  0.644550  1.0  -0.1383
  C  C1152  1  0.828150  0.765610  0.773600  1.0  -0.0419
  C  C1153  1  0.358710  0.567460  0.762790  1.0  0.2766
  C  C1154  1  0.713800  0.303600  0.397800  1.0  0.2162
  C  C1155  1  0.404150  0.712480  0.087330  1.0  0.3775
  C  C1156  1  0.089800  0.303600  0.905800  1.0  0.2142
  C  C1157  1  0.887570  0.125010  0.812560  1.0  0.1227
  C  C1158  1  0.972330  0.785910  0.033760  1.0  -0.1921
  C  C1159  1  0.187550  0.262560  0.374990  1.0  0.1253
  C  C1160  1  0.488180  0.924770  0.242430  1.0  -0.1736
  C  C1161  1  0.535390  0.862240  0.155270  1.0  -0.0958
  C  C1162  1  0.292600  0.568350  0.144550  1.0  -0.136
  C  C1163  1  0.527670  0.966240  0.214090  1.0  -0.1936
  C  C1164  1  0.715300  0.091300  0.781200  1.0  -0.1078
  C  C1165  1  0.263700  0.891720  0.221420  1.0  0.0074
  C  C1166  1  0.772020  0.540630  0.936630  1.0  0.6654
  C  C1167  1  0.595920  0.237210  0.804670  1.0  0.2752
  C  C1168  1  0.910200  0.213800  0.316000  1.0  0.2169
  C  C1169  1  0.778580  0.608280  0.736300  1.0  0.0066
  C  C1170  1  0.624000  0.689900  0.908700  1.0  -0.1113
  C  C1171  1  0.628020  0.670300  0.891720  1.0  0.0091
  C  C1172  1  0.869770  0.202650  0.874120  1.0  0.6804
  C  C1173  1  0.089130  0.787700  0.658630  1.0  0.1337
  C  C1174  1  0.350510  0.811160  0.131050  1.0  0.1806
  C  C1175  1  0.707400  0.275750  0.351950  1.0  -0.1376
  C  C1176  1  0.696700  0.409350  0.060850  1.0  -0.0651
  C  C1177  1  0.492010  0.054550  0.726400  1.0  -0.0412
  C  C1178  1  0.231390  0.396000  0.459370  1.0  0.6646
  C  C1179  1  0.095920  0.804670  0.237210  1.0  0.2761
  C  C1180  1  0.786200  0.602200  0.696400  1.0  0.2136
  C  C1181  1  0.196700  0.135850  0.287350  1.0  -0.0629
  C  C1182  1  0.945450  0.773600  0.007990  1.0  -0.04
  C  C1183  1  0.655270  0.535390  0.362240  1.0  -0.0962
  C  C1184  1  0.870930  0.712300  0.801430  1.0  0.1397
  C  C1185  1  0.936630  0.896000  0.664610  1.0  0.666
  C  C1186  1  0.004350  0.130230  0.832880  1.0  0.6804
  C  C1187  1  0.075010  0.187440  0.312450  1.0  0.1202
  C  C1188  1  0.800100  0.910500  0.581600  1.0  -0.1404
  C  C1189  1  0.631050  0.280540  0.819890  1.0  0.177
  C  C1190  1  0.148050  0.855450  0.423800  1.0  -0.1359
  C  C1191  1  0.714090  0.527670  0.466240  1.0  -0.1897
  C  C1192  1  0.720890  0.604810  0.793420  1.0  0.2273
  C  C1193  1  0.930520  0.722170  0.995030  1.0  -0.1004
  C  C1194  1  0.659100  0.987200  0.262100  1.0  0.7105
  C  C1195  1  0.164610  0.227980  0.268610  1.0  0.6656
  C  C1196  1  0.731390  0.272020  0.835390  1.0  0.6623
  C  C1197  1  0.612430  0.187440  0.874990  1.0  0.1206
  C  C1198  1  0.370930  0.569500  0.158630  1.0  0.1392
  C  C1199  1  0.065900  0.781200  0.689900  1.0  -0.1019
  C  C1200  1  0.184000  0.094200  0.397800  1.0  0.21
  C  C1201  1  0.108280  0.829700  0.371980  1.0  0.0104
  C  C1202  1  0.435490  0.708350  0.930520  1.0  -0.0971
  C  C1203  1  0.436590  0.682340  0.924770  1.0  -0.1749
  C  C1204  1  0.671470  0.297350  0.167120  1.0  0.6824
  C  C1205  1  0.328150  0.773600  0.765610  1.0  -0.0462
  C  C1206  1  0.883920  0.072530  0.779110  1.0  0.228
  C  C1207  1  0.254250  0.936590  0.511820  1.0  -0.174
  C  C1208  1  0.696400  0.594200  0.410200  1.0  0.21
  C  C1209  1  0.212360  0.275380  0.234240  1.0  -0.0284
  C  C1210  1  0.206970  0.826850  0.362240  1.0  -0.0969
  C  C1211  1  0.737210  0.095920  0.304670  1.0  0.273
  C  C1212  1  0.832880  0.202650  0.328530  1.0  0.6802
  C  C1213  1  0.044070  0.786100  0.649170  1.0  -0.1121
  C  C1214  1  0.608280  0.236300  0.278580  1.0  0.0076
  C  C1215  1  0.195330  0.932540  0.291250  1.0  0.276
  C  C1216  1  0.189900  0.065900  0.281200  1.0  -0.1076
  C  C1217  1  0.478120  0.041140  0.765760  1.0  -0.0272
  C  C1218  1  0.581600  0.171100  0.281500  1.0  -0.1374
  C  C1219  1  0.060850  0.909350  0.696700  1.0  -0.0636
  C  C1220  1  0.868950  0.688840  0.649490  1.0  0.1813
  C  C1221  1  0.212300  0.841370  0.410870  1.0  0.1381
  C  C1222  1  0.158630  0.089130  0.287700  1.0  0.1427
  C  C1223  1  0.278580  0.542280  0.170300  1.0  0.0144
  C  C1224  1  0.939150  0.090650  0.303300  1.0  -0.0631
  C  C1225  1  0.130230  0.332880  0.504350  1.0  0.6805
  C  C1226  1  0.478120  0.436980  0.212360  1.0  -0.0264
  C  C1227  1  0.287640  0.765760  0.724620  1.0  -0.0239
  C  C1228  1  0.287520  0.874850  0.691670  1.0  0.3792
  C  C1229  1  0.275750  0.851950  0.207400  1.0  -0.1347
  C  C1230  1  0.171100  0.781500  0.081600  1.0  -0.1377
  C  C1231  1  0.937460  0.945450  0.671850  1.0  -0.0417
  C  C1232  1  0.780540  0.649490  0.960650  1.0  0.1777
  C  C1233  1  0.274900  0.762100  0.603000  1.0  0.7094
  C  C1234  1  0.405800  0.089800  0.803600  1.0  0.2112
  C  C1235  1  0.811160  0.180110  0.460650  1.0  0.1789
  C  C1236  1  0.876000  0.091300  0.310100  1.0  -0.1049
  C  C1237  1  0.212360  0.936980  0.478120  1.0  -0.0277
  C  C1238  1  0.590650  0.151500  0.287350  1.0  -0.061
  C  C1239  1  0.785910  0.252150  0.813580  1.0  -0.1981
  C  C1240  1  0.910200  0.696400  0.094200  1.0  0.2126
  C  C1241  1  0.924990  0.112430  0.737440  1.0  0.1243
  C  C1242  1  0.787640  0.724620  0.765760  1.0  -0.0279
  C  C1243  1  0.182340  0.936590  0.424770  1.0  -0.1741
  C  C1244  1  0.684000  0.286200  0.089800  1.0  0.2094
  C  C1245  1  0.762790  0.067460  0.358710  1.0  0.2747
  C  C1246  1  0.205840  0.360650  0.321710  1.0  -0.0897
  C  C1247  1  0.293420  0.572530  0.688610  1.0  0.2311
  C  C1248  1  0.095850  0.912670  0.287520  1.0  0.3792
  C  C1249  1  0.455930  0.105100  0.742030  1.0  -0.1101
  C  C1250  1  0.649490  0.188840  0.868950  1.0  0.1806
  C  C1251  1  0.371980  0.042280  0.763700  1.0  0.0119
  C  C1252  1  0.850510  0.131050  0.811160  1.0  0.1773
  C  C1253  1  0.602200  0.196400  0.286200  1.0  0.2113
  C  C1254  1  0.436980  0.724620  0.958860  1.0  -0.0292
  C  C1255  1  0.351950  0.576200  0.144550  1.0  -0.1333
  C  C1256  1  0.360650  0.821710  0.705840  1.0  -0.0899
  C  C1257  1  0.817660  0.754250  0.742430  1.0  -0.1715
  C  C1258  1  0.871980  0.763700  0.042280  1.0  0.0075
  C  C1259  1  0.762790  0.695330  0.904080  1.0  0.2771
  C  C1260  1  0.932540  0.791250  0.695330  1.0  0.2743
  C  C1261  1  0.721420  0.263700  0.391720  1.0  0.0129
  C  C1262  1  0.272860  0.495030  0.064510  1.0  -0.0996
  C  C1263  1  0.316000  0.713800  0.910200  1.0  0.2101
  C  C1264  1  0.958860  0.734240  0.021880  1.0  -0.0256
  C  C1265  1  0.794160  0.639350  0.678290  1.0  -0.0901
  C  C1266  1  0.064510  0.069480  0.291650  1.0  -0.0985
  C  C1267  1  0.848500  0.635850  0.439150  1.0  -0.064
  C  C1268  1  0.718800  0.434100  0.810100  1.0  -0.1028
  C  C1269  1  0.631050  0.350510  0.311160  1.0  0.1776
  C  C1270  1  0.065900  0.284700  0.876000  1.0  -0.1055
  C  C1271  1  0.245750  0.488180  0.063410  1.0  -0.1742
  C  C1272  1  0.054550  0.828150  0.562540  1.0  -0.0369
  C  C1273  1  0.167120  0.369770  0.995650  1.0  0.6779
  C  C1274  1  0.542280  0.670300  0.778580  1.0  0.0072
  C  C1275  1  0.910870  0.212300  0.341370  1.0  0.1351
  C  C1276  1  0.095850  0.183180  0.308330  1.0  0.3789
  C  C1277  1  0.589130  0.930500  0.301430  1.0  0.1407
  C  C1278  1  0.198570  0.410870  0.569500  1.0  0.1351
  C  C1279  1  0.218500  0.800100  0.389600  1.0  -0.1457
  C  C1280  1  0.039350  0.188840  0.319890  1.0  0.1808
  C  C1281  1  0.151500  0.787350  0.090650  1.0  -0.0603
  C  C1282  1  0.731390  0.459370  0.396000  1.0  0.665
  C  C1283  1  0.897800  0.184000  0.594200  1.0  0.2107
  C  C1284  1  0.781200  0.189900  0.565900  1.0  -0.1109
  C  C1285  1  0.105100  0.863070  0.649170  1.0  -0.1084
  C  C1286  1  0.811160  0.631050  0.850510  1.0  0.1801
  C  C1287  1  0.727980  0.664610  0.768610  1.0  0.6659
  C  C1288  1  0.265610  0.328150  0.273600  1.0  -0.043
  C  C1289  1  0.116080  0.927470  0.220890  1.0  0.2309
  C  C1290  1  0.344730  0.880120  0.206970  1.0  -0.096
  C  C1291  1  0.319890  0.688840  0.039350  1.0  0.1791
  C  C1292  1  0.987200  0.762100  0.159100  1.0  0.7108
  C  C1293  1  0.625010  0.237440  0.812450  1.0  0.1216
  C  C1294  1  0.460650  0.680110  0.811160  1.0  0.1782
  C  C1295  1  0.737440  0.612430  0.924990  1.0  0.1219
  C  C1296  1  0.396000  0.436630  0.164610  1.0  0.6647
  C  C1297  1  0.430500  0.089130  0.801430  1.0  0.1406
  C  C1298  1  0.064510  0.995030  0.272860  1.0  -0.1004
  C  C1299  1  0.734240  0.212360  0.775380  1.0  -0.0256
  C  C1300  1  0.436590  0.754250  0.011820  1.0  -0.1726
  C  C1301  1  0.604000  0.040630  0.268610  1.0  0.6672
  C  C1302  1  0.021880  0.234240  0.958860  1.0  -0.0247
  C  C1303  1  0.128020  0.236300  0.957720  1.0  0.0074
  C  C1304  1  0.707400  0.431650  0.855450  1.0  -0.1354
  C  C1305  1  0.326850  0.619880  0.964610  1.0  -0.0953
  C  C1306  1  0.955930  0.742030  0.105100  1.0  -0.1012
  C  C1307  1  0.438570  0.752150  0.966240  1.0  -0.1983
  C  C1308  1  0.569480  0.004970  0.277830  1.0  -0.0959
  C  C1309  1  0.687550  0.374990  0.262560  1.0  0.1235
  C  C1310  1  0.935490  0.004970  0.727140  1.0  -0.0983
  C  C1311  1  0.533760  0.972330  0.285910  1.0  -0.186
  C  C1312  1  0.208750  0.404080  0.141290  1.0  0.2772
  C  C1313  1  0.765610  0.492010  0.937460  1.0  -0.038
  C  C1314  1  0.658630  0.287700  0.089130  1.0  0.1406
  C  C1315  1  0.384130  0.038940  0.678290  1.0  -0.0857
  C  C1316  1  0.995650  0.125880  0.328530  1.0  0.6779
  C  C1317  1  0.810100  0.876000  0.591300  1.0  -0.109
  C  C1318  1  0.171850  0.937460  0.445450  1.0  -0.0367
  C  C1319  1  0.575230  0.563410  0.817660  1.0  -0.1714
  C  C1320  1  0.075010  0.887570  0.262560  1.0  0.1219
  C  C1321  1  0.840900  0.103000  0.328100  1.0  0.7062
  C  C1322  1  0.137760  0.793030  0.673150  1.0  -0.1014
  C  C1323  1  0.225100  0.828100  0.487200  1.0  0.7141
  C  C1324  1  0.242430  0.817660  0.254250  1.0  -0.1685
  C  C1325  1  0.938570  0.966240  0.752150  1.0  -0.1891
  C  C1326  1  0.075230  0.817660  0.563410  1.0  -0.1702
  C  C1327  1  0.742430  0.488180  0.424770  1.0  -0.1743
  C  C1328  1  0.797350  0.625880  0.630230  1.0  0.6799
  C  C1329  1  0.589800  0.905800  0.303600  1.0  0.2107
  C  C1330  1  0.141290  0.904080  0.208750  1.0  0.2734
  C  C1331  1  0.042280  0.778580  0.670300  1.0  0.0107
  C  C1332  1  0.186420  0.938570  0.472330  1.0  -0.1977
  C  C1333  1  0.658630  0.370930  0.069500  1.0  0.14
  C  C1334  1  0.291250  0.432540  0.195330  1.0  0.2762
  C  C1335  1  0.688610  0.616080  0.895190  1.0  0.2268
  C  C1336  1  0.340900  0.328100  0.103000  1.0  0.7068
  C  C1337  1  0.936980  0.978120  0.712360  1.0  -0.0272
  C  C1338  1  0.262560  0.387570  0.075010  1.0  0.1225
  C  C1339  1  0.129070  0.841370  0.430500  1.0  0.1404
  C  C1340  1  0.278580  0.736300  0.608280  1.0  0.011
  C  C1341  1  0.619880  0.464610  0.826850  1.0  -0.0951
  C  C1342  1  0.792600  0.144550  0.568350  1.0  -0.1367
  C  C1343  1  0.720890  0.116080  0.427470  1.0  0.2276
  C  C1344  1  0.569500  0.658630  0.870930  1.0  0.1412
  C  C1345  1  0.131050  0.311160  0.350510  1.0  0.18
  C  C1346  1  0.329700  0.608280  0.871980  1.0  0.0094
  C  C1347  1  0.242030  0.786100  0.136930  1.0  -0.1089
  C  C1348  1  0.683180  0.087330  0.374850  1.0  0.3777
  C  C1349  1  0.281500  0.610400  0.199900  1.0  -0.1386
  C  C1350  1  0.828150  0.062540  0.554550  1.0  -0.0434
  C  C1351  1  0.829700  0.957720  0.721420  1.0  0.0125
  C  C1352  1  0.793030  0.619880  0.655270  1.0  -0.0954
  C  C1353  1  0.774900  0.171900  0.512800  1.0  0.7108
  C  C1354  1  0.072530  0.793420  0.188610  1.0  0.2287
  C  C1355  1  0.068350  0.792600  0.644550  1.0  -0.1359
  C  C1356  1  0.495030  0.930520  0.222170  1.0  -0.099
  C  C1357  1  0.835390  0.063370  0.604000  1.0  0.6646
  C  C1358  1  0.884130  0.678290  0.038940  1.0  -0.0896
  C  C1359  1  0.027670  0.813580  0.561430  1.0  -0.1955
  C  C1360  1  0.213900  0.363070  0.257970  1.0  -0.1078
  C  C1361  1  0.207400  0.351950  0.275750  1.0  -0.1345
  C  C1362  1  0.635850  0.939150  0.348500  1.0  -0.0595
  C  C1363  1  0.219460  0.350510  0.039350  1.0  0.1774
  C  C1364  1  0.619880  0.155270  0.293030  1.0  -0.0961
  C  C1365  1  0.851950  0.144550  0.576200  1.0  -0.1351
  C  C1366  1  0.257570  0.745750  0.182340  1.0  -0.1725
  C  C1367  1  0.180110  0.960650  0.311160  1.0  0.1799
  C  C1368  1  0.212300  0.370930  0.301430  1.0  0.1396
  C  C1369  1  0.234390  0.726400  0.671850  1.0  -0.0395
  C  C1370  1  0.188840  0.368950  0.149490  1.0  0.1805
  C  C1371  1  0.285910  0.813580  0.252150  1.0  -0.1967
  C  C1372  1  0.930500  0.801430  0.089130  1.0  0.1407
  C  C1373  1  0.196700  0.060850  0.409350  1.0  -0.06
  C  C1374  1  0.436630  0.664610  0.896000  1.0  0.6646
  C  C1375  1  0.504350  0.832880  0.130230  1.0  0.6793
  C  C1376  1  0.785910  0.533760  0.472330  1.0  -0.1972
  C  C1377  1  0.436630  0.772020  0.040630  1.0  0.666
  C  C1378  1  0.625880  0.130230  0.297350  1.0  0.6797
  C  C1379  1  0.870930  0.158630  0.569500  1.0  0.1385
  C  C1380  1  0.727980  0.063370  0.459370  1.0  0.6635
  C  C1381  1  0.568350  0.923800  0.275750  1.0  -0.1389
  C  C1382  1  0.136930  0.850830  0.394900  1.0  -0.102
  C  C1383  1  0.563020  0.275380  0.041140  1.0  -0.0263
  C  C1384  1  0.791250  0.595920  0.858710  1.0  0.2771
  C  C1385  1  0.605100  0.649170  0.863070  1.0  -0.1109
  C  C1386  1  0.376000  0.310100  0.091300  1.0  -0.1075
  C  C1387  1  0.212650  0.409350  0.348500  1.0  -0.0637
  C  C1388  1  0.089130  0.301430  0.930500  1.0  0.1377
  C  C1389  1  0.691670  0.374850  0.287520  1.0  0.3788
  C  C1390  1  0.287350  0.651500  0.590650  1.0  -0.0661
  C  C1391  1  0.297350  0.667120  0.171470  1.0  0.6814
  C  C1392  1  0.236300  0.457720  0.628020  1.0  0.0146
  C  C1393  1  0.218500  0.418400  0.328900  1.0  -0.1389
  C  C1394  1  0.041140  0.265760  0.978120  1.0  -0.0242
  C  C1395  1  0.625010  0.387570  0.312560  1.0  0.1218
  C  C1396  1  0.171470  0.167120  0.297350  1.0  0.6781
  C  C1397  1  0.590650  0.439150  0.803300  1.0  -0.0574
  C  C1398  1  0.762100  0.103000  0.774900  1.0  0.7084
  C  C1399  1  0.718500  0.389600  0.800100  1.0  -0.1398
  C  C1400  1  0.736300  0.628020  0.457720  1.0  0.0128
  C  C1401  1  0.466240  0.027670  0.714090  1.0  -0.1919
  C  C1402  1  0.439150  0.303300  0.090650  1.0  -0.0668
  C  C1403  1  0.154810  0.038940  0.360650  1.0  -0.0899
  C  C1404  1  0.075230  0.257570  0.011820  1.0  -0.1689
  C  C1405  1  0.594200  0.910200  0.196400  1.0  0.2084
  C  C1406  1  0.938570  0.972330  0.686420  1.0  -0.1911
  C  C1407  1  0.208350  0.935490  0.430520  1.0  -0.0989
  C  C1408  1  0.178290  0.794160  0.139350  1.0  -0.086
  C  C1409  1  0.904080  0.195330  0.762790  1.0  0.2774
  C  C1410  1  0.186420  0.247850  0.214090  1.0  -0.1962
  C  C1411  1  0.850830  0.955930  0.713900  1.0  -0.1017
  C  C1412  1  0.883920  0.811390  0.604810  1.0  0.2296
  C  C1413  1  0.341370  0.629070  0.930500  1.0  0.1391
  C  C1414  1  0.797350  0.171470  0.667120  1.0  0.6825
  C  C1415  1  0.565900  0.876000  0.284700  1.0  -0.1105
  C  C1416  1  0.562540  0.328150  0.054550  1.0  -0.0469
  C  C1417  1  0.835390  0.772020  0.731390  1.0  0.667
  C  C1418  1  0.268610  0.727980  0.164610  1.0  0.6643
  C  C1419  1  0.648050  0.224250  0.292600  1.0  -0.1388
  C  C1420  1  0.039350  0.850510  0.219460  1.0  0.1815
  C  C1421  1  0.257970  0.394900  0.544070  1.0  -0.1031
  C  C1422  1  0.765760  0.541140  0.478120  1.0  -0.0249
  C  C1423  1  0.262560  0.874990  0.687550  1.0  0.1227
  C  C1424  1  0.312560  0.424990  0.187550  1.0  0.1228
  C  C1425  1  0.828900  0.610400  0.410500  1.0  -0.1395
  C  C1426  1  0.775750  0.568350  0.423800  1.0  -0.1357
  C  C1427  1  0.772860  0.064510  0.495030  1.0  -0.1005
  C  C1428  1  0.464610  0.137760  0.844730  1.0  -0.0957
  C  C1429  1  0.286100  0.544070  0.149170  1.0  -0.1115
  C  C1430  1  0.191670  0.904150  0.316820  1.0  0.3784
  C  C1431  1  0.810100  0.934100  0.718800  1.0  -0.1078
  C  C1432  1  0.303300  0.590650  0.939150  1.0  -0.0624
  C  C1433  1  0.706580  0.427470  0.311390  1.0  0.2329
  C  C1434  1  0.644550  0.292600  0.068350  1.0  -0.1368
  C  C1435  1  0.012800  0.237900  0.840900  1.0  0.7089
  C  C1436  1  0.199900  0.089500  0.418400  1.0  -0.1417
  C  C1437  1  0.154810  0.115870  0.294160  1.0  -0.084
  C  C1438  1  0.644550  0.351950  0.076200  1.0  -0.1346
  C  C1439  1  0.171470  0.004350  0.374120  1.0  0.6825
  C  C1440  1  0.793030  0.173150  0.637760  1.0  -0.0949
  C  C1441  1  0.234240  0.775380  0.212360  1.0  -0.0239
  C  C1442  1  0.215300  0.434100  0.624000  1.0  -0.1062
  C  C1443  1  0.721420  0.457720  0.829700  1.0  0.012
  C  C1444  1  0.772020  0.231390  0.335390  1.0  0.6636
  C  C1445  1  0.076200  0.224250  0.931650  1.0  -0.1363
  C  C1446  1  0.148050  0.292600  0.224250  1.0  -0.1375
  C  C1447  1  0.395190  0.706580  0.779110  1.0  0.2297
  C  C1448  1  0.495650  0.328530  0.125880  1.0  0.6812
  C  C1449  1  0.635850  0.696700  0.787350  1.0  -0.0685
  C  C1450  1  0.389600  0.300100  0.218500  1.0  -0.1439
  C  C1451  1  0.775750  0.207400  0.851950  1.0  -0.1332
  C  C1452  1  0.224620  0.287640  0.265760  1.0  -0.0267
  C  C1453  1  0.533760  0.561430  0.747850  1.0  -0.199
  C  C1454  1  0.742030  0.605100  0.455930  1.0  -0.1002
  C  C1455  1  0.895190  0.116080  0.688610  1.0  0.2305
  C  C1456  1  0.362240  0.326850  0.206970  1.0  -0.0999
  C  C1457  1  0.355450  0.648050  0.923800  1.0  -0.1349
  C  C1458  1  0.686420  0.214090  0.247850  1.0  -0.196
  C  C1459  1  0.089800  0.786200  0.684000  1.0  0.219
  C  C1460  1  0.793420  0.104810  0.720890  1.0  0.2314
  C  C1461  1  0.313580  0.785910  0.752150  1.0  -0.1971
  C  C1462  1  0.937460  0.992010  0.765610  1.0  -0.0352
  C  C1463  1  0.960650  0.149490  0.780540  1.0  0.1816
  C  C1464  1  0.687440  0.112430  0.374990  1.0  0.1223
  C  C1465  1  0.889600  0.671100  0.089500  1.0  -0.1392
  C  C1466  1  0.708350  0.277830  0.272860  1.0  -0.103
  C  C1467  1  0.671900  0.397000  0.159100  1.0  0.7127
  C  C1468  1  0.205840  0.845190  0.384130  1.0  -0.0892
  C  C1469  1  0.125880  0.297350  0.130230  1.0  0.6841
  C  C1470  1  0.860650  0.154810  0.538940  1.0  -0.0897
  C  C1471  1  0.966240  0.252150  0.438570  1.0  -0.2017
  C  C1472  1  0.262790  0.358710  0.067460  1.0  0.2744
  C  C1473  1  0.011820  0.757570  0.075230  1.0  -0.1749
  C  C1474  1  0.225100  0.397000  0.237900  1.0  0.7116
  C  C1475  1  0.069480  0.791650  0.564510  1.0  -0.0962
  C  C1476  1  0.199900  0.110400  0.281500  1.0  -0.1399
  C  C1477  1  0.041140  0.775380  0.563020  1.0  -0.0258
  C  C1478  1  0.891720  0.721420  0.763700  1.0  0.0089
  C  C1479  1  0.374990  0.612430  0.687440  1.0  0.1224
  C  C1480  1  0.394900  0.044070  0.757970  1.0  -0.1029
  C  C1481  1  0.424770  0.436590  0.182340  1.0  -0.172
  C  C1482  1  0.424990  0.737440  0.112430  1.0  0.125
  C  C1483  1  0.713800  0.410200  0.816000  1.0  0.2125
  C  C1484  1  0.280540  0.960650  0.649490  1.0  0.1799
  C  C1485  1  0.686420  0.472330  0.938570  1.0  -0.1993
  C  C1486  1  0.541140  0.978120  0.265760  1.0  -0.0271
  C  C1487  1  0.708750  0.567460  0.804670  1.0  0.2745
  C  C1488  1  0.187440  0.374990  0.112430  1.0  0.1226
  C  C1489  1  0.272860  0.777830  0.708350  1.0  -0.104
  C  C1490  1  0.063370  0.104000  0.335390  1.0  0.6668
  C  C1491  1  0.636930  0.394900  0.850830  1.0  -0.1009
  C  C1492  1  0.303300  0.712650  0.864150  1.0  -0.0585
  C  C1493  1  0.992010  0.726400  0.054550  1.0  -0.0387
  C  C1494  1  0.754250  0.511820  0.936590  1.0  -0.1726
  C  C1495  1  0.410200  0.094200  0.696400  1.0  0.2098
  C  C1496  1  0.654810  0.294160  0.115870  1.0  -0.0884
  C  C1497  1  0.234390  0.507990  0.062540  1.0  -0.0319
  C  C1498  1  0.602200  0.405800  0.816000  1.0  0.2105
  C  C1499  1  0.434100  0.310100  0.218800  1.0  -0.1092
  C  C1500  1  0.308330  0.683180  0.095850  1.0  0.3794
  C  C1501  1  0.683180  0.595850  0.808330  1.0  0.3792
  C  C1502  1  0.687550  0.312560  0.924990  1.0  0.1233
  C  C1503  1  0.061430  0.027670  0.313580  1.0  -0.192
  C  C1504  1  0.208350  0.272860  0.277830  1.0  -0.0913
  C  C1505  1  0.779110  0.572530  0.883920  1.0  0.232
  C  C1506  1  0.279110  0.395190  0.206580  1.0  0.2257
  C  C1507  1  0.561430  0.247850  0.033760  1.0  -0.1932
  C  C1508  1  0.945450  0.171850  0.437460  1.0  -0.0416
  C  C1509  1  0.787520  0.095850  0.412670  1.0  0.3796
  C  C1510  1  0.272020  0.936630  0.540630  1.0  0.664
  C  C1511  1  0.410200  0.316000  0.213800  1.0  0.2103
  C  C1512  1  0.874120  0.702650  0.869770  1.0  0.6819
  C  C1513  1  0.961060  0.821710  0.115870  1.0  -0.0889
  C  C1514  1  0.362240  0.035390  0.655270  1.0  -0.1001
  C  C1515  1  0.237210  0.304670  0.095920  1.0  0.2757
  C  C1516  1  0.275750  0.423800  0.568350  1.0  -0.1333
  C  C1517  1  0.610400  0.910500  0.328900  1.0  -0.141
  C  C1518  1  0.589130  0.658630  0.787700  1.0  0.1422
  C  C1519  1  0.335390  0.731390  0.772020  1.0  0.6651
  C  C1520  1  0.191670  0.287520  0.374850  1.0  0.3774
  C  C1521  1  0.594200  0.684000  0.897800  1.0  0.2122
  C  C1522  1  0.876000  0.784700  0.065900  1.0  -0.1077
  C  C1523  1  0.328530  0.702650  0.832880  1.0  0.6827
  C  C1524  1  0.231390  0.835390  0.272020  1.0  0.666
  C  C1525  1  0.089500  0.918400  0.699900  1.0  -0.1391
  C  C1526  1  0.104810  0.883920  0.311390  1.0  0.2277
  C  C1527  1  0.572530  0.188610  0.793420  1.0  0.2294
  C  C1528  1  0.262100  0.487200  0.659100  1.0  0.711
  C  C1529  1  0.328530  0.625880  0.995650  1.0  0.6803
  C  C1530  1  0.736300  0.108280  0.778580  1.0  0.0081
  C  C1531  1  0.995030  0.772860  0.564510  1.0  -0.0882
  C  C1532  1  0.604810  0.293420  0.220890  1.0  0.2293
  C  C1533  1  0.855450  0.923800  0.648050  1.0  -0.1333
  C  C1534  1  0.042280  0.263700  0.871980  1.0  0.0092
  C  C1535  1  0.311160  0.460650  0.180110  1.0  0.1807
  C  C1536  1  0.277830  0.772860  0.208350  1.0  -0.097
  C  C1537  1  0.391720  0.628020  0.170300  1.0  0.0101
  C  C1538  1  0.803600  0.213800  0.897800  1.0  0.2199
  C  C1539  1  0.936590  0.011820  0.754250  1.0  -0.1724
  C  C1540  1  0.671900  0.274900  0.012800  1.0  0.7121
  C  C1541  1  0.455930  0.350830  0.213900  1.0  -0.1072
  C  C1542  1  0.376000  0.065900  0.784700  1.0  -0.1083
  C  C1543  1  0.540630  0.104000  0.768610  1.0  0.665
  C  C1544  1  0.757970  0.213900  0.863070  1.0  -0.1126
  C  C1545  1  0.670300  0.391720  0.128020  1.0  0.0086
  C  C1546  1  0.273600  0.445450  0.507990  1.0  -0.0365
  C  C1547  1  0.567460  0.262790  0.858710  1.0  0.278
  C  C1548  1  0.279110  0.883920  0.572530  1.0  0.2307
  C  C1549  1  0.762560  0.687550  0.874990  1.0  0.1213
  C  C1550  1  0.293030  0.655270  0.619880  1.0  -0.0949
  C  C1551  1  0.699900  0.281500  0.110400  1.0  -0.1421
  C  C1552  1  0.768610  0.164610  0.727980  1.0  0.666
  C  C1553  1  0.587330  0.183180  0.874850  1.0  0.3764
  C  C1554  1  0.587330  0.404150  0.212480  1.0  0.3771
  C  C1555  1  0.091300  0.810100  0.376000  1.0  -0.1076
  C  C1556  1  0.227140  0.935490  0.504970  1.0  -0.1018
  C  C1557  1  0.724620  0.265760  0.287640  1.0  -0.0243
  C  C1558  1  0.130230  0.797350  0.125880  1.0  0.6788
  C  C1559  1  0.369770  0.495650  0.667120  1.0  0.6811
  C  C1560  1  0.828530  0.995650  0.625880  1.0  0.6798
  C  C1561  1  0.171850  0.234390  0.226400  1.0  -0.04
  C  C1562  1  0.725100  0.487200  0.828100  1.0  0.7118
  C  C1563  1  0.712360  0.478120  0.936980  1.0  -0.0245
  C  C1564  1  0.858710  0.095920  0.791250  1.0  0.2745
  C  C1565  1  0.319890  0.631050  0.780540  1.0  0.1808
  C  C1566  1  0.670300  0.278580  0.042280  1.0  0.0075
  C  C1567  1  0.629070  0.430500  0.841370  1.0  0.1368
  C  C1568  1  0.781500  0.199900  0.610400  1.0  -0.1402
  C  C1569  1  0.910500  0.828900  0.110400  1.0  -0.1401
  C  C1570  1  0.864150  0.212650  0.303300  1.0  -0.0613
  C  C1571  1  0.128020  0.891720  0.670300  1.0  0.0081
  C  C1572  1  0.655270  0.119880  0.793030  1.0  -0.1018
  C  C1573  1  0.895190  0.779110  0.706580  1.0  0.2277
  C  C1574  1  0.370930  0.801430  0.712300  1.0  0.1395
  C  C1575  1  0.236300  0.778580  0.108280  1.0  0.0091
  C  C1576  1  0.187440  0.812450  0.575010  1.0  0.1188
  C  C1577  1  0.004970  0.227140  0.435490  1.0  -0.0906
  C  C1578  1  0.274900  0.512800  0.171900  1.0  0.7105
  C  C1579  1  0.040630  0.768610  0.104000  1.0  0.6649
  C  C1580  1  0.671100  0.081600  0.781500  1.0  -0.1409
  C  C1581  1  0.848500  0.212650  0.909350  1.0  -0.0588
  C  C1582  1  0.930520  0.208350  0.435490  1.0  -0.1017
  C  C1583  1  0.224250  0.792600  0.148050  1.0  -0.135
  C  C1584  1  0.384130  0.345190  0.205840  1.0  -0.0898
  C  C1585  1  0.821710  0.205840  0.860650  1.0  -0.0828
  C  C1586  1  0.714090  0.186420  0.747850  1.0  -0.1869
  C  C1587  1  0.487200  0.328100  0.225100  1.0  0.7078
  C  C1588  1  0.563020  0.287640  0.021880  1.0  -0.0292
  C  C1589  1  0.542280  0.871980  0.263700  1.0  0.0078
  C  C1590  1  0.636930  0.242030  0.286100  1.0  -0.1079
  C  C1591  1  0.874850  0.683180  0.587330  1.0  0.3796
  C  C1592  1  0.772860  0.708350  0.777830  1.0  -0.0939
  C  C1593  1  0.272020  0.335390  0.231390  1.0  0.6642
  C  C1594  1  0.371980  0.329700  0.108280  1.0  0.0061
  C  C1595  1  0.595850  0.287520  0.912670  1.0  0.3805
  C  C1596  1  0.341370  0.712300  0.910870  1.0  0.1386
  C  C1597  1  0.930500  0.129070  0.341370  1.0  0.1348
  C  C1598  1  0.304670  0.595920  0.737210  1.0  0.2768
  C  C1599  1  0.237900  0.897000  0.225100  1.0  0.7062
  C  C1600  1  0.719460  0.680110  0.868950  1.0  0.1786
  C  C1601  1  0.291250  0.858710  0.595920  1.0  0.2771
  C  C1602  1  0.350830  0.636930  0.894900  1.0  -0.1012
  C  C1603  1  0.409350  0.848500  0.712650  1.0  -0.0632
  C  C1604  1  0.651500  0.090650  0.787350  1.0  -0.0616
  C  C1605  1  0.932540  0.141290  0.737210  1.0  0.2777
  C  C1606  1  0.792600  0.648050  0.724250  1.0  -0.1358
  C  C1607  1  0.460650  0.780540  0.149490  1.0  0.178
  C  C1608  1  0.227140  0.291650  0.222170  1.0  -0.0955
  C  C1609  1  0.698570  0.129070  0.787700  1.0  0.1354
  C  C1610  1  0.495030  0.564510  0.772860  1.0  -0.0998
  C  C1611  1  0.812560  0.625010  0.887570  1.0  0.1234
  C  C1612  1  0.880120  0.706970  0.844730  1.0  -0.0955
  C  C1613  1  0.689900  0.281200  0.065900  1.0  -0.1072
  C  C1614  1  0.786200  0.184000  0.589800  1.0  0.2109
  C  C1615  1  0.817660  0.063410  0.575230  1.0  -0.1733
  C  C1616  1  0.812560  0.187550  0.424990  1.0  0.1211
  C  C1617  1  0.781500  0.581600  0.671100  1.0  -0.1418
  C  C1618  1  0.286200  0.589800  0.184000  1.0  0.2115
  C  C1619  1  0.904080  0.708750  0.641290  1.0  0.2762
  C  C1620  1  0.684000  0.397800  0.094200  1.0  0.2105
  C  C1621  1  0.889600  0.218500  0.300100  1.0  -0.1386
  C  C1622  1  0.159100  0.262100  0.987200  1.0  0.7099
  C  C1623  1  0.768610  0.604000  0.540630  1.0  0.6653
  C  C1624  1  0.905800  0.803600  0.089800  1.0  0.2115
  C  C1625  1  0.936590  0.924770  0.682340  1.0  -0.1742
  C  C1626  1  0.712300  0.301430  0.370930  1.0  0.1389
  C  C1627  1  0.641290  0.208750  0.904080  1.0  0.2735
  C  C1628  1  0.335390  0.604000  0.063370  1.0  0.6651
  C  C1629  1  0.589500  0.889600  0.171100  1.0  -0.139
  C  C1630  1  0.727140  0.222170  0.291650  1.0  -0.1037
  C  C1631  1  0.688840  0.539350  0.819890  1.0  0.1788
  C  C1632  1  0.671470  0.374120  0.004350  1.0  0.6822
  C  C1633  1  0.033760  0.285910  0.972330  1.0  -0.1932
  C  C1634  1  0.778580  0.170300  0.542280  1.0  0.0109
  C  C1635  1  0.934100  0.715300  0.124000  1.0  -0.102
  C  C1636  1  0.734390  0.671850  0.726400  1.0  -0.0404
  C  C1637  1  0.800100  0.889600  0.718500  1.0  -0.1398
  C  C1638  1  0.828900  0.218500  0.918400  1.0  -0.1379
  C  C1639  1  0.706970  0.362240  0.826850  1.0  -0.0965
  C  C1640  1  0.119880  0.293030  0.155270  1.0  -0.0958
  C  C1641  1  0.069500  0.198570  0.910870  1.0  0.1427
  C  C1642  1  0.924770  0.182340  0.436590  1.0  -0.1685
  C  C1643  1  0.563370  0.335390  0.104000  1.0  0.6659
  C  C1644  1  0.959370  0.727980  0.563370  1.0  0.6619
  C  C1645  1  0.284700  0.908700  0.218800  1.0  -0.1091
  C  C1646  1  0.845190  0.884130  0.705840  1.0  -0.0856
  C  C1647  1  0.245750  0.757570  0.682340  1.0  -0.1755
  C  C1648  1  0.629070  0.198570  0.287700  1.0  0.1413
  C  C1649  1  0.608280  0.371980  0.829700  1.0  0.0092
  C  C1650  1  0.725100  0.237900  0.397000  1.0  0.711
  C  C1651  1  0.312450  0.687440  0.075010  1.0  0.1194
  C  C1652  1  0.562540  0.234390  0.007990  1.0  -0.0397
  C  C1653  1  0.383920  0.779110  0.072530  1.0  0.2275
  C  C1654  1  0.090650  0.287350  0.151500  1.0  -0.0602
  C  C1655  1  0.747850  0.061430  0.533760  1.0  -0.197
  C  C1656  1  0.673150  0.293030  0.137760  1.0  -0.0958
  C  C1657  1  0.495650  0.167120  0.869770  1.0  0.6803
  C  C1658  1  0.589500  0.699900  0.918400  1.0  -0.1415
  C  C1659  1  0.995030  0.222170  0.930520  1.0  -0.1014
  C  C1660  1  0.894900  0.757970  0.044070  1.0  -0.1
  C  C1661  1  0.196400  0.410200  0.594200  1.0  0.2136
  C  C1662  1  0.247850  0.714090  0.686420  1.0  -0.186
  C  C1663  1  0.775380  0.712360  0.734240  1.0  -0.0284
  C  C1664  1  0.294160  0.615870  0.154810  1.0  -0.0865
  C  C1665  1  0.819890  0.039350  0.688840  1.0  0.1769
  C  C1666  1  0.125150  0.808330  0.212480  1.0  0.3811
  C  C1667  1  0.125880  0.828530  0.495650  1.0  0.6813
  C  C1668  1  0.131050  0.819890  0.280540  1.0  0.1779
  C  C1669  1  0.487200  0.159100  0.762100  1.0  0.7101
  C  C1670  1  0.445450  0.007990  0.773600  1.0  -0.036
  C  C1671  1  0.095920  0.291250  0.358710  1.0  0.2787
  C  C1672  1  0.706580  0.279110  0.895190  1.0  0.2315
  C  C1673  1  0.285910  0.472330  0.533760  1.0  -0.1941
  C  C1674  1  0.909350  0.712650  0.848500  1.0  -0.0575
  C  C1675  1  0.328100  0.603000  0.840900  1.0  0.7111
  C  C1676  1  0.821710  0.615870  0.461060  1.0  -0.0857
  C  C1677  1  0.438570  0.686420  0.972330  1.0  -0.1957
  C  C1678  1  0.808330  0.095850  0.683180  1.0  0.3801
  C  C1679  1  0.763700  0.542280  0.371980  1.0  0.0101
  C  C1680  1  0.439150  0.135850  0.848500  1.0  -0.062
  C  C1681  1  0.737900  0.512800  0.340900  1.0  0.7112
  C  C1682  1  0.880120  0.173150  0.535390  1.0  -0.0959
  C  C1683  1  0.112430  0.874990  0.187440  1.0  0.1209
  C  C1684  1  0.311160  0.850510  0.631050  1.0  0.1816
  C  C1685  1  0.819890  0.780540  0.631050  1.0  0.1776
  C  C1686  1  0.773600  0.265610  0.828150  1.0  -0.0377
  C  C1687  1  0.774900  0.603000  0.762100  1.0  0.7129
  C  C1688  1  0.763700  0.221420  0.891720  1.0  0.0108
  C  C1689  1  0.988180  0.242430  0.924770  1.0  -0.175
  C  C1690  1  0.678290  0.139350  0.794160  1.0  -0.0885
  C  C1691  1  0.957720  0.221420  0.329700  1.0  0.0109
  C  C1692  1  0.139350  0.294160  0.178290  1.0  -0.087
  C  C1693  1  0.521880  0.958860  0.234240  1.0  -0.026
  C  C1694  1  0.616080  0.220890  0.927470  1.0  0.2278
  C  C1695  1  0.816000  0.905800  0.602200  1.0  0.2186
  C  C1696  1  0.564510  0.272860  0.995030  1.0  -0.0967
  C  C1697  1  0.397800  0.594200  0.184000  1.0  0.209
  C  C1698  1  0.779110  0.206580  0.395190  1.0  0.229
  C  C1699  1  0.038940  0.178290  0.884130  1.0  -0.0883
  C  C1700  1  0.061430  0.033760  0.247850  1.0  -0.1935
  C  C1701  1  0.794160  0.154810  0.615870  1.0  -0.0887
  C  C1702  1  0.912670  0.787520  0.595850  1.0  0.3782
  C  C1703  1  0.884130  0.205840  0.345190  1.0  -0.0855
  C  C1704  1  0.198570  0.787700  0.129070  1.0  0.1345
  C  C1705  1  0.804670  0.737210  0.595920  1.0  0.2756
  C  C1706  1  0.625880  0.495650  0.828530  1.0  0.6809
  C  C1707  1  0.202650  0.374120  0.369770  1.0  0.6802
  C  C1708  1  0.394900  0.350830  0.136930  1.0  -0.1037
  C  C1709  1  0.565900  0.689900  0.781200  1.0  -0.1119
  C  C1710  1  0.803600  0.589800  0.405800  1.0  0.2163
  C  C1711  1  0.864150  0.651500  0.060850  1.0  -0.0639
  C  C1712  1  0.345190  0.639350  0.961060  1.0  -0.0883
  C  C1713  1  0.173150  0.137760  0.293030  1.0  -0.0952
  C  C1714  1  0.931650  0.207400  0.355450  1.0  -0.1349
  C  C1715  1  0.119880  0.826850  0.464610  1.0  -0.095
  C  C1716  1  0.213900  0.850830  0.455930  1.0  -0.1026
  C  C1717  1  0.978120  0.765760  0.041140  1.0  -0.0262
  C  C1718  1  0.680110  0.311160  0.960650  1.0  0.1808
  C  C1719  1  0.708350  0.430520  0.935490  1.0  -0.0978
  C  C1720  1  0.213800  0.816000  0.410200  1.0  0.2124
  C  C1721  1  0.316820  0.912670  0.625150  1.0  0.3787
  C  C1722  1  0.395190  0.688610  0.116080  1.0  0.2314
  C  C1723  1  0.437460  0.765610  0.992010  1.0  -0.0436
  C  C1724  1  0.734390  0.062540  0.507990  1.0  -0.0378
  C  C1725  1  0.102200  0.286200  0.196400  1.0  0.2117
  C  C1726  1  0.188610  0.293420  0.072530  1.0  0.2289
  C  C1727  1  0.287700  0.589130  0.158630  1.0  0.135
  C  C1728  1  0.995650  0.869770  0.167120  1.0  0.6796
  C  C1729  1  0.972330  0.186420  0.438570  1.0  -0.196
  C  C1730  1  0.206580  0.895190  0.279110  1.0  0.2303
  C  C1731  1  0.125150  0.316820  0.412670  1.0  0.3802
  C  C1732  1  0.262790  0.904080  0.695330  1.0  0.2744
  C  C1733  1  0.777830  0.208350  0.772860  1.0  -0.0987
  C  C1734  1  0.363070  0.605100  0.149170  1.0  -0.1088
  C  C1735  1  0.207400  0.855450  0.431650  1.0  -0.1345
  C  C1736  1  0.589800  0.684000  0.786200  1.0  0.212
  C  C1737  1  0.649170  0.363070  0.105100  1.0  -0.111
  C  C1738  1  0.712480  0.125150  0.308330  1.0  0.3778
  C  C1739  1  0.208750  0.804670  0.567460  1.0  0.2764
  C  C1740  1  0.007990  0.734390  0.562540  1.0  -0.0427
  C  C1741  1  0.069500  0.870930  0.658630  1.0  0.1344
  C  C1742  1  0.910500  0.081600  0.300100  1.0  -0.1441
  C  C1743  1  0.125010  0.812450  0.237440  1.0  0.1193
  C  C1744  1  0.894900  0.136930  0.350830  1.0  -0.1066
  C  C1745  1  0.603000  0.262100  0.274900  1.0  0.7088
  C  C1746  1  0.374990  0.762560  0.187550  1.0  0.1241
  C  C1747  1  0.038940  0.860650  0.654810  1.0  -0.0886
  C  C1748  1  0.436980  0.712360  0.978120  1.0  -0.0274
  C  C1749  1  0.910870  0.698570  0.069500  1.0  0.1401
  C  C1750  1  0.575010  0.312450  0.187440  1.0  0.1201
  C  C1751  1  0.909350  0.196700  0.560850  1.0  -0.0652
  C  C1752  1  0.363070  0.757970  0.713900  1.0  -0.1061
  C  C1753  1  0.458860  0.021880  0.734240  1.0  -0.0266
  C  C1754  1  0.757970  0.544070  0.394900  1.0  -0.1033
  C  C1755  1  0.459370  0.563370  0.727980  1.0  0.6643
  C  C1756  1  0.461060  0.345190  0.139350  1.0  -0.0855
  C  C1757  1  0.340900  0.012800  0.737900  1.0  0.7087
  C  C1758  1  0.218800  0.810100  0.434100  1.0  -0.1107
  C  C1759  1  0.265760  0.478120  0.541140  1.0  -0.0256
  C  C1760  1  0.189900  0.124000  0.408700  1.0  -0.1107
  C  C1761  1  0.784700  0.565900  0.376000  1.0  -0.1053
  C  C1762  1  0.391720  0.763700  0.721420  1.0  0.0066
  C  C1763  1  0.576200  0.644550  0.851950  1.0  -0.1358
  C  C1764  1  0.591300  0.376000  0.810100  1.0  -0.1064
  C  C1765  1  0.472330  0.033760  0.785910  1.0  -0.1942
  C  C1766  1  0.445450  0.437460  0.171850  1.0  -0.0456
  C  C1767  1  0.412670  0.595850  0.787520  1.0  0.3771
  C  C1768  1  0.527670  0.561430  0.813580  1.0  -0.1998
  C  C1769  1  0.124000  0.215300  0.934100  1.0  -0.1066
  C  C1770  1  0.410870  0.341370  0.212300  1.0  0.1397
  C  C1771  1  0.397000  0.659100  0.171900  1.0  0.7115
  C  C1772  1  0.368950  0.719460  0.180110  1.0  0.1773
  C  C1773  1  0.212650  0.803300  0.364150  1.0  -0.0629
  C  C1774  1  0.332880  0.328530  0.202650  1.0  0.6814
  C  C1775  1  0.850830  0.894900  0.636930  1.0  -0.1058
  C  C1776  1  0.067460  0.208750  0.304670  1.0  0.2748
  C  C1777  1  0.712480  0.587330  0.904150  1.0  0.3806
  C  C1778  1  0.149490  0.280540  0.460650  1.0  0.1779
  C  C1779  1  0.304670  0.708750  0.067460  1.0  0.2784
  C  C1780  1  0.554550  0.992010  0.226400  1.0  -0.0355
  C  C1781  1  0.348500  0.909350  0.212650  1.0  -0.0651
  C  C1782  1  0.712650  0.348500  0.409350  1.0  -0.0642
  C  C1783  1  0.912670  0.125150  0.816820  1.0  0.3814
  C  C1784  1  0.521880  0.563020  0.787640  1.0  -0.0256
  C  C1785  1  0.350830  0.713900  0.955930  1.0  -0.1009
  C  C1786  1  0.987200  0.225100  0.328100  1.0  0.7108
  C  C1787  1  0.310100  0.591300  0.876000  1.0  -0.1075
  C  C1788  1  0.007990  0.273600  0.945450  1.0  -0.0383
  C  C1789  1  0.712300  0.410870  0.841370  1.0  0.1367
  C  C1790  1  0.412670  0.816820  0.125150  1.0  0.3782
  C  C1791  1  0.958860  0.224620  0.436980  1.0  -0.0251
  C  C1792  1  0.110400  0.328900  0.910500  1.0  -0.1405
  C  C1793  1  0.712650  0.364150  0.803300  1.0  -0.0633
  C  C1794  1  0.726400  0.554550  0.492010  1.0  -0.0378
  C  C1795  1  0.727140  0.504970  0.935490  1.0  -0.1027
  C  C1796  1  0.654810  0.360650  0.038940  1.0  -0.0913
  C  C1797  1  0.310100  0.718800  0.934100  1.0  -0.1059
  C  C1798  1  0.466240  0.438570  0.252150  1.0  -0.1983
  C  C1799  1  0.316820  0.404150  0.191670  1.0  0.377
  C  C1800  1  0.538940  0.884130  0.178290  1.0  -0.0843
  C  C1801  1  0.539350  0.219460  0.850510  1.0  0.1785
  C  C1802  1  0.724250  0.148050  0.792600  1.0  -0.1379
  C  C1803  1  0.180110  0.219460  0.368950  1.0  0.1781
  C  C1804  1  0.155270  0.793030  0.119880  1.0  -0.1024
  C  C1805  1  0.832880  0.630230  0.004350  1.0  0.6794
  C  C1806  1  0.563410  0.245750  0.988180  1.0  -0.1728
  C  C1807  1  0.664610  0.268610  0.227980  1.0  0.6632
  C  C1808  1  0.659100  0.671900  0.897000  1.0  0.7084
  C  C1809  1  0.841370  0.910870  0.712300  1.0  0.1407
  C  C1810  1  0.844730  0.637760  0.464610  1.0  -0.0969
  C  C1811  1  0.410870  0.069500  0.698570  1.0  0.1412
  C  C1812  1  0.265760  0.787640  0.224620  1.0  -0.0228
  C  C1813  1  0.713900  0.455930  0.850830  1.0  -0.1115
  C  C1814  1  0.311390  0.927470  0.706580  1.0  0.2283
  C  C1815  1  0.300100  0.581600  0.910500  1.0  -0.1409
  C  C1816  1  0.671100  0.589500  0.389600  1.0  -0.1379
  C  C1817  1  0.567460  0.304670  0.208750  1.0  0.2766
  C  C1818  1  0.171900  0.012800  0.274900  1.0  0.7095
  C  C1819  1  0.182340  0.245750  0.257570  1.0  -0.1731
  C  C1820  1  0.691670  0.316820  0.904150  1.0  0.379
  C  C1821  1  0.569500  0.910870  0.198570  1.0  0.1419
  C  C1822  1  0.424770  0.988180  0.742430  1.0  -0.1743
  C  C1823  1  0.745750  0.682340  0.757570  1.0  -0.1758
  C  C1824  1  0.060850  0.151500  0.864150  1.0  -0.0625
  N  N1825  1  0.444660  0.766510  0.118750  1.0  -0.5028
  N  N1826  1  0.886910  0.089110  0.686180  1.0  -0.3168
  N  N1827  1  0.896930  0.059750  0.710100  1.0  -0.6832
  N  N1828  1  0.386910  0.700730  0.797800  1.0  -0.3152
  N  N1829  1  0.821850  0.766510  0.647760  1.0  -0.506
  N  N1830  1  0.233490  0.852240  0.678150  1.0  -0.4991
  N  N1831  1  0.321850  0.674090  0.055340  1.0  -0.5026
  N  N1832  1  0.309870  0.601150  0.765120  1.0  -0.3366
  N  N1833  1  0.644140  0.225660  0.931320  1.0  -0.2552
  N  N1834  1  0.809870  0.044750  0.708720  1.0  -0.3396
  N  N1835  1  0.291280  0.836030  0.601150  1.0  -0.3398
  N  N1836  1  0.902930  0.702200  0.589110  1.0  -0.3184
  N  N1837  1  0.774340  0.568680  0.855860  1.0  -0.2543
  N  N1838  1  0.186830  0.289900  0.349650  1.0  -0.6779
  N  N1839  1  0.825910  0.647760  0.881250  1.0  -0.5008
  N  N1840  1  0.440250  0.603070  0.789900  1.0  -0.6845
  N  N1841  1  0.352240  0.733490  0.178150  1.0  -0.4998
  N  N1842  1  0.410890  0.797800  0.097070  1.0  -0.3159
  N  N1843  1  0.765120  0.663970  0.955250  1.0  -0.3393
  N  N1844  1  0.210100  0.896930  0.559750  1.0  -0.6832
  N  N1845  1  0.294340  0.568680  0.712820  1.0  -0.2523
  N  N1846  1  0.313170  0.650350  0.710100  1.0  -0.6834
  N  N1847  1  0.162820  0.813170  0.603070  1.0  -0.6837
  N  N1848  1  0.686180  0.097070  0.299270  1.0  -0.3145
  N  N1849  1  0.725660  0.144140  0.431320  1.0  -0.2542
  N  N1850  1  0.233490  0.381250  0.055340  1.0  -0.5074
  N  N1851  1  0.044750  0.836030  0.234880  1.0  -0.3356
  N  N1852  1  0.765120  0.101150  0.309870  1.0  -0.3431
  N  N1853  1  0.234880  0.898850  0.690130  1.0  -0.3375
  N  N1854  1  0.299270  0.702200  0.113090  1.0  -0.3137
  N  N1855  1  0.410890  0.613090  0.813820  1.0  -0.3144
  N  N1856  1  0.265120  0.955250  0.663970  1.0  -0.3404
  N  N1857  1  0.931320  0.205660  0.787180  1.0  -0.2576
  N  N1858  1  0.309870  0.708720  0.044750  1.0  -0.3367
  N  N1859  1  0.398850  0.663970  0.708720  1.0  -0.3413
  N  N1860  1  0.813820  0.700730  0.902930  1.0  -0.3171
  N  N1861  1  0.733490  0.055340  0.381250  1.0  -0.5044
  N  N1862  1  0.849650  0.186830  0.789900  1.0  -0.6844
  N  N1863  1  0.712820  0.068680  0.294340  1.0  -0.2528
  N  N1864  1  0.881250  0.733490  0.555340  1.0  -0.5107
  N  N1865  1  0.931320  0.725660  0.644140  1.0  -0.255
  N  N1866  1  0.055340  0.881250  0.233490  1.0  -0.5035
  N  N1867  1  0.355860  0.774340  0.068680  1.0  -0.2543
  N  N1868  1  0.336030  0.544750  0.734880  1.0  -0.3391
  N  N1869  1  0.299270  0.597070  0.686180  1.0  -0.316
  N  N1870  1  0.898850  0.190130  0.734880  1.0  -0.3399
  N  N1871  1  0.440250  0.837180  0.150350  1.0  -0.6827
  N  N1872  1  0.266510  0.321850  0.147760  1.0  -0.5083
  N  N1873  1  0.797800  0.200730  0.386910  1.0  -0.3205
  N  N1874  1  0.944660  0.825910  0.678150  1.0  -0.5039
  N  N1875  1  0.568680  0.355860  0.274340  1.0  -0.2514
  N  N1876  1  0.418480  0.712820  0.144140  1.0  -0.2549
  N  N1877  1  0.663970  0.455250  0.265120  1.0  -0.34
  N  N1878  1  0.147760  0.821850  0.266510  1.0  -0.5041
  N  N1879  1  0.234880  0.336030  0.044750  1.0  -0.3414
  N  N1880  1  0.791280  0.190130  0.455250  1.0  -0.3393
  N  N1881  1  0.581520  0.294340  0.225660  1.0  -0.2554
  N  N1882  1  0.186830  0.896930  0.337180  1.0  -0.6836
  N  N1883  1  0.325910  0.444660  0.178150  1.0  -0.5078
  N  N1884  1  0.163970  0.265120  0.455250  1.0  -0.3391
  N  N1885  1  0.702200  0.089110  0.402930  1.0  -0.3161
  N  N1886  1  0.902930  0.200730  0.813820  1.0  -0.3177
  N  N1887  1  0.055340  0.174090  0.321850  1.0  -0.5066
  N  N1888  1  0.337180  0.940250  0.650350  1.0  -0.6838
  N  N1889  1  0.355860  0.581520  0.787180  1.0  -0.2566
  N  N1890  1  0.705660  0.274340  0.918480  1.0  -0.2553
  N  N1891  1  0.662820  0.059750  0.349650  1.0  -0.6841
  N  N1892  1  0.559750  0.396930  0.210100  1.0  -0.6842
  N  N1893  1  0.799270  0.686180  0.597070  1.0  -0.315
  N  N1894  1  0.955250  0.791280  0.690130  1.0  -0.3395
  N  N1895  1  0.613090  0.299270  0.202200  1.0  -0.3167
  N  N1896  1  0.618750  0.444660  0.266510  1.0  -0.503
  N  N1897  1  0.455250  0.765120  0.163970  1.0  -0.3397
  N  N1898  1  0.418480  0.705660  0.774340  1.0  -0.2591
  N  N1899  1  0.733490  0.678150  0.852240  1.0  -0.5085
  N  N1900  1  0.081520  0.225660  0.294340  1.0  -0.2525
  N  N1901  1  0.597070  0.410890  0.297800  1.0  -0.316
  N  N1902  1  0.821850  0.055340  0.674090  1.0  -0.5061
  N  N1903  1  0.325910  0.881250  0.647760  1.0  -0.5055
  N  N1904  1  0.855860  0.068680  0.774340  1.0  -0.2514
  N  N1905  1  0.674090  0.118750  0.352240  1.0  -0.5015
  N  N1906  1  0.101150  0.809870  0.265120  1.0  -0.3389
  N  N1907  1  0.663970  0.208720  0.898850  1.0  -0.3403
  N  N1908  1  0.700730  0.402930  0.313820  1.0  -0.3147
  N  N1909  1  0.896930  0.837180  0.686830  1.0  -0.6825
  N  N1910  1  0.886910  0.797800  0.700730  1.0  -0.315
  N  N1911  1  0.852240  0.674090  0.618750  1.0  -0.5052
  N  N1912  1  0.265120  0.309870  0.101150  1.0  -0.3392
  N  N1913  1  0.287180  0.355860  0.081520  1.0  -0.2531
  N  N1914  1  0.200730  0.886910  0.297800  1.0  -0.315
  N  N1915  1  0.690130  0.291280  0.955250  1.0  -0.3366
  N  N1916  1  0.455250  0.690130  0.791280  1.0  -0.3412
  N  N1917  1  0.068680  0.274340  0.355860  1.0  -0.2543
  N  N1918  1  0.186180  0.299270  0.097070  1.0  -0.317
  N  N1919  1  0.444660  0.678150  0.825910  1.0  -0.5076
  N  N1920  1  0.174090  0.352240  0.118750  1.0  -0.5039
  N  N1921  1  0.910890  0.813820  0.613090  1.0  -0.3155
  N  N1922  1  0.386910  0.686180  0.089110  1.0  -0.315
  N  N1923  1  0.581520  0.287180  0.855860  1.0  -0.2547
  N  N1924  1  0.162820  0.349650  0.059750  1.0  -0.6828
  N  N1925  1  0.647760  0.266510  0.821850  1.0  -0.503
  N  N1926  1  0.597070  0.186180  0.799270  1.0  -0.3158
  N  N1927  1  0.855860  0.787180  0.581520  1.0  -0.2522
  N  N1928  1  0.103070  0.162820  0.313170  1.0  -0.6827
  N  N1929  1  0.205660  0.918480  0.274340  1.0  -0.2577
  N  N1930  1  0.396930  0.710100  0.059750  1.0  -0.6773
  N  N1931  1  0.113090  0.202200  0.299270  1.0  -0.3163
  N  N1932  1  0.710100  0.150350  0.313170  1.0  -0.6841
  N  N1933  1  0.797800  0.597070  0.910890  1.0  -0.3139
  N  N1934  1  0.799270  0.113090  0.702200  1.0  -0.3147
  N  N1935  1  0.734880  0.044750  0.336030  1.0  -0.3405
  N  N1936  1  0.381250  0.825910  0.147760  1.0  -0.5057
  N  N1937  1  0.918480  0.774340  0.705660  1.0  -0.2556
  N  N1938  1  0.601150  0.265120  0.809870  1.0  -0.3399
  N  N1939  1  0.118750  0.266510  0.444660  1.0  -0.5069
  N  N1940  1  0.431320  0.787180  0.205660  1.0  -0.2547
  N  N1941  1  0.336030  0.791280  0.101150  1.0  -0.3389
  N  N1942  1  0.555340  0.321850  0.174090  1.0  -0.502
  N  N1943  1  0.589110  0.202200  0.902930  1.0  -0.3155
  N  N1944  1  0.313820  0.902930  0.700730  1.0  -0.3151
  N  N1945  1  0.955250  0.163970  0.765120  1.0  -0.339
  N  N1946  1  0.650350  0.210100  0.813170  1.0  -0.686
  N  N1947  1  0.601150  0.336030  0.291280  1.0  -0.3382
  N  N1948  1  0.402930  0.589110  0.702200  1.0  -0.3163
  N  N1949  1  0.089110  0.902930  0.202200  1.0  -0.316
  N  N1950  1  0.837180  0.650350  0.940250  1.0  -0.6827
  N  N1951  1  0.650350  0.440250  0.337180  1.0  -0.6863
  N  N1952  1  0.396930  0.686830  0.837180  1.0  -0.6857
  N  N1953  1  0.559750  0.162820  0.849650  1.0  -0.6826
  N  N1954  1  0.849650  0.662820  0.559750  1.0  -0.6825
  N  N1955  1  0.101150  0.291280  0.336030  1.0  -0.337
  N  N1956  1  0.789900  0.686830  0.849650  1.0  -0.6838
  N  N1957  1  0.644140  0.418480  0.212820  1.0  -0.2573
  N  N1958  1  0.150350  0.813170  0.210100  1.0  -0.6855
  N  N1959  1  0.068680  0.794340  0.212820  1.0  -0.2535
  N  N1960  1  0.618750  0.174090  0.852240  1.0  -0.5053
  N  N1961  1  0.103070  0.940250  0.289900  1.0  -0.6848
  N  N1962  1  0.944660  0.118750  0.766510  1.0  -0.5062
  N  N1963  1  0.274340  0.855860  0.568680  1.0  -0.254
  N  N1964  1  0.712820  0.644140  0.918480  1.0  -0.2528
  N  N1965  1  0.940250  0.150350  0.837180  1.0  -0.6847
  N  N1966  1  0.708720  0.544750  0.809870  1.0  -0.3405
  N  N1967  1  0.789900  0.103070  0.440250  1.0  -0.6834
  N  N1968  1  0.813820  0.113090  0.410890  1.0  -0.3151
  N  N1969  1  0.352240  0.618750  0.674090  1.0  -0.5005
  N  N1970  1  0.349650  0.789900  0.186830  1.0  -0.6846
  N  N1971  1  0.852240  0.178150  0.733490  1.0  -0.5076
  N  N1972  1  0.794340  0.081520  0.725660  1.0  -0.2548
  N  N1973  1  0.809870  0.765120  0.601150  1.0  -0.3374
  N  N1974  1  0.044750  0.208720  0.309870  1.0  -0.3378
  N  N1975  1  0.118750  0.852240  0.174090  1.0  -0.5008
  N  N1976  1  0.200730  0.313820  0.402930  1.0  -0.3157
  N  N1977  1  0.662820  0.603070  0.813170  1.0  -0.6838
  N  N1978  1  0.178150  0.944660  0.325910  1.0  -0.5063
  N  N1979  1  0.147760  0.325910  0.381250  1.0  -0.5032
  N  N1980  1  0.766510  0.618750  0.944660  1.0  -0.505
  N  N1981  1  0.431320  0.644140  0.725660  1.0  -0.2535
  N  N1982  1  0.836030  0.734880  0.544750  1.0  -0.3401
  N  N1983  1  0.705660  0.431320  0.287180  1.0  -0.2537
  N  N1984  1  0.291280  0.455250  0.190130  1.0  -0.3385
  N  N1985  1  0.700730  0.297800  0.886910  1.0  -0.3166
  N  N1986  1  0.702200  0.613090  0.799270  1.0  -0.3146
  N  N1987  1  0.647760  0.381250  0.325910  1.0  -0.5026
  N  N1988  1  0.208720  0.398850  0.163970  1.0  -0.3367
  N  N1989  1  0.089110  0.186180  0.386910  1.0  -0.3143
  N  N1990  1  0.321850  0.647760  0.766510  1.0  -0.507
  N  N1991  1  0.589110  0.386910  0.186180  1.0  -0.3165
  N  N1992  1  0.678150  0.352240  0.233490  1.0  -0.5009
  N  N1993  1  0.174090  0.821850  0.555340  1.0  -0.5025
  N  N1994  1  0.686830  0.337180  0.896930  1.0  -0.6823
  N  N1995  1  0.150350  0.337180  0.440250  1.0  -0.683
  N  N1996  1  0.398850  0.734880  0.190130  1.0  -0.3392
  N  N1997  1  0.144140  0.931320  0.225660  1.0  -0.2524
  N  N1998  1  0.190130  0.955250  0.291280  1.0  -0.3404
  N  N1999  1  0.208720  0.809870  0.544750  1.0  -0.3395
  N  N2000  1  0.059750  0.849650  0.162820  1.0  -0.6842
  N  N2001  1  0.710100  0.559750  0.896930  1.0  -0.6847
  N  N2002  1  0.825910  0.178150  0.444660  1.0  -0.5059
  N  N2003  1  0.212820  0.918480  0.644140  1.0  -0.2575
  N  N2004  1  0.787180  0.705660  0.931320  1.0  -0.2575
  N  N2005  1  0.708720  0.163970  0.398850  1.0  -0.3389
  N  N2006  1  0.690130  0.398850  0.234880  1.0  -0.3363
  N  N2007  1  0.836030  0.101150  0.791280  1.0  -0.3387
  N  N2008  1  0.725660  0.581520  0.794340  1.0  -0.2551
  N  N2009  1  0.881250  0.147760  0.825910  1.0  -0.5003
  N  N2010  1  0.791280  0.601150  0.836030  1.0  -0.3382
  N  N2011  1  0.190130  0.234880  0.398850  1.0  -0.3395
  N  N2012  1  0.313820  0.410890  0.113090  1.0  -0.316
  N  N2013  1  0.674090  0.555340  0.821850  1.0  -0.5059
  N  N2014  1  0.266510  0.944660  0.618750  1.0  -0.5097
  N  N2015  1  0.918480  0.144140  0.712820  1.0  -0.2535
  N  N2016  1  0.289900  0.440250  0.103070  1.0  -0.6848
  N  N2017  1  0.686830  0.349650  0.289900  1.0  -0.6821
  N  N2018  1  0.210100  0.313170  0.150350  1.0  -0.6853
  N  N2019  1  0.081520  0.855860  0.287180  1.0  -0.2518
  N  N2020  1  0.381250  0.555340  0.733490  1.0  -0.5056
  N  N2021  1  0.225660  0.794340  0.581520  1.0  -0.2552
  N  N2022  1  0.202200  0.799270  0.613090  1.0  -0.3186
  N  N2023  1  0.898850  0.708720  0.663970  1.0  -0.3372
  N  N2024  1  0.313170  0.662820  0.103070  1.0  -0.6837
  N  N2025  1  0.402930  0.813820  0.200730  1.0  -0.3155
  N  N2026  1  0.686180  0.589110  0.886910  1.0  -0.3153
  N  N2027  1  0.766510  0.147760  0.321850  1.0  -0.5005
  N  N2028  1  0.910890  0.097070  0.797800  1.0  -0.3148
  N  N2029  1  0.613090  0.313820  0.910890  1.0  -0.3139
  N  N2030  1  0.555340  0.233490  0.881250  1.0  -0.5091
  N  N2031  1  0.544750  0.234880  0.836030  1.0  -0.3375
  N  N2032  1  0.144140  0.212820  0.418480  1.0  -0.2548
  N  N2033  1  0.794340  0.712820  0.568680  1.0  -0.2545
  N  N2034  1  0.837180  0.186830  0.396930  1.0  -0.6851
  N  N2035  1  0.178150  0.233490  0.352240  1.0  -0.5052
  N  N2036  1  0.297800  0.910890  0.597070  1.0  -0.3169
  N  N2037  1  0.287180  0.931320  0.705660  1.0  -0.2522
  N  N2038  1  0.603070  0.313170  0.162820  1.0  -0.684
  N  N2039  1  0.097070  0.297800  0.410890  1.0  -0.3139
  N  N2040  1  0.678150  0.325910  0.944660  1.0  -0.5039
  N  N2041  1  0.297800  0.386910  0.200730  1.0  -0.3154
  N  N2042  1  0.202200  0.402930  0.089110  1.0  -0.3167
  N  N2043  1  0.225660  0.431320  0.144140  1.0  -0.2539
  N  N2044  1  0.294340  0.725660  0.081520  1.0  -0.2528
  N  N2045  1  0.163970  0.898850  0.208720  1.0  -0.3414
  N  N2046  1  0.212820  0.294340  0.068680  1.0  -0.256
  N  N2047  1  0.349650  0.559750  0.662820  1.0  -0.6847
  N  N2048  1  0.274340  0.418480  0.205660  1.0  -0.2565
  N  N2049  1  0.787180  0.081520  0.355860  1.0  -0.2558
  N  N2050  1  0.940250  0.789900  0.603070  1.0  -0.6861
  N  N2051  1  0.205660  0.287180  0.431320  1.0  -0.2546
  N  N2052  1  0.734880  0.690130  0.898850  1.0  -0.34
  N  N2053  1  0.544750  0.309870  0.208720  1.0  -0.3402
  N  N2054  1  0.186180  0.886910  0.589110  1.0  -0.316
  N  N2055  1  0.568680  0.212820  0.794340  1.0  -0.2526
  N  N2056  1  0.289900  0.849650  0.686830  1.0  -0.6838
  N  N2057  1  0.059750  0.210100  0.396930  1.0  -0.6842
  N  N2058  1  0.603070  0.289900  0.940250  1.0  -0.6826
  N  N2059  1  0.113090  0.910890  0.313820  1.0  -0.3166
  N  N2060  1  0.774340  0.205660  0.418480  1.0  -0.2555
  N  N2061  1  0.097070  0.799270  0.186180  1.0  -0.3192
  N  N2062  1  0.813170  0.103070  0.662820  1.0  -0.6836
  N  N2063  1  0.337180  0.396930  0.186830  1.0  -0.6841
  N  N2064  1  0.813170  0.710100  0.650350  1.0  -0.6822
  O  O2065  1  0.008880  0.767960  0.689580  1.0  -0.5632
  O  O2066  1  0.810420  0.819300  0.578380  1.0  -0.5641
  O  O2067  1  0.434260  0.673670  0.877230  1.0  -0.6137
  O  O2068  1  0.300850  0.688950  0.193000  1.0  -0.5633
  O  O2069  1  0.047670  0.750260  0.108130  1.0  -0.5031
  O  O2070  1  0.239410  0.796440  0.673670  1.0  -0.614
  O  O2071  1  0.297410  0.357870  0.249740  1.0  -0.5011
  O  O2072  1  0.921620  0.189580  0.680700  1.0  -0.5661
  O  O2073  1  0.203560  0.826330  0.260590  1.0  -0.6113
  O  O2074  1  0.505320  0.160060  0.784540  1.0  -0.61
  O  O2075  1  0.877230  0.703560  0.942970  1.0  -0.6131
  O  O2076  1  0.345260  0.720780  0.005320  1.0  -0.6089
  O  O2077  1  0.357870  0.608130  0.060460  1.0  -0.5042
  O  O2078  1  0.939540  0.891870  0.642130  1.0  -0.506
  O  O2079  1  0.465020  0.750000  0.215020  1.0  -0.7185
  O  O2080  1  0.173670  0.239410  0.296440  1.0  -0.6131
  O  O2081  1  0.699150  0.388100  0.392150  1.0  -0.5623
  O  O2082  1  0.202230  0.351670  0.371300  1.0  -0.6142
  O  O2083  1  0.128700  0.330930  0.480370  1.0  -0.6151
  O  O2084  1  0.491120  0.310420  0.232040  1.0  -0.5698
  O  O2085  1  0.339940  0.345260  0.124480  1.0  -0.6081
  O  O2086  1  0.732040  0.240920  0.421620  1.0  -0.5615
  O  O2087  1  0.703560  0.260590  0.826330  1.0  -0.6129
  O  O2088  1  0.810420  0.991120  0.732040  1.0  -0.5635
  O  O2089  1  0.310420  0.732040  0.991120  1.0  -0.5656
  O  O2090  1  0.965020  0.215020  0.750000  1.0  -0.7192
  O  O2091  1  0.047670  0.297410  0.439540  1.0  -0.5048
  O  O2092  1  0.892150  0.699150  0.888100  1.0  -0.5605
  O  O2093  1  0.284980  0.534980  0.750000  1.0  -0.7236
  O  O2094  1  0.005320  0.784540  0.160060  1.0  -0.6078
  O  O2095  1  0.034980  0.250000  0.284980  1.0  -0.714
  O  O2096  1  0.078380  0.810420  0.319300  1.0  -0.5661
  O  O2097  1  0.565740  0.239410  0.942970  1.0  -0.6142
  O  O2098  1  0.797410  0.249740  0.357870  1.0  -0.5026
  O  O2099  1  0.845260  0.839940  0.624480  1.0  -0.61
  O  O2100  1  0.888100  0.199150  0.892150  1.0  -0.5634
  O  O2101  1  0.154740  0.160060  0.375520  1.0  -0.6105
  O  O2102  1  0.688950  0.693000  0.800850  1.0  -0.5644
  O  O2103  1  0.250000  0.284980  0.034980  1.0  -0.7184
  O  O2104  1  0.934260  0.057030  0.760590  1.0  -0.6146
  O  O2105  1  0.495950  0.188950  0.888100  1.0  -0.5643
  O  O2106  1  0.060460  0.108130  0.357870  1.0  -0.5049
  O  O2107  1  0.547670  0.439540  0.297410  1.0  -0.506
  O  O2108  1  0.749740  0.452330  0.391870  1.0  -0.5045
  O  O2109  1  0.611900  0.107850  0.800850  1.0  -0.5663
  O  O2110  1  0.991120  0.759080  0.180700  1.0  -0.5632
  O  O2111  1  0.148330  0.297770  0.128700  1.0  -0.6145
  O  O2112  1  0.005320  0.220780  0.345260  1.0  -0.6105
  O  O2113  1  0.108130  0.250260  0.047670  1.0  -0.5036
  O  O2114  1  0.310420  0.578380  0.819300  1.0  -0.5581
  O  O2115  1  0.388100  0.495950  0.688950  1.0  -0.5658
  O  O2116  1  0.296440  0.557030  0.622770  1.0  -0.6141
  O  O2117  1  0.173670  0.934260  0.377230  1.0  -0.6127
  O  O2118  1  0.991120  0.232040  0.310420  1.0  -0.5611
  O  O2119  1  0.215020  0.250000  0.465020  1.0  -0.7185
  O  O2120  1  0.111900  0.311050  0.504050  1.0  -0.5635
  O  O2121  1  0.624480  0.284540  0.279220  1.0  -0.6098
  O  O2122  1  0.124480  0.279220  0.284540  1.0  -0.6093
  O  O2123  1  0.057030  0.796440  0.122770  1.0  -0.6144
  O  O2124  1  0.565740  0.326330  0.122770  1.0  -0.6133
  O  O2125  1  0.759080  0.680700  0.491120  1.0  -0.5655
  O  O2126  1  0.934260  0.877230  0.673670  1.0  -0.6128
  O  O2127  1  0.850560  0.019630  0.648330  1.0  -0.6121
  O  O2128  1  0.534980  0.250000  0.784980  1.0  -0.7146
  O  O2129  1  0.857870  0.060460  0.608130  1.0  -0.5048
  O  O2130  1  0.796440  0.622770  0.557030  1.0  -0.6117
  O  O2131  1  0.739410  0.673670  0.796440  1.0  -0.6134
  O  O2132  1  0.750000  0.715020  0.965020  1.0  -0.7176
  O  O2133  1  0.199150  0.392150  0.388100  1.0  -0.5646
  O  O2134  1  0.377230  0.942970  0.703560  1.0  -0.6143
  O  O2135  1  0.311050  0.004050  0.611900  1.0  -0.567
  O  O2136  1  0.654740  0.375520  0.160060  1.0  -0.6082
  O  O2137  1  0.375520  0.660060  0.154740  1.0  -0.6096
  O  O2138  1  0.439540  0.797410  0.047670  1.0  -0.5014
  O  O2139  1  0.250000  0.965020  0.715020  1.0  -0.7177
  O  O2140  1  0.888100  0.688950  0.495950  1.0  -0.5662
  O  O2141  1  0.750260  0.142130  0.702590  1.0  -0.5048
  O  O2142  1  0.779220  0.624480  0.784540  1.0  -0.6073
  O  O2143  1  0.673670  0.377230  0.934260  1.0  -0.6124
  O  O2144  1  0.300850  0.611900  0.607850  1.0  -0.564
  O  O2145  1  0.557030  0.434260  0.260590  1.0  -0.614
  O  O2146  1  0.877230  0.173670  0.434260  1.0  -0.6116
  O  O2147  1  0.871300  0.202230  0.851670  1.0  -0.6147
  O  O2148  1  0.193000  0.188950  0.300850  1.0  -0.5639
  O  O2149  1  0.642130  0.391870  0.939540  1.0  -0.5033
  O  O2150  1  0.649440  0.351670  0.980370  1.0  -0.6139
  O  O2151  1  0.330930  0.350560  0.202230  1.0  -0.6133
  O  O2152  1  0.648330  0.519630  0.850560  1.0  -0.6119
  O  O2153  1  0.297770  0.628700  0.648330  1.0  -0.6129
  O  O2154  1  0.702230  0.371300  0.351670  1.0  -0.6152
  O  O2155  1  0.232040  0.421620  0.240920  1.0  -0.5606
  O  O2156  1  0.284540  0.779220  0.124480  1.0  -0.6105
  O  O2157  1  0.188950  0.388100  0.995950  1.0  -0.5664
  O  O2158  1  0.608130  0.560460  0.857870  1.0  -0.5057
  O  O2159  1  0.371300  0.519630  0.669070  1.0  -0.6115
  O  O2160  1  0.199150  0.807000  0.311050  1.0  -0.5607
  O  O2161  1  0.215020  0.965020  0.250000  1.0  -0.7187
  O  O2162  1  0.689580  0.421620  0.180700  1.0  -0.5611
  O  O2163  1  0.557030  0.122770  0.796440  1.0  -0.6123
  O  O2164  1  0.939540  0.047670  0.797410  1.0  -0.5063
  O  O2165  1  0.220780  0.375520  0.215460  1.0  -0.6087
  O  O2166  1  0.057030  0.260590  0.434260  1.0  -0.6118
  O  O2167  1  0.421620  0.740920  0.732040  1.0  -0.5641
  O  O2168  1  0.669070  0.649440  0.797770  1.0  -0.6128
  O  O2169  1  0.250000  0.784980  0.534980  1.0  -0.7183
  O  O2170  1  0.994680  0.779220  0.654740  1.0  -0.6106
  O  O2171  1  0.122770  0.296440  0.057030  1.0  -0.6131
  O  O2172  1  0.260590  0.326330  0.203560  1.0  -0.6134
  O  O2173  1  0.607850  0.111900  0.300850  1.0  -0.563
  O  O2174  1  0.193000  0.004050  0.392150  1.0  -0.5647
  O  O2175  1  0.784980  0.750000  0.534980  1.0  -0.7146
  O  O2176  1  0.767960  0.189580  0.508880  1.0  -0.5663
  O  O2177  1  0.215460  0.875520  0.220780  1.0  -0.6059
  O  O2178  1  0.784540  0.660060  0.505320  1.0  -0.6094
  O  O2179  1  0.642130  0.250260  0.202590  1.0  -0.5037
  O  O2180  1  0.750000  0.215020  0.465020  1.0  -0.7176
  O  O2181  1  0.994680  0.215460  0.839940  1.0  -0.6083
  O  O2182  1  0.560460  0.357870  0.108130  1.0  -0.5036
  O  O2183  1  0.759080  0.078380  0.767960  1.0  -0.5585
  O  O2184  1  0.421620  0.680700  0.189580  1.0  -0.5635
  O  O2185  1  0.345260  0.624480  0.839940  1.0  -0.6084
  O  O2186  1  0.297410  0.939540  0.547670  1.0  -0.5035
  O  O2187  1  0.240920  0.921620  0.232040  1.0  -0.5599
  O  O2188  1  0.311050  0.307000  0.199150  1.0  -0.5641
  O  O2189  1  0.065740  0.122770  0.326330  1.0  -0.6138
  O  O2190  1  0.760590  0.203560  0.326330  1.0  -0.6132
  O  O2191  1  0.739410  0.065740  0.442970  1.0  -0.6126
  O  O2192  1  0.388100  0.892150  0.199150  1.0  -0.5649
  O  O2193  1  0.307000  0.699150  0.811050  1.0  -0.5644
  O  O2194  1  0.715460  0.220780  0.875520  1.0  -0.6105
  O  O2195  1  0.807000  0.811050  0.699150  1.0  -0.5628
  O  O2196  1  0.203560  0.377230  0.442970  1.0  -0.6137
  O  O2197  1  0.284540  0.505320  0.660060  1.0  -0.6093
  O  O2198  1  0.839940  0.124480  0.345260  1.0  -0.6059
  O  O2199  1  0.628700  0.480370  0.330930  1.0  -0.6121
  O  O2200  1  0.107850  0.807000  0.495950  1.0  -0.561
  O  O2201  1  0.942970  0.739410  0.565740  1.0  -0.6133
  O  O2202  1  0.004050  0.892150  0.693000  1.0  -0.5655
  O  O2203  1  0.578380  0.319300  0.810420  1.0  -0.566
  O  O2204  1  0.442970  0.877230  0.203560  1.0  -0.614
  O  O2205  1  0.875520  0.720780  0.715460  1.0  -0.6093
  O  O2206  1  0.750000  0.534980  0.784980  1.0  -0.7177
  O  O2207  1  0.715020  0.465020  0.250000  1.0  -0.7192
  O  O2208  1  0.519630  0.169070  0.871300  1.0  -0.6133
  O  O2209  1  0.720780  0.505320  0.845260  1.0  -0.6095
  O  O2210  1  0.508880  0.819300  0.240920  1.0  -0.5658
  O  O2211  1  0.811050  0.611900  0.004050  1.0  -0.562
  O  O2212  1  0.267960  0.508880  0.189580  1.0  -0.5603
  O  O2213  1  0.240920  0.319300  0.508880  1.0  -0.5656
  O  O2214  1  0.160060  0.284540  0.005320  1.0  -0.6091
  O  O2215  1  0.826330  0.065740  0.622770  1.0  -0.6132
  O  O2216  1  0.980370  0.128700  0.830930  1.0  -0.6117
  O  O2217  1  0.693000  0.392150  0.004050  1.0  -0.5646
  O  O2218  1  0.392150  0.888100  0.699150  1.0  -0.5626
  O  O2219  1  0.826330  0.760590  0.703560  1.0  -0.6141
  O  O2220  1  0.260590  0.934260  0.557030  1.0  -0.6131
  O  O2221  1  0.019630  0.871300  0.169070  1.0  -0.6125
  O  O2222  1  0.019630  0.148330  0.350560  1.0  -0.6119
  O  O2223  1  0.350560  0.648330  0.019630  1.0  -0.6132
  O  O2224  1  0.494680  0.839940  0.215460  1.0  -0.6106
  O  O2225  1  0.628700  0.148330  0.797770  1.0  -0.6118
  O  O2226  1  0.439540  0.642130  0.891870  1.0  -0.5031
  O  O2227  1  0.202230  0.850560  0.330930  1.0  -0.6141
  O  O2228  1  0.702590  0.060460  0.452330  1.0  -0.5048
  O  O2229  1  0.784980  0.034980  0.750000  1.0  -0.7236
  O  O2230  1  0.800850  0.193000  0.688950  1.0  -0.5622
  O  O2231  1  0.839940  0.715460  0.994680  1.0  -0.6092
  O  O2232  1  0.160060  0.875520  0.654740  1.0  -0.6062
  O  O2233  1  0.892150  0.193000  0.504050  1.0  -0.5625
  O  O2234  1  0.703560  0.442970  0.377230  1.0  -0.6121
  O  O2235  1  0.560460  0.202590  0.952330  1.0  -0.5019
  O  O2236  1  0.622770  0.565740  0.826330  1.0  -0.6136
  O  O2237  1  0.965020  0.750000  0.715020  1.0  -0.7179
  O  O2238  1  0.760590  0.557030  0.934260  1.0  -0.6127
  O  O2239  1  0.202590  0.452330  0.060460  1.0  -0.504
  O  O2240  1  0.215460  0.339940  0.494680  1.0  -0.6093
  O  O2241  1  0.330930  0.980370  0.628700  1.0  -0.6125
  O  O2242  1  0.220780  0.845260  0.505320  1.0  -0.6092
  O  O2243  1  0.202590  0.750260  0.642130  1.0  -0.5037
  O  O2244  1  0.495950  0.307000  0.107850  1.0  -0.5617
  O  O2245  1  0.767960  0.578380  0.759080  1.0  -0.558
  O  O2246  1  0.154740  0.994680  0.279220  1.0  -0.6104
  O  O2247  1  0.505320  0.345260  0.220780  1.0  -0.6077
  O  O2248  1  0.715020  0.250000  0.965020  1.0  -0.7179
  O  O2249  1  0.452330  0.891870  0.249740  1.0  -0.5056
  O  O2250  1  0.297770  0.669070  0.149440  1.0  -0.6155
  O  O2251  1  0.851670  0.702230  0.871300  1.0  -0.6125
  O  O2252  1  0.800850  0.607850  0.611900  1.0  -0.5631
  O  O2253  1  0.784540  0.124480  0.779220  1.0  -0.6059
  O  O2254  1  0.371300  0.851670  0.202230  1.0  -0.6124
  O  O2255  1  0.720780  0.215460  0.375520  1.0  -0.6084
  O  O2256  1  0.845260  0.005320  0.720780  1.0  -0.6102
  O  O2257  1  0.267960  0.759080  0.578380  1.0  -0.5632
  O  O2258  1  0.797770  0.648330  0.628700  1.0  -0.6128
  O  O2259  1  0.680700  0.991120  0.259080  1.0  -0.5616
  O  O2260  1  0.249740  0.391870  0.452330  1.0  -0.5036
  O  O2261  1  0.942970  0.203560  0.877230  1.0  -0.6136
  O  O2262  1  0.434260  0.760590  0.057030  1.0  -0.6133
  O  O2263  1  0.504050  0.693000  0.892150  1.0  -0.563
  O  O2264  1  0.995950  0.107850  0.307000  1.0  -0.562
  O  O2265  1  0.891870  0.142130  0.439540  1.0  -0.5029
  O  O2266  1  0.149440  0.169070  0.297770  1.0  -0.6117
  O  O2267  1  0.060460  0.952330  0.202590  1.0  -0.5115
  O  O2268  1  0.189580  0.180700  0.421620  1.0  -0.5641
  O  O2269  1  0.307000  0.607850  0.995950  1.0  -0.5638
  O  O2270  1  0.392150  0.504050  0.193000  1.0  -0.5663
  O  O2271  1  0.351670  0.871300  0.702230  1.0  -0.6115
  O  O2272  1  0.149440  0.980370  0.351670  1.0  -0.6129
  O  O2273  1  0.740920  0.508880  0.319300  1.0  -0.5619
  O  O2274  1  0.654740  0.279220  0.994680  1.0  -0.6091
  O  O2275  1  0.750260  0.608130  0.547670  1.0  -0.5024
  O  O2276  1  0.715460  0.494680  0.339940  1.0  -0.6096
  O  O2277  1  0.350560  0.702230  0.830930  1.0  -0.6148
  O  O2278  1  0.377230  0.434260  0.173670  1.0  -0.6123
  O  O2279  1  0.124480  0.845260  0.339940  1.0  -0.6096
  O  O2280  1  0.830930  0.628700  0.980370  1.0  -0.6148
  O  O2281  1  0.669070  0.019630  0.371300  1.0  -0.6123
  O  O2282  1  0.259080  0.491120  0.680700  1.0  -0.5607
  O  O2283  1  0.465020  0.715020  0.750000  1.0  -0.7192
  O  O2284  1  0.391870  0.952330  0.749740  1.0  -0.5059
  O  O2285  1  0.491120  0.180700  0.759080  1.0  -0.564
  O  O2286  1  0.871300  0.669070  0.519630  1.0  -0.6134
  O  O2287  1  0.649440  0.297770  0.169070  1.0  -0.6133
  O  O2288  1  0.699150  0.311050  0.807000  1.0  -0.5641
  O  O2289  1  0.004050  0.111900  0.811050  1.0  -0.5621
  O  O2290  1  0.796440  0.173670  0.739410  1.0  -0.6112
  O  O2291  1  0.180700  0.259080  0.991120  1.0  -0.5639
  O  O2292  1  0.250260  0.547670  0.608130  1.0  -0.5043
  O  O2293  1  0.142130  0.202590  0.250260  1.0  -0.5019
  O  O2294  1  0.680700  0.689580  0.921620  1.0  -0.5618
  O  O2295  1  0.480370  0.649440  0.851670  1.0  -0.6136
  O  O2296  1  0.339940  0.994680  0.715460  1.0  -0.6104
  O  O2297  1  0.326330  0.703560  0.760590  1.0  -0.6125
  O  O2298  1  0.107850  0.300850  0.111900  1.0  -0.5642
  O  O2299  1  0.740920  0.232040  0.921620  1.0  -0.5618
  O  O2300  1  0.122770  0.826330  0.565740  1.0  -0.6112
  O  O2301  1  0.250260  0.702590  0.142130  1.0  -0.5035
  O  O2302  1  0.648330  0.128700  0.297770  1.0  -0.6123
  O  O2303  1  0.504050  0.811050  0.111900  1.0  -0.5631
  O  O2304  1  0.279220  0.494680  0.154740  1.0  -0.6094
  O  O2305  1  0.259080  0.767960  0.078380  1.0  -0.5623
  O  O2306  1  0.830930  0.202230  0.350560  1.0  -0.6124
  O  O2307  1  0.169070  0.371300  0.019630  1.0  -0.6126
  O  O2308  1  0.279220  0.784540  0.624480  1.0  -0.6085
  O  O2309  1  0.078380  0.267960  0.259080  1.0  -0.5651
  O  O2310  1  0.807000  0.995950  0.607850  1.0  -0.5657
  O  O2311  1  0.296440  0.739410  0.173670  1.0  -0.6116
  O  O2312  1  0.442970  0.565740  0.739410  1.0  -0.6119
  O  O2313  1  0.660060  0.005320  0.284540  1.0  -0.6104
  O  O2314  1  0.688950  0.995950  0.388100  1.0  -0.5645
  O  O2315  1  0.693000  0.300850  0.188950  1.0  -0.5602
  O  O2316  1  0.952330  0.249740  0.891870  1.0  -0.5042
  O  O2317  1  0.232040  0.810420  0.491120  1.0  -0.5645
  O  O2318  1  0.624480  0.339940  0.845260  1.0  -0.6094
  O  O2319  1  0.508880  0.689580  0.767960  1.0  -0.5687
  O  O2320  1  0.749740  0.297410  0.857870  1.0  -0.5026
  O  O2321  1  0.850560  0.830930  0.702230  1.0  -0.6134
  O  O2322  1  0.284980  0.750000  0.034980  1.0  -0.7147
  O  O2323  1  0.797770  0.149440  0.669070  1.0  -0.6134
  O  O2324  1  0.750000  0.034980  0.284980  1.0  -0.7183
  O  O2325  1  0.452330  0.560460  0.702590  1.0  -0.5082
  O  O2326  1  0.779220  0.154740  0.494680  1.0  -0.6095
  O  O2327  1  0.148330  0.850560  0.519630  1.0  -0.6139
  O  O2328  1  0.797410  0.547670  0.939540  1.0  -0.5043
  O  O2329  1  0.875520  0.154740  0.660060  1.0  -0.6092
  O  O2330  1  0.142130  0.939540  0.391870  1.0  -0.5058
  O  O2331  1  0.660060  0.654740  0.875520  1.0  -0.6077
  O  O2332  1  0.180700  0.921620  0.689580  1.0  -0.5607
  O  O2333  1  0.249740  0.857870  0.297410  1.0  -0.5026
  O  O2334  1  0.702590  0.642130  0.750260  1.0  -0.5045
  O  O2335  1  0.351670  0.480370  0.149440  1.0  -0.6123
  O  O2336  1  0.108130  0.857870  0.560460  1.0  -0.5046
  O  O2337  1  0.607850  0.495950  0.807000  1.0  -0.5642
  O  O2338  1  0.995950  0.888100  0.188950  1.0  -0.5664
  O  O2339  1  0.622770  0.057030  0.296440  1.0  -0.614
  O  O2340  1  0.673670  0.296440  0.239410  1.0  -0.6135
  O  O2341  1  0.480370  0.830930  0.128700  1.0  -0.6113
  O  O2342  1  0.319300  0.310420  0.078380  1.0  -0.5642
  O  O2343  1  0.857870  0.797410  0.749740  1.0  -0.5005
  O  O2344  1  0.239410  0.442970  0.065740  1.0  -0.6143
  O  O2345  1  0.111900  0.800850  0.107850  1.0  -0.565
  O  O2346  1  0.326330  0.622770  0.065740  1.0  -0.613
  O  O2347  1  0.819300  0.740920  0.008880  1.0  -0.5676
  O  O2348  1  0.819300  0.078380  0.310420  1.0  -0.5566
  O  O2349  1  0.519630  0.350560  0.148330  1.0  -0.6125
  O  O2350  1  0.357870  0.749740  0.797410  1.0  -0.5012
  O  O2351  1  0.891870  0.749740  0.952330  1.0  -0.5047
  O  O2352  1  0.319300  0.008880  0.740920  1.0  -0.5625
  O  O2353  1  0.547670  0.108130  0.750260  1.0  -0.5061
  O  O2354  1  0.188950  0.800850  0.693000  1.0  -0.5637
  O  O2355  1  0.494680  0.654740  0.779220  1.0  -0.608
  O  O2356  1  0.391870  0.439540  0.142130  1.0  -0.5078
  O  O2357  1  0.811050  0.199150  0.307000  1.0  -0.5653
  O  O2358  1  0.578380  0.259080  0.267960  1.0  -0.5646
  O  O2359  1  0.611900  0.504050  0.311050  1.0  -0.5654
  O  O2360  1  0.065740  0.942970  0.239410  1.0  -0.6133
  O  O2361  1  0.250000  0.465020  0.215020  1.0  -0.7177
  O  O2362  1  0.689580  0.267960  0.008880  1.0  -0.5639
  O  O2363  1  0.128700  0.797770  0.148330  1.0  -0.6136
  O  O2364  1  0.608130  0.047670  0.250260  1.0  -0.5113
  O  O2365  1  0.534980  0.284980  0.250000  1.0  -0.723
  O  O2366  1  0.375520  0.715460  0.720780  1.0  -0.6094
  O  O2367  1  0.169070  0.797770  0.649440  1.0  -0.6156
  O  O2368  1  0.189580  0.008880  0.267960  1.0  -0.5611
  O  O2369  1  0.851670  0.149440  0.480370  1.0  -0.6132
  O  O2370  1  0.008880  0.240920  0.819300  1.0  -0.5645
  O  O2371  1  0.980370  0.851670  0.649440  1.0  -0.6129
  O  O2372  1  0.702230  0.330930  0.850560  1.0  -0.613
  O  O2373  1  0.952330  0.702590  0.560460  1.0  -0.5032
  O  O2374  1  0.921620  0.732040  0.740920  1.0  -0.5651
  O  O2375  1  0.034980  0.784980  0.250000  1.0  -0.7237
  O  O2376  1  0.732040  0.491120  0.810420  1.0  -0.5612
