# generated using pymatgen
data_Zr3H11C9O16
_symmetry_space_group_name_H-M   'P 1'
_cell_length_a   35.07650000
_cell_length_b   35.07650000
_cell_length_c   35.07650000
_cell_angle_alpha   90.00000000
_cell_angle_beta   90.00000000
_cell_angle_gamma   90.00000000
_symmetry_Int_Tables_number   1
_chemical_formula_structural   Zr3H11C9O16
_chemical_formula_sum   'Zr96 H352 C288 O512'
_cell_volume   43156.75243395
_cell_formula_units_Z   32
loop_
 _symmetry_equiv_pos_site_id
 _symmetry_equiv_pos_as_xyz
  1  'x, y, z'
loop_
 _atom_site_type_symbol
 _atom_site_label
 _atom_site_symmetry_multiplicity
 _atom_site_fract_x
 _atom_site_fract_y
 _atom_site_fract_z
 _atom_site_occupancy
 _atom_site_charge
  Zr  Zr1  1  0.203290  0.546590  0.770690  1.0  1.8214
  Zr  Zr2  1  0.270130  0.546480  0.703510  1.0  1.803
  Zr  Zr3  1  0.202940  0.479480  0.703780  1.0  1.8125
  Zr  Zr4  1  0.295240  0.521500  0.795620  1.0  1.8147
  Zr  Zr5  1  0.228240  0.454520  0.795760  1.0  1.8201
  Zr  Zr6  1  0.294990  0.454590  0.728520  1.0  1.8196
  Zr  Zr7  1  0.271720  0.046390  0.204470  1.0  1.8148
  Zr  Zr8  1  0.205030  0.979160  0.204110  1.0  1.8074
  Zr  Zr9  1  0.204590  0.046050  0.271420  1.0  1.8126
  Zr  Zr10  1  0.297270  0.954530  0.229570  1.0  1.8102
  Zr  Zr11  1  0.296720  0.021570  0.296500  1.0  1.8173
  Zr  Zr12  1  0.230060  0.954270  0.296260  1.0  1.8194
  Zr  Zr13  1  0.453840  0.796690  0.229170  1.0  1.8087
  Zr  Zr14  1  0.453480  0.729470  0.295990  1.0  1.8055
  Zr  Zr15  1  0.520780  0.796420  0.296200  1.0  1.8079
  Zr  Zr16  1  0.478620  0.704700  0.203790  1.0  1.8151
  Zr  Zr17  1  0.545700  0.771650  0.204190  1.0  1.8131
  Zr  Zr18  1  0.545360  0.704400  0.270970  1.0  1.8214
  Zr  Zr19  1  0.045530  0.704450  0.770790  1.0  1.8176
  Zr  Zr20  1  0.978270  0.704720  0.704050  1.0  1.8061
  Zr  Zr21  1  0.045420  0.771680  0.703940  1.0  1.8114
  Zr  Zr22  1  0.953960  0.729710  0.796550  1.0  1.814
  Zr  Zr23  1  0.021190  0.796560  0.795990  1.0  1.8173
  Zr  Zr24  1  0.953540  0.796670  0.729690  1.0  1.8221
  Zr  Zr25  1  0.979890  0.045970  0.045980  1.0  1.8178
  Zr  Zr26  1  0.046990  0.978990  0.045760  1.0  1.8048
  Zr  Zr27  1  0.046700  0.046210  0.978830  1.0  1.8108
  Zr  Zr28  1  0.954530  0.954240  0.020840  1.0  1.8123
  Zr  Zr29  1  0.954800  0.021110  0.953750  1.0  1.8123
  Zr  Zr30  1  0.021630  0.954030  0.954020  1.0  1.8166
  Zr  Zr31  1  0.045080  0.546560  0.478730  1.0  1.8139
  Zr  Zr32  1  0.978080  0.546430  0.545710  1.0  1.8134
  Zr  Zr33  1  0.045350  0.479540  0.545810  1.0  1.8089
  Zr  Zr34  1  0.953470  0.521020  0.453330  1.0  1.8102
  Zr  Zr35  1  0.020840  0.454400  0.453840  1.0  1.8148
  Zr  Zr36  1  0.953490  0.454400  0.520550  1.0  1.8228
  Zr  Zr37  1  0.546290  0.045780  0.479370  1.0  1.8074
  Zr  Zr38  1  0.479340  0.045910  0.546530  1.0  1.8124
  Zr  Zr39  1  0.546150  0.978600  0.546180  1.0  1.8156
  Zr  Zr40  1  0.454250  0.021310  0.454060  1.0  1.8105
  Zr  Zr41  1  0.520990  0.954080  0.454100  1.0  1.812
  Zr  Zr42  1  0.453840  0.954400  0.521000  1.0  1.822
  Zr  Zr43  1  0.478820  0.545820  0.045840  1.0  1.8116
  Zr  Zr44  1  0.545920  0.478890  0.045850  1.0  1.8097
  Zr  Zr45  1  0.545700  0.545920  0.978680  1.0  1.8077
  Zr  Zr46  1  0.453550  0.453900  0.020840  1.0  1.8165
  Zr  Zr47  1  0.453760  0.520950  0.953930  1.0  1.8184
  Zr  Zr48  1  0.520690  0.453810  0.954120  1.0  1.8185
  Zr  Zr49  1  0.796800  0.295690  0.520440  1.0  1.809
  Zr  Zr50  1  0.796690  0.228580  0.453460  1.0  1.8039
  Zr  Zr51  1  0.729740  0.295790  0.453470  1.0  1.8115
  Zr  Zr52  1  0.771760  0.204010  0.545840  1.0  1.8139
  Zr  Zr53  1  0.704730  0.271050  0.545370  1.0  1.8211
  Zr  Zr54  1  0.704930  0.203650  0.478770  1.0  1.816
  Zr  Zr55  1  0.796840  0.729950  0.953690  1.0  1.81
  Zr  Zr56  1  0.729990  0.797020  0.953380  1.0  1.8106
  Zr  Zr57  1  0.796550  0.796660  0.021040  1.0  1.8061
  Zr  Zr58  1  0.704760  0.704680  0.978120  1.0  1.8176
  Zr  Zr59  1  0.771450  0.704660  0.045440  1.0  1.8194
  Zr  Zr60  1  0.704400  0.771650  0.045050  1.0  1.8241
  Zr  Zr61  1  0.047110  0.203310  0.270380  1.0  1.8062
  Zr  Zr62  1  0.980390  0.203470  0.202990  1.0  1.8005
  Zr  Zr63  1  0.047550  0.270360  0.203420  1.0  1.8055
  Zr  Zr64  1  0.955250  0.228420  0.295250  1.0  1.8157
  Zr  Zr65  1  0.022400  0.295340  0.295320  1.0  1.8194
  Zr  Zr66  1  0.955470  0.295350  0.228250  1.0  1.817
  Zr  Zr67  1  0.729700  0.954010  0.796480  1.0  1.8169
  Zr  Zr68  1  0.796640  0.953800  0.729400  1.0  1.8121
  Zr  Zr69  1  0.796610  0.021170  0.796170  1.0  1.804
  Zr  Zr70  1  0.704250  0.978720  0.704390  1.0  1.8164
  Zr  Zr71  1  0.704460  0.045810  0.771240  1.0  1.8159
  Zr  Zr72  1  0.771360  0.045480  0.704090  1.0  1.8144
  Zr  Zr73  1  0.770920  0.546090  0.203280  1.0  1.8111
  Zr  Zr74  1  0.703870  0.479100  0.203260  1.0  1.8052
  Zr  Zr75  1  0.703990  0.546120  0.270420  1.0  1.8115
  Zr  Zr76  1  0.796230  0.454290  0.228230  1.0  1.8082
  Zr  Zr77  1  0.795930  0.521300  0.295260  1.0  1.8145
  Zr  Zr78  1  0.729140  0.454060  0.295080  1.0  1.8262
  Zr  Zr79  1  0.546360  0.203690  0.771080  1.0  1.8149
  Zr  Zr80  1  0.479500  0.203140  0.703990  1.0  1.8102
  Zr  Zr81  1  0.546250  0.270630  0.703920  1.0  1.801
  Zr  Zr82  1  0.454360  0.228620  0.796160  1.0  1.8205
  Zr  Zr83  1  0.521230  0.295750  0.795620  1.0  1.8173
  Zr  Zr84  1  0.454090  0.295010  0.728650  1.0  1.8231
  Zr  Zr85  1  0.295430  0.729840  0.453310  1.0  1.8148
  Zr  Zr86  1  0.228830  0.797260  0.453510  1.0  1.8041
  Zr  Zr87  1  0.295860  0.796720  0.520550  1.0  1.8058
  Zr  Zr88  1  0.203540  0.704960  0.478380  1.0  1.8136
  Zr  Zr89  1  0.270590  0.704900  0.545350  1.0  1.8217
  Zr  Zr90  1  0.203660  0.771990  0.545260  1.0  1.8301
  Zr  Zr91  1  0.295900  0.229290  0.954330  1.0  1.8095
  Zr  Zr92  1  0.228900  0.296320  0.954370  1.0  1.8114
  Zr  Zr93  1  0.296040  0.296270  0.021390  1.0  1.8122
  Zr  Zr94  1  0.204050  0.203970  0.979550  1.0  1.8135
  Zr  Zr95  1  0.271170  0.204300  0.046400  1.0  1.8205
  Zr  Zr96  1  0.203990  0.271170  0.046220  1.0  1.828
  H  H97  1  0.344130  0.493280  0.906000  1.0  0.1522
  H  H98  1  0.342780  0.407900  0.994470  1.0  0.1535
  H  H99  1  0.255750  0.408400  0.908160  1.0  0.1531
  H  H100  1  0.494640  0.842110  0.408210  1.0  0.1503
  H  H101  1  0.409300  0.754050  0.409350  1.0  0.1558
  H  H102  1  0.407760  0.842130  0.494680  1.0  0.1518
  H  H103  1  0.908160  0.907610  0.756580  1.0  0.156
  H  H104  1  0.908470  0.994180  0.843160  1.0  0.1566
  H  H105  1  0.993760  0.905720  0.844680  1.0  0.1569
  H  H106  1  0.407680  0.908500  0.256470  1.0  0.1545
  H  H107  1  0.406060  0.993850  0.344820  1.0  0.1558
  H  H108  1  0.494030  0.908050  0.343270  1.0  0.1525
  H  H109  1  0.842940  0.255230  0.341510  1.0  0.1573
  H  H110  1  0.844720  0.343510  0.256400  1.0  0.1561
  H  H111  1  0.756170  0.341940  0.341250  1.0  0.1534
  H  H112  1  0.843050  0.842380  0.756390  1.0  0.1591
  H  H113  1  0.843570  0.755920  0.843620  1.0  0.1594
  H  H114  1  0.755010  0.841080  0.841440  1.0  0.1569
  H  H115  1  0.993690  0.343470  0.406000  1.0  0.1515
  H  H116  1  0.909140  0.254650  0.407600  1.0  0.1543
  H  H117  1  0.908610  0.341450  0.494260  1.0  0.1529
  H  H118  1  0.406160  0.493080  0.843150  1.0  0.1562
  H  H119  1  0.405800  0.406290  0.756470  1.0  0.1507
  H  H120  1  0.492810  0.406350  0.842930  1.0  0.1527
  H  H121  1  0.755190  0.910450  0.910100  1.0  0.1552
  H  H122  1  0.843720  0.995160  0.907680  1.0  0.1547
  H  H123  1  0.843880  0.908180  0.994610  1.0  0.1526
  H  H124  1  0.255580  0.843670  0.342010  1.0  0.156
  H  H125  1  0.339810  0.754710  0.339960  1.0  0.1576
  H  H126  1  0.342760  0.843330  0.255380  1.0  0.1572
  H  H127  1  0.756170  0.407900  0.407490  1.0  0.1534
  H  H128  1  0.844050  0.493240  0.405610  1.0  0.1568
  H  H129  1  0.843140  0.407650  0.493870  1.0  0.1523
  H  H130  1  0.908330  0.843350  0.995090  1.0  0.1581
  H  H131  1  0.909180  0.756190  0.908990  1.0  0.1521
  H  H132  1  0.993870  0.844640  0.906750  1.0  0.1525
  H  H133  1  0.255100  0.342280  0.841960  1.0  0.1539
  H  H134  1  0.341820  0.255520  0.842250  1.0  0.1559
  H  H135  1  0.343570  0.343690  0.757020  1.0  0.1526
  H  H136  1  0.158410  0.504620  0.590210  1.0  0.1567
  H  H137  1  0.243540  0.592900  0.591950  1.0  0.1506
  H  H138  1  0.157030  0.592910  0.505070  1.0  0.1546
  H  H139  1  0.592280  0.657820  0.005090  1.0  0.1573
  H  H140  1  0.505560  0.658170  0.091860  1.0  0.1536
  H  H141  1  0.593970  0.743150  0.093190  1.0  0.1524
  H  H142  1  0.743620  0.156480  0.656450  1.0  0.1513
  H  H143  1  0.658590  0.158020  0.744750  1.0  0.1562
  H  H144  1  0.658460  0.244700  0.657930  1.0  0.1572
  H  H145  1  0.091400  0.090270  0.245900  1.0  0.154
  H  H146  1  0.004810  0.090000  0.159090  1.0  0.1538
  H  H147  1  0.091830  0.003590  0.159160  1.0  0.1554
  H  H148  1  0.093440  0.157570  0.006040  1.0  0.1571
  H  H149  1  0.093970  0.244400  0.092940  1.0  0.1532
  H  H150  1  0.005660  0.158960  0.091370  1.0  0.1549
  H  H151  1  0.157200  0.745200  0.657410  1.0  0.1536
  H  H152  1  0.243890  0.658480  0.657290  1.0  0.1528
  H  H153  1  0.158780  0.659930  0.745580  1.0  0.1563
  H  H154  1  0.159350  0.158960  0.246380  1.0  0.1555
  H  H155  1  0.158080  0.244730  0.158270  1.0  0.1515
  H  H156  1  0.244810  0.158280  0.158550  1.0  0.1535
  H  H157  1  0.658520  0.091720  0.506500  1.0  0.1552
  H  H158  1  0.743190  0.093580  0.595050  1.0  0.155
  H  H159  1  0.657620  0.005270  0.593410  1.0  0.1574
  H  H160  1  0.590400  0.504040  0.159250  1.0  0.1563
  H  H161  1  0.592050  0.592700  0.243990  1.0  0.1513
  H  H162  1  0.505160  0.592220  0.157480  1.0  0.1553
  H  H163  1  0.656160  0.743400  0.156000  1.0  0.1539
  H  H164  1  0.744450  0.658310  0.157340  1.0  0.1552
  H  H165  1  0.657820  0.658190  0.244190  1.0  0.1551
  H  H166  1  0.160180  0.004890  0.090690  1.0  0.1535
  H  H167  1  0.244890  0.093470  0.092970  1.0  0.1507
  H  H168  1  0.158140  0.093280  0.005830  1.0  0.1564
  H  H169  1  0.592490  0.157670  0.505240  1.0  0.1533
  H  H170  1  0.504440  0.159290  0.590590  1.0  0.1552
  H  H171  1  0.592840  0.244290  0.592020  1.0  0.1533
  H  H172  1  0.090000  0.504700  0.659000  1.0  0.1552
  H  H173  1  0.003330  0.591490  0.658800  1.0  0.1536
  H  H174  1  0.089890  0.591400  0.745710  1.0  0.1529
  H  H175  1  0.659310  0.504250  0.089920  1.0  0.1549
  H  H176  1  0.744600  0.592380  0.091390  1.0  0.1517
  H  H177  1  0.657700  0.592640  0.004870  1.0  0.1525
  H  H178  1  0.003300  0.659970  0.590650  1.0  0.1553
  H  H179  1  0.091420  0.658280  0.505320  1.0  0.1542
  H  H180  1  0.091730  0.745000  0.592000  1.0  0.1521
  H  H181  1  0.593630  0.005070  0.657790  1.0  0.1526
  H  H182  1  0.593610  0.092060  0.744730  1.0  0.1537
  H  H183  1  0.505190  0.089860  0.659900  1.0  0.1535
  H  H184  1  0.407430  0.342970  0.994550  1.0  0.158
  H  H185  1  0.408240  0.255920  0.908290  1.0  0.1564
  H  H186  1  0.492920  0.344470  0.906180  1.0  0.1514
  H  H187  1  0.906240  0.492630  0.343860  1.0  0.1556
  H  H188  1  0.907180  0.406170  0.257050  1.0  0.1515
  H  H189  1  0.993370  0.405830  0.344220  1.0  0.1516
  H  H190  1  0.256620  0.908560  0.407230  1.0  0.1543
  H  H191  1  0.343210  0.908430  0.493800  1.0  0.1532
  H  H192  1  0.344930  0.993950  0.405590  1.0  0.1576
  H  H193  1  0.230970  0.518630  0.834290  1.0  0.302
  H  H194  1  0.230830  0.415820  0.731530  1.0  0.2856
  H  H195  1  0.196340  0.553130  0.697120  1.0  0.3403
  H  H196  1  0.333960  0.518800  0.731910  1.0  0.2795
  H  H197  1  0.327890  0.585550  0.780150  1.0  0.3406
  H  H198  1  0.333850  0.581810  0.715980  1.0  0.4062
  H  H199  1  0.187860  0.396540  0.773610  1.0  0.2474
  H  H200  1  0.149170  0.437640  0.731080  1.0  0.3776
  H  H201  1  0.272120  0.561120  0.854140  1.0  0.2465
  H  H202  1  0.230520  0.600720  0.812150  1.0  0.3771
  H  H203  1  0.272570  0.396730  0.688110  1.0  0.2506
  H  H204  1  0.229840  0.437880  0.649600  1.0  0.3787
  H  H205  1  0.149660  0.519650  0.812940  1.0  0.3784
  H  H206  1  0.188300  0.476600  0.854110  1.0  0.2494
  H  H207  1  0.309670  0.517780  0.648320  1.0  0.3634
  H  H208  1  0.353180  0.476950  0.688520  1.0  0.2475
  H  H209  1  0.335470  0.019080  0.232560  1.0  0.2944
  H  H210  1  0.232470  0.018350  0.335140  1.0  0.2883
  H  H211  1  0.197970  0.052780  0.197810  1.0  0.3353
  H  H212  1  0.233680  0.915550  0.231890  1.0  0.2972
  H  H213  1  0.282460  0.922040  0.165290  1.0  0.3445
  H  H214  1  0.218310  0.915660  0.168700  1.0  0.4105
  H  H215  1  0.274060  0.061690  0.354490  1.0  0.2539
  H  H216  1  0.231340  0.100150  0.313200  1.0  0.3815
  H  H217  1  0.356290  0.977850  0.190760  1.0  0.2434
  H  H218  1  0.313610  0.019370  0.150580  1.0  0.3707
  H  H219  1  0.190370  0.975620  0.355070  1.0  0.2545
  H  H220  1  0.150810  0.018580  0.313150  1.0  0.3837
  H  H221  1  0.313280  0.100450  0.231650  1.0  0.379
  H  H222  1  0.355210  0.061550  0.274760  1.0  0.2442
  H  H223  1  0.150270  0.938780  0.232400  1.0  0.3709
  H  H224  1  0.189060  0.897180  0.273200  1.0  0.2491
  H  H225  1  0.481710  0.769200  0.165490  1.0  0.2992
  H  H226  1  0.584340  0.768460  0.268430  1.0  0.2862
  H  H227  1  0.447060  0.802950  0.302880  1.0  0.3376
  H  H228  1  0.480970  0.665720  0.267390  1.0  0.2966
  H  H229  1  0.414300  0.672410  0.218870  1.0  0.3417
  H  H230  1  0.417830  0.666070  0.282980  1.0  0.4072
  H  H231  1  0.603130  0.812360  0.227160  1.0  0.248
  H  H232  1  0.561850  0.851010  0.269270  1.0  0.3772
  H  H233  1  0.439650  0.728020  0.144890  1.0  0.2452
  H  H234  1  0.400150  0.769930  0.186890  1.0  0.3744
  H  H235  1  0.603680  0.726110  0.311160  1.0  0.2457
  H  H236  1  0.562700  0.769110  0.349910  1.0  0.3791
  H  H237  1  0.481090  0.851220  0.188240  1.0  0.3771
  H  H238  1  0.523670  0.812040  0.146110  1.0  0.2559
  H  H239  1  0.481810  0.689420  0.350990  1.0  0.3595
  H  H240  1  0.522430  0.646880  0.311510  1.0  0.2486
  H  H241  1  0.018630  0.732450  0.834590  1.0  0.3029
  H  H242  1  0.017770  0.835390  0.731930  1.0  0.2826
  H  H243  1  0.051900  0.697890  0.697200  1.0  0.3341
  H  H244  1  0.914740  0.732390  0.733160  1.0  0.2968
  H  H245  1  0.920750  0.665940  0.781230  1.0  0.3535
  H  H246  1  0.914640  0.669490  0.717090  1.0  0.4116
  H  H247  1  0.060590  0.855270  0.773770  1.0  0.2436
  H  H248  1  0.099690  0.813220  0.730790  1.0  0.3781
  H  H249  1  0.977160  0.690640  0.855440  1.0  0.2443
  H  H250  1  0.018510  0.650480  0.812610  1.0  0.3759
  H  H251  1  0.975340  0.854890  0.689430  1.0  0.2424
  H  H252  1  0.017940  0.813540  0.650280  1.0  0.3698
  H  H253  1  0.099950  0.731040  0.812270  1.0  0.377
  H  H254  1  0.062500  0.773910  0.853120  1.0  0.2493
  H  H255  1  0.938590  0.733560  0.649040  1.0  0.3659
  H  H256  1  0.895830  0.774020  0.689280  1.0  0.2515
  H  H257  1  0.916220  0.018700  0.017880  1.0  0.2995
  H  H258  1  0.019000  0.018130  0.915130  1.0  0.2879
  H  H259  1  0.053410  0.052560  0.052680  1.0  0.349
  H  H260  1  0.018110  0.915260  0.018300  1.0  0.295
  H  H261  1  0.970070  0.921300  0.084680  1.0  0.3584
  H  H262  1  0.034230  0.915440  0.081210  1.0  0.415
  H  H263  1  0.976680  0.060410  0.894850  1.0  0.3493
  H  H264  1  0.019420  0.100510  0.937610  1.0  0.3783
  H  H265  1  0.895660  0.977340  0.059980  1.0  0.2481
  H  H266  1  0.938060  0.018900  0.099910  1.0  0.3807
  H  H267  1  0.062280  0.976320  0.896290  1.0  0.251
  H  H268  1  0.100590  0.019100  0.937020  1.0  0.3792
  H  H269  1  0.938500  0.100350  0.019200  1.0  0.3747
  H  H270  1  0.898160  0.062890  0.976580  1.0  0.3614
  H  H271  1  0.102580  0.939960  0.017070  1.0  0.4862
  H  H272  1  0.061370  0.895660  0.976370  1.0  0.3449
  H  H273  1  0.017910  0.518310  0.414980  1.0  0.294
  H  H274  1  0.017820  0.415800  0.518130  1.0  0.2851
  H  H275  1  0.051720  0.553180  0.552460  1.0  0.3359
  H  H276  1  0.914480  0.518550  0.516870  1.0  0.2804
  H  H277  1  0.920140  0.584790  0.468310  1.0  0.3579
  H  H278  1  0.914590  0.581800  0.532490  1.0  0.417
  H  H279  1  0.061840  0.397140  0.476670  1.0  0.2514
  H  H280  1  0.099860  0.438280  0.519040  1.0  0.3719
  H  H281  1  0.975860  0.559190  0.393510  1.0  0.3423
  H  H282  1  0.017640  0.600430  0.437070  1.0  0.3757
  H  H283  1  0.975640  0.396630  0.561230  1.0  0.2416
  H  H284  1  0.018320  0.437670  0.599710  1.0  0.3819
  H  H285  1  0.098920  0.519760  0.436670  1.0  0.3707
  H  H286  1  0.060240  0.476170  0.394940  1.0  0.2557
  H  H287  1  0.938070  0.517740  0.600540  1.0  0.3633
  H  H288  1  0.895350  0.476890  0.560500  1.0  0.2521
  H  H289  1  0.518610  0.018190  0.415570  1.0  0.2992
  H  H290  1  0.517890  0.915340  0.518310  1.0  0.292
  H  H291  1  0.552820  0.052370  0.552980  1.0  0.3406
  H  H292  1  0.415340  0.018850  0.517650  1.0  0.2813
  H  H293  1  0.421660  0.085300  0.469710  1.0  0.3628
  H  H294  1  0.416130  0.081950  0.533850  1.0  0.4187
  H  H295  1  0.562450  0.897300  0.477110  1.0  0.3741
  H  H296  1  0.600820  0.937770  0.518990  1.0  0.3717
  H  H297  1  0.477010  0.059940  0.394710  1.0  0.2459
  H  H298  1  0.519550  0.099650  0.437310  1.0  0.3809
  H  H299  1  0.476300  0.897660  0.562790  1.0  0.3682
  H  H300  1  0.519040  0.937220  0.600430  1.0  0.3846
  H  H301  1  0.600570  0.018500  0.438120  1.0  0.381
  H  H302  1  0.560730  0.975860  0.395450  1.0  0.2498
  H  H303  1  0.439850  0.017360  0.601830  1.0  0.4902
  H  H304  1  0.395060  0.976710  0.560200  1.0  0.3528
  H  H305  1  0.415110  0.518310  0.017960  1.0  0.2951
  H  H306  1  0.517940  0.517900  0.915160  1.0  0.2919
  H  H307  1  0.552480  0.552420  0.052400  1.0  0.3378
  H  H308  1  0.517190  0.415040  0.018410  1.0  0.2937
  H  H309  1  0.468970  0.421040  0.084760  1.0  0.3553
  H  H310  1  0.533110  0.415530  0.081600  1.0  0.4107
  H  H311  1  0.476170  0.561180  0.895910  1.0  0.2558
  H  H312  1  0.518460  0.600330  0.937560  1.0  0.3828
  H  H313  1  0.394540  0.476830  0.059870  1.0  0.2489
  H  H314  1  0.436950  0.518750  0.099710  1.0  0.3757
  H  H315  1  0.561130  0.475850  0.896130  1.0  0.2521
  H  H316  1  0.599590  0.518810  0.936850  1.0  0.3715
  H  H317  1  0.437360  0.600040  0.018800  1.0  0.373
  H  H318  1  0.395680  0.561230  0.976140  1.0  0.2461
  H  H319  1  0.601070  0.439220  0.017260  1.0  0.3595
  H  H320  1  0.560490  0.395550  0.976620  1.0  0.2482
  H  H321  1  0.768770  0.268520  0.584110  1.0  0.3051
  H  H322  1  0.666140  0.267870  0.481110  1.0  0.2874
  H  H323  1  0.803390  0.302190  0.446880  1.0  0.3367
  H  H324  1  0.769200  0.164860  0.482400  1.0  0.2775
  H  H325  1  0.835550  0.170890  0.530410  1.0  0.3522
  H  H326  1  0.832170  0.165040  0.466240  1.0  0.4066
  H  H327  1  0.647090  0.311590  0.522580  1.0  0.2492
  H  H328  1  0.688630  0.350360  0.480380  1.0  0.3753
  H  H329  1  0.811000  0.227260  0.604590  1.0  0.2432
  H  H330  1  0.851060  0.268710  0.561910  1.0  0.3762
  H  H331  1  0.648310  0.226250  0.436880  1.0  0.3617
  H  H332  1  0.688320  0.268780  0.399220  1.0  0.3826
  H  H333  1  0.769950  0.349940  0.561960  1.0  0.3827
  H  H334  1  0.727040  0.311820  0.603060  1.0  0.248
  H  H335  1  0.768050  0.189140  0.398170  1.0  0.4928
  H  H336  1  0.727080  0.144770  0.439640  1.0  0.3433
  H  H337  1  0.769190  0.666250  0.981240  1.0  0.298
  H  H338  1  0.768260  0.768760  0.084350  1.0  0.2904
  H  H339  1  0.803580  0.803580  0.947380  1.0  0.3393
  H  H340  1  0.665980  0.768350  0.980520  1.0  0.2916
  H  H341  1  0.672200  0.720330  0.914090  1.0  0.3502
  H  H342  1  0.666740  0.784450  0.917350  1.0  0.4161
  H  H343  1  0.811470  0.726920  0.103650  1.0  0.2483
  H  H344  1  0.850620  0.769350  0.062540  1.0  0.3803
  H  H345  1  0.728430  0.646600  0.938210  1.0  0.2481
  H  H346  1  0.770180  0.688650  0.899160  1.0  0.3888
  H  H347  1  0.726140  0.812030  0.103200  1.0  0.2556
  H  H348  1  0.769210  0.850710  0.062540  1.0  0.3773
  H  H349  1  0.850910  0.688320  0.980790  1.0  0.3873
  H  H350  1  0.812370  0.647120  0.023060  1.0  0.2512
  H  H351  1  0.690090  0.852060  0.981840  1.0  0.3646
  H  H352  1  0.646640  0.811890  0.022070  1.0  0.2512
  H  H353  1  0.019550  0.231250  0.333930  1.0  0.3028
  H  H354  1  0.019630  0.334090  0.231170  1.0  0.2853
  H  H355  1  0.054030  0.196500  0.196870  1.0  0.345
  H  H356  1  0.916580  0.231100  0.231500  1.0  0.2993
  H  H357  1  0.922310  0.164590  0.279600  1.0  0.3503
  H  H358  1  0.916660  0.168200  0.215450  1.0  0.4086
  H  H359  1  0.061910  0.354090  0.273410  1.0  0.2481
  H  H360  1  0.101440  0.312030  0.230780  1.0  0.3786
  H  H361  1  0.977970  0.189220  0.354220  1.0  0.2461
  H  H362  1  0.019860  0.149530  0.312270  1.0  0.3865
  H  H363  1  0.977540  0.353920  0.188630  1.0  0.2501
  H  H364  1  0.020540  0.312080  0.149410  1.0  0.4741
  H  H365  1  0.101240  0.230090  0.312120  1.0  0.3789
  H  H366  1  0.063060  0.272890  0.352990  1.0  0.2521
  H  H367  1  0.941370  0.232200  0.147440  1.0  0.3633
  H  H368  1  0.897970  0.272720  0.187510  1.0  0.2516
  H  H369  1  0.665930  0.981710  0.768880  1.0  0.2961
  H  H370  1  0.768670  0.084560  0.768100  1.0  0.287
  H  H371  1  0.803120  0.947490  0.803120  1.0  0.3393
  H  H372  1  0.767840  0.981120  0.665480  1.0  0.2829
  H  H373  1  0.719870  0.914730  0.671760  1.0  0.3481
  H  H374  1  0.784070  0.918150  0.665910  1.0  0.4058
  H  H375  1  0.727020  0.103570  0.811700  1.0  0.2473
  H  H376  1  0.769590  0.063000  0.850120  1.0  0.377
  H  H377  1  0.645840  0.939160  0.727830  1.0  0.2503
  H  H378  1  0.687960  0.899890  0.769740  1.0  0.3888
  H  H379  1  0.812650  0.102700  0.726420  1.0  0.2502
  H  H380  1  0.851240  0.061880  0.768740  1.0  0.3759
  H  H381  1  0.688090  0.981140  0.850520  1.0  0.3768
  H  H382  1  0.646380  0.023750  0.811610  1.0  0.2475
  H  H383  1  0.852020  0.982320  0.689980  1.0  0.4874
  H  H384  1  0.810830  0.022880  0.645620  1.0  0.3463
  H  H385  1  0.834660  0.518680  0.231250  1.0  0.2946
  H  H386  1  0.731750  0.518180  0.333990  1.0  0.2926
  H  H387  1  0.697250  0.552660  0.196710  1.0  0.3391
  H  H388  1  0.732630  0.415350  0.230710  1.0  0.2864
  H  H389  1  0.781060  0.421570  0.164170  1.0  0.3531
  H  H390  1  0.716900  0.415760  0.167560  1.0  0.4177
  H  H391  1  0.773300  0.561870  0.352920  1.0  0.2558
  H  H392  1  0.731050  0.600570  0.311590  1.0  0.3708
  H  H393  1  0.856080  0.476800  0.190170  1.0  0.3423
  H  H394  1  0.812770  0.518980  0.149400  1.0  0.3806
  H  H395  1  0.688690  0.476030  0.353070  1.0  0.2476
  H  H396  1  0.650180  0.518930  0.312290  1.0  0.3807
  H  H397  1  0.812610  0.600100  0.230350  1.0  0.3771
  H  H398  1  0.854500  0.561100  0.273390  1.0  0.2392
  H  H399  1  0.648820  0.439290  0.231820  1.0  0.364
  H  H400  1  0.689120  0.396020  0.272450  1.0  0.25
  H  H401  1  0.518780  0.231890  0.834580  1.0  0.3044
  H  H402  1  0.518020  0.334250  0.731300  1.0  0.2824
  H  H403  1  0.553080  0.196950  0.697410  1.0  0.3382
  H  H404  1  0.415560  0.230570  0.732470  1.0  0.2945
  H  H405  1  0.421650  0.164520  0.781170  1.0  0.352
  H  H406  1  0.416310  0.167190  0.717020  1.0  0.4134
  H  H407  1  0.560640  0.354420  0.773360  1.0  0.2523
  H  H408  1  0.600470  0.312130  0.730970  1.0  0.3731
  H  H409  1  0.477570  0.189750  0.855150  1.0  0.2464
  H  H410  1  0.519350  0.149730  0.812890  1.0  0.3698
  H  H411  1  0.475680  0.353360  0.688440  1.0  0.251
  H  H412  1  0.519060  0.312300  0.649950  1.0  0.3795
  H  H413  1  0.600480  0.230970  0.812510  1.0  0.3754
  H  H414  1  0.562360  0.273570  0.853050  1.0  0.2466
  H  H415  1  0.439500  0.231220  0.648840  1.0  0.3565
  H  H416  1  0.396330  0.271880  0.688520  1.0  0.253
  H  H417  1  0.267850  0.666310  0.481240  1.0  0.2975
  H  H418  1  0.267820  0.769080  0.584090  1.0  0.2919
  H  H419  1  0.302620  0.803240  0.446840  1.0  0.3393
  H  H420  1  0.164930  0.768740  0.480930  1.0  0.29
  H  H421  1  0.170640  0.720770  0.414580  1.0  0.3525
  H  H422  1  0.165160  0.784980  0.418070  1.0  0.4142
  H  H423  1  0.310930  0.727060  0.603400  1.0  0.2501
  H  H424  1  0.349780  0.769480  0.562280  1.0  0.3802
  H  H425  1  0.226610  0.646420  0.438760  1.0  0.2475
  H  H426  1  0.268150  0.688630  0.399010  1.0  0.3872
  H  H427  1  0.226480  0.813270  0.602290  1.0  0.2478
  H  H428  1  0.268980  0.851330  0.561620  1.0  0.3838
  H  H429  1  0.349220  0.687630  0.479990  1.0  0.3823
  H  H430  1  0.311320  0.647280  0.522850  1.0  0.247
  H  H431  1  0.190000  0.853000  0.482140  1.0  0.4849
  H  H432  1  0.145840  0.812350  0.522610  1.0  0.3383
  H  H433  1  0.268520  0.165630  0.982370  1.0  0.2983
  H  H434  1  0.268210  0.268600  0.084980  1.0  0.2917
  H  H435  1  0.302480  0.302790  0.947720  1.0  0.3411
  H  H436  1  0.165150  0.267580  0.981980  1.0  0.2971
  H  H437  1  0.171100  0.219440  0.915690  1.0  0.3525
  H  H438  1  0.165270  0.283650  0.918990  1.0  0.407
  H  H439  1  0.311980  0.227070  0.103830  1.0  0.2522
  H  H440  1  0.350550  0.269300  0.062530  1.0  0.379
  H  H441  1  0.227300  0.145400  0.940080  1.0  0.2528
  H  H442  1  0.268800  0.187710  0.900240  1.0  0.3847
  H  H443  1  0.226580  0.312570  0.103260  1.0  0.2528
  H  H444  1  0.269010  0.350720  0.062570  1.0  0.3815
  H  H445  1  0.350190  0.187850  0.981250  1.0  0.3764
  H  H446  1  0.311750  0.146500  0.024030  1.0  0.2504
  H  H447  1  0.189590  0.351750  0.982940  1.0  0.3633
  H  H448  1  0.145830  0.311060  0.023620  1.0  0.251
  C  C449  1  0.297340  0.453480  0.903480  1.0  -0.0795
  C  C450  1  0.330570  0.469320  0.919970  1.0  0.0152
  C  C451  1  0.347670  0.453260  0.952890  1.0  0.0013
  C  C452  1  0.329790  0.421240  0.969830  1.0  0.0111
  C  C453  1  0.296530  0.404760  0.954130  1.0  -0.0718
  C  C454  1  0.280520  0.421460  0.921150  1.0  0.0332
  C  C455  1  0.453870  0.845740  0.454150  1.0  -0.0753
  C  C456  1  0.470500  0.828480  0.421810  1.0  0.0351
  C  C457  1  0.454830  0.795280  0.405310  1.0  -0.0672
  C  C458  1  0.422360  0.778750  0.422470  1.0  0.0358
  C  C459  1  0.405040  0.795260  0.454840  1.0  -0.0626
  C  C460  1  0.421460  0.828480  0.470610  1.0  0.0333
  C  C461  1  0.953510  0.902510  0.798070  1.0  0.0164
  C  C462  1  0.921490  0.920450  0.781300  1.0  0.0145
  C  C463  1  0.905020  0.953610  0.797160  1.0  -0.0809
  C  C464  1  0.921690  0.969430  0.830270  1.0  0.0178
  C  C465  1  0.953770  0.952530  0.848070  1.0  0.0228
  C  C466  1  0.969670  0.919440  0.831070  1.0  0.0033
  C  C467  1  0.453550  0.904970  0.297140  1.0  -0.0806
  C  C468  1  0.420530  0.921690  0.281260  1.0  0.0104
  C  C469  1  0.402750  0.953780  0.298110  1.0  0.0123
  C  C470  1  0.419690  0.969720  0.331170  1.0  -0.0077
  C  C471  1  0.452620  0.953550  0.348190  1.0  0.0094
  C  C472  1  0.469380  0.921440  0.330340  1.0  0.0167
  C  C473  1  0.796720  0.295760  0.344870  1.0  -0.0662
  C  C474  1  0.829820  0.279860  0.328310  1.0  0.0152
  C  C475  1  0.847480  0.296680  0.296250  1.0  -0.0496
  C  C476  1  0.830850  0.329710  0.280290  1.0  0.0346
  C  C477  1  0.797760  0.346370  0.296100  1.0  -0.0686
  C  C478  1  0.780840  0.328800  0.328150  1.0  0.0313
  C  C479  1  0.796370  0.845040  0.796210  1.0  -0.0735
  C  C480  1  0.829770  0.828730  0.780700  1.0  0.0056
  C  C481  1  0.847470  0.796580  0.797490  1.0  0.016
  C  C482  1  0.829990  0.780070  0.829980  1.0  -0.0277
  C  C483  1  0.796630  0.795800  0.846560  1.0  -0.0049
  C  C484  1  0.779950  0.827980  0.828790  1.0  0.0033
  C  C485  1  0.953810  0.346110  0.452820  1.0  -0.0717
  C  C486  1  0.969890  0.329510  0.419830  1.0  0.0368
  C  C487  1  0.954190  0.296360  0.403180  1.0  -0.0718
  C  C488  1  0.922190  0.279350  0.420740  1.0  0.0178
  C  C489  1  0.905420  0.295210  0.453750  1.0  -0.0708
  C  C490  1  0.921870  0.328340  0.469660  1.0  0.032
  C  C491  1  0.452160  0.452360  0.846630  1.0  -0.0691
  C  C492  1  0.419430  0.468620  0.829780  1.0  0.0183
  C  C493  1  0.402370  0.452420  0.797130  1.0  -0.0681
  C  C494  1  0.419220  0.419650  0.780860  1.0  0.029
  C  C495  1  0.452000  0.402720  0.796980  1.0  -0.0714
  C  C496  1  0.468320  0.419660  0.829640  1.0  0.0282
  C  C497  1  0.796860  0.905900  0.955120  1.0  -0.0675
  C  C498  1  0.780180  0.923300  0.922890  1.0  0.0268
  C  C499  1  0.796720  0.955560  0.905460  1.0  -0.063
  C  C500  1  0.830300  0.971060  0.921570  1.0  0.0131
  C  C501  1  0.848020  0.954380  0.953840  1.0  0.0064
  C  C502  1  0.830410  0.922070  0.970540  1.0  0.0182
  C  C503  1  0.296600  0.847730  0.296040  1.0  0.0229
  C  C504  1  0.279650  0.830120  0.328210  1.0  0.0088
  C  C505  1  0.294860  0.796500  0.344390  1.0  -0.0692
  C  C506  1  0.327110  0.779730  0.327100  1.0  0.0246
  C  C507  1  0.344670  0.796280  0.294890  1.0  -0.0644
  C  C508  1  0.328770  0.829920  0.279420  1.0  -0.0017
  C  C509  1  0.796930  0.404360  0.453480  1.0  -0.0669
  C  C510  1  0.780860  0.421060  0.420550  1.0  0.0307
  C  C511  1  0.797530  0.453200  0.402990  1.0  -0.0688
  C  C512  1  0.830620  0.469170  0.419530  1.0  -0.0004
  C  C513  1  0.847770  0.453140  0.452380  1.0  0.0013
  C  C514  1  0.830080  0.420990  0.469260  1.0  0.0202
  C  C515  1  0.953810  0.848160  0.953620  1.0  -0.0077
  C  C516  1  0.921780  0.830310  0.970540  1.0  -0.0119
  C  C517  1  0.905410  0.797010  0.954820  1.0  -0.0752
  C  C518  1  0.922190  0.780990  0.921980  1.0  0.0326
  C  C519  1  0.954110  0.797890  0.904330  1.0  -0.0751
  C  C520  1  0.969950  0.831060  0.920780  1.0  0.0113
  C  C521  1  0.296620  0.346640  0.796740  1.0  -0.0722
  C  C522  1  0.279750  0.329110  0.828850  1.0  0.0187
  C  C523  1  0.295630  0.296090  0.845600  1.0  -0.0702
  C  C524  1  0.328710  0.280130  0.829030  1.0  0.0071
  C  C525  1  0.346360  0.296880  0.796940  1.0  -0.07
  C  C526  1  0.329720  0.329930  0.780930  1.0  0.0372
  C  C527  1  0.154230  0.545990  0.544810  1.0  -0.0635
  C  C528  1  0.171440  0.529420  0.577230  1.0  0.0302
  C  C529  1  0.203770  0.545930  0.594600  1.0  -0.0722
  C  C530  1  0.219460  0.579270  0.578250  1.0  0.0315
  C  C531  1  0.202990  0.596570  0.545810  1.0  -0.0729
  C  C532  1  0.170640  0.579300  0.529200  1.0  0.0253
  C  C533  1  0.596780  0.703190  0.046410  1.0  -0.0674
  C  C534  1  0.579150  0.671060  0.029690  1.0  0.0134
  C  C535  1  0.546060  0.654490  0.045670  1.0  -0.0717
  C  C536  1  0.530210  0.671270  0.078690  1.0  0.034
  C  C537  1  0.547110  0.703380  0.096190  1.0  -0.0738
  C  C538  1  0.580150  0.719210  0.079450  1.0  0.0335
  C  C539  1  0.703750  0.203290  0.653570  1.0  -0.071
  C  C540  1  0.719710  0.170300  0.670250  1.0  0.031
  C  C541  1  0.703800  0.153640  0.703250  1.0  -0.067
  C  C542  1  0.671750  0.171190  0.720120  1.0  0.0249
  C  C543  1  0.655050  0.204190  0.704200  1.0  -0.0727
  C  C544  1  0.671670  0.220120  0.671130  1.0  0.0272
  C  C545  1  0.095150  0.044120  0.205410  1.0  -0.0598
  C  C546  1  0.077990  0.076730  0.221620  1.0  0.0384
  C  C547  1  0.045320  0.093650  0.205250  1.0  -0.0714
  C  C548  1  0.029110  0.076570  0.172600  1.0  0.0124
  C  C549  1  0.045470  0.043940  0.155600  1.0  -0.0738
  C  C550  1  0.078240  0.027800  0.172650  1.0  0.015
  C  C551  1  0.046840  0.154930  0.045980  1.0  -0.0679
  C  C552  1  0.080190  0.171260  0.030340  1.0  -0.0069
  C  C553  1  0.097860  0.203540  0.046970  1.0  0.0151
  C  C554  1  0.080430  0.220140  0.079440  1.0  -0.0086
  C  C555  1  0.047210  0.204380  0.096220  1.0  -0.0074
  C  C556  1  0.030530  0.172070  0.078600  1.0  0.0193
  C  C557  1  0.154480  0.705390  0.704290  1.0  -0.0667
  C  C558  1  0.170860  0.721080  0.671010  1.0  0.0282
  C  C559  1  0.203230  0.704550  0.653690  1.0  -0.075
  C  C560  1  0.219790  0.672120  0.670940  1.0  0.0229
  C  C561  1  0.204170  0.655680  0.704240  1.0  -0.0736
  C  C562  1  0.171780  0.672960  0.720790  1.0  0.0315
  C  C563  1  0.204890  0.155230  0.205270  1.0  -0.0722
  C  C564  1  0.172220  0.172230  0.221650  1.0  0.0169
  C  C565  1  0.154620  0.204580  0.205050  1.0  -0.0152
  C  C566  1  0.171470  0.220540  0.172010  1.0  0.0125
  C  C567  1  0.203960  0.204110  0.154830  1.0  -0.0722
  C  C568  1  0.220580  0.171780  0.172100  1.0  0.0353
  C  C569  1  0.654680  0.045710  0.547170  1.0  -0.0774
  C  C570  1  0.671480  0.078680  0.531300  1.0  0.0327
  C  C571  1  0.703480  0.096270  0.548250  1.0  -0.0486
  C  C572  1  0.719210  0.079670  0.581450  1.0  0.0047
  C  C573  1  0.703080  0.046720  0.598440  1.0  -0.0006
  C  C574  1  0.671030  0.029900  0.580490  1.0  0.0014
  C  C575  1  0.544950  0.545300  0.154880  1.0  -0.0727
  C  C576  1  0.577400  0.528880  0.172180  1.0  0.023
  C  C577  1  0.594750  0.545580  0.204460  1.0  -0.0674
  C  C578  1  0.578350  0.578950  0.219980  1.0  0.0328
  C  C579  1  0.545890  0.596140  0.203400  1.0  -0.0725
  C  C580  1  0.529310  0.578680  0.171140  1.0  0.0204
  C  C581  1  0.653360  0.703490  0.202810  1.0  -0.0703
  C  C582  1  0.669970  0.719470  0.169770  1.0  0.0295
  C  C583  1  0.702960  0.703570  0.153030  1.0  -0.0726
  C  C584  1  0.719830  0.671470  0.170540  1.0  0.0319
  C  C585  1  0.703970  0.654760  0.203570  1.0  -0.071
  C  C586  1  0.670950  0.671390  0.219560  1.0  0.0275
  C  C587  1  0.155730  0.046380  0.045440  1.0  -0.077
  C  C588  1  0.173040  0.029840  0.077850  1.0  0.014
  C  C589  1  0.205350  0.046440  0.095300  1.0  -0.0728
  C  C590  1  0.220800  0.080010  0.079110  1.0  0.0155
  C  C591  1  0.204160  0.097620  0.046760  1.0  0.0035
  C  C592  1  0.171930  0.079910  0.030020  1.0  0.0082
  C  C593  1  0.596320  0.203690  0.545890  1.0  -0.072
  C  C594  1  0.578940  0.171340  0.529380  1.0  0.0274
  C  C595  1  0.545640  0.154990  0.545120  1.0  -0.0628
  C  C596  1  0.529220  0.172280  0.577540  1.0  0.0152
  C  C597  1  0.545850  0.204610  0.594820  1.0  -0.0659
  C  C598  1  0.579140  0.220230  0.578360  1.0  0.0372
  C  C599  1  0.093500  0.545250  0.705180  1.0  -0.0704
  C  C600  1  0.076520  0.529000  0.672440  1.0  0.037
  C  C601  1  0.043850  0.545260  0.655340  1.0  -0.0702
  C  C602  1  0.027570  0.577990  0.672330  1.0  0.0203
  C  C603  1  0.043760  0.594990  0.705080  1.0  -0.0728
  C  C604  1  0.076440  0.577950  0.721390  1.0  0.0325
  C  C605  1  0.654980  0.545630  0.044560  1.0  -0.0676
  C  C606  1  0.672320  0.529040  0.076910  1.0  0.0138
  C  C607  1  0.704780  0.545500  0.094170  1.0  -0.0682
  C  C608  1  0.720440  0.578820  0.077770  1.0  0.0326
  C  C609  1  0.703880  0.596190  0.045420  1.0  -0.0719
  C  C610  1  0.671390  0.578960  0.028930  1.0  0.0308
  C  C611  1  0.044710  0.705350  0.594850  1.0  -0.0785
  C  C612  1  0.028090  0.672930  0.577600  1.0  0.023
  C  C613  1  0.044510  0.655600  0.545130  1.0  -0.0731
  C  C614  1  0.077870  0.671940  0.529460  1.0  0.0193
  C  C615  1  0.095270  0.704300  0.545970  1.0  -0.066
  C  C616  1  0.078040  0.720900  0.578390  1.0  0.0265
  C  C617  1  0.546700  0.044700  0.655390  1.0  -0.0602
  C  C618  1  0.580220  0.029200  0.671620  1.0  0.0137
  C  C619  1  0.597860  0.045870  0.703980  1.0  0.0045
  C  C620  1  0.580220  0.078210  0.720600  1.0  0.0129
  C  C621  1  0.546690  0.094410  0.705070  1.0  -0.0677
  C  C622  1  0.530130  0.077010  0.672760  1.0  0.0232
  C  C623  1  0.452840  0.347930  0.953050  1.0  0.0094
  C  C624  1  0.420830  0.330000  0.969940  1.0  -0.0137
  C  C625  1  0.404460  0.296690  0.954210  1.0  -0.0758
  C  C626  1  0.421230  0.280730  0.921280  1.0  0.0276
  C  C627  1  0.453230  0.297630  0.903640  1.0  -0.0762
  C  C628  1  0.468980  0.330870  0.920150  1.0  0.011
  C  C629  1  0.952460  0.451920  0.348240  1.0  -0.0099
  C  C630  1  0.919820  0.468150  0.330830  1.0  0.0133
  C  C631  1  0.903160  0.452030  0.297880  1.0  -0.0735
  C  C632  1  0.920280  0.419380  0.281690  1.0  0.0328
  C  C633  1  0.952970  0.402430  0.298000  1.0  -0.0763
  C  C634  1  0.968900  0.419260  0.331010  1.0  0.0148
  C  C635  1  0.298230  0.953820  0.402270  1.0  0.0136
  C  C636  1  0.281380  0.921790  0.420110  1.0  0.0092
  C  C637  1  0.297200  0.905220  0.453230  1.0  -0.0705
  C  C638  1  0.330360  0.921740  0.469080  1.0  0.0159
  C  C639  1  0.348230  0.953800  0.452250  1.0  0.0318
  C  C640  1  0.331260  0.969860  0.419240  1.0  -0.011
  C  C641  1  0.131650  0.531400  0.719040  1.0  0.6836
  C  C642  1  0.218280  0.617800  0.718450  1.0  0.6985
  C  C643  1  0.217800  0.531640  0.632470  1.0  0.6987
  C  C644  1  0.364860  0.467110  0.782710  1.0  0.7029
  C  C645  1  0.282770  0.467720  0.865700  1.0  0.7225
  C  C646  1  0.282260  0.384470  0.782470  1.0  0.7002
  C  C647  1  0.219240  0.117430  0.219480  1.0  0.6884
  C  C648  1  0.219650  0.031860  0.133090  1.0  0.7005
  C  C649  1  0.133340  0.030540  0.219340  1.0  0.6873
  C  C650  1  0.283760  0.884010  0.282970  1.0  0.7094
  C  C651  1  0.367000  0.967410  0.284220  1.0  0.7148
  C  C652  1  0.284420  0.967390  0.366470  1.0  0.7163
  C  C653  1  0.468260  0.867530  0.282210  1.0  0.6823
  C  C654  1  0.382430  0.781770  0.280850  1.0  0.6952
  C  C655  1  0.468860  0.781270  0.367400  1.0  0.6942
  C  C656  1  0.532010  0.634300  0.217140  1.0  0.6987
  C  C657  1  0.532790  0.717640  0.134000  1.0  0.7236
  C  C658  1  0.615560  0.717640  0.217120  1.0  0.7005
  C  C659  1  0.116650  0.719480  0.718560  1.0  0.6872
  C  C660  1  0.029940  0.633140  0.718960  1.0  0.6976
  C  C661  1  0.030510  0.719610  0.632720  1.0  0.6833
  C  C662  1  0.883570  0.783360  0.784130  1.0  0.7091
  C  C663  1  0.967980  0.783570  0.866470  1.0  0.6975
  C  C664  1  0.966950  0.866670  0.784170  1.0  0.7162
  C  C665  1  0.032250  0.117240  0.031490  1.0  0.6871
  C  C666  1  0.031700  0.030230  0.117400  1.0  0.7002
  C  C667  1  0.118000  0.031820  0.031020  1.0  0.683
  C  C668  1  0.967240  0.884060  0.967080  1.0  0.7097
  C  C669  1  0.884240  0.967520  0.967000  1.0  0.7192
  C  C670  1  0.967500  0.966370  0.883840  1.0  0.7184
  C  C671  1  0.116400  0.531790  0.530710  1.0  0.6873
  C  C672  1  0.030140  0.617770  0.530920  1.0  0.7014
  C  C673  1  0.030080  0.531360  0.617180  1.0  0.69
  C  C674  1  0.883560  0.466840  0.465970  1.0  0.7123
  C  C675  1  0.966250  0.466070  0.383810  1.0  0.7279
  C  C676  1  0.967560  0.384090  0.466990  1.0  0.7005
  C  C677  1  0.617260  0.031060  0.532170  1.0  0.6769
  C  C678  1  0.531370  0.117120  0.531140  1.0  0.7043
  C  C679  1  0.532120  0.030520  0.617590  1.0  0.6919
  C  C680  1  0.384040  0.967390  0.466090  1.0  0.7236
  C  C681  1  0.466430  0.967110  0.384030  1.0  0.7161
  C  C682  1  0.467560  0.883890  0.467860  1.0  0.6954
  C  C683  1  0.531340  0.616950  0.031150  1.0  0.6821
  C  C684  1  0.530820  0.530920  0.117080  1.0  0.6977
  C  C685  1  0.617080  0.531350  0.030510  1.0  0.6884
  C  C686  1  0.466300  0.383810  0.966710  1.0  0.7248
  C  C687  1  0.383550  0.466770  0.966540  1.0  0.7228
  C  C688  1  0.466710  0.466830  0.884140  1.0  0.7007
  C  C689  1  0.782330  0.366810  0.468070  1.0  0.6829
  C  C690  1  0.867880  0.280640  0.468220  1.0  0.6932
  C  C691  1  0.782060  0.281200  0.382400  1.0  0.6875
  C  C692  1  0.717830  0.134010  0.533710  1.0  0.7048
  C  C693  1  0.717870  0.217390  0.615710  1.0  0.6962
  C  C694  1  0.634470  0.217440  0.532010  1.0  0.6995
  C  C695  1  0.867880  0.782310  0.969190  1.0  0.6737
  C  C696  1  0.782820  0.782330  0.882380  1.0  0.7095
  C  C697  1  0.782420  0.868090  0.969180  1.0  0.6934
  C  C698  1  0.634590  0.717400  0.032010  1.0  0.6989
  C  C699  1  0.717810  0.634330  0.031600  1.0  0.7018
  C  C700  1  0.717220  0.717750  0.115210  1.0  0.7013
  C  C701  1  0.118670  0.217970  0.218450  1.0  0.7012
  C  C702  1  0.031610  0.131860  0.218830  1.0  0.6984
  C  C703  1  0.033510  0.217980  0.132060  1.0  0.6947
  C  C704  1  0.885320  0.282350  0.282160  1.0  0.7043
  C  C705  1  0.968390  0.282170  0.365350  1.0  0.7006
  C  C706  1  0.967850  0.365040  0.283070  1.0  0.7192
  C  C707  1  0.782150  0.969570  0.867650  1.0  0.6904
  C  C708  1  0.781890  0.882740  0.781740  1.0  0.6966
  C  C709  1  0.867610  0.968480  0.782300  1.0  0.6809
  C  C710  1  0.716660  0.032950  0.634270  1.0  0.7282
  C  C711  1  0.634000  0.032590  0.717280  1.0  0.7099
  C  C712  1  0.717850  0.115770  0.717380  1.0  0.6918
  C  C713  1  0.718550  0.617190  0.218040  1.0  0.6877
  C  C714  1  0.718910  0.531190  0.132010  1.0  0.7058
  C  C715  1  0.632650  0.531400  0.218540  1.0  0.6904
  C  C716  1  0.783470  0.384180  0.281880  1.0  0.7046
  C  C717  1  0.865760  0.466740  0.282940  1.0  0.7204
  C  C718  1  0.783060  0.467380  0.365230  1.0  0.7009
  C  C719  1  0.617470  0.218610  0.718720  1.0  0.6822
  C  C720  1  0.532110  0.132200  0.719210  1.0  0.697
  C  C721  1  0.531700  0.218620  0.632730  1.0  0.6937
  C  C722  1  0.384200  0.282430  0.782850  1.0  0.6964
  C  C723  1  0.467450  0.283100  0.865880  1.0  0.7094
  C  C724  1  0.466600  0.365200  0.782480  1.0  0.6974
  C  C725  1  0.367070  0.781260  0.468720  1.0  0.6879
  C  C726  1  0.280580  0.782190  0.382170  1.0  0.7001
  C  C727  1  0.282230  0.867850  0.468030  1.0  0.6875
  C  C728  1  0.133400  0.718130  0.532010  1.0  0.7006
  C  C729  1  0.216840  0.634690  0.531960  1.0  0.6997
  C  C730  1  0.217030  0.718410  0.615570  1.0  0.6977
  C  C731  1  0.367020  0.281850  0.968880  1.0  0.678
  C  C732  1  0.281040  0.281560  0.883180  1.0  0.699
  C  C733  1  0.281740  0.367310  0.968900  1.0  0.6864
  C  C734  1  0.133890  0.216840  0.033500  1.0  0.7059
  C  C735  1  0.217310  0.133800  0.033500  1.0  0.7166
  C  C736  1  0.217750  0.217920  0.116690  1.0  0.696
  O  O737  1  0.147840  0.549640  0.746650  1.0  -0.5726
  O  O738  1  0.161890  0.545050  0.814440  1.0  -0.6553
  O  O739  1  0.246050  0.601770  0.700370  1.0  -0.5894
  O  O740  1  0.310330  0.591480  0.703790  1.0  -0.5837
  O  O741  1  0.199700  0.503830  0.648470  1.0  -0.5735
  O  O742  1  0.204740  0.435780  0.662330  1.0  -0.6545
  O  O743  1  0.349280  0.495290  0.800420  1.0  -0.5708
  O  O744  1  0.339220  0.562590  0.792050  1.0  -0.5738
  O  O745  1  0.254490  0.450120  0.850080  1.0  -0.5646
  O  O746  1  0.183930  0.454810  0.836760  1.0  -0.678
  O  O747  1  0.299720  0.400180  0.754220  1.0  -0.5675
  O  O748  1  0.294680  0.413740  0.684080  1.0  -0.685
  O  O749  1  0.349220  0.449760  0.754380  1.0  -0.5616
  O  O750  1  0.335860  0.455150  0.684100  1.0  -0.6951
  O  O751  1  0.254170  0.400190  0.800210  1.0  -0.5678
  O  O752  1  0.183910  0.413560  0.795740  1.0  -0.6795
  O  O753  1  0.300330  0.495840  0.849910  1.0  -0.5636
  O  O754  1  0.294260  0.565390  0.837230  1.0  -0.6394
  O  O755  1  0.147630  0.503680  0.700870  1.0  -0.568
  O  O756  1  0.161430  0.435850  0.705720  1.0  -0.6466
  O  O757  1  0.245510  0.549760  0.648480  1.0  -0.554
  O  O758  1  0.314000  0.541920  0.662280  1.0  -0.6434
  O  O759  1  0.200140  0.601820  0.746230  1.0  -0.5676
  O  O760  1  0.205360  0.588120  0.814310  1.0  -0.6332
  O  O761  1  0.237100  0.512640  0.807480  1.0  -0.821
  O  O762  1  0.307030  0.512740  0.737530  1.0  -0.8662
  O  O763  1  0.236900  0.442650  0.737580  1.0  -0.8516
  O  O764  1  0.261540  0.559000  0.761780  1.0  -0.7549
  O  O765  1  0.190770  0.488380  0.762020  1.0  -0.7698
  O  O766  1  0.261030  0.488320  0.691190  1.0  -0.7832
  O  O767  1  0.212700  0.536880  0.713270  1.0  -0.7741
  O  O768  1  0.285950  0.463730  0.786340  1.0  -0.8405
  O  O769  1  0.247180  0.101580  0.201470  1.0  -0.5644
  O  O770  1  0.315280  0.087980  0.206410  1.0  -0.6342
  O  O771  1  0.201710  0.003840  0.148930  1.0  -0.5913
  O  O772  1  0.206190  0.939180  0.158930  1.0  -0.5757
  O  O773  1  0.149220  0.048690  0.247170  1.0  -0.555
  O  O774  1  0.163210  0.043850  0.315160  1.0  -0.6487
  O  O775  1  0.301690  0.900040  0.255120  1.0  -0.5721
  O  O776  1  0.294590  0.910790  0.188170  1.0  -0.5709
  O  O777  1  0.351110  0.995760  0.301460  1.0  -0.5669
  O  O778  1  0.337230  0.066330  0.295940  1.0  -0.6828
  O  O779  1  0.256280  0.949750  0.350590  1.0  -0.5647
  O  O780  1  0.185240  0.954860  0.336700  1.0  -0.685
  O  O781  1  0.255570  0.899820  0.300460  1.0  -0.5698
  O  O782  1  0.186290  0.912730  0.296560  1.0  -0.6826
  O  O783  1  0.301640  0.995810  0.350780  1.0  -0.5765
  O  O784  1  0.296150  0.065880  0.337490  1.0  -0.6869
  O  O785  1  0.351360  0.949810  0.255960  1.0  -0.5645
  O  O786  1  0.339230  0.955930  0.186010  1.0  -0.6372
  O  O787  1  0.201110  0.101300  0.247150  1.0  -0.5614
  O  O788  1  0.206100  0.087650  0.314980  1.0  -0.659
  O  O789  1  0.149670  0.003160  0.200980  1.0  -0.5562
  O  O790  1  0.164080  0.934970  0.208090  1.0  -0.6388
  O  O791  1  0.247390  0.049910  0.149220  1.0  -0.5625
  O  O792  1  0.315350  0.044680  0.162940  1.0  -0.639
  O  O793  1  0.308680  0.012760  0.238450  1.0  -0.8182
  O  O794  1  0.239170  0.942490  0.238050  1.0  -0.8614
  O  O795  1  0.238610  0.012390  0.308310  1.0  -0.8637
  O  O796  1  0.263320  0.988080  0.191940  1.0  -0.7561
  O  O797  1  0.262730  0.058770  0.262650  1.0  -0.7683
  O  O798  1  0.192550  0.987890  0.262330  1.0  -0.7735
  O  O799  1  0.214320  0.036560  0.214010  1.0  -0.773
  O  O800  1  0.287820  0.963710  0.287320  1.0  -0.8411
  O  O801  1  0.450380  0.851740  0.254130  1.0  -0.5655
  O  O802  1  0.456030  0.838480  0.185810  1.0  -0.653
  O  O803  1  0.398270  0.753900  0.298980  1.0  -0.5913
  O  O804  1  0.408310  0.689480  0.295500  1.0  -0.5885
  O  O805  1  0.496780  0.799240  0.351540  1.0  -0.558
  O  O806  1  0.564650  0.794360  0.337450  1.0  -0.6323
  O  O807  1  0.504170  0.650240  0.199190  1.0  -0.572
  O  O808  1  0.437140  0.661050  0.206770  1.0  -0.5861
  O  O809  1  0.550270  0.745880  0.149760  1.0  -0.5621
  O  O810  1  0.545330  0.816360  0.163620  1.0  -0.6948
  O  O811  1  0.599700  0.699790  0.245060  1.0  -0.5623
  O  O812  1  0.586090  0.704520  0.315530  1.0  -0.6839
  O  O813  1  0.549600  0.649980  0.245320  1.0  -0.5693
  O  O814  1  0.545100  0.663240  0.315110  1.0  -0.6829
  O  O815  1  0.600010  0.745970  0.199700  1.0  -0.5658
  O  O816  1  0.586870  0.815790  0.204380  1.0  -0.6681
  O  O817  1  0.504710  0.699880  0.149660  1.0  -0.5615
  O  O818  1  0.434940  0.706100  0.161970  1.0  -0.6392
  O  O819  1  0.496180  0.851520  0.300080  1.0  -0.5662
  O  O820  1  0.564310  0.838040  0.294210  1.0  -0.6436
  O  O821  1  0.450460  0.753830  0.351210  1.0  -0.5628
  O  O822  1  0.457620  0.685380  0.337020  1.0  -0.6255
  O  O823  1  0.398550  0.799820  0.253150  1.0  -0.5582
  O  O824  1  0.412520  0.795250  0.185340  1.0  -0.6456
  O  O825  1  0.487640  0.762900  0.192270  1.0  -0.8234
  O  O826  1  0.487180  0.692650  0.261860  1.0  -0.8597
  O  O827  1  0.557510  0.762520  0.262300  1.0  -0.8497
  O  O828  1  0.441190  0.738410  0.237720  1.0  -0.7581
  O  O829  1  0.512000  0.809080  0.238080  1.0  -0.7724
  O  O830  1  0.511680  0.738270  0.308440  1.0  -0.7806
  O  O831  1  0.463370  0.786830  0.286550  1.0  -0.7732
  O  O832  1  0.536410  0.713810  0.213180  1.0  -0.8433
  O  O833  1  0.100680  0.701240  0.746260  1.0  -0.5627
  O  O834  1  0.087360  0.705850  0.814140  1.0  -0.6603
  O  O835  1  0.002160  0.649260  0.700930  1.0  -0.5919
  O  O836  1  0.937870  0.659910  0.704310  1.0  -0.5833
  O  O837  1  0.048550  0.747470  0.648640  1.0  -0.5681
  O  O838  1  0.043400  0.815220  0.662340  1.0  -0.6549
  O  O839  1  0.899630  0.755360  0.801760  1.0  -0.5824
  O  O840  1  0.909870  0.688670  0.793960  1.0  -0.5934
  O  O841  1  0.996240  0.800900  0.850670  1.0  -0.5596
  O  O842  1  0.065940  0.796420  0.836500  1.0  -0.6683
  O  O843  1  0.949310  0.851000  0.755910  1.0  -0.5668
  O  O844  1  0.953440  0.837610  0.685330  1.0  -0.6886
  O  O845  1  0.899240  0.800860  0.755810  1.0  -0.573
  O  O846  1  0.912140  0.796750  0.685780  1.0  -0.6804
  O  O847  1  0.995270  0.850770  0.801380  1.0  -0.5641
  O  O848  1  0.065760  0.837260  0.794840  1.0  -0.6894
  O  O849  1  0.949820  0.755760  0.850770  1.0  -0.5615
  O  O850  1  0.955650  0.685620  0.837930  1.0  -0.6606
  O  O851  1  0.100640  0.747340  0.700600  1.0  -0.5636
  O  O852  1  0.086780  0.815460  0.705790  1.0  -0.6296
  O  O853  1  0.002820  0.701470  0.648830  1.0  -0.5622
  O  O854  1  0.934200  0.709460  0.663060  1.0  -0.6456
  O  O855  1  0.048320  0.649170  0.746520  1.0  -0.5573
  O  O856  1  0.043720  0.663020  0.814510  1.0  -0.6518
  O  O857  1  0.012220  0.738470  0.807850  1.0  -0.8248
  O  O858  1  0.941720  0.738460  0.738550  1.0  -0.8626
  O  O859  1  0.011770  0.808560  0.738000  1.0  -0.8532
  O  O860  1  0.987210  0.692170  0.762280  1.0  -0.7779
  O  O861  1  0.058220  0.762590  0.761990  1.0  -0.7688
  O  O862  1  0.987180  0.762970  0.691910  1.0  -0.7782
  O  O863  1  0.035720  0.714240  0.713440  1.0  -0.7734
  O  O864  1  0.963240  0.787490  0.787340  1.0  -0.8355
  O  O865  1  0.004500  0.101160  0.049610  1.0  -0.5714
  O  O866  1  0.936650  0.087910  0.044460  1.0  -0.654
  O  O867  1  0.049900  0.002610  0.101260  1.0  -0.5949
  O  O868  1  0.047280  0.938610  0.090580  1.0  -0.5792
  O  O869  1  0.102010  0.049690  0.003090  1.0  -0.5573
  O  O870  1  0.088250  0.044420  0.935230  1.0  -0.6419
  O  O871  1  0.949630  0.899930  0.995190  1.0  -0.5739
  O  O872  1  0.957400  0.910280  0.061980  1.0  -0.5943
  O  O873  1  0.900110  0.995760  0.949540  1.0  -0.5723
  O  O874  1  0.913520  0.065130  0.953050  1.0  -0.6667
  O  O875  1  0.995780  0.948990  0.899680  1.0  -0.5761
  O  O876  1  0.065600  0.953620  0.912670  1.0  -0.6795
  O  O877  1  0.995540  0.899780  0.949630  1.0  -0.5661
  O  O878  1  0.066260  0.913400  0.955010  1.0  -0.6958
  O  O879  1  0.950110  0.994750  0.899530  1.0  -0.5567
  O  O880  1  0.955990  0.065840  0.913220  1.0  -0.6721
  O  O881  1  0.900190  0.949700  0.994940  1.0  -0.5612
  O  O882  1  0.913130  0.955770  0.064910  1.0  -0.6454
  O  O883  1  0.050050  0.101380  0.003420  1.0  -0.5587
  O  O884  1  0.044420  0.087650  0.935140  1.0  -0.645
  O  O885  1  0.102040  0.004010  0.049130  1.0  -0.5586
  O  O886  1  0.088060  0.935010  0.040770  1.0  -0.648
  O  O887  1  0.004080  0.048540  0.101350  1.0  -0.5567
  O  O888  1  0.935930  0.043980  0.087140  1.0  -0.6382
  O  O889  1  0.943000  0.012420  0.011910  1.0  -0.8182
  O  O890  1  0.012610  0.942210  0.012180  1.0  -0.8638
  O  O891  1  0.012920  0.012170  0.941980  1.0  -0.869
  O  O892  1  0.988690  0.987690  0.058290  1.0  -0.7744
  O  O893  1  0.988510  0.058520  0.987770  1.0  -0.789
  O  O894  1  0.059170  0.988050  0.987560  1.0  -0.7916
  O  O895  1  0.037260  0.036390  0.036250  1.0  -0.7711
  O  O896  1  0.963840  0.963330  0.963040  1.0  -0.8493
  O  O897  1  0.100350  0.549840  0.502940  1.0  -0.5613
  O  O898  1  0.086610  0.545110  0.435110  1.0  -0.6416
  O  O899  1  0.002310  0.601760  0.548970  1.0  -0.59
  O  O900  1  0.937870  0.591400  0.545170  1.0  -0.5932
  O  O901  1  0.048320  0.503680  0.601160  1.0  -0.5669
  O  O902  1  0.043620  0.435900  0.587330  1.0  -0.6519
  O  O903  1  0.899330  0.495020  0.448370  1.0  -0.5768
  O  O904  1  0.909250  0.561900  0.455880  1.0  -0.5834
  O  O905  1  0.994740  0.449020  0.399630  1.0  -0.5601
  O  O906  1  0.065360  0.455180  0.413060  1.0  -0.6863
  O  O907  1  0.949520  0.399910  0.494840  1.0  -0.5639
  O  O908  1  0.953630  0.413790  0.565210  1.0  -0.6852
  O  O909  1  0.899290  0.449560  0.494380  1.0  -0.5716
  O  O910  1  0.912070  0.454530  0.564460  1.0  -0.6739
  O  O911  1  0.995750  0.399830  0.449520  1.0  -0.5625
  O  O912  1  0.065540  0.413850  0.454270  1.0  -0.6886
  O  O913  1  0.948660  0.494380  0.399370  1.0  -0.5539
  O  O914  1  0.955200  0.564970  0.411800  1.0  -0.6343
  O  O915  1  0.100480  0.504050  0.548910  1.0  -0.565
  O  O916  1  0.086950  0.435980  0.544030  1.0  -0.6524
  O  O917  1  0.002450  0.549540  0.601010  1.0  -0.5585
  O  O918  1  0.933910  0.541930  0.586620  1.0  -0.6487
  O  O919  1  0.048220  0.601780  0.503120  1.0  -0.5563
  O  O920  1  0.042920  0.588060  0.435090  1.0  -0.6468
  O  O921  1  0.011680  0.512390  0.441790  1.0  -0.8696
  O  O922  1  0.941470  0.512520  0.511440  1.0  -0.8238
  O  O923  1  0.011700  0.442590  0.511950  1.0  -0.8493
  O  O924  1  0.986760  0.558750  0.487390  1.0  -0.7654
  O  O925  1  0.057910  0.488470  0.487680  1.0  -0.7724
  O  O926  1  0.987160  0.488260  0.558070  1.0  -0.7738
  O  O927  1  0.035510  0.536910  0.536180  1.0  -0.7726
  O  O928  1  0.962960  0.463350  0.462820  1.0  -0.8382
  O  O929  1  0.601420  0.049100  0.504220  1.0  -0.5677
  O  O930  1  0.588030  0.043690  0.435960  1.0  -0.6371
  O  O931  1  0.503580  0.101200  0.549330  1.0  -0.5911
  O  O932  1  0.439330  0.091070  0.547020  1.0  -0.5716
  O  O933  1  0.549860  0.002570  0.601530  1.0  -0.5616
  O  O934  1  0.543980  0.934750  0.587450  1.0  -0.6259
  O  O935  1  0.399950  0.995640  0.448730  1.0  -0.575
  O  O936  1  0.410420  0.062570  0.457310  1.0  -0.5803
  O  O937  1  0.494720  0.949600  0.399780  1.0  -0.5587
  O  O938  1  0.565640  0.954740  0.413460  1.0  -0.6883
  O  O939  1  0.449680  0.899790  0.495740  1.0  -0.5683
  O  O940  1  0.452850  0.913140  0.565030  1.0  -0.68
  O  O941  1  0.399680  0.949920  0.494470  1.0  -0.5601
  O  O942  1  0.412990  0.955600  0.565440  1.0  -0.6755
  O  O943  1  0.495560  0.899610  0.450060  1.0  -0.5682
  O  O944  1  0.564900  0.912690  0.453620  1.0  -0.6774
  O  O945  1  0.449060  0.995380  0.399850  1.0  -0.5598
  O  O946  1  0.456190  0.065560  0.412860  1.0  -0.65
  O  O947  1  0.601310  0.003030  0.549910  1.0  -0.5595
  O  O948  1  0.587470  0.934800  0.543680  1.0  -0.634
  O  O949  1  0.504400  0.048840  0.601630  1.0  -0.5643
  O  O950  1  0.435340  0.041320  0.587620  1.0  -0.6495
  O  O951  1  0.549460  0.101040  0.503440  1.0  -0.5655
  O  O952  1  0.544820  0.087200  0.435640  1.0  -0.6448
  O  O953  1  0.512370  0.012190  0.442360  1.0  -0.8595
  O  O954  1  0.442260  0.012620  0.512130  1.0  -0.8605
  O  O955  1  0.511980  0.942200  0.512240  1.0  -0.8317
  O  O956  1  0.488060  0.058450  0.488240  1.0  -0.7593
  O  O957  1  0.558610  0.987550  0.488030  1.0  -0.7666
  O  O958  1  0.488040  0.987650  0.558640  1.0  -0.7775
  O  O959  1  0.536630  0.036050  0.536750  1.0  -0.7732
  O  O960  1  0.463210  0.963480  0.463240  1.0  -0.8412
  O  O961  1  0.503470  0.601010  0.049200  1.0  -0.5702
  O  O962  1  0.435310  0.587460  0.043980  1.0  -0.6422
  O  O963  1  0.548950  0.503120  0.101130  1.0  -0.5931
  O  O964  1  0.545980  0.438820  0.090950  1.0  -0.5849
  O  O965  1  0.601050  0.549290  0.002660  1.0  -0.5665
  O  O966  1  0.587040  0.544010  0.934880  1.0  -0.6344
  O  O967  1  0.448730  0.399600  0.994920  1.0  -0.572
  O  O968  1  0.456520  0.409930  0.061980  1.0  -0.592
  O  O969  1  0.399410  0.495050  0.949160  1.0  -0.5739
  O  O970  1  0.412820  0.565320  0.954130  1.0  -0.6792
  O  O971  1  0.494870  0.449220  0.899820  1.0  -0.5608
  O  O972  1  0.565090  0.453790  0.913230  1.0  -0.6776
  O  O973  1  0.494610  0.399600  0.949340  1.0  -0.5747
  O  O974  1  0.564930  0.412750  0.954730  1.0  -0.696
  O  O975  1  0.449210  0.495090  0.899720  1.0  -0.5603
  O  O976  1  0.454200  0.565380  0.913060  1.0  -0.6888
  O  O977  1  0.399290  0.449200  0.994760  1.0  -0.5593
  O  O978  1  0.412050  0.455310  0.064830  1.0  -0.6482
  O  O979  1  0.549210  0.601050  0.003180  1.0  -0.566
  O  O980  1  0.543410  0.587380  0.935010  1.0  -0.6434
  O  O981  1  0.601070  0.503690  0.048790  1.0  -0.5591
  O  O982  1  0.586970  0.434850  0.041320  1.0  -0.6442
  O  O983  1  0.503040  0.548970  0.101070  1.0  -0.5614
  O  O984  1  0.435140  0.544040  0.087310  1.0  -0.6402
  O  O985  1  0.441910  0.512090  0.011990  1.0  -0.8193
  O  O986  1  0.511660  0.441980  0.012270  1.0  -0.8627
  O  O987  1  0.511860  0.511930  0.942000  1.0  -0.8523
  O  O988  1  0.487600  0.487540  0.058270  1.0  -0.7543
  O  O989  1  0.487560  0.558380  0.987680  1.0  -0.7678
  O  O990  1  0.558180  0.487810  0.987650  1.0  -0.7878
  O  O991  1  0.536220  0.536230  0.036110  1.0  -0.7714
  O  O992  1  0.462910  0.463150  0.963140  1.0  -0.8373
  O  O993  1  0.800330  0.350840  0.495930  1.0  -0.5623
  O  O994  1  0.795190  0.337440  0.563850  1.0  -0.6535
  O  O995  1  0.851960  0.252730  0.450250  1.0  -0.5914
  O  O996  1  0.841690  0.188400  0.453640  1.0  -0.5772
  O  O997  1  0.754120  0.299160  0.398260  1.0  -0.5657
  O  O998  1  0.686240  0.293950  0.411810  1.0  -0.6484
  O  O999  1  0.745970  0.149820  0.551270  1.0  -0.572
  O  O1000  1  0.812760  0.159900  0.542940  1.0  -0.5819
  O  O1001  1  0.700240  0.245470  0.599860  1.0  -0.5631
  O  O1002  1  0.704770  0.315540  0.586180  1.0  -0.6726
  O  O1003  1  0.650290  0.199590  0.504070  1.0  -0.569
  O  O1004  1  0.663700  0.202730  0.434720  1.0  -0.68
  O  O1005  1  0.700310  0.149570  0.505360  1.0  -0.559
  O  O1006  1  0.706060  0.162800  0.434340  1.0  -0.6792
  O  O1007  1  0.650280  0.245470  0.549720  1.0  -0.5657
  O  O1008  1  0.663940  0.315550  0.544830  1.0  -0.6873
  O  O1009  1  0.745950  0.199610  0.600080  1.0  -0.5631
  O  O1010  1  0.815940  0.205690  0.587130  1.0  -0.6332
  O  O1011  1  0.754360  0.350930  0.450150  1.0  -0.5633
  O  O1012  1  0.685990  0.337180  0.455560  1.0  -0.6542
  O  O1013  1  0.800050  0.253350  0.398380  1.0  -0.5578
  O  O1014  1  0.791950  0.184520  0.412450  1.0  -0.6432
  O  O1015  1  0.851960  0.298720  0.496030  1.0  -0.5557
  O  O1016  1  0.838170  0.293710  0.564210  1.0  -0.654
  O  O1017  1  0.762800  0.262190  0.557330  1.0  -0.8237
  O  O1018  1  0.763080  0.191820  0.487820  1.0  -0.8641
  O  O1019  1  0.692960  0.261870  0.487280  1.0  -0.8474
  O  O1020  1  0.809240  0.237420  0.511720  1.0  -0.7776
  O  O1021  1  0.738660  0.308350  0.511590  1.0  -0.768
  O  O1022  1  0.738490  0.237590  0.441180  1.0  -0.7895
  O  O1023  1  0.787070  0.285970  0.463090  1.0  -0.7691
  O  O1024  1  0.713960  0.213190  0.536510  1.0  -0.8508
  O  O1025  1  0.852060  0.754460  0.951020  1.0  -0.5497
  O  O1026  1  0.838320  0.686280  0.955610  1.0  -0.6384
  O  O1027  1  0.754680  0.800150  0.898220  1.0  -0.5876
  O  O1028  1  0.690180  0.797070  0.908050  1.0  -0.5918
  O  O1029  1  0.800170  0.852030  0.997120  1.0  -0.5694
  O  O1030  1  0.794250  0.837910  0.064910  1.0  -0.6367
  O  O1031  1  0.650470  0.699620  0.004010  1.0  -0.5599
  O  O1032  1  0.660910  0.708080  0.936890  1.0  -0.5918
  O  O1033  1  0.745810  0.650130  0.049430  1.0  -0.5667
  O  O1034  1  0.815850  0.663750  0.045560  1.0  -0.6693
  O  O1035  1  0.699640  0.745890  0.099420  1.0  -0.5623
  O  O1036  1  0.704400  0.816230  0.085750  1.0  -0.6895
  O  O1037  1  0.650120  0.745750  0.049440  1.0  -0.569
  O  O1038  1  0.663170  0.815740  0.044580  1.0  -0.6932
  O  O1039  1  0.745370  0.700070  0.099600  1.0  -0.558
  O  O1040  1  0.815660  0.704910  0.086550  1.0  -0.6811
  O  O1041  1  0.700110  0.650180  0.003570  1.0  -0.5692
  O  O1042  1  0.706110  0.663290  0.934040  1.0  -0.6349
  O  O1043  1  0.851820  0.800200  0.997030  1.0  -0.5601
  O  O1044  1  0.837750  0.794350  0.064960  1.0  -0.6388
  O  O1045  1  0.754830  0.852140  0.950740  1.0  -0.5571
  O  O1046  1  0.686030  0.838180  0.957600  1.0  -0.6435
  O  O1047  1  0.800690  0.754510  0.898600  1.0  -0.561
  O  O1048  1  0.795250  0.686510  0.911960  1.0  -0.6394
  O  O1049  1  0.762900  0.693020  0.987280  1.0  -0.822
  O  O1050  1  0.692890  0.762780  0.986780  1.0  -0.8672
  O  O1051  1  0.762410  0.762730  0.057470  1.0  -0.8529
  O  O1052  1  0.738650  0.738730  0.940890  1.0  -0.7551
  O  O1053  1  0.809060  0.738540  0.011960  1.0  -0.7681
  O  O1054  1  0.738520  0.809170  0.011680  1.0  -0.7788
  O  O1055  1  0.787240  0.787310  0.963520  1.0  -0.7766
  O  O1056  1  0.713690  0.713850  0.035970  1.0  -0.8404
  O  O1057  1  0.102460  0.199940  0.246190  1.0  -0.574
  O  O1058  1  0.088660  0.204890  0.313990  1.0  -0.6404
  O  O1059  1  0.004050  0.147960  0.200490  1.0  -0.5949
  O  O1060  1  0.939920  0.158730  0.202630  1.0  -0.5705
  O  O1061  1  0.051290  0.245930  0.148190  1.0  -0.5679
  O  O1062  1  0.045830  0.313890  0.161800  1.0  -0.6424
  O  O1063  1  0.901060  0.254360  0.300030  1.0  -0.5723
  O  O1064  1  0.911210  0.187380  0.292020  1.0  -0.5935
  O  O1065  1  0.996750  0.299590  0.349780  1.0  -0.5642
  O  O1066  1  0.066880  0.295150  0.336120  1.0  -0.6832
  O  O1067  1  0.950510  0.349480  0.254630  1.0  -0.5628
  O  O1068  1  0.955970  0.336380  0.183980  1.0  -0.6736
  O  O1069  1  0.901010  0.299760  0.253860  1.0  -0.5667
  O  O1070  1  0.914600  0.295190  0.183840  1.0  -0.6855
  O  O1071  1  0.996170  0.349430  0.300500  1.0  -0.5559
  O  O1072  1  0.066730  0.336320  0.294770  1.0  -0.6844
  O  O1073  1  0.950470  0.254300  0.349480  1.0  -0.5594
  O  O1074  1  0.956470  0.184350  0.336660  1.0  -0.6496
  O  O1075  1  0.102730  0.245930  0.200530  1.0  -0.5707
  O  O1076  1  0.088980  0.314060  0.205540  1.0  -0.6363
  O  O1077  1  0.005530  0.200080  0.148010  1.0  -0.5689
  O  O1078  1  0.936700  0.208230  0.161600  1.0  -0.652
  O  O1079  1  0.049890  0.147960  0.246400  1.0  -0.5647
  O  O1080  1  0.045100  0.162020  0.314220  1.0  -0.6327
  O  O1081  1  0.013390  0.237260  0.307130  1.0  -0.8203
  O  O1082  1  0.943510  0.237170  0.237130  1.0  -0.8653
  O  O1083  1  0.013590  0.307260  0.237190  1.0  -0.8525
  O  O1084  1  0.988870  0.190960  0.261320  1.0  -0.7774
  O  O1085  1  0.059800  0.261440  0.261620  1.0  -0.7718
  O  O1086  1  0.989450  0.261660  0.190810  1.0  -0.7802
  O  O1087  1  0.037760  0.212940  0.212920  1.0  -0.7721
  O  O1088  1  0.964620  0.286160  0.286010  1.0  -0.8386
  O  O1089  1  0.754350  0.951310  0.851760  1.0  -0.5625
  O  O1090  1  0.686090  0.955920  0.838020  1.0  -0.6495
  O  O1091  1  0.799790  0.898590  0.753740  1.0  -0.5891
  O  O1092  1  0.796480  0.908650  0.689380  1.0  -0.574
  O  O1093  1  0.851760  0.996590  0.800010  1.0  -0.5683
  O  O1094  1  0.838150  0.064750  0.793570  1.0  -0.6416
  O  O1095  1  0.699190  0.004680  0.650090  1.0  -0.5676
  O  O1096  1  0.707520  0.937490  0.660520  1.0  -0.5912
  O  O1097  1  0.649950  0.050180  0.745400  1.0  -0.5676
  O  O1098  1  0.663770  0.045540  0.815830  1.0  -0.6795
  O  O1099  1  0.745950  0.099990  0.699750  1.0  -0.568
  O  O1100  1  0.815770  0.086350  0.703670  1.0  -0.6705
  O  O1101  1  0.745020  0.050310  0.650000  1.0  -0.5713
  O  O1102  1  0.815530  0.044610  0.662950  1.0  -0.684
  O  O1103  1  0.700080  0.100100  0.745430  1.0  -0.5656
  O  O1104  1  0.704530  0.086980  0.815380  1.0  -0.6711
  O  O1105  1  0.649840  0.004420  0.699700  1.0  -0.569
  O  O1106  1  0.662810  0.934690  0.705780  1.0  -0.6403
  O  O1107  1  0.800050  0.997360  0.851530  1.0  -0.5671
  O  O1108  1  0.794630  0.065180  0.837280  1.0  -0.6255
  O  O1109  1  0.851660  0.950450  0.754430  1.0  -0.5549
  O  O1110  1  0.837810  0.958350  0.685470  1.0  -0.6498
  O  O1111  1  0.754160  0.898800  0.799870  1.0  -0.5605
  O  O1112  1  0.686230  0.912310  0.795020  1.0  -0.6393
  O  O1113  1  0.692710  0.987700  0.762600  1.0  -0.8531
  O  O1114  1  0.762350  0.987300  0.692420  1.0  -0.8604
  O  O1115  1  0.762590  0.057700  0.762190  1.0  -0.8197
  O  O1116  1  0.738340  0.941410  0.738190  1.0  -0.7699
  O  O1117  1  0.738440  0.012250  0.808730  1.0  -0.7663
  O  O1118  1  0.808960  0.012020  0.738080  1.0  -0.7722
  O  O1119  1  0.787010  0.963730  0.786740  1.0  -0.7725
  O  O1120  1  0.713550  0.036500  0.713450  1.0  -0.8403
  O  O1121  1  0.746410  0.601260  0.200000  1.0  -0.567
  O  O1122  1  0.814420  0.587750  0.205040  1.0  -0.6643
  O  O1123  1  0.700810  0.503370  0.147980  1.0  -0.5914
  O  O1124  1  0.703960  0.439000  0.158190  1.0  -0.5814
  O  O1125  1  0.648650  0.549390  0.246380  1.0  -0.5694
  O  O1126  1  0.662570  0.544220  0.314140  1.0  -0.6478
  O  O1127  1  0.801120  0.399960  0.253790  1.0  -0.5624
  O  O1128  1  0.793400  0.410410  0.186980  1.0  -0.5738
  O  O1129  1  0.850140  0.495190  0.300170  1.0  -0.5636
  O  O1130  1  0.836740  0.565790  0.294780  1.0  -0.681
  O  O1131  1  0.755070  0.449550  0.349440  1.0  -0.5665
  O  O1132  1  0.684770  0.453940  0.336000  1.0  -0.6813
  O  O1133  1  0.755240  0.399800  0.299480  1.0  -0.5697
  O  O1134  1  0.684960  0.412930  0.294620  1.0  -0.6808
  O  O1135  1  0.800460  0.495700  0.349610  1.0  -0.5657
  O  O1136  1  0.795630  0.565710  0.336140  1.0  -0.6768
  O  O1137  1  0.850190  0.449100  0.254720  1.0  -0.559
  O  O1138  1  0.837730  0.456230  0.184250  1.0  -0.6314
  O  O1139  1  0.700590  0.601260  0.245940  1.0  -0.5667
  O  O1140  1  0.706130  0.587570  0.314100  1.0  -0.6536
  O  O1141  1  0.648700  0.503760  0.200280  1.0  -0.5656
  O  O1142  1  0.662850  0.435030  0.207710  1.0  -0.6518
  O  O1143  1  0.746660  0.549280  0.148040  1.0  -0.5586
  O  O1144  1  0.814650  0.544230  0.161870  1.0  -0.6543
  O  O1145  1  0.807860  0.512440  0.237190  1.0  -0.8272
  O  O1146  1  0.738140  0.442280  0.236880  1.0  -0.8629
  O  O1147  1  0.737840  0.512200  0.307150  1.0  -0.8528
  O  O1148  1  0.762150  0.487830  0.190790  1.0  -0.7602
  O  O1149  1  0.762110  0.558650  0.261450  1.0  -0.7666
  O  O1150  1  0.691610  0.487980  0.261480  1.0  -0.7848
  O  O1151  1  0.713510  0.536460  0.212990  1.0  -0.7717
  O  O1152  1  0.786850  0.463500  0.285980  1.0  -0.8396
  O  O1153  1  0.601580  0.200610  0.746640  1.0  -0.5592
  O  O1154  1  0.587860  0.205830  0.814720  1.0  -0.6385
  O  O1155  1  0.504180  0.147980  0.701090  1.0  -0.5902
  O  O1156  1  0.439680  0.157830  0.704330  1.0  -0.5808
  O  O1157  1  0.549610  0.246520  0.648660  1.0  -0.5687
  O  O1158  1  0.544330  0.314220  0.662370  1.0  -0.6599
  O  O1159  1  0.400070  0.254570  0.800850  1.0  -0.5669
  O  O1160  1  0.410460  0.187410  0.793350  1.0  -0.5789
  O  O1161  1  0.495690  0.300500  0.850080  1.0  -0.5633
  O  O1162  1  0.565330  0.296430  0.836820  1.0  -0.6746
  O  O1163  1  0.449080  0.349360  0.754340  1.0  -0.5589
  O  O1164  1  0.454370  0.335480  0.683860  1.0  -0.6885
  O  O1165  1  0.399750  0.299650  0.754380  1.0  -0.5667
  O  O1166  1  0.412980  0.294260  0.684460  1.0  -0.6921
  O  O1167  1  0.494940  0.349790  0.800030  1.0  -0.5572
  O  O1168  1  0.565800  0.336450  0.794460  1.0  -0.687
  O  O1169  1  0.449670  0.254970  0.850270  1.0  -0.5663
  O  O1170  1  0.455750  0.184930  0.837970  1.0  -0.6427
  O  O1171  1  0.601460  0.246380  0.700640  1.0  -0.5628
  O  O1172  1  0.587530  0.314480  0.706000  1.0  -0.6522
  O  O1173  1  0.504170  0.200230  0.648830  1.0  -0.5637
  O  O1174  1  0.435440  0.207090  0.662900  1.0  -0.6525
  O  O1175  1  0.550050  0.148400  0.746960  1.0  -0.5712
  O  O1176  1  0.544520  0.162350  0.814870  1.0  -0.6386
  O  O1177  1  0.512540  0.237700  0.807750  1.0  -0.8222
  O  O1178  1  0.442470  0.236840  0.737990  1.0  -0.8659
  O  O1179  1  0.512130  0.307420  0.737500  1.0  -0.8507
  O  O1180  1  0.488120  0.191040  0.762360  1.0  -0.7585
  O  O1181  1  0.558750  0.261860  0.762090  1.0  -0.7689
  O  O1182  1  0.488200  0.261320  0.691430  1.0  -0.782
  O  O1183  1  0.536790  0.213190  0.713630  1.0  -0.7752
  O  O1184  1  0.463460  0.286310  0.786480  1.0  -0.8381
  O  O1185  1  0.350880  0.753770  0.450350  1.0  -0.567
  O  O1186  1  0.336750  0.686010  0.454720  1.0  -0.6377
  O  O1187  1  0.252810  0.800270  0.398180  1.0  -0.5877
  O  O1188  1  0.188560  0.797540  0.408580  1.0  -0.5816
  O  O1189  1  0.300000  0.851840  0.496020  1.0  -0.5679
  O  O1190  1  0.294000  0.838480  0.563950  1.0  -0.6453
  O  O1191  1  0.149200  0.700260  0.504060  1.0  -0.5633
  O  O1192  1  0.159570  0.708140  0.437270  1.0  -0.5738
  O  O1193  1  0.244960  0.650430  0.549620  1.0  -0.567
  O  O1194  1  0.314810  0.663810  0.545410  1.0  -0.6753
  O  O1195  1  0.199350  0.746490  0.599790  1.0  -0.5658
  O  O1196  1  0.203400  0.816170  0.586370  1.0  -0.6738
  O  O1197  1  0.149200  0.746250  0.549620  1.0  -0.5585
  O  O1198  1  0.162980  0.816580  0.544600  1.0  -0.685
  O  O1199  1  0.244940  0.700550  0.599740  1.0  -0.558
  O  O1200  1  0.315190  0.705260  0.586040  1.0  -0.691
  O  O1201  1  0.198950  0.650570  0.504080  1.0  -0.5613
  O  O1202  1  0.204730  0.663590  0.434270  1.0  -0.6382
  O  O1203  1  0.351170  0.799340  0.496540  1.0  -0.5621
  O  O1204  1  0.336960  0.794520  0.564570  1.0  -0.6545
  O  O1205  1  0.254190  0.852100  0.450100  1.0  -0.5604
  O  O1206  1  0.185140  0.838650  0.458330  1.0  -0.661
  O  O1207  1  0.298660  0.754370  0.398130  1.0  -0.565
  O  O1208  1  0.293230  0.686290  0.411730  1.0  -0.6374
  O  O1209  1  0.261670  0.693120  0.487260  1.0  -0.8173
  O  O1210  1  0.191840  0.763090  0.487070  1.0  -0.8671
  O  O1211  1  0.261770  0.763020  0.557260  1.0  -0.8505
  O  O1212  1  0.237210  0.738930  0.440940  1.0  -0.7764
  O  O1213  1  0.308060  0.738520  0.511490  1.0  -0.7687
  O  O1214  1  0.237790  0.809430  0.511720  1.0  -0.7824
  O  O1215  1  0.286160  0.787240  0.463130  1.0  -0.772
  O  O1216  1  0.212740  0.714140  0.536210  1.0  -0.8564
  O  O1217  1  0.351080  0.253930  0.950900  1.0  -0.5671
  O  O1218  1  0.337560  0.185780  0.956090  1.0  -0.6392
  O  O1219  1  0.253120  0.299530  0.899100  1.0  -0.5868
  O  O1220  1  0.188710  0.296010  0.909360  1.0  -0.5749
  O  O1221  1  0.299580  0.351450  0.996910  1.0  -0.5637
  O  O1222  1  0.294010  0.337840  0.064970  1.0  -0.6272
  O  O1223  1  0.149760  0.199160  0.005410  1.0  -0.5745
  O  O1224  1  0.160050  0.206920  0.938450  1.0  -0.5762
  O  O1225  1  0.245470  0.149780  0.050990  1.0  -0.568
  O  O1226  1  0.315590  0.163420  0.046250  1.0  -0.6521
  O  O1227  1  0.199920  0.245860  0.100830  1.0  -0.5655
  O  O1228  1  0.203700  0.315600  0.087070  1.0  -0.6713
  O  O1229  1  0.149720  0.245120  0.050900  1.0  -0.568
  O  O1230  1  0.162970  0.315450  0.045570  1.0  -0.6824
  O  O1231  1  0.245730  0.200130  0.100900  1.0  -0.5644
  O  O1232  1  0.315700  0.204670  0.087140  1.0  -0.6829
  O  O1233  1  0.199580  0.149620  0.005420  1.0  -0.5701
  O  O1234  1  0.205300  0.162440  0.935590  1.0  -0.6381
  O  O1235  1  0.351150  0.299720  0.996880  1.0  -0.5574
  O  O1236  1  0.337500  0.294200  0.065070  1.0  -0.6373
  O  O1237  1  0.253840  0.351370  0.950910  1.0  -0.5665
  O  O1238  1  0.184960  0.337470  0.959040  1.0  -0.6586
  O  O1239  1  0.299070  0.253710  0.899130  1.0  -0.5558
  O  O1240  1  0.293960  0.185620  0.912860  1.0  -0.639
  O  O1241  1  0.262260  0.192420  0.988330  1.0  -0.8175
  O  O1242  1  0.192110  0.262080  0.988080  1.0  -0.8669
  O  O1243  1  0.262160  0.262440  0.058170  1.0  -0.8508
  O  O1244  1  0.237590  0.238000  0.941980  1.0  -0.755
  O  O1245  1  0.308510  0.238100  0.012490  1.0  -0.7715
  O  O1246  1  0.237890  0.308680  0.012550  1.0  -0.7874
  O  O1247  1  0.286240  0.286630  0.964050  1.0  -0.7689
  O  O1248  1  0.213290  0.213330  0.037320  1.0  -0.8447
