# generated using pymatgen
data_Zr3H26(C21O11)2
_symmetry_space_group_name_H-M   'P 1'
_cell_length_a   26.85140000
_cell_length_b   26.85140000
_cell_length_c   26.85140000
_cell_angle_alpha   90.00000000
_cell_angle_beta   90.00000000
_cell_angle_gamma   90.00000000
_symmetry_Int_Tables_number   1
_chemical_formula_structural   Zr3H26(C21O11)2
_chemical_formula_sum   'Zr24 H208 C336 O176'
_cell_volume   19359.79715738
_cell_formula_units_Z   8
loop_
 _symmetry_equiv_pos_site_id
 _symmetry_equiv_pos_as_xyz
  1  'x, y, z'
loop_
 _atom_site_type_symbol
 _atom_site_label
 _atom_site_symmetry_multiplicity
 _atom_site_fract_x
 _atom_site_fract_y
 _atom_site_fract_z
 _atom_site_occupancy
 _atom_site_charge
  Zr  Zr1  1  0.000030  0.087610  0.000780  1.0  1.8013
  Zr  Zr2  1  0.911670  0.999980  0.999700  1.0  1.8072
  Zr  Zr3  1  0.088030  0.999250  0.000120  1.0  1.8028
  Zr  Zr4  1  0.000020  0.000500  0.911430  1.0  1.8083
  Zr  Zr5  1  0.999810  0.998660  0.088370  1.0  1.8177
  Zr  Zr6  1  0.999370  0.911420  0.999200  1.0  1.8054
  Zr  Zr7  1  0.499610  0.587350  0.000670  1.0  1.8061
  Zr  Zr8  1  0.411540  0.498990  0.000010  1.0  1.7993
  Zr  Zr9  1  0.587650  0.498700  0.999570  1.0  1.7957
  Zr  Zr10  1  0.499420  0.499910  0.911340  1.0  1.8039
  Zr  Zr11  1  0.499820  0.498120  0.088260  1.0  1.8126
  Zr  Zr12  1  0.499410  0.410920  0.999180  1.0  1.796
  Zr  Zr13  1  0.999950  0.588400  0.499530  1.0  1.7934
  Zr  Zr14  1  0.911560  0.500650  0.499670  1.0  1.7991
  Zr  Zr15  1  0.087840  0.500240  0.499770  1.0  1.796
  Zr  Zr16  1  0.999750  0.500380  0.411390  1.0  1.8101
  Zr  Zr17  1  0.999660  0.500410  0.588160  1.0  1.8117
  Zr  Zr18  1  0.999270  0.411930  0.499540  1.0  1.8003
  Zr  Zr19  1  0.499250  0.087760  0.498990  1.0  1.8016
  Zr  Zr20  1  0.411850  0.998830  0.499820  1.0  1.7982
  Zr  Zr21  1  0.588130  0.999790  0.499120  1.0  1.7931
  Zr  Zr22  1  0.499710  0.999440  0.411140  1.0  1.8014
  Zr  Zr23  1  0.500440  0.000040  0.587930  1.0  1.8113
  Zr  Zr24  1  0.500260  0.911280  0.499570  1.0  1.7994
  H  H25  1  0.933870  0.066640  0.934120  1.0  0.3492
  H  H26  1  0.066250  0.065060  0.066660  1.0  0.3647
  H  H27  1  0.065720  0.933550  0.933380  1.0  0.3654
  H  H28  1  0.933090  0.933200  0.065540  1.0  0.36
  H  H29  1  0.433400  0.565610  0.934040  1.0  0.3624
  H  H30  1  0.565970  0.564280  0.066490  1.0  0.3616
  H  H31  1  0.565230  0.433160  0.932760  1.0  0.3731
  H  H32  1  0.433440  0.432440  0.065980  1.0  0.3586
  H  H33  1  0.933770  0.566930  0.433390  1.0  0.3653
  H  H34  1  0.066080  0.566500  0.565720  1.0  0.351
  H  H35  1  0.065580  0.433820  0.433620  1.0  0.364
  H  H36  1  0.933320  0.434380  0.566130  1.0  0.3566
  H  H37  1  0.433330  0.065260  0.433070  1.0  0.3542
  H  H38  1  0.566100  0.066500  0.564800  1.0  0.3557
  H  H39  1  0.565860  0.933280  0.433050  1.0  0.3584
  H  H40  1  0.434620  0.933320  0.566540  1.0  0.3699
  H  H41  1  0.215650  0.103130  0.006260  1.0  0.1318
  H  H42  1  0.280480  0.166570  0.004800  1.0  0.1312
  H  H43  1  0.169540  0.280660  0.985930  1.0  0.1272
  H  H44  1  0.316130  0.232090  0.051400  1.0  0.1262
  H  H45  1  0.299610  0.381900  0.944850  1.0  0.1171
  H  H46  1  0.235550  0.317310  0.941880  1.0  0.1292
  H  H47  1  0.087450  0.257040  0.979460  1.0  0.3458
  H  H48  1  0.406630  0.326210  0.073290  1.0  0.2221
  H  H49  1  0.215770  0.603160  0.500110  1.0  0.1252
  H  H50  1  0.280930  0.666280  0.499500  1.0  0.1319
  H  H51  1  0.170140  0.781820  0.493590  1.0  0.125
  H  H52  1  0.318770  0.729740  0.549050  1.0  0.1256
  H  H53  1  0.298680  0.883610  0.449100  1.0  0.1247
  H  H54  1  0.234290  0.819410  0.446320  1.0  0.1301
  H  H55  1  0.087640  0.759230  0.491040  1.0  0.3002
  H  H56  1  0.409740  0.823040  0.572080  1.0  0.2335
  H  H57  1  0.881990  0.799610  0.050150  1.0  0.1241
  H  H58  1  0.817700  0.735990  0.052510  1.0  0.1276
  H  H59  1  0.734400  0.815810  0.940580  1.0  0.122
  H  H60  1  0.779490  0.669940  0.020500  1.0  0.1294
  H  H61  1  0.605670  0.711800  0.975660  1.0  0.123
  H  H62  1  0.668510  0.776870  0.975140  1.0  0.126
  H  H63  1  0.766030  0.891120  0.913130  1.0  0.281
  H  H64  1  0.692950  0.579670  0.054920  1.0  0.2185
  H  H65  1  0.894960  0.285110  0.486070  1.0  0.1317
  H  H66  1  0.831430  0.220290  0.485790  1.0  0.132
  H  H67  1  0.717450  0.330850  0.507090  1.0  0.1258
  H  H68  1  0.764960  0.184640  0.439600  1.0  0.1278
  H  H69  1  0.617600  0.199830  0.549530  1.0  0.128
  H  H70  1  0.681710  0.264210  0.551280  1.0  0.1332
  H  H71  1  0.741110  0.412830  0.515000  1.0  0.3394
  H  H72  1  0.670880  0.093130  0.419950  1.0  0.1993
  H  H73  1  0.784210  0.103260  0.999540  1.0  0.1219
  H  H74  1  0.719260  0.166550  0.999880  1.0  0.1347
  H  H75  1  0.830360  0.281740  0.007600  1.0  0.1298
  H  H76  1  0.681840  0.229840  0.950480  1.0  0.1292
  H  H77  1  0.701140  0.383890  0.050230  1.0  0.1186
  H  H78  1  0.765690  0.319900  0.053400  1.0  0.1327
  H  H79  1  0.912850  0.258720  0.011030  1.0  0.3224
  H  H80  1  0.590590  0.322800  0.927080  1.0  0.2283
  H  H81  1  0.784560  0.604550  0.493150  1.0  0.1259
  H  H82  1  0.719760  0.667930  0.493950  1.0  0.135
  H  H83  1  0.830530  0.782100  0.513370  1.0  0.1236
  H  H84  1  0.684580  0.733500  0.446720  1.0  0.1284
  H  H85  1  0.699730  0.882750  0.554240  1.0  0.1268
  H  H86  1  0.764020  0.818400  0.557300  1.0  0.1328
  H  H87  1  0.912620  0.758480  0.520410  1.0  0.3499
  H  H88  1  0.593660  0.827330  0.424820  1.0  0.2196
  H  H89  1  0.109850  0.291950  0.463400  1.0  0.1306
  H  H90  1  0.173910  0.227910  0.461870  1.0  0.1305
  H  H91  1  0.272980  0.324140  0.543620  1.0  0.1225
  H  H92  1  0.216390  0.168880  0.505740  1.0  0.1293
  H  H93  1  0.394950  0.214000  0.499410  1.0  0.1265
  H  H94  1  0.332380  0.279340  0.499580  1.0  0.1281
  H  H95  1  0.244880  0.402870  0.564260  1.0  0.3364
  H  H96  1  0.290580  0.068900  0.476380  1.0  0.1944
  H  H97  1  0.121270  0.803030  0.942090  1.0  0.1263
  H  H98  1  0.186060  0.739570  0.940250  1.0  0.128
  H  H99  1  0.259300  0.810560  0.064400  1.0  0.124
  H  H100  1  0.221200  0.670910  0.972430  1.0  0.1271
  H  H101  1  0.391690  0.710570  0.030410  1.0  0.1233
  H  H102  1  0.328460  0.775460  0.030390  1.0  0.1161
  H  H103  1  0.224390  0.882900  0.095540  1.0  0.2604
  H  H104  1  0.310400  0.581790  0.940420  1.0  0.2286
  H  H105  1  0.958710  0.206180  0.111080  1.0  0.1164
  H  H106  1  0.956350  0.270470  0.174940  1.0  0.127
  H  H107  1  0.037060  0.174620  0.275220  1.0  0.1227
  H  H108  1  0.000230  0.329740  0.217570  1.0  0.1287
  H  H109  1  0.992780  0.285030  0.396270  1.0  0.1192
  H  H110  1  0.992300  0.219520  0.333820  1.0  0.131
  H  H111  1  0.058120  0.095850  0.247690  1.0  0.3023
  H  H112  1  0.968800  0.428400  0.290980  1.0  0.2643
  H  H113  1  0.537420  0.388500  0.791950  1.0  0.1286
  H  H114  1  0.538820  0.324280  0.728040  1.0  0.1282
  H  H115  1  0.451430  0.227950  0.822140  1.0  0.1224
  H  H116  1  0.496050  0.282620  0.667720  1.0  0.1314
  H  H117  1  0.495620  0.104260  0.714390  1.0  0.1254
  H  H118  1  0.495060  0.167330  0.779280  1.0  0.1287
  H  H119  1  0.429690  0.256780  0.900330  1.0  0.3486
  H  H120  1  0.530580  0.206930  0.571750  1.0  0.2534
  H  H121  1  0.051570  0.882090  0.799620  1.0  0.1237
  H  H122  1  0.053670  0.817370  0.736380  1.0  0.1237
  H  H123  1  0.938340  0.737070  0.814450  1.0  0.1215
  H  H124  1  0.021100  0.780040  0.669970  1.0  0.13
  H  H125  1  0.973620  0.606980  0.712190  1.0  0.1277
  H  H126  1  0.973070  0.670210  0.776950  1.0  0.1259
  H  H127  1  0.910330  0.769650  0.889220  1.0  0.3445
  H  H128  1  0.056320  0.692410  0.581410  1.0  0.2069
  H  H129  1  0.455360  0.704280  0.112440  1.0  0.1267
  H  H130  1  0.453080  0.768390  0.176480  1.0  0.1289
  H  H131  1  0.540090  0.675000  0.273830  1.0  0.1229
  H  H132  1  0.496050  0.828960  0.217630  1.0  0.1272
  H  H133  1  0.497230  0.784090  0.396440  1.0  0.1245
  H  H134  1  0.496600  0.718570  0.334020  1.0  0.1285
  H  H135  1  0.562430  0.596860  0.245490  1.0  0.2909
  H  H136  1  0.464250  0.926630  0.292880  1.0  0.2663
  H  H137  1  0.015560  0.894220  0.213970  1.0  0.1255
  H  H138  1  0.015440  0.830820  0.278810  1.0  0.1367
  H  H139  1  0.987980  0.717400  0.168980  1.0  0.1291
  H  H140  1  0.061570  0.763060  0.312300  1.0  0.1282
  H  H141  1  0.946130  0.619440  0.301770  1.0  0.1263
  H  H142  1  0.944130  0.683560  0.237210  1.0  0.1313
  H  H143  1  0.978530  0.741320  0.087160  1.0  0.3436
  H  H144  1  0.080780  0.668430  0.403450  1.0  0.2127
  H  H145  1  0.504500  0.604090  0.784590  1.0  0.129
  H  H146  1  0.504770  0.667680  0.719900  1.0  0.1297
  H  H147  1  0.502470  0.782510  0.831570  1.0  0.1286
  H  H148  1  0.553990  0.730390  0.681000  1.0  0.1271
  H  H149  1  0.457150  0.885820  0.703740  1.0  0.1242
  H  H150  1  0.455340  0.821830  0.768340  1.0  0.1305
  H  H151  1  0.500580  0.759200  0.914030  1.0  0.3346
  H  H152  1  0.576020  0.823320  0.589500  1.0  0.2183
  H  H153  1  0.501370  0.394380  0.214900  1.0  0.1263
  H  H154  1  0.501160  0.330770  0.279540  1.0  0.134
  H  H155  1  0.504180  0.215960  0.167880  1.0  0.1277
  H  H156  1  0.552510  0.268600  0.318230  1.0  0.1258
  H  H157  1  0.455910  0.113040  0.295150  1.0  0.1264
  H  H158  1  0.454450  0.176970  0.230430  1.0  0.1296
  H  H159  1  0.504500  0.239230  0.085370  1.0  0.332
  H  H160  1  0.574710  0.175490  0.409360  1.0  0.2051
  H  H161  1  0.008480  0.104810  0.785010  1.0  0.1282
  H  H162  1  0.008140  0.168280  0.720290  1.0  0.1308
  H  H163  1  0.997680  0.282970  0.831690  1.0  0.1267
  H  H164  1  0.055110  0.232240  0.682170  1.0  0.1257
  H  H165  1  0.953630  0.385000  0.702620  1.0  0.1278
  H  H166  1  0.952200  0.321100  0.767310  1.0  0.1298
  H  H167  1  0.993310  0.259550  0.914050  1.0  0.3024
  H  H168  1  0.075480  0.325200  0.590210  1.0  0.2027
  H  H169  1  0.103520  0.002850  0.216140  1.0  0.1276
  H  H170  1  0.167230  0.002830  0.281120  1.0  0.1346
  H  H171  1  0.281750  0.988700  0.170280  1.0  0.1289
  H  H172  1  0.237770  0.057970  0.311110  1.0  0.1252
  H  H173  1  0.376500  0.936370  0.305230  1.0  0.1204
  H  H174  1  0.312160  0.934860  0.240480  1.0  0.1334
  H  H175  1  0.258720  0.987360  0.087590  1.0  0.3068
  H  H176  1  0.335460  0.078790  0.399180  1.0  0.1903
  H  H177  1  0.395410  0.505890  0.784330  1.0  0.1318
  H  H178  1  0.332060  0.504870  0.719500  1.0  0.1336
  H  H179  1  0.217850  0.485760  0.830280  1.0  0.1291
  H  H180  1  0.266870  0.551350  0.683570  1.0  0.127
  H  H181  1  0.116600  0.445440  0.699770  1.0  0.1272
  H  H182  1  0.180950  0.442330  0.764060  1.0  0.1291
  H  H183  1  0.241450  0.478940  0.912380  1.0  0.3271
  H  H184  1  0.173280  0.573420  0.592580  1.0  0.2154
  H  H185  1  0.896630  0.994250  0.783640  1.0  0.1312
  H  H186  1  0.833230  0.993320  0.718650  1.0  0.1319
  H  H187  1  0.718060  0.001240  0.829640  1.0  0.1266
  H  H188  1  0.772030  0.045380  0.678630  1.0  0.1312
  H  H189  1  0.614020  0.953240  0.703290  1.0  0.1279
  H  H190  1  0.678120  0.950900  0.767860  1.0  0.1319
  H  H191  1  0.740970  0.004040  0.912170  1.0  0.3155
  H  H192  1  0.679210  0.069810  0.587890  1.0  0.2367
  H  H193  1  0.603860  0.505460  0.215130  1.0  0.1215
  H  H194  1  0.667290  0.505550  0.279960  1.0  0.1316
  H  H195  1  0.781380  0.484350  0.169480  1.0  0.1329
  H  H196  1  0.733500  0.553210  0.314540  1.0  0.1276
  H  H197  1  0.881190  0.443450  0.301280  1.0  0.1227
  H  H198  1  0.817030  0.440390  0.236890  1.0  0.1308
  H  H199  1  0.757750  0.476700  0.087410  1.0  0.3289
  H  H200  1  0.827510  0.574940  0.405580  1.0  0.2156
  H  H201  1  0.119520  0.057510  0.801650  1.0  0.1267
  H  H202  1  0.184440  0.060180  0.738560  1.0  0.1262
  H  H203  1  0.264350  0.943950  0.815680  1.0  0.1246
  H  H204  1  0.222140  0.029060  0.671910  1.0  0.1267
  H  H205  1  0.394130  0.976770  0.712790  1.0  0.1243
  H  H206  1  0.331280  0.977310  0.777900  1.0  0.1268
  H  H207  1  0.231680  0.915300  0.890030  1.0  0.3464
  H  H208  1  0.310850  0.061750  0.582930  1.0  0.211
  H  H209  1  0.395930  0.493350  0.215830  1.0  0.127
  H  H210  1  0.332490  0.494640  0.280650  1.0  0.1281
  H  H211  1  0.218260  0.511970  0.169610  1.0  0.122
  H  H212  1  0.267190  0.448010  0.316830  1.0  0.1272
  H  H213  1  0.116850  0.553650  0.299380  1.0  0.1262
  H  H214  1  0.181370  0.556310  0.235270  1.0  0.1305
  H  H215  1  0.241800  0.517960  0.087480  1.0  0.3461
  H  H216  1  0.173310  0.426450  0.407690  1.0  0.2224
  H  H217  1  0.895400  0.991120  0.215190  1.0  0.1316
  H  H218  1  0.831890  0.992210  0.279910  1.0  0.1284
  H  H219  1  0.718360  0.015520  0.169220  1.0  0.124
  H  H220  1  0.765650  0.946120  0.314630  1.0  0.124
  H  H221  1  0.617650  0.055460  0.300200  1.0  0.1276
  H  H222  1  0.682250  0.058530  0.236140  1.0  0.1308
  H  H223  1  0.742330  0.023610  0.087340  1.0  0.3482
  H  H224  1  0.671500  0.924690  0.405390  1.0  0.2071
  H  H225  1  0.616540  0.555470  0.799540  1.0  0.1251
  H  H226  1  0.681190  0.558640  0.736100  1.0  0.125
  H  H227  1  0.765200  0.447310  0.815980  1.0  0.1237
  H  H228  1  0.719720  0.525930  0.670060  1.0  0.1282
  H  H229  1  0.893790  0.483140  0.713110  1.0  0.1271
  H  H230  1  0.830860  0.483450  0.778000  1.0  0.1226
  H  H231  1  0.733630  0.419260  0.891010  1.0  0.3394
  H  H232  1  0.806180  0.559070  0.579290  1.0  0.2061
  C  C233  1  0.114290  0.114010  0.997910  1.0  0.6867
  C  C234  1  0.885790  0.114660  0.002870  1.0  0.6912
  C  C235  1  0.002020  0.115540  0.886540  1.0  0.6942
  C  C236  1  0.998430  0.112660  0.115700  1.0  0.7005
  C  C237  1  0.884890  0.885660  0.996660  1.0  0.6941
  C  C238  1  0.113690  0.884680  0.001840  1.0  0.6958
  C  C239  1  0.885210  0.998730  0.885250  1.0  0.682
  C  C240  1  0.884930  0.001830  0.114050  1.0  0.6971
  C  C241  1  0.114660  0.996760  0.114530  1.0  0.6869
  C  C242  1  0.114840  0.001170  0.886000  1.0  0.6981
  C  C243  1  0.996720  0.886200  0.884700  1.0  0.6939
  C  C244  1  0.001040  0.883850  0.113390  1.0  0.6882
  C  C245  1  0.614430  0.613250  0.999780  1.0  0.6909
  C  C246  1  0.384790  0.613400  0.000900  1.0  0.6935
  C  C247  1  0.501820  0.614950  0.886330  1.0  0.6923
  C  C248  1  0.498080  0.612090  0.115640  1.0  0.7004
  C  C249  1  0.385220  0.384500  0.998640  1.0  0.68
  C  C250  1  0.613650  0.384160  0.999580  1.0  0.6887
  C  C251  1  0.384630  0.497070  0.885630  1.0  0.671
  C  C252  1  0.385060  0.501100  0.114400  1.0  0.7035
  C  C253  1  0.614640  0.495540  0.113920  1.0  0.6855
  C  C254  1  0.614000  0.501160  0.885350  1.0  0.6972
  C  C255  1  0.496250  0.385420  0.884790  1.0  0.6902
  C  C256  1  0.501870  0.383330  0.113310  1.0  0.6847
  C  C257  1  0.114210  0.614920  0.497510  1.0  0.6338
  C  C258  1  0.885820  0.615430  0.502080  1.0  0.6692
  C  C259  1  0.002930  0.614510  0.385010  1.0  0.6922
  C  C260  1  0.999170  0.615170  0.613960  1.0  0.6876
  C  C261  1  0.884420  0.386240  0.497930  1.0  0.6914
  C  C262  1  0.113970  0.385900  0.502120  1.0  0.6837
  C  C263  1  0.885030  0.499510  0.385370  1.0  0.693
  C  C264  1  0.884840  0.504210  0.613940  1.0  0.6894
  C  C265  1  0.114310  0.499150  0.614100  1.0  0.6909
  C  C266  1  0.114450  0.500750  0.385530  1.0  0.6865
  C  C267  1  0.996530  0.386210  0.384530  1.0  0.6783
  C  C268  1  0.002670  0.385760  0.614150  1.0  0.6892
  C  C269  1  0.613830  0.114370  0.495690  1.0  0.6527
  C  C270  1  0.383950  0.112840  0.500630  1.0  0.6497
  C  C271  1  0.502750  0.113780  0.384710  1.0  0.6791
  C  C272  1  0.498260  0.115130  0.613090  1.0  0.6971
  C  C273  1  0.386230  0.884210  0.499560  1.0  0.6898
  C  C274  1  0.614500  0.885260  0.500000  1.0  0.6611
  C  C275  1  0.385100  0.997790  0.385330  1.0  0.686
  C  C276  1  0.385930  0.002620  0.614560  1.0  0.6842
  C  C277  1  0.615220  0.999710  0.613360  1.0  0.6863
  C  C278  1  0.614250  0.000270  0.384820  1.0  0.6585
  C  C279  1  0.496770  0.885300  0.384570  1.0  0.6741
  C  C280  1  0.504360  0.885440  0.614230  1.0  0.6705
  C  C281  1  0.153860  0.154190  0.996370  1.0  -0.1634
  C  C282  1  0.204630  0.141630  0.001540  1.0  -0.0452
  C  C283  1  0.242100  0.178310  0.001080  1.0  -0.1024
  C  C284  1  0.230450  0.229160  0.995360  1.0  0.0264
  C  C285  1  0.179880  0.241890  0.989720  1.0  -0.0744
  C  C286  1  0.141860  0.205330  0.990050  1.0  0.2517
  C  C287  1  0.270570  0.268790  0.996100  1.0  0.0487
  C  C288  1  0.312590  0.264130  0.027180  1.0  -0.0791
  C  C289  1  0.349420  0.301470  0.029760  1.0  0.2407
  C  C290  1  0.345780  0.344750  0.999380  1.0  -0.0852
  C  C291  1  0.303660  0.349480  0.968520  1.0  -0.0903
  C  C292  1  0.266780  0.312250  0.966850  1.0  -0.1152
  C  C293  1  0.153910  0.655010  0.496720  1.0  -0.1648
  C  C294  1  0.204800  0.641930  0.498520  1.0  -0.0777
  C  C295  1  0.242490  0.678360  0.498470  1.0  -0.1037
  C  C296  1  0.230940  0.729480  0.496420  1.0  0.0218
  C  C297  1  0.180290  0.742820  0.494380  1.0  -0.0845
  C  C298  1  0.142030  0.706540  0.494540  1.0  0.1994
  C  C299  1  0.271280  0.768800  0.497130  1.0  0.0477
  C  C300  1  0.314460  0.762770  0.526320  1.0  -0.0799
  C  C301  1  0.351470  0.799960  0.529020  1.0  0.2659
  C  C302  1  0.346840  0.844370  0.500420  1.0  -0.1023
  C  C303  1  0.303570  0.850330  0.471380  1.0  -0.076
  C  C304  1  0.266500  0.813330  0.469780  1.0  -0.1004
  C  C305  1  0.845240  0.846140  0.995780  1.0  -0.1042
  C  C306  1  0.849900  0.803670  0.026030  1.0  -0.0839
  C  C307  1  0.812810  0.766690  0.026940  1.0  -0.1033
  C  C308  1  0.769980  0.769860  0.996490  1.0  -0.0023
  C  C309  1  0.765830  0.812250  0.965500  1.0  -0.0962
  C  C310  1  0.802550  0.850260  0.965320  1.0  0.2583
  C  C311  1  0.730160  0.729420  0.997240  1.0  0.0241
  C  C312  1  0.741650  0.680080  0.011220  1.0  -0.0636
  C  C313  1  0.704860  0.642790  0.014980  1.0  0.2446
  C  C314  1  0.654700  0.652820  0.000800  1.0  -0.1616
  C  C315  1  0.643330  0.702050  0.986310  1.0  -0.0725
  C  C316  1  0.680010  0.739600  0.985140  1.0  -0.1021
  C  C317  1  0.844020  0.346730  0.497420  1.0  -0.1684
  C  C318  1  0.856460  0.296060  0.490890  1.0  -0.0509
  C  C319  1  0.819720  0.258580  0.490350  1.0  -0.1184
  C  C320  1  0.768870  0.270060  0.496480  1.0  0.0424
  C  C321  1  0.756220  0.320570  0.503060  1.0  -0.0804
  C  C322  1  0.792830  0.358610  0.503630  1.0  0.2462
  C  C323  1  0.729210  0.229830  0.495810  1.0  0.053
  C  C324  1  0.733340  0.187950  0.464390  1.0  -0.0881
  C  C325  1  0.696060  0.150880  0.462450  1.0  0.2186
  C  C326  1  0.653410  0.154140  0.493770  1.0  -0.1064
  C  C327  1  0.649290  0.196120  0.524920  1.0  -0.1004
  C  C328  1  0.686340  0.233210  0.525950  1.0  -0.1006
  C  C329  1  0.846210  0.154880  0.003850  1.0  -0.1742
  C  C330  1  0.795300  0.141980  0.001490  1.0  -0.0578
  C  C331  1  0.757720  0.178540  0.001350  1.0  -0.0968
  C  C332  1  0.769370  0.229630  0.003710  1.0  0.0189
  C  C333  1  0.820080  0.242780  0.006490  1.0  -0.0501
  C  C334  1  0.858250  0.206340  0.006580  1.0  0.2619
  C  C335  1  0.729050  0.269040  0.002560  1.0  0.0578
  C  C336  1  0.685990  0.262910  0.973180  1.0  -0.0878
  C  C337  1  0.648870  0.299990  0.970290  1.0  0.2475
  C  C338  1  0.653220  0.344450  0.998850  1.0  -0.0881
  C  C339  1  0.696420  0.350580  0.027980  1.0  -0.0821
  C  C340  1  0.733610  0.313680  0.029810  1.0  -0.0966
  C  C341  1  0.846310  0.655620  0.503340  1.0  -0.13
  C  C342  1  0.795570  0.643050  0.497840  1.0  -0.0673
  C  C343  1  0.758110  0.679690  0.497910  1.0  -0.1045
  C  C344  1  0.769710  0.730530  0.503590  1.0  0.0197
  C  C345  1  0.820240  0.743310  0.509580  1.0  -0.0709
  C  C346  1  0.858270  0.706760  0.509610  1.0  0.2269
  C  C347  1  0.729560  0.770080  0.502580  1.0  0.0642
  C  C348  1  0.687810  0.765440  0.471120  1.0  -0.0863
  C  C349  1  0.650840  0.802640  0.468480  1.0  0.2229
  C  C350  1  0.654090  0.845710  0.499180  1.0  -0.095
  C  C351  1  0.695980  0.850460  0.530340  1.0  -0.1027
  C  C352  1  0.733000  0.813390  0.532070  1.0  -0.1072
  C  C353  1  0.153860  0.346430  0.503230  1.0  -0.1354
  C  C354  1  0.145210  0.299660  0.481230  1.0  -0.0803
  C  C355  1  0.182190  0.262580  0.480640  1.0  -0.1151
  C  C356  1  0.229210  0.270370  0.502810  1.0  0.0191
  C  C357  1  0.237790  0.317080  0.525280  1.0  -0.1038
  C  C358  1  0.200920  0.354880  0.525540  1.0  0.2335
  C  C359  1  0.268680  0.229900  0.502670  1.0  0.0176
  C  C360  1  0.255270  0.179280  0.503550  1.0  -0.0892
  C  C361  1  0.290830  0.140810  0.500810  1.0  0.1961
  C  C362  1  0.342990  0.152060  0.500180  1.0  -0.1501
  C  C363  1  0.356150  0.203060  0.500210  1.0  -0.0839
  C  C364  1  0.319930  0.241050  0.500960  1.0  -0.1005
  C  C365  1  0.153140  0.845040  0.002810  1.0  -0.1235
  C  C366  1  0.151260  0.805140  0.969000  1.0  -0.0887
  C  C367  1  0.188570  0.768320  0.968330  1.0  -0.115
  C  C368  1  0.228730  0.769210  0.002360  1.0  0.0342
  C  C369  1  0.230020  0.808990  0.036790  1.0  -0.1137
  C  C370  1  0.193070  0.846720  0.036980  1.0  0.2334
  C  C371  1  0.268710  0.729030  0.001940  1.0  0.0185
  C  C372  1  0.258340  0.680500  0.984730  1.0  -0.0658
  C  C373  1  0.295430  0.643460  0.981640  1.0  0.2605
  C  C374  1  0.344540  0.652900  0.999450  1.0  -0.1515
  C  C375  1  0.354800  0.701350  0.016980  1.0  -0.0769
  C  C376  1  0.317910  0.738700  0.017760  1.0  -0.1071
  C  C377  1  0.998090  0.151920  0.155770  1.0  -0.1506
  C  C378  1  0.976030  0.198590  0.146710  1.0  -0.0762
  C  C379  1  0.974990  0.235800  0.183540  1.0  -0.1144
  C  C380  1  0.996710  0.228190  0.230790  1.0  0.0464
  C  C381  1  0.019070  0.181520  0.239840  1.0  -0.1029
  C  C382  1  0.019790  0.143610  0.203130  1.0  0.2651
  C  C383  1  0.996410  0.268820  0.270040  1.0  0.0225
  C  C384  1  0.997850  0.319420  0.256460  1.0  -0.0893
  C  C385  1  0.995520  0.357900  0.292030  1.0  0.2084
  C  C386  1  0.994680  0.346710  0.344060  1.0  -0.1685
  C  C387  1  0.993840  0.295810  0.357430  1.0  -0.0636
  C  C388  1  0.994220  0.257770  0.321300  1.0  -0.0975
  C  C389  1  0.494830  0.345730  0.845290  1.0  -0.1333
  C  C390  1  0.518320  0.353710  0.799150  1.0  -0.0925
  C  C391  1  0.518830  0.316660  0.762170  1.0  -0.111
  C  C392  1  0.495060  0.270350  0.769470  1.0  0.0427
  C  C393  1  0.471020  0.262530  0.815520  1.0  -0.0941
  C  C394  1  0.470910  0.299430  0.853250  1.0  0.2557
  C  C395  1  0.495360  0.230710  0.729260  1.0  0.0147
  C  C396  1  0.496620  0.243790  0.678520  1.0  -0.0885
  C  C397  1  0.499790  0.207770  0.640560  1.0  0.2295
  C  C398  1  0.498510  0.155880  0.652270  1.0  -0.1803
  C  C399  1  0.496310  0.143000  0.703240  1.0  -0.0736
  C  C400  1  0.495280  0.179520  0.740880  1.0  -0.1051
  C  C401  1  0.995430  0.846790  0.845150  1.0  -0.1249
  C  C402  1  0.026610  0.850610  0.803310  1.0  -0.0969
  C  C403  1  0.027390  0.813300  0.766600  1.0  -0.1044
  C  C404  1  0.995890  0.771230  0.769470  1.0  0.0314
  C  C405  1  0.964000  0.767940  0.811220  1.0  -0.0995
  C  C406  1  0.963940  0.804830  0.848990  1.0  0.2488
  C  C407  1  0.996520  0.731250  0.729360  1.0  0.0168
  C  C408  1  0.011220  0.742360  0.680190  1.0  -0.0738
  C  C409  1  0.015050  0.705350  0.643230  1.0  0.2612
  C  C410  1  0.000120  0.655450  0.653370  1.0  -0.1491
  C  C411  1  0.984850  0.644470  0.702420  1.0  -0.0728
  C  C412  1  0.983660  0.681340  0.739730  1.0  -0.11
  C  C413  1  0.497810  0.651250  0.155750  1.0  -0.1453
  C  C414  1  0.474060  0.697220  0.147480  1.0  -0.0648
  C  C415  1  0.473080  0.734330  0.184400  1.0  -0.1116
  C  C416  1  0.496640  0.727360  0.230870  1.0  0.0436
  C  C417  1  0.520680  0.681380  0.239090  1.0  -0.0898
  C  C418  1  0.521280  0.643530  0.202330  1.0  0.2632
  C  C419  1  0.496460  0.767950  0.270140  1.0  0.0176
  C  C420  1  0.495560  0.818560  0.256570  1.0  -0.0911
  C  C421  1  0.493150  0.856940  0.292220  1.0  0.195
  C  C422  1  0.494760  0.845730  0.344230  1.0  -0.1723
  C  C423  1  0.496300  0.794860  0.357590  1.0  -0.0681
  C  C424  1  0.496650  0.756850  0.321450  1.0  -0.0964
  C  C425  1  0.001240  0.843510  0.152750  1.0  -0.171
  C  C426  1  0.009300  0.855870  0.203190  1.0  -0.0689
  C  C427  1  0.009610  0.819230  0.240640  1.0  -0.0995
  C  C428  1  0.001700  0.768640  0.229310  1.0  0.0475
  C  C429  1  0.993470  0.756050  0.179050  1.0  -0.0819
  C  C430  1  0.993110  0.792600  0.141020  1.0  0.2487
  C  C431  1  0.002380  0.729170  0.269510  1.0  0.0525
  C  C432  1  0.035500  0.732380  0.310110  1.0  -0.094
  C  C433  1  0.037470  0.695230  0.347190  1.0  0.2365
  C  C434  1  0.004510  0.653860  0.345280  1.0  -0.0977
  C  C435  1  0.971740  0.650490  0.304490  1.0  -0.0743
  C  C436  1  0.970640  0.687410  0.267330  1.0  -0.1047
  C  C437  1  0.502700  0.655470  0.846910  1.0  -0.1745
  C  C438  1  0.503970  0.642800  0.795880  1.0  -0.0519
  C  C439  1  0.504420  0.679540  0.758430  1.0  -0.0976
  C  C440  1  0.503480  0.730640  0.770270  1.0  0.0214
  C  C441  1  0.502310  0.743580  0.821120  1.0  -0.0711
  C  C442  1  0.501980  0.706950  0.859160  1.0  0.2524
  C  C443  1  0.504140  0.770250  0.730010  1.0  0.0254
  C  C444  1  0.531980  0.763800  0.685970  1.0  -0.0883
  C  C445  1  0.534180  0.800930  0.648780  1.0  0.2236
  C  C446  1  0.506410  0.845820  0.654040  1.0  -0.1019
  C  C447  1  0.478850  0.852250  0.698260  1.0  -0.0861
  C  C448  1  0.477780  0.815320  0.735490  1.0  -0.1032
  C  C449  1  0.502480  0.342920  0.152600  1.0  -0.157
  C  C450  1  0.501990  0.355670  0.203600  1.0  -0.076
  C  C451  1  0.502090  0.318990  0.241000  1.0  -0.0985
  C  C452  1  0.502480  0.267960  0.229020  1.0  0.032
  C  C453  1  0.502990  0.254900  0.178250  1.0  -0.0885
  C  C454  1  0.503150  0.291470  0.140260  1.0  0.2146
  C  C455  1  0.502930  0.228520  0.269160  1.0  0.0731
  C  C456  1  0.530570  0.235140  0.313240  1.0  -0.0978
  C  C457  1  0.532690  0.198060  0.350360  1.0  0.2443
  C  C458  1  0.504900  0.153240  0.344970  1.0  -0.117
  C  C459  1  0.477540  0.146650  0.300690  1.0  -0.0785
  C  C460  1  0.476640  0.183480  0.263450  1.0  -0.0991
  C  C461  1  0.002540  0.156070  0.847150  1.0  -0.1652
  C  C462  1  0.005980  0.143460  0.796220  1.0  -0.0638
  C  C463  1  0.006130  0.180170  0.758750  1.0  -0.0914
  C  C464  1  0.002810  0.231210  0.770470  1.0  0.0309
  C  C465  1  0.999440  0.244080  0.821250  1.0  -0.0685
  C  C466  1  0.999230  0.207460  0.859310  1.0  0.2538
  C  C467  1  0.003200  0.270780  0.730140  1.0  0.0142
  C  C468  1  0.032040  0.265010  0.686640  1.0  -0.0845
  C  C469  1  0.033820  0.302020  0.649320  1.0  0.2444
  C  C470  1  0.004760  0.346140  0.653940  1.0  -0.1229
  C  C471  1  0.976260  0.351970  0.697630  1.0  -0.0703
  C  C472  1  0.975470  0.315110  0.734950  1.0  -0.1047
  C  C473  1  0.154920  0.996070  0.154170  1.0  -0.1596
  C  C474  1  0.142160  0.999710  0.205070  1.0  -0.0556
  C  C475  1  0.178830  0.999830  0.242610  1.0  -0.1156
  C  C476  1  0.229710  0.995360  0.230880  1.0  0.0387
  C  C477  1  0.242780  0.991400  0.180320  1.0  -0.1064
  C  C478  1  0.206350  0.992350  0.142150  1.0  0.2252
  C  C479  1  0.269180  0.995840  0.270950  1.0  0.0573
  C  C480  1  0.267570  0.030810  0.309970  1.0  -0.1021
  C  C481  1  0.305460  0.033330  0.346310  1.0  0.235
  C  C482  1  0.345330  0.998460  0.345870  1.0  -0.0955
  C  C483  1  0.346790  0.963530  0.306780  1.0  -0.0973
  C  C484  1  0.309640  0.962470  0.269750  1.0  -0.1161
  C  C485  1  0.344350  0.495810  0.846100  1.0  -0.1415
  C  C486  1  0.356900  0.501230  0.795350  1.0  -0.0542
  C  C487  1  0.320260  0.501030  0.757850  1.0  -0.1013
  C  C488  1  0.269380  0.495370  0.769400  1.0  0.0198
  C  C489  1  0.256630  0.489520  0.819970  1.0  -0.0562
  C  C490  1  0.293190  0.489560  0.858040  1.0  0.2319
  C  C491  1  0.229810  0.496290  0.729160  1.0  0.0435
  C  C492  1  0.234730  0.527260  0.687050  1.0  -0.075
  C  C493  1  0.197530  0.529900  0.650040  1.0  0.245
  C  C494  1  0.154100  0.499720  0.653570  1.0  -0.0798
  C  C495  1  0.149130  0.468970  0.695770  1.0  -0.0805
  C  C496  1  0.186220  0.467230  0.732810  1.0  -0.1023
  C  C497  1  0.844970  0.998020  0.845630  1.0  -0.1629
  C  C498  1  0.857890  0.995770  0.794710  1.0  -0.0641
  C  C499  1  0.821320  0.995430  0.757110  1.0  -0.1067
  C  C500  1  0.770210  0.997020  0.768780  1.0  0.0236
  C  C501  1  0.757010  0.999080  0.819490  1.0  -0.0943
  C  C502  1  0.793450  0.999830  0.857640  1.0  0.2385
  C  C503  1  0.730840  0.997520  0.728450  1.0  0.0665
  C  C504  1  0.738020  0.024360  0.683960  1.0  -0.0802
  C  C505  1  0.700820  0.027130  0.646940  1.0  0.2494
  C  C506  1  0.655220  0.000640  0.652760  1.0  -0.1107
  C  C507  1  0.648180  0.973860  0.697350  1.0  -0.08
  C  C508  1  0.685140  0.972440  0.734520  1.0  -0.1038
  C  C509  1  0.654900  0.494530  0.153490  1.0  -0.1475
  C  C510  1  0.642360  0.500650  0.204170  1.0  -0.0516
  C  C511  1  0.679030  0.501050  0.241660  1.0  -0.0999
  C  C512  1  0.729870  0.495070  0.230170  1.0  0.0277
  C  C513  1  0.742600  0.488430  0.179700  1.0  -0.0584
  C  C514  1  0.706040  0.488070  0.141630  1.0  0.2376
  C  C515  1  0.769440  0.496310  0.270370  1.0  0.0474
  C  C516  1  0.765190  0.528440  0.311670  1.0  -0.083
  C  C517  1  0.802470  0.531210  0.348630  1.0  0.2435
  C  C518  1  0.845230  0.500000  0.345870  1.0  -0.1015
  C  C519  1  0.849420  0.468010  0.304530  1.0  -0.0786
  C  C520  1  0.812350  0.466200  0.267480  1.0  -0.1011
  C  C521  1  0.154710  0.001000  0.846780  1.0  -0.1181
  C  C522  1  0.151050  0.032590  0.805230  1.0  -0.0865
  C  C523  1  0.188470  0.033650  0.768560  1.0  -0.1085
  C  C524  1  0.230500  0.002010  0.771130  1.0  0.0302
  C  C525  1  0.233620  0.969780  0.812640  1.0  -0.0979
  C  C526  1  0.196670  0.969440  0.850360  1.0  0.2512
  C  C527  1  0.270470  0.002570  0.730890  1.0  0.0356
  C  C528  1  0.259580  0.018100  0.681890  1.0  -0.0748
  C  C529  1  0.296540  0.021240  0.644770  1.0  0.249
  C  C530  1  0.346040  0.004890  0.654430  1.0  -0.1603
  C  C531  1  0.356900  0.989080  0.703340  1.0  -0.0661
  C  C532  1  0.320170  0.988510  0.740860  1.0  -0.0968
  C  C533  1  0.344830  0.502500  0.153970  1.0  -0.1755
  C  C534  1  0.357400  0.497670  0.204770  1.0  -0.0678
  C  C535  1  0.320720  0.498040  0.242250  1.0  -0.0959
  C  C536  1  0.269820  0.503320  0.230590  1.0  0.0231
  C  C537  1  0.257060  0.508550  0.179980  1.0  -0.0806
  C  C538  1  0.293630  0.508300  0.141940  1.0  0.2483
  C  C539  1  0.230190  0.502670  0.270750  1.0  0.0545
  C  C540  1  0.235010  0.472020  0.313080  1.0  -0.0907
  C  C541  1  0.197700  0.469610  0.349990  1.0  0.2592
  C  C542  1  0.154270  0.499760  0.346110  1.0  -0.0984
  C  C543  1  0.149380  0.530170  0.303660  1.0  -0.0813
  C  C544  1  0.186570  0.531650  0.266730  1.0  -0.1048
  C  C545  1  0.844670  0.003260  0.153540  1.0  -0.1725
  C  C546  1  0.857010  0.996740  0.204200  1.0  -0.05
  C  C547  1  0.820280  0.996970  0.241610  1.0  -0.1055
  C  C548  1  0.769560  0.003790  0.230020  1.0  0.0241
  C  C549  1  0.757040  0.010820  0.179550  1.0  -0.0734
  C  C550  1  0.793680  0.010750  0.141590  1.0  0.2458
  C  C551  1  0.729860  0.002850  0.270090  1.0  0.0553
  C  C552  1  0.734010  0.970920  0.311550  1.0  -0.0848
  C  C553  1  0.696690  0.968350  0.348410  1.0  0.2331
  C  C554  1  0.653920  0.999490  0.345330  1.0  -0.0992
  C  C555  1  0.649670  0.031170  0.303770  1.0  -0.0934
  C  C556  1  0.686900  0.032890  0.266890  1.0  -0.1059
  C  C557  1  0.653740  0.501330  0.845990  1.0  -0.1294
  C  C558  1  0.648900  0.531730  0.803660  1.0  -0.0762
  C  C559  1  0.686160  0.533110  0.766830  1.0  -0.105
  C  C560  1  0.729250  0.503050  0.770160  1.0  0.0378
  C  C561  1  0.733570  0.471970  0.812410  1.0  -0.0908
  C  C562  1  0.696730  0.471270  0.850200  1.0  0.2647
  C  C563  1  0.769160  0.504020  0.729940  1.0  0.029
  C  C564  1  0.757640  0.517120  0.680390  1.0  -0.0686
  C  C565  1  0.794450  0.520380  0.643110  1.0  0.2521
  C  C566  1  0.844680  0.506670  0.653520  1.0  -0.1639
  C  C567  1  0.856100  0.493380  0.703060  1.0  -0.0553
  C  C568  1  0.819380  0.492660  0.740510  1.0  -0.0992
  O  O569  1  0.128720  0.067580  0.998440  1.0  -0.5771
  O  O570  1  0.871200  0.068330  0.001620  1.0  -0.5792
  O  O571  1  0.001410  0.129020  0.933160  1.0  -0.5938
  O  O572  1  0.998390  0.127530  0.069440  1.0  -0.5848
  O  O573  1  0.999170  0.066210  0.129650  1.0  -0.5749
  O  O574  1  0.001560  0.069280  0.871580  1.0  -0.5904
  O  O575  1  0.932260  0.128510  0.002560  1.0  -0.578
  O  O576  1  0.067930  0.128110  0.999230  1.0  -0.5855
  O  O577  1  0.954700  0.044460  0.045640  1.0  -0.9311
  O  O578  1  0.045320  0.045070  0.955120  1.0  -0.9341
  O  O579  1  0.955070  0.045130  0.955150  1.0  -0.8394
  O  O580  1  0.044880  0.043930  0.045410  1.0  -0.839
  O  O581  1  0.870650  0.932070  0.996750  1.0  -0.5847
  O  O582  1  0.128320  0.930940  0.002680  1.0  -0.5853
  O  O583  1  0.931640  0.999330  0.870780  1.0  -0.59
  O  O584  1  0.931290  0.000570  0.128680  1.0  -0.5741
  O  O585  1  0.068230  0.996970  0.128990  1.0  -0.5788
  O  O586  1  0.068570  0.002490  0.871250  1.0  -0.5915
  O  O587  1  0.996350  0.871450  0.930900  1.0  -0.598
  O  O588  1  0.000600  0.870220  0.066840  1.0  -0.5929
  O  O589  1  0.999030  0.932550  0.870380  1.0  -0.5861
  O  O590  1  0.000790  0.930080  0.128310  1.0  -0.582
  O  O591  1  0.871200  0.999200  0.931680  1.0  -0.588
  O  O592  1  0.129060  0.999340  0.932350  1.0  -0.5871
  O  O593  1  0.128640  0.997770  0.068090  1.0  -0.5844
  O  O594  1  0.871000  0.001280  0.067590  1.0  -0.5858
  O  O595  1  0.931120  0.870980  0.998310  1.0  -0.5898
  O  O596  1  0.067350  0.870340  0.999460  1.0  -0.5924
  O  O597  1  0.044890  0.953650  0.044950  1.0  -0.8937
  O  O598  1  0.954550  0.955040  0.954110  1.0  -0.8795
  O  O599  1  0.044580  0.954900  0.954650  1.0  -0.8402
  O  O600  1  0.954560  0.954460  0.044510  1.0  -0.8412
  O  O601  1  0.628260  0.566760  0.998220  1.0  -0.5956
  O  O602  1  0.370850  0.566940  0.001600  1.0  -0.5965
  O  O603  1  0.501480  0.628520  0.932940  1.0  -0.5758
  O  O604  1  0.497520  0.627060  0.069420  1.0  -0.583
  O  O605  1  0.499320  0.565650  0.129560  1.0  -0.5793
  O  O606  1  0.500850  0.568670  0.871430  1.0  -0.588
  O  O607  1  0.431170  0.628000  0.001050  1.0  -0.5824
  O  O608  1  0.568060  0.627890  0.000630  1.0  -0.5833
  O  O609  1  0.454500  0.543900  0.045680  1.0  -0.9352
  O  O610  1  0.544790  0.544680  0.954850  1.0  -0.9389
  O  O611  1  0.454660  0.544360  0.955290  1.0  -0.8386
  O  O612  1  0.544590  0.543360  0.045050  1.0  -0.8347
  O  O613  1  0.370700  0.430840  0.998600  1.0  -0.5735
  O  O614  1  0.628250  0.430470  0.000230  1.0  -0.5746
  O  O615  1  0.430960  0.498430  0.870970  1.0  -0.5839
  O  O616  1  0.431460  0.499910  0.128890  1.0  -0.5804
  O  O617  1  0.568300  0.496200  0.128570  1.0  -0.5814
  O  O618  1  0.567670  0.502040  0.870770  1.0  -0.5909
  O  O619  1  0.496460  0.370870  0.931030  1.0  -0.5849
  O  O620  1  0.501360  0.369770  0.066760  1.0  -0.5781
  O  O621  1  0.498090  0.431810  0.870410  1.0  -0.5892
  O  O622  1  0.501150  0.429560  0.128240  1.0  -0.5838
  O  O623  1  0.370790  0.497360  0.932120  1.0  -0.5749
  O  O624  1  0.628380  0.499510  0.931640  1.0  -0.581
  O  O625  1  0.628490  0.496500  0.067430  1.0  -0.5679
  O  O626  1  0.371040  0.500550  0.067980  1.0  -0.5863
  O  O627  1  0.431540  0.370140  0.998540  1.0  -0.5836
  O  O628  1  0.567270  0.369940  0.999390  1.0  -0.5965
  O  O629  1  0.544940  0.453160  0.044750  1.0  -0.933
  O  O630  1  0.454270  0.454250  0.954200  1.0  -0.9303
  O  O631  1  0.544190  0.454380  0.954260  1.0  -0.8361
  O  O632  1  0.454670  0.453710  0.044710  1.0  -0.8332
  O  O633  1  0.128570  0.568490  0.497900  1.0  -0.5705
  O  O634  1  0.871240  0.569090  0.501390  1.0  -0.5654
  O  O635  1  0.002300  0.629020  0.431350  1.0  -0.5849
  O  O636  1  0.998220  0.629010  0.567480  1.0  -0.5955
  O  O637  1  0.999550  0.568840  0.628660  1.0  -0.5813
  O  O638  1  0.001240  0.568250  0.370520  1.0  -0.5763
  O  O639  1  0.932260  0.629330  0.501060  1.0  -0.5809
  O  O640  1  0.067830  0.629000  0.498410  1.0  -0.5726
  O  O641  1  0.954620  0.545740  0.544960  1.0  -0.9129
  O  O642  1  0.045200  0.545520  0.454280  1.0  -0.889
  O  O643  1  0.954870  0.545470  0.454590  1.0  -0.8352
  O  O644  1  0.044700  0.545190  0.544660  1.0  -0.8338
  O  O645  1  0.870670  0.432780  0.498280  1.0  -0.5822
  O  O646  1  0.128260  0.432230  0.502300  1.0  -0.5741
  O  O647  1  0.931380  0.499020  0.370790  1.0  -0.5688
  O  O648  1  0.931210  0.503310  0.628540  1.0  -0.5816
  O  O649  1  0.067990  0.498820  0.628710  1.0  -0.5785
  O  O650  1  0.068130  0.501370  0.370890  1.0  -0.5735
  O  O651  1  0.996710  0.371590  0.430940  1.0  -0.5903
  O  O652  1  0.001510  0.371360  0.567770  1.0  -0.5958
  O  O653  1  0.998720  0.432580  0.370870  1.0  -0.5882
  O  O654  1  0.001110  0.432100  0.628690  1.0  -0.585
  O  O655  1  0.870700  0.499920  0.431730  1.0  -0.5775
  O  O656  1  0.128710  0.500600  0.431900  1.0  -0.5781
  O  O657  1  0.128600  0.499410  0.567730  1.0  -0.5808
  O  O658  1  0.870880  0.501990  0.567560  1.0  -0.5949
  O  O659  1  0.930760  0.371550  0.498500  1.0  -0.583
  O  O660  1  0.067620  0.371370  0.500180  1.0  -0.5763
  O  O661  1  0.044610  0.455020  0.544890  1.0  -0.9266
  O  O662  1  0.954240  0.455230  0.454300  1.0  -0.9326
  O  O663  1  0.044430  0.455260  0.454800  1.0  -0.8328
  O  O664  1  0.954610  0.455490  0.544760  1.0  -0.8385
  O  O665  1  0.628420  0.068070  0.496190  1.0  -0.5726
  O  O666  1  0.370830  0.066310  0.501890  1.0  -0.5908
  O  O667  1  0.501330  0.128310  0.430970  1.0  -0.5964
  O  O668  1  0.496820  0.128500  0.566600  1.0  -0.5999
  O  O669  1  0.499790  0.068850  0.627990  1.0  -0.5929
  O  O670  1  0.501380  0.067440  0.370320  1.0  -0.5895
  O  O671  1  0.430270  0.127800  0.499330  1.0  -0.5849
  O  O672  1  0.567430  0.128700  0.497810  1.0  -0.5764
  O  O673  1  0.454620  0.044670  0.544750  1.0  -0.9202
  O  O674  1  0.544840  0.044880  0.453900  1.0  -0.9046
  O  O675  1  0.454550  0.044070  0.454410  1.0  -0.8642
  O  O676  1  0.544800  0.044920  0.543920  1.0  -0.8312
  O  O677  1  0.371490  0.930470  0.499000  1.0  -0.5786
  O  O678  1  0.628890  0.931630  0.500800  1.0  -0.5667
  O  O679  1  0.431380  0.997510  0.370620  1.0  -0.5688
  O  O680  1  0.432370  0.002180  0.628880  1.0  -0.5803
  O  O681  1  0.568950  0.999470  0.628160  1.0  -0.5813
  O  O682  1  0.567890  0.000770  0.370340  1.0  -0.5816
  O  O683  1  0.497120  0.870830  0.431030  1.0  -0.5798
  O  O684  1  0.503200  0.870970  0.567890  1.0  -0.5856
  O  O685  1  0.498990  0.931610  0.370740  1.0  -0.5898
  O  O686  1  0.502640  0.931830  0.628670  1.0  -0.578
  O  O687  1  0.370830  0.998260  0.431770  1.0  -0.5818
  O  O688  1  0.628710  0.000020  0.431120  1.0  -0.5832
  O  O689  1  0.629220  0.999360  0.566900  1.0  -0.5931
  O  O690  1  0.371660  0.000220  0.568210  1.0  -0.5911
  O  O691  1  0.432620  0.870100  0.499580  1.0  -0.597
  O  O692  1  0.568240  0.870720  0.499510  1.0  -0.5849
  O  O693  1  0.545540  0.954590  0.544730  1.0  -0.9214
  O  O694  1  0.454700  0.953870  0.454280  1.0  -0.883
  O  O695  1  0.544820  0.954640  0.454400  1.0  -0.8352
  O  O696  1  0.455570  0.954510  0.544930  1.0  -0.8394
  O  O697  1  0.092190  0.219860  0.983970  1.0  -0.471
  O  O698  1  0.387450  0.294980  0.064790  1.0  -0.4784
  O  O699  1  0.092260  0.721800  0.492590  1.0  -0.5039
  O  O700  1  0.390680  0.792070  0.562430  1.0  -0.4841
  O  O701  1  0.797550  0.891500  0.933900  1.0  -0.4842
  O  O702  1  0.719760  0.597130  0.035090  1.0  -0.4868
  O  O703  1  0.778320  0.408150  0.510720  1.0  -0.483
  O  O704  1  0.702050  0.112880  0.427300  1.0  -0.4953
  O  O705  1  0.908080  0.221320  0.009190  1.0  -0.4833
  O  O706  1  0.609790  0.291910  0.936760  1.0  -0.4746
  O  O707  1  0.907910  0.721280  0.516020  1.0  -0.4867
  O  O708  1  0.613040  0.796180  0.433190  1.0  -0.4971
  O  O709  1  0.210420  0.400400  0.549040  1.0  -0.4715
  O  O710  1  0.271670  0.092460  0.498600  1.0  -0.5198
  O  O711  1  0.194880  0.885100  0.072100  1.0  -0.4593
  O  O712  1  0.282080  0.598780  0.958480  1.0  -0.4794
  O  O713  1  0.043310  0.098180  0.213050  1.0  -0.4769
  O  O714  1  0.993810  0.406450  0.273460  1.0  -0.4938
  O  O715  1  0.445990  0.290760  0.898180  1.0  -0.4753
  O  O716  1  0.505070  0.225720  0.592020  1.0  -0.489
  O  O717  1  0.931770  0.800710  0.889770  1.0  -0.4655
  O  O718  1  0.036160  0.719600  0.597870  1.0  -0.4881
  O  O719  1  0.546420  0.598800  0.211360  1.0  -0.4849
  O  O720  1  0.488650  0.905360  0.273750  1.0  -0.4918
  O  O721  1  0.984260  0.778360  0.091690  1.0  -0.4868
  O  O722  1  0.074370  0.699780  0.383650  1.0  -0.4989
  O  O723  1  0.501000  0.721780  0.909100  1.0  -0.4787
  O  O724  1  0.566270  0.792430  0.608630  1.0  -0.4889
  O  O725  1  0.504220  0.276650  0.090320  1.0  -0.4813
  O  O726  1  0.564740  0.206490  0.390540  1.0  -0.495
  O  O727  1  0.995570  0.222190  0.909150  1.0  -0.485
  O  O728  1  0.066750  0.294250  0.609710  1.0  -0.4909
  O  O729  1  0.221360  0.989990  0.092310  1.0  -0.4807
  O  O730  1  0.303460  0.072750  0.380270  1.0  -0.4955
  O  O731  1  0.278650  0.483260  0.907670  1.0  -0.485
  O  O732  1  0.204370  0.564790  0.611930  1.0  -0.4947
  O  O733  1  0.778400  0.002970  0.907430  1.0  -0.4809
  O  O734  1  0.709970  0.058670  0.606480  1.0  -0.4933
  O  O735  1  0.720560  0.481130  0.092080  1.0  -0.4824
  O  O736  1  0.796400  0.567080  0.385940  1.0  -0.498
  O  O737  1  0.200640  0.936770  0.890750  1.0  -0.478
  O  O738  1  0.282760  0.043190  0.599700  1.0  -0.496
  O  O739  1  0.279020  0.513890  0.092240  1.0  -0.4701
  O  O740  1  0.204460  0.435010  0.388390  1.0  -0.4801
  O  O741  1  0.779410  0.018330  0.092050  1.0  -0.4743
  O  O742  1  0.702700  0.932670  0.385930  1.0  -0.495
  O  O743  1  0.701890  0.439680  0.891320  1.0  -0.4741
  O  O744  1  0.779490  0.539330  0.597010  1.0  -0.4969
