# generated using pymatgen
data_Zr3H38(C15O4)4
_symmetry_space_group_name_H-M   'P 1'
_cell_length_a   32.62050000
_cell_length_b   32.62050000
_cell_length_c   32.62050000
_cell_angle_alpha   90.00000000
_cell_angle_beta   90.00000000
_cell_angle_gamma   90.00000000
_symmetry_Int_Tables_number   1
_chemical_formula_structural   Zr3H38(C15O4)4
_chemical_formula_sum   'Zr24 H304 C480 O128'
_cell_volume   34711.37684907
_cell_formula_units_Z   8
loop_
 _symmetry_equiv_pos_site_id
 _symmetry_equiv_pos_as_xyz
  1  'x, y, z'
loop_
 _atom_site_type_symbol
 _atom_site_label
 _atom_site_symmetry_multiplicity
 _atom_site_fract_x
 _atom_site_fract_y
 _atom_site_fract_z
 _atom_site_occupancy
 _atom_site_charge
  Zr  Zr1  1  0.999110  0.070870  0.000620  1.0  1.7877
  Zr  Zr2  1  0.926930  0.998830  0.000800  1.0  1.7912
  Zr  Zr3  1  0.071180  0.998620  0.000880  1.0  1.7837
  Zr  Zr4  1  0.999130  0.998600  0.928640  1.0  1.7967
  Zr  Zr5  1  0.998900  0.998880  0.072950  1.0  1.7974
  Zr  Zr6  1  0.999050  0.926580  0.000900  1.0  1.7889
  Zr  Zr7  1  0.498730  0.571380  0.000510  1.0  1.7896
  Zr  Zr8  1  0.426740  0.499190  0.000780  1.0  1.7924
  Zr  Zr9  1  0.571050  0.499320  0.000890  1.0  1.7889
  Zr  Zr10  1  0.498970  0.499070  0.928640  1.0  1.792
  Zr  Zr11  1  0.498850  0.499400  0.072960  1.0  1.8016
  Zr  Zr12  1  0.499000  0.427110  0.000990  1.0  1.7903
  Zr  Zr13  1  0.998170  0.571040  0.501670  1.0  1.7881
  Zr  Zr14  1  0.925910  0.499060  0.501470  1.0  1.7882
  Zr  Zr15  1  0.070220  0.498760  0.501380  1.0  1.7878
  Zr  Zr16  1  0.997980  0.499050  0.429300  1.0  1.7922
  Zr  Zr17  1  0.998090  0.498720  0.573660  1.0  1.7975
  Zr  Zr18  1  0.998020  0.426740  0.501330  1.0  1.7899
  Zr  Zr19  1  0.499090  0.070530  0.500970  1.0  1.7896
  Zr  Zr20  1  0.427100  0.998350  0.500880  1.0  1.7934
  Zr  Zr21  1  0.571400  0.998430  0.500640  1.0  1.7885
  Zr  Zr22  1  0.499210  0.998610  0.428650  1.0  1.7928
  Zr  Zr23  1  0.499310  0.998200  0.572930  1.0  1.7994
  Zr  Zr24  1  0.499300  0.926230  0.500690  1.0  1.7886
  H  H25  1  0.944590  0.053220  0.946110  1.0  0.3414
  H  H26  1  0.053540  0.053300  0.055280  1.0  0.3409
  H  H27  1  0.053630  0.944020  0.946370  1.0  0.3428
  H  H28  1  0.944410  0.944320  0.055390  1.0  0.3361
  H  H29  1  0.444290  0.553580  0.946010  1.0  0.3395
  H  H30  1  0.553270  0.554000  0.055200  1.0  0.3418
  H  H31  1  0.553570  0.444640  0.946440  1.0  0.3366
  H  H32  1  0.444380  0.444760  0.055450  1.0  0.3408
  H  H33  1  0.943560  0.553670  0.447060  1.0  0.336
  H  H34  1  0.052720  0.553210  0.556090  1.0  0.3402
  H  H35  1  0.052500  0.444380  0.446740  1.0  0.3431
  H  H36  1  0.943480  0.444330  0.555900  1.0  0.3416
  H  H37  1  0.444560  0.053030  0.446420  1.0  0.3408
  H  H38  1  0.553760  0.052830  0.555350  1.0  0.3411
  H  H39  1  0.553770  0.943990  0.446060  1.0  0.3405
  H  H40  1  0.444780  0.943680  0.555310  1.0  0.3411
  H  H41  1  0.228800  0.134930  0.996940  1.0  0.1222
  H  H42  1  0.176130  0.081940  0.997720  1.0  0.1147
  H  H43  1  0.082270  0.175500  0.996370  1.0  0.113
  H  H44  1  0.135060  0.228300  0.994810  1.0  0.1242
  H  H45  1  0.186760  0.258180  0.038380  1.0  0.1209
  H  H46  1  0.239570  0.311140  0.038430  1.0  0.115
  H  H47  1  0.311280  0.239740  0.953130  1.0  0.118
  H  H48  1  0.258420  0.186730  0.953090  1.0  0.117
  H  H49  1  0.362950  0.269420  0.997040  1.0  0.1227
  H  H50  1  0.415820  0.322180  0.997890  1.0  0.1154
  H  H51  1  0.322100  0.415870  0.996630  1.0  0.1186
  H  H52  1  0.269390  0.362980  0.994990  1.0  0.1215
  H  H53  1  0.228000  0.634680  0.497090  1.0  0.1227
  H  H54  1  0.175180  0.581880  0.498030  1.0  0.1158
  H  H55  1  0.081600  0.675720  0.497710  1.0  0.1148
  H  H56  1  0.134550  0.728370  0.495970  1.0  0.1227
  H  H57  1  0.186700  0.758060  0.539080  1.0  0.1172
  H  H58  1  0.239740  0.810790  0.538900  1.0  0.1209
  H  H59  1  0.310670  0.739200  0.453110  1.0  0.1181
  H  H60  1  0.257580  0.686430  0.453280  1.0  0.1196
  H  H61  1  0.362770  0.768700  0.496650  1.0  0.1231
  H  H62  1  0.415830  0.821310  0.497310  1.0  0.1187
  H  H63  1  0.322380  0.915270  0.496870  1.0  0.1165
  H  H64  1  0.269500  0.862570  0.495420  1.0  0.1219
  H  H65  1  0.769300  0.863290  0.994720  1.0  0.1221
  H  H66  1  0.822200  0.915960  0.996520  1.0  0.1129
  H  H67  1  0.915580  0.821900  0.997450  1.0  0.1162
  H  H68  1  0.862490  0.769350  0.996440  1.0  0.1217
  H  H69  1  0.810600  0.740240  0.952220  1.0  0.1186
  H  H70  1  0.757560  0.687410  0.952130  1.0  0.1178
  H  H71  1  0.686520  0.758610  0.038170  1.0  0.1202
  H  H72  1  0.739520  0.811390  0.038270  1.0  0.1197
  H  H73  1  0.634550  0.729000  0.994520  1.0  0.1241
  H  H74  1  0.581750  0.676200  0.996260  1.0  0.1181
  H  H75  1  0.675630  0.582640  0.997230  1.0  0.1183
  H  H76  1  0.728280  0.635600  0.996280  1.0  0.1223
  H  H77  1  0.768400  0.363130  0.495260  1.0  0.1214
  H  H78  1  0.821140  0.415990  0.497130  1.0  0.1153
  H  H79  1  0.914810  0.322210  0.497560  1.0  0.115
  H  H80  1  0.861920  0.269500  0.496470  1.0  0.1243
  H  H81  1  0.810060  0.240440  0.452180  1.0  0.1175
  H  H82  1  0.757320  0.187310  0.452160  1.0  0.1202
  H  H83  1  0.686340  0.257810  0.538830  1.0  0.1202
  H  H84  1  0.739030  0.310900  0.538840  1.0  0.121
  H  H85  1  0.634390  0.228240  0.495110  1.0  0.1243
  H  H86  1  0.581800  0.175270  0.496820  1.0  0.1148
  H  H87  1  0.675990  0.082000  0.497300  1.0  0.1172
  H  H88  1  0.728470  0.135180  0.496370  1.0  0.1225
  H  H89  1  0.863360  0.228640  0.006050  1.0  0.1232
  H  H90  1  0.916090  0.175770  0.004350  1.0  0.117
  H  H91  1  0.822140  0.082300  0.004150  1.0  0.1145
  H  H92  1  0.769520  0.135340  0.005060  1.0  0.1219
  H  H93  1  0.740240  0.187260  0.048890  1.0  0.1169
  H  H94  1  0.687360  0.240240  0.049060  1.0  0.1186
  H  H95  1  0.758470  0.311440  0.963090  1.0  0.1222
  H  H96  1  0.811310  0.258500  0.962930  1.0  0.1213
  H  H97  1  0.728780  0.363430  0.006430  1.0  0.1246
  H  H98  1  0.675960  0.416220  0.004870  1.0  0.1161
  H  H99  1  0.582400  0.322360  0.004670  1.0  0.1154
  H  H100  1  0.635380  0.269700  0.005430  1.0  0.1244
  H  H101  1  0.863760  0.727540  0.507030  1.0  0.1261
  H  H102  1  0.916450  0.674950  0.505580  1.0  0.1143
  H  H103  1  0.822240  0.581300  0.504940  1.0  0.1151
  H  H104  1  0.769950  0.634320  0.505590  1.0  0.1247
  H  H105  1  0.740290  0.686240  0.549050  1.0  0.1232
  H  H106  1  0.687400  0.739210  0.548770  1.0  0.1201
  H  H107  1  0.759200  0.810410  0.463380  1.0  0.122
  H  H108  1  0.812040  0.757480  0.463650  1.0  0.1226
  H  H109  1  0.729120  0.862450  0.506290  1.0  0.1239
  H  H110  1  0.676300  0.915250  0.504490  1.0  0.1177
  H  H111  1  0.582740  0.821410  0.503940  1.0  0.1182
  H  H112  1  0.635710  0.768730  0.504930  1.0  0.1224
  H  H113  1  0.227770  0.362320  0.505310  1.0  0.1208
  H  H114  1  0.175070  0.415280  0.504570  1.0  0.118
  H  H115  1  0.081250  0.321710  0.504910  1.0  0.1177
  H  H116  1  0.134070  0.268890  0.506450  1.0  0.1229
  H  H117  1  0.186010  0.238800  0.463560  1.0  0.1211
  H  H118  1  0.238970  0.185980  0.463550  1.0  0.1237
  H  H119  1  0.310540  0.257680  0.548710  1.0  0.1227
  H  H120  1  0.257540  0.310540  0.548710  1.0  0.12
  H  H121  1  0.362410  0.228000  0.505300  1.0  0.1234
  H  H122  1  0.415470  0.175400  0.504520  1.0  0.1185
  H  H123  1  0.322060  0.081420  0.504900  1.0  0.1176
  H  H124  1  0.269150  0.134130  0.506490  1.0  0.1222
  H  H125  1  0.227430  0.863490  0.004920  1.0  0.1244
  H  H126  1  0.175050  0.916420  0.004280  1.0  0.1158
  H  H127  1  0.080990  0.822640  0.004690  1.0  0.113
  H  H128  1  0.133760  0.770120  0.006140  1.0  0.1258
  H  H129  1  0.185520  0.739920  0.963240  1.0  0.1222
  H  H130  1  0.238430  0.687050  0.963090  1.0  0.1206
  H  H131  1  0.310390  0.758800  0.047880  1.0  0.1219
  H  H132  1  0.257430  0.811690  0.048030  1.0  0.1206
  H  H133  1  0.362120  0.728950  0.004530  1.0  0.1243
  H  H134  1  0.415130  0.676300  0.003750  1.0  0.1167
  H  H135  1  0.321650  0.582400  0.004210  1.0  0.1141
  H  H136  1  0.268780  0.635160  0.005790  1.0  0.1229
  H  H137  1  0.993240  0.228750  0.136450  1.0  0.1233
  H  H138  1  0.995100  0.175900  0.083690  1.0  0.1158
  H  H139  1  0.995360  0.082400  0.177600  1.0  0.1184
  H  H140  1  0.994310  0.135390  0.230230  1.0  0.1215
  H  H141  1  0.950440  0.187140  0.259590  1.0  0.1207
  H  H142  1  0.950200  0.240000  0.312590  1.0  0.1223
  H  H143  1  0.035890  0.311580  0.241530  1.0  0.1235
  H  H144  1  0.036140  0.258750  0.188580  1.0  0.1229
  H  H145  1  0.992530  0.363410  0.271410  1.0  0.1243
  H  H146  1  0.994020  0.416090  0.324340  1.0  0.1144
  H  H147  1  0.994440  0.322050  0.417710  1.0  0.1155
  H  H148  1  0.993740  0.269480  0.364620  1.0  0.1279
  H  H149  1  0.494920  0.362250  0.771460  1.0  0.121
  H  H150  1  0.495710  0.415370  0.823990  1.0  0.1142
  H  H151  1  0.495260  0.322070  0.918100  1.0  0.1151
  H  H152  1  0.493680  0.269110  0.865460  1.0  0.1234
  H  H153  1  0.536860  0.239080  0.813570  1.0  0.1213
  H  H154  1  0.536880  0.186090  0.760770  1.0  0.1231
  H  H155  1  0.451220  0.257270  0.689270  1.0  0.1229
  H  H156  1  0.451210  0.310300  0.742100  1.0  0.1198
  H  H157  1  0.494940  0.227810  0.637470  1.0  0.1251
  H  H158  1  0.495790  0.175170  0.584490  1.0  0.1127
  H  H159  1  0.495460  0.081270  0.678000  1.0  0.1166
  H  H160  1  0.493810  0.134050  0.730840  1.0  0.1218
  H  H161  1  0.994860  0.863180  0.772610  1.0  0.1227
  H  H162  1  0.995720  0.916220  0.824900  1.0  0.1132
  H  H163  1  0.995280  0.822600  0.919120  1.0  0.1147
  H  H164  1  0.993610  0.769990  0.866460  1.0  0.1268
  H  H165  1  0.036350  0.739610  0.814620  1.0  0.1207
  H  H166  1  0.036180  0.686640  0.761810  1.0  0.1234
  H  H167  1  0.951260  0.758430  0.690040  1.0  0.12
  H  H168  1  0.951430  0.811430  0.742890  1.0  0.1239
  H  H169  1  0.994420  0.728490  0.638230  1.0  0.1234
  H  H170  1  0.995010  0.675820  0.585260  1.0  0.1155
  H  H171  1  0.994700  0.581970  0.678800  1.0  0.1155
  H  H172  1  0.993310  0.634770  0.731640  1.0  0.1222
  H  H173  1  0.492500  0.729120  0.136110  1.0  0.123
  H  H174  1  0.494310  0.676270  0.083360  1.0  0.1134
  H  H175  1  0.495180  0.582800  0.177340  1.0  0.1149
  H  H176  1  0.494150  0.635800  0.229930  1.0  0.1257
  H  H177  1  0.449820  0.687670  0.258970  1.0  0.1185
  H  H178  1  0.449960  0.740480  0.312030  1.0  0.1185
  H  H179  1  0.536390  0.811380  0.241160  1.0  0.1225
  H  H180  1  0.536250  0.758610  0.188150  1.0  0.122
  H  H181  1  0.492760  0.863360  0.270890  1.0  0.1215
  H  H182  1  0.494710  0.915950  0.323860  1.0  0.1158
  H  H183  1  0.495640  0.821750  0.417110  1.0  0.1154
  H  H184  1  0.494470  0.769280  0.363950  1.0  0.1207
  H  H185  1  0.003030  0.769360  0.137660  1.0  0.1232
  H  H186  1  0.002290  0.821890  0.084540  1.0  0.1176
  H  H187  1  0.002750  0.915990  0.177860  1.0  0.1182
  H  H188  1  0.004290  0.863350  0.230810  1.0  0.1228
  H  H189  1  0.960920  0.811500  0.260700  1.0  0.1223
  H  H190  1  0.960820  0.758720  0.313710  1.0  0.1215
  H  H191  1  0.046650  0.687230  0.242720  1.0  0.1185
  H  H192  1  0.046750  0.740040  0.189680  1.0  0.117
  H  H193  1  0.002690  0.635470  0.272070  1.0  0.1229
  H  H194  1  0.001700  0.582500  0.324720  1.0  0.1168
  H  H195  1  0.002180  0.676040  0.418600  1.0  0.1185
  H  H196  1  0.003970  0.728870  0.365810  1.0  0.1248
  H  H197  1  0.502990  0.727280  0.865020  1.0  0.1257
  H  H198  1  0.502100  0.675030  0.918080  1.0  0.1128
  H  H199  1  0.502790  0.580750  0.824530  1.0  0.1159
  H  H200  1  0.504490  0.633390  0.771890  1.0  0.1235
  H  H201  1  0.461730  0.685180  0.741430  1.0  0.123
  H  H202  1  0.461860  0.738000  0.688470  1.0  0.1202
  H  H203  1  0.546610  0.809870  0.760350  1.0  0.1223
  H  H204  1  0.546480  0.757020  0.813340  1.0  0.1232
  H  H205  1  0.503350  0.861620  0.730420  1.0  0.1231
  H  H206  1  0.502650  0.914610  0.677760  1.0  0.1178
  H  H207  1  0.503240  0.821110  0.583880  1.0  0.1157
  H  H208  1  0.504750  0.768250  0.636660  1.0  0.1251
  H  H209  1  0.503350  0.269800  0.137470  1.0  0.1246
  H  H210  1  0.502480  0.322440  0.084480  1.0  0.1127
  H  H211  1  0.502790  0.416340  0.177990  1.0  0.1174
  H  H212  1  0.504460  0.363570  0.230830  1.0  0.1225
  H  H213  1  0.461340  0.311530  0.260720  1.0  0.1218
  H  H214  1  0.461340  0.258560  0.313530  1.0  0.1219
  H  H215  1  0.547070  0.187350  0.242150  1.0  0.1196
  H  H216  1  0.547080  0.240360  0.189310  1.0  0.1193
  H  H217  1  0.503330  0.135410  0.271480  1.0  0.1213
  H  H218  1  0.502500  0.082290  0.324010  1.0  0.1146
  H  H219  1  0.502900  0.175600  0.418110  1.0  0.1164
  H  H220  1  0.504520  0.228560  0.365460  1.0  0.1231
  H  H221  1  0.002930  0.226990  0.865400  1.0  0.1266
  H  H222  1  0.002380  0.174610  0.918330  1.0  0.1137
  H  H223  1  0.002730  0.080540  0.824570  1.0  0.1148
  H  H224  1  0.004090  0.133320  0.772030  1.0  0.1236
  H  H225  1  0.961220  0.185090  0.741800  1.0  0.1222
  H  H226  1  0.960940  0.238070  0.689000  1.0  0.1199
  H  H227  1  0.045640  0.310080  0.760790  1.0  0.1228
  H  H228  1  0.045920  0.257070  0.813610  1.0  0.1174
  H  H229  1  0.002280  0.361820  0.731040  1.0  0.1236
  H  H230  1  0.001390  0.414910  0.678470  1.0  0.116
  H  H231  1  0.001710  0.321580  0.584430  1.0  0.1152
  H  H232  1  0.003410  0.268630  0.637100  1.0  0.1239
  H  H233  1  0.228490  0.994330  0.137260  1.0  0.1228
  H  H234  1  0.175840  0.995250  0.084280  1.0  0.1153
  H  H235  1  0.081960  0.994860  0.177820  1.0  0.1181
  H  H236  1  0.134740  0.993140  0.230650  1.0  0.1218
  H  H237  1  0.186800  0.036450  0.260360  1.0  0.1244
  H  H238  1  0.239730  0.036400  0.313200  1.0  0.1215
  H  H239  1  0.310760  0.950340  0.242020  1.0  0.1196
  H  H240  1  0.257770  0.950390  0.189130  1.0  0.1186
  H  H241  1  0.362730  0.994240  0.271300  1.0  0.1233
  H  H242  1  0.415770  0.995060  0.323910  1.0  0.1136
  H  H243  1  0.322300  0.994530  0.417870  1.0  0.1156
  H  H244  1  0.269440  0.992920  0.365140  1.0  0.1219
  H  H245  1  0.269240  0.492720  0.865080  1.0  0.1234
  H  H246  1  0.322110  0.494500  0.917770  1.0  0.1134
  H  H247  1  0.415540  0.495440  0.823770  1.0  0.1144
  H  H248  1  0.362470  0.494440  0.771180  1.0  0.1206
  H  H249  1  0.310550  0.450440  0.741860  1.0  0.1192
  H  H250  1  0.257450  0.450350  0.689090  1.0  0.119
  H  H251  1  0.186340  0.536110  0.760550  1.0  0.1237
  H  H252  1  0.239390  0.536200  0.813270  1.0  0.1217
  H  H253  1  0.134360  0.492610  0.730970  1.0  0.1222
  H  H254  1  0.081430  0.494310  0.678290  1.0  0.1144
  H  H255  1  0.175070  0.495140  0.584500  1.0  0.1139
  H  H256  1  0.227860  0.494230  0.637330  1.0  0.1245
  H  H257  1  0.769520  0.992570  0.864790  1.0  0.1223
  H  H258  1  0.822270  0.994340  0.917640  1.0  0.11
  H  H259  1  0.915930  0.995180  0.823860  1.0  0.1155
  H  H260  1  0.863010  0.994200  0.771150  1.0  0.1214
  H  H261  1  0.811210  0.950130  0.741790  1.0  0.1199
  H  H262  1  0.758320  0.950100  0.688790  1.0  0.1179
  H  H263  1  0.687090  0.036070  0.759870  1.0  0.1211
  H  H264  1  0.739920  0.036110  0.812810  1.0  0.1229
  H  H265  1  0.635230  0.992380  0.730260  1.0  0.1234
  H  H266  1  0.582450  0.994030  0.677480  1.0  0.1139
  H  H267  1  0.676300  0.994980  0.583890  1.0  0.1155
  H  H268  1  0.728970  0.994120  0.636870  1.0  0.1212
  H  H269  1  0.728640  0.495830  0.137790  1.0  0.122
  H  H270  1  0.676040  0.496450  0.084690  1.0  0.1126
  H  H271  1  0.582030  0.496120  0.178040  1.0  0.1156
  H  H272  1  0.634710  0.494690  0.230990  1.0  0.1225
  H  H273  1  0.686460  0.537240  0.261550  1.0  0.1228
  H  H274  1  0.739180  0.537130  0.314590  1.0  0.1212
  H  H275  1  0.811350  0.452650  0.242700  1.0  0.1224
  H  H276  1  0.758590  0.452770  0.189620  1.0  0.1225
  H  H277  1  0.863000  0.495590  0.272950  1.0  0.1242
  H  H278  1  0.915840  0.496130  0.325420  1.0  0.114
  H  H279  1  0.821910  0.495810  0.419320  1.0  0.1138
  H  H280  1  0.769470  0.494450  0.366440  1.0  0.1229
  H  H281  1  0.135590  0.002670  0.771330  1.0  0.1199
  H  H282  1  0.082560  0.001890  0.823940  1.0  0.1162
  H  H283  1  0.176040  0.002460  0.917900  1.0  0.1146
  H  H284  1  0.228900  0.004030  0.865160  1.0  0.1222
  H  H285  1  0.258590  0.960530  0.813230  1.0  0.1219
  H  H286  1  0.311500  0.960450  0.760350  1.0  0.1204
  H  H287  1  0.240490  0.046480  0.689120  1.0  0.1173
  H  H288  1  0.187540  0.046560  0.742040  1.0  0.1198
  H  H289  1  0.269750  0.002460  0.637260  1.0  0.1227
  H  H290  1  0.322390  0.001560  0.584270  1.0  0.1133
  H  H291  1  0.416290  0.002130  0.677790  1.0  0.1145
  H  H292  1  0.363530  0.003820  0.730620  1.0  0.1211
  H  H293  1  0.268960  0.504680  0.136710  1.0  0.1209
  H  H294  1  0.321810  0.503160  0.083960  1.0  0.1158
  H  H295  1  0.415310  0.502690  0.177860  1.0  0.1178
  H  H296  1  0.362290  0.503410  0.230510  1.0  0.1215
  H  H297  1  0.310430  0.546790  0.260260  1.0  0.1228
  H  H298  1  0.257470  0.546720  0.313160  1.0  0.1243
  H  H299  1  0.185930  0.461610  0.241380  1.0  0.124
  H  H300  1  0.238850  0.461660  0.188530  1.0  0.1212
  H  H301  1  0.134010  0.504550  0.271510  1.0  0.1219
  H  H302  1  0.081210  0.502900  0.324330  1.0  0.1155
  H  H303  1  0.175050  0.502350  0.417880  1.0  0.114
  H  H304  1  0.227730  0.503200  0.364910  1.0  0.1231
  H  H305  1  0.770340  0.004060  0.135500  1.0  0.1251
  H  H306  1  0.822880  0.002550  0.082750  1.0  0.1104
  H  H307  1  0.916630  0.002230  0.176830  1.0  0.1131
  H  H308  1  0.863670  0.002930  0.229200  1.0  0.1236
  H  H309  1  0.811940  0.045940  0.259290  1.0  0.121
  H  H310  1  0.759030  0.045880  0.312230  1.0  0.1192
  H  H311  1  0.687060  0.961370  0.240180  1.0  0.1228
  H  H312  1  0.739940  0.961420  0.187280  1.0  0.1229
  H  H313  1  0.635230  0.003950  0.270640  1.0  0.1214
  H  H314  1  0.582470  0.002370  0.323520  1.0  0.117
  H  H315  1  0.676360  0.002010  0.416990  1.0  0.1165
  H  H316  1  0.729020  0.002770  0.363980  1.0  0.1217
  H  H317  1  0.634050  0.503150  0.772550  1.0  0.1224
  H  H318  1  0.581120  0.502410  0.824930  1.0  0.1125
  H  H319  1  0.674920  0.502950  0.918990  1.0  0.1134
  H  H320  1  0.727420  0.504490  0.866210  1.0  0.1246
  H  H321  1  0.757390  0.461330  0.814330  1.0  0.1225
  H  H322  1  0.810230  0.461250  0.761390  1.0  0.1232
  H  H323  1  0.738720  0.546590  0.689850  1.0  0.1222
  H  H324  1  0.685840  0.546670  0.742830  1.0  0.124
  H  H325  1  0.768350  0.503080  0.637990  1.0  0.1218
  H  H326  1  0.821000  0.502280  0.584980  1.0  0.1157
  H  H327  1  0.914890  0.502620  0.678490  1.0  0.115
  H  H328  1  0.862140  0.504230  0.731340  1.0  0.1222
  C  C329  1  0.092640  0.092120  0.998500  1.0  0.6542
  C  C330  1  0.905630  0.092370  0.002810  1.0  0.6562
  C  C331  1  0.001270  0.092250  0.906900  1.0  0.6519
  C  C332  1  0.996770  0.092460  0.094110  1.0  0.6618
  C  C333  1  0.905520  0.905360  0.998560  1.0  0.6495
  C  C334  1  0.092690  0.904940  0.003140  1.0  0.6523
  C  C335  1  0.905650  0.996340  0.907290  1.0  0.656
  C  C336  1  0.905210  0.001040  0.094450  1.0  0.6553
  C  C337  1  0.092390  0.996550  0.094420  1.0  0.6561
  C  C338  1  0.092660  0.000760  0.907410  1.0  0.649
  C  C339  1  0.996910  0.904880  0.907280  1.0  0.6514
  C  C340  1  0.001120  0.905400  0.094490  1.0  0.6554
  C  C341  1  0.592200  0.592830  0.998330  1.0  0.6535
  C  C342  1  0.405150  0.592730  0.002640  1.0  0.661
  C  C343  1  0.501020  0.592650  0.906790  1.0  0.6541
  C  C344  1  0.496370  0.592930  0.093940  1.0  0.6541
  C  C345  1  0.405510  0.405640  0.998710  1.0  0.6565
  C  C346  1  0.592540  0.405840  0.003310  1.0  0.6586
  C  C347  1  0.405460  0.496600  0.907270  1.0  0.6499
  C  C348  1  0.405270  0.501520  0.094320  1.0  0.6634
  C  C349  1  0.592420  0.497510  0.094540  1.0  0.6577
  C  C350  1  0.592650  0.501300  0.907250  1.0  0.6519
  C  C351  1  0.496880  0.405470  0.907510  1.0  0.6579
  C  C352  1  0.501170  0.405920  0.094550  1.0  0.6587
  C  C353  1  0.091730  0.592260  0.499350  1.0  0.6597
  C  C354  1  0.904580  0.592710  0.503860  1.0  0.654
  C  C355  1  0.000400  0.592620  0.408180  1.0  0.6531
  C  C356  1  0.996120  0.592280  0.595290  1.0  0.6608
  C  C357  1  0.904510  0.405590  0.498980  1.0  0.6534
  C  C358  1  0.091550  0.405190  0.503390  1.0  0.6574
  C  C359  1  0.904280  0.497160  0.407780  1.0  0.6536
  C  C360  1  0.904530  0.501040  0.595050  1.0  0.6588
  C  C361  1  0.091640  0.496300  0.594870  1.0  0.6567
  C  C362  1  0.091530  0.501170  0.407800  1.0  0.6563
  C  C363  1  0.995670  0.405560  0.407740  1.0  0.6589
  C  C364  1  0.000150  0.405070  0.594880  1.0  0.6622
  C  C365  1  0.592520  0.091980  0.498590  1.0  0.6485
  C  C366  1  0.405510  0.091850  0.503260  1.0  0.6614
  C  C367  1  0.501280  0.092200  0.407520  1.0  0.6574
  C  C368  1  0.497050  0.091680  0.594550  1.0  0.6593
  C  C369  1  0.405770  0.904830  0.498510  1.0  0.6587
  C  C370  1  0.592860  0.904910  0.502750  1.0  0.6617
  C  C371  1  0.405680  0.996270  0.407390  1.0  0.6563
  C  C372  1  0.405850  0.000390  0.594400  1.0  0.6559
  C  C373  1  0.592840  0.996020  0.594120  1.0  0.6515
  C  C374  1  0.592770  0.000790  0.407040  1.0  0.6604
  C  C375  1  0.496860  0.905200  0.407150  1.0  0.6522
  C  C376  1  0.501560  0.904600  0.594210  1.0  0.6601
  C  C377  1  0.186160  0.185860  0.995870  1.0  0.0837
  C  C378  1  0.196920  0.144130  0.996380  1.0  -0.1302
  C  C379  1  0.166660  0.113750  0.997080  1.0  -0.0705
  C  C380  1  0.124840  0.124340  0.997250  1.0  -0.0913
  C  C381  1  0.114120  0.166120  0.996460  1.0  -0.0697
  C  C382  1  0.144390  0.196460  0.995800  1.0  -0.1402
  C  C383  1  0.218340  0.218210  0.995710  1.0  0.0874
  C  C384  1  0.213600  0.253960  0.019320  1.0  -0.1336
  C  C385  1  0.243870  0.284320  0.019340  1.0  -0.1295
  C  C386  1  0.279650  0.279700  0.995760  1.0  0.0868
  C  C387  1  0.284390  0.243960  0.972120  1.0  -0.1371
  C  C388  1  0.254110  0.213590  0.972100  1.0  -0.1411
  C  C389  1  0.311930  0.311960  0.995990  1.0  0.0833
  C  C390  1  0.353680  0.301280  0.996510  1.0  -0.1349
  C  C391  1  0.384000  0.331600  0.997250  1.0  -0.0694
  C  C392  1  0.373330  0.373400  0.997470  1.0  -0.0929
  C  C393  1  0.331530  0.384050  0.996690  1.0  -0.0726
  C  C394  1  0.301240  0.353710  0.995980  1.0  -0.1387
  C  C395  1  0.185530  0.685770  0.496490  1.0  0.0833
  C  C396  1  0.196150  0.644000  0.496780  1.0  -0.1347
  C  C397  1  0.165790  0.613710  0.497580  1.0  -0.0729
  C  C398  1  0.124000  0.624420  0.498080  1.0  -0.0905
  C  C399  1  0.113420  0.666240  0.497540  1.0  -0.0712
  C  C400  1  0.143790  0.696500  0.496780  1.0  -0.1386
  C  C401  1  0.217850  0.718020  0.496170  1.0  0.0858
  C  C402  1  0.213410  0.753760  0.519860  1.0  -0.1375
  C  C403  1  0.243820  0.783980  0.519760  1.0  -0.138
  C  C404  1  0.279460  0.779250  0.495970  1.0  0.0873
  C  C405  1  0.283910  0.743520  0.472260  1.0  -0.1355
  C  C406  1  0.253480  0.713280  0.472350  1.0  -0.1419
  C  C407  1  0.311870  0.811400  0.496040  1.0  0.0842
  C  C408  1  0.353600  0.800590  0.496260  1.0  -0.134
  C  C409  1  0.384030  0.830820  0.496890  1.0  -0.0674
  C  C410  1  0.373500  0.872660  0.497290  1.0  -0.0957
  C  C411  1  0.331730  0.883420  0.496780  1.0  -0.0724
  C  C412  1  0.301340  0.853190  0.496190  1.0  -0.1372
  C  C413  1  0.811660  0.812120  0.995550  1.0  0.0841
  C  C414  1  0.801120  0.853900  0.995670  1.0  -0.1372
  C  C415  1  0.831520  0.884090  0.996470  1.0  -0.0739
  C  C416  1  0.873260  0.873270  0.997220  1.0  -0.0857
  C  C417  1  0.883790  0.831440  0.996850  1.0  -0.0697
  C  C418  1  0.853360  0.801260  0.996020  1.0  -0.1314
  C  C419  1  0.779280  0.780030  0.995240  1.0  0.0856
  C  C420  1  0.783800  0.744450  0.971350  1.0  -0.1359
  C  C421  1  0.753420  0.714190  0.971300  1.0  -0.136
  C  C422  1  0.717810  0.718810  0.995120  1.0  0.0844
  C  C423  1  0.713260  0.754430  0.018950  1.0  -0.1358
  C  C424  1  0.743630  0.784670  0.019010  1.0  -0.1369
  C  C425  1  0.685620  0.686520  0.995360  1.0  0.0829
  C  C426  1  0.643860  0.697160  0.995460  1.0  -0.1393
  C  C427  1  0.613600  0.666820  0.996220  1.0  -0.0701
  C  C428  1  0.624340  0.625060  0.996970  1.0  -0.0889
  C  C429  1  0.666150  0.614450  0.996630  1.0  -0.0719
  C  C430  1  0.696390  0.644800  0.995830  1.0  -0.1348
  C  C431  1  0.810960  0.312120  0.495810  1.0  0.0764
  C  C432  1  0.800260  0.353850  0.496100  1.0  -0.1361
  C  C433  1  0.830550  0.384150  0.496950  1.0  -0.0678
  C  C434  1  0.872330  0.373450  0.497580  1.0  -0.0887
  C  C435  1  0.882990  0.331650  0.497050  1.0  -0.0718
  C  C436  1  0.852680  0.301380  0.496170  1.0  -0.1301
  C  C437  1  0.778730  0.279900  0.495490  1.0  0.0778
  C  C438  1  0.783330  0.244430  0.471450  1.0  -0.1373
  C  C439  1  0.753140  0.214010  0.471450  1.0  -0.1428
  C  C440  1  0.717630  0.218350  0.495480  1.0  0.0802
  C  C441  1  0.713000  0.253860  0.519460  1.0  -0.1365
  C  C442  1  0.743190  0.284270  0.519470  1.0  -0.1344
  C  C443  1  0.685600  0.185930  0.495720  1.0  0.076
  C  C444  1  0.643820  0.196430  0.495940  1.0  -0.1388
  C  C445  1  0.613680  0.166000  0.496690  1.0  -0.0698
  C  C446  1  0.624570  0.124260  0.497290  1.0  -0.0902
  C  C447  1  0.666410  0.113790  0.496820  1.0  -0.0733
  C  C448  1  0.696540  0.144260  0.496030  1.0  -0.1306
  C  C449  1  0.812200  0.186250  0.005590  1.0  0.0834
  C  C450  1  0.853990  0.196810  0.005280  1.0  -0.1397
  C  C451  1  0.884230  0.166420  0.004530  1.0  -0.0691
  C  C452  1  0.873470  0.124650  0.004040  1.0  -0.0918
  C  C453  1  0.831640  0.114110  0.004560  1.0  -0.0711
  C  C454  1  0.801410  0.144520  0.005340  1.0  -0.1311
  C  C455  1  0.780030  0.218630  0.005910  1.0  0.0857
  C  C456  1  0.744420  0.214070  0.029780  1.0  -0.1384
  C  C457  1  0.714120  0.244430  0.029880  1.0  -0.1369
  C  C458  1  0.718670  0.280110  0.006100  1.0  0.0865
  C  C459  1  0.754310  0.284680  0.982280  1.0  -0.1369
  C  C460  1  0.784600  0.254330  0.982190  1.0  -0.1431
  C  C461  1  0.686340  0.312330  0.005950  1.0  0.0824
  C  C462  1  0.696940  0.354100  0.005690  1.0  -0.1377
  C  C463  1  0.666580  0.384380  0.005040  1.0  -0.0725
  C  C464  1  0.624800  0.373660  0.004570  1.0  -0.0946
  C  C465  1  0.614220  0.331840  0.005060  1.0  -0.0687
  C  C466  1  0.644600  0.301580  0.005750  1.0  -0.1323
  C  C467  1  0.812630  0.685190  0.506310  1.0  0.0844
  C  C468  1  0.854400  0.695700  0.506210  1.0  -0.0953
  C  C469  1  0.884670  0.665330  0.505620  1.0  -0.0884
  C  C470  1  0.874040  0.623400  0.505030  1.0  -0.0261
  C  C471  1  0.832050  0.613020  0.505390  1.0  -0.0943
  C  C472  1  0.801850  0.643480  0.506030  1.0  -0.0967
  C  C473  1  0.780440  0.717600  0.506390  1.0  0.0858
  C  C474  1  0.744630  0.713050  0.529960  1.0  -0.135
  C  C475  1  0.714310  0.743410  0.529800  1.0  -0.1317
  C  C476  1  0.719040  0.779090  0.506060  1.0  0.0873
  C  C477  1  0.754880  0.783650  0.482540  1.0  -0.1345
  C  C478  1  0.785180  0.753300  0.482700  1.0  -0.1394
  C  C479  1  0.686680  0.811330  0.505660  1.0  0.0839
  C  C480  1  0.697280  0.853120  0.505410  1.0  -0.1367
  C  C481  1  0.666920  0.883410  0.504610  1.0  -0.072
  C  C482  1  0.625130  0.872710  0.504000  1.0  -0.0936
  C  C483  1  0.614550  0.830880  0.504440  1.0  -0.0703
  C  C484  1  0.644940  0.800610  0.505280  1.0  -0.1368
  C  C485  1  0.185200  0.311320  0.505910  1.0  0.0835
  C  C486  1  0.195890  0.353080  0.505660  1.0  -0.1314
  C  C487  1  0.165600  0.383470  0.504980  1.0  -0.0783
  C  C488  1  0.123770  0.372900  0.504550  1.0  -0.094
  C  C489  1  0.113090  0.331100  0.505030  1.0  -0.0673
  C  C490  1  0.143400  0.300730  0.505680  1.0  -0.1398
  C  C491  1  0.217470  0.278950  0.506150  1.0  0.0847
  C  C492  1  0.212850  0.243120  0.482610  1.0  -0.1367
  C  C493  1  0.243220  0.212820  0.482610  1.0  -0.1382
  C  C494  1  0.279040  0.217540  0.506140  1.0  0.0847
  C  C495  1  0.283650  0.253340  0.529730  1.0  -0.1348
  C  C496  1  0.253270  0.283650  0.529730  1.0  -0.1349
  C  C497  1  0.311480  0.185340  0.505920  1.0  0.0841
  C  C498  1  0.353230  0.196110  0.505660  1.0  -0.1308
  C  C499  1  0.383670  0.165880  0.504950  1.0  -0.0686
  C  C500  1  0.373180  0.124020  0.504510  1.0  -0.0962
  C  C501  1  0.331390  0.113280  0.505030  1.0  -0.0753
  C  C502  1  0.300980  0.143520  0.505700  1.0  -0.1374
  C  C503  1  0.184870  0.812510  0.005530  1.0  0.0817
  C  C504  1  0.195550  0.854260  0.005310  1.0  -0.0983
  C  C505  1  0.165290  0.884690  0.004680  1.0  -0.0916
  C  C506  1  0.123290  0.874270  0.004260  1.0  -0.0316
  C  C507  1  0.112760  0.832310  0.004770  1.0  -0.0895
  C  C508  1  0.143090  0.801960  0.005370  1.0  -0.0974
  C  C509  1  0.217160  0.780100  0.005660  1.0  0.0853
  C  C510  1  0.212430  0.744240  0.982180  1.0  -0.1336
  C  C511  1  0.242790  0.713910  0.982100  1.0  -0.1374
  C  C512  1  0.278710  0.718610  0.005490  1.0  0.0817
  C  C513  1  0.283430  0.754450  0.029010  1.0  -0.1321
  C  C514  1  0.253060  0.784790  0.029090  1.0  -0.1324
  C  C515  1  0.311140  0.686350  0.005190  1.0  0.0837
  C  C516  1  0.352900  0.697070  0.004890  1.0  -0.1375
  C  C517  1  0.383330  0.666800  0.004190  1.0  -0.0688
  C  C518  1  0.372810  0.624950  0.003790  1.0  -0.0996
  C  C519  1  0.331010  0.614250  0.004310  1.0  -0.0738
  C  C520  1  0.300610  0.644540  0.004970  1.0  -0.1387
  C  C521  1  0.993720  0.186330  0.187590  1.0  0.0841
  C  C522  1  0.994060  0.196910  0.145810  1.0  -0.138
  C  C523  1  0.994890  0.166540  0.115540  1.0  -0.0685
  C  C524  1  0.995450  0.124750  0.126270  1.0  -0.0901
  C  C525  1  0.994900  0.114200  0.168100  1.0  -0.0718
  C  C526  1  0.994040  0.144600  0.198350  1.0  -0.1304
  C  C527  1  0.993300  0.218690  0.219810  1.0  0.0866
  C  C528  1  0.969480  0.214010  0.255440  1.0  -0.1351
  C  C529  1  0.969340  0.244310  0.285810  1.0  -0.1335
  C  C530  1  0.993020  0.280050  0.281320  1.0  0.0849
  C  C531  1  0.016780  0.284760  0.245660  1.0  -0.1379
  C  C532  1  0.016920  0.254470  0.215300  1.0  -0.1377
  C  C533  1  0.993130  0.312210  0.313740  1.0  0.0848
  C  C534  1  0.993300  0.354010  0.303230  1.0  -0.1391
  C  C535  1  0.993910  0.384230  0.333650  1.0  -0.073
  C  C536  1  0.994430  0.373430  0.375420  1.0  -0.0974
  C  C537  1  0.994010  0.331590  0.385910  1.0  -0.0698
  C  C538  1  0.993360  0.301380  0.355460  1.0  -0.1323
  C  C539  1  0.494270  0.311400  0.814230  1.0  0.0849
  C  C540  1  0.494550  0.353120  0.803370  1.0  -0.1289
  C  C541  1  0.495260  0.383590  0.833550  1.0  -0.0716
  C  C542  1  0.495680  0.373130  0.875410  1.0  -0.0954
  C  C543  1  0.495150  0.331370  0.886230  1.0  -0.0704
  C  C544  1  0.494480  0.300920  0.856030  1.0  -0.1382
  C  C545  1  0.494030  0.278960  0.782090  1.0  0.0863
  C  C546  1  0.517710  0.243240  0.786780  1.0  -0.1336
  C  C547  1  0.517720  0.212860  0.756510  1.0  -0.137
  C  C548  1  0.494050  0.217410  0.720770  1.0  0.0867
  C  C549  1  0.470300  0.253090  0.716110  1.0  -0.1353
  C  C550  1  0.470290  0.283480  0.746390  1.0  -0.1372
  C  C551  1  0.494330  0.185180  0.688420  1.0  0.0852
  C  C552  1  0.494610  0.195920  0.646680  1.0  -0.1325
  C  C553  1  0.495360  0.165670  0.616290  1.0  -0.0678
  C  C554  1  0.495830  0.123840  0.626850  1.0  -0.0894
  C  C555  1  0.495310  0.113120  0.668630  1.0  -0.076
  C  C556  1  0.494600  0.143390  0.699000  1.0  -0.1355
  C  C557  1  0.994210  0.812290  0.815270  1.0  0.0829
  C  C558  1  0.994510  0.854020  0.804510  1.0  -0.0966
  C  C559  1  0.995270  0.884500  0.834710  1.0  -0.093
  C  C560  1  0.995740  0.874160  0.876720  1.0  -0.0331
  C  C561  1  0.995170  0.832220  0.887340  1.0  -0.0922
  C  C562  1  0.994450  0.801820  0.857060  1.0  -0.0968
  C  C563  1  0.993890  0.779830  0.783050  1.0  0.0839
  C  C564  1  0.017310  0.743920  0.787770  1.0  -0.1352
  C  C565  1  0.017210  0.713530  0.757480  1.0  -0.1385
  C  C566  1  0.993700  0.718220  0.721630  1.0  0.0847
  C  C567  1  0.970230  0.754090  0.716930  1.0  -0.1324
  C  C568  1  0.970330  0.784490  0.747240  1.0  -0.1384
  C  C569  1  0.993840  0.685930  0.689240  1.0  0.0824
  C  C570  1  0.994040  0.696620  0.647480  1.0  -0.1285
  C  C571  1  0.994630  0.666330  0.617080  1.0  -0.0649
  C  C572  1  0.995030  0.624490  0.627620  1.0  -0.0928
  C  C573  1  0.994600  0.613810  0.669420  1.0  -0.0724
  C  C574  1  0.994040  0.644120  0.699800  1.0  -0.1395
  C  C575  1  0.493270  0.686670  0.187200  1.0  0.0811
  C  C576  1  0.493420  0.697280  0.145450  1.0  -0.1381
  C  C577  1  0.494230  0.666930  0.115220  1.0  -0.065
  C  C578  1  0.494970  0.625180  0.126010  1.0  -0.0878
  C  C579  1  0.494580  0.614590  0.167830  1.0  -0.0722
  C  C580  1  0.493730  0.644970  0.198030  1.0  -0.1304
  C  C581  1  0.493010  0.718960  0.219340  1.0  0.0816
  C  C582  1  0.469070  0.714390  0.254890  1.0  -0.1387
  C  C583  1  0.469160  0.744630  0.285270  1.0  -0.1353
  C  C584  1  0.493180  0.780120  0.280800  1.0  0.0773
  C  C585  1  0.517040  0.784720  0.245210  1.0  -0.1365
  C  C586  1  0.516960  0.754500  0.214850  1.0  -0.1331
  C  C587  1  0.493560  0.812150  0.313200  1.0  0.0768
  C  C588  1  0.493730  0.853930  0.302700  1.0  -0.1348
  C  C589  1  0.494630  0.884070  0.333130  1.0  -0.072
  C  C590  1  0.495420  0.873170  0.374860  1.0  -0.0881
  C  C591  1  0.495010  0.831330  0.385340  1.0  -0.0678
  C  C592  1  0.494080  0.801210  0.354870  1.0  -0.1318
  C  C593  1  0.003680  0.812130  0.188500  1.0  0.0835
  C  C594  1  0.003410  0.801270  0.146790  1.0  -0.1298
  C  C595  1  0.002730  0.831450  0.116330  1.0  -0.0668
  C  C596  1  0.002320  0.873300  0.126810  1.0  -0.0903
  C  C597  1  0.002850  0.884120  0.168560  1.0  -0.0758
  C  C598  1  0.003490  0.853930  0.198990  1.0  -0.139
  C  C599  1  0.003860  0.780010  0.220930  1.0  0.0864
  C  C600  1  0.980090  0.784710  0.256590  1.0  -0.1365
  C  C601  1  0.980040  0.754460  0.286980  1.0  -0.1328
  C  C602  1  0.003730  0.718740  0.282480  1.0  0.0854
  C  C603  1  0.027560  0.714060  0.246860  1.0  -0.1341
  C  C604  1  0.027620  0.744330  0.216460  1.0  -0.1312
  C  C605  1  0.003380  0.686420  0.314700  1.0  0.0832
  C  C606  1  0.003020  0.644690  0.303950  1.0  -0.1359
  C  C607  1  0.002190  0.614310  0.334210  1.0  -0.0726
  C  C608  1  0.001730  0.624890  0.376030  1.0  -0.0886
  C  C609  1  0.002330  0.666667  0.386760  1.0  -0.0688
  C  C610  1  0.003120  0.697030  0.356480  1.0  -0.1353
  C  C611  1  0.503770  0.684600  0.814160  1.0  0.0829
  C  C612  1  0.503390  0.695380  0.855880  1.0  -0.1039
  C  C613  1  0.502610  0.665200  0.886370  1.0  -0.0924
  C  C614  1  0.502200  0.623180  0.876050  1.0  -0.0332
  C  C615  1  0.502860  0.612540  0.834120  1.0  -0.0887
  C  C616  1  0.503600  0.642800  0.803710  1.0  -0.0999
  C  C617  1  0.504100  0.716800  0.781690  1.0  0.085
  C  C618  1  0.480730  0.712050  0.745760  1.0  -0.1373
  C  C619  1  0.480800  0.742350  0.715380  1.0  -0.1299
  C  C620  1  0.504260  0.778230  0.720100  1.0  0.0847
  C  C621  1  0.527690  0.782950  0.755990  1.0  -0.1353
  C  C622  1  0.527610  0.752640  0.786380  1.0  -0.1319
  C  C623  1  0.504080  0.810630  0.687830  1.0  0.0838
  C  C624  1  0.503780  0.852400  0.698540  1.0  -0.1295
  C  C625  1  0.503120  0.882810  0.668270  1.0  -0.0698
  C  C626  1  0.502760  0.872280  0.626420  1.0  -0.0962
  C  C627  1  0.503310  0.830480  0.615730  1.0  -0.0672
  C  C628  1  0.503930  0.800090  0.646020  1.0  -0.1375
  C  C629  1  0.503950  0.312440  0.188410  1.0  0.0837
  C  C630  1  0.503680  0.301680  0.146680  1.0  -0.1301
  C  C631  1  0.502920  0.331930  0.116280  1.0  -0.0689
  C  C632  1  0.502430  0.373760  0.126840  1.0  -0.093
  C  C633  1  0.502960  0.384490  0.168630  1.0  -0.0761
  C  C634  1  0.503680  0.354220  0.199000  1.0  -0.1343
  C  C635  1  0.504220  0.280220  0.220760  1.0  0.0862
  C  C636  1  0.480520  0.284770  0.256480  1.0  -0.1371
  C  C637  1  0.480520  0.254400  0.286760  1.0  -0.1321
  C  C638  1  0.504210  0.218690  0.282100  1.0  0.0864
  C  C639  1  0.527980  0.214160  0.246410  1.0  -0.1358
  C  C640  1  0.527980  0.244540  0.216130  1.0  -0.1345
  C  C641  1  0.503950  0.186260  0.314230  1.0  0.085
  C  C642  1  0.503670  0.144540  0.303380  1.0  -0.1347
  C  C643  1  0.502940  0.114080  0.333570  1.0  -0.0746
  C  C644  1  0.502500  0.124550  0.375420  1.0  -0.0907
  C  C645  1  0.503020  0.166310  0.386240  1.0  -0.0686
  C  C646  1  0.503720  0.196740  0.356040  1.0  -0.1367
  C  C647  1  0.003520  0.184440  0.814410  1.0  0.0813
  C  C648  1  0.003330  0.195110  0.856170  1.0  -0.099
  C  C649  1  0.002750  0.164850  0.886600  1.0  -0.0895
  C  C650  1  0.002340  0.122850  0.876200  1.0  -0.0258
  C  C651  1  0.002810  0.112310  0.834230  1.0  -0.0929
  C  C652  1  0.003350  0.142650  0.803880  1.0  -0.0994
  C  C653  1  0.003600  0.216750  0.782010  1.0  0.0798
  C  C654  1  0.980120  0.212020  0.746150  1.0  -0.139
  C  C655  1  0.979960  0.242430  0.715850  1.0  -0.1348
  C  C656  1  0.003270  0.278400  0.720580  1.0  0.0799
  C  C657  1  0.026810  0.283100  0.756410  1.0  -0.1307
  C  C658  1  0.026980  0.252690  0.786720  1.0  -0.1328
  C  C659  1  0.002890  0.310890  0.688370  1.0  0.0774
  C  C660  1  0.002600  0.352640  0.699150  1.0  -0.1139
  C  C661  1  0.001820  0.383120  0.668920  1.0  -0.073
  C  C662  1  0.001350  0.372680  0.627050  1.0  -0.0942
  C  C663  1  0.001860  0.330890  0.616290  1.0  -0.0687
  C  C664  1  0.002600  0.300440  0.646530  1.0  -0.1359
  C  C665  1  0.185840  0.993700  0.188190  1.0  0.0836
  C  C666  1  0.196600  0.994000  0.146470  1.0  -0.1322
  C  C667  1  0.166360  0.994790  0.116090  1.0  -0.0684
  C  C668  1  0.124540  0.995270  0.126680  1.0  -0.0923
  C  C669  1  0.113800  0.994710  0.168450  1.0  -0.0715
  C  C670  1  0.144070  0.993960  0.198800  1.0  -0.1369
  C  C671  1  0.218030  0.993410  0.220520  1.0  0.0852
  C  C672  1  0.213510  0.017200  0.256180  1.0  -0.1384
  C  C673  1  0.243850  0.017170  0.286460  1.0  -0.1344
  C  C674  1  0.279480  0.993350  0.281850  1.0  0.0861
  C  C675  1  0.283990  0.969510  0.246220  1.0  -0.1329
  C  C676  1  0.253630  0.969540  0.215930  1.0  -0.1412
  C  C677  1  0.311840  0.993560  0.314000  1.0  0.0843
  C  C678  1  0.353560  0.993860  0.303200  1.0  -0.1332
  C  C679  1  0.383970  0.994590  0.333420  1.0  -0.0705
  C  C680  1  0.373420  0.995010  0.375250  1.0  -0.0914
  C  C681  1  0.331650  0.994430  0.386020  1.0  -0.0696
  C  C682  1  0.301270  0.993740  0.355780  1.0  -0.1379
  C  C683  1  0.311610  0.493560  0.813920  1.0  0.083
  C  C684  1  0.301060  0.493670  0.855700  1.0  -0.1399
  C  C685  1  0.331450  0.494450  0.885910  1.0  -0.0701
  C  C686  1  0.373210  0.495200  0.875120  1.0  -0.0947
  C  C687  1  0.383750  0.494840  0.833290  1.0  -0.0671
  C  C688  1  0.353320  0.494010  0.803080  1.0  -0.1306
  C  C689  1  0.279210  0.493300  0.781800  1.0  0.0864
  C  C690  1  0.283730  0.469520  0.746140  1.0  -0.1423
  C  C691  1  0.253300  0.469460  0.715910  1.0  -0.1396
  C  C692  1  0.217630  0.493200  0.720610  1.0  0.0847
  C  C693  1  0.213110  0.516950  0.756290  1.0  -0.1392
  C  C694  1  0.243510  0.517000  0.786500  1.0  -0.1338
  C  C695  1  0.185350  0.493390  0.688370  1.0  0.0828
  C  C696  1  0.143610  0.493510  0.699100  1.0  -0.1383
  C  C697  1  0.113250  0.494250  0.668830  1.0  -0.0731
  C  C698  1  0.123870  0.494940  0.627030  1.0  -0.0955
  C  C699  1  0.165670  0.494580  0.616330  1.0  -0.0688
  C  C700  1  0.196000  0.493800  0.646620  1.0  -0.1292
  C  C701  1  0.812050  0.993360  0.813750  1.0  0.0825
  C  C702  1  0.801380  0.993490  0.855500  1.0  -0.1365
  C  C703  1  0.831680  0.994270  0.885800  1.0  -0.07
  C  C704  1  0.873460  0.994980  0.875110  1.0  -0.0895
  C  C705  1  0.884110  0.994600  0.833310  1.0  -0.0686
  C  C706  1  0.853780  0.993790  0.803030  1.0  -0.1332
  C  C707  1  0.779770  0.993100  0.781540  1.0  0.0873
  C  C708  1  0.784400  0.969260  0.745930  1.0  -0.1413
  C  C709  1  0.754110  0.969240  0.715580  1.0  -0.1371
  C  C710  1  0.718470  0.993060  0.720120  1.0  0.088
  C  C711  1  0.713840  0.016860  0.755750  1.0  -0.1382
  C  C712  1  0.744110  0.016880  0.786080  1.0  -0.1363
  C  C713  1  0.686310  0.993240  0.687790  1.0  0.0831
  C  C714  1  0.644560  0.993300  0.698420  1.0  -0.1374
  C  C715  1  0.614290  0.994010  0.668090  1.0  -0.0679
  C  C716  1  0.625020  0.994730  0.626310  1.0  -0.0911
  C  C717  1  0.666830  0.994410  0.615700  1.0  -0.0685
  C  C718  1  0.697080  0.993660  0.646070  1.0  -0.1326
  C  C719  1  0.685980  0.495240  0.188730  1.0  0.0767
  C  C720  1  0.696740  0.495460  0.146970  1.0  -0.1352
  C  C721  1  0.666510  0.496070  0.116480  1.0  -0.0811
  C  C722  1  0.624630  0.496460  0.126920  1.0  -0.0843
  C  C723  1  0.613890  0.496030  0.168720  1.0  -0.0733
  C  C724  1  0.644140  0.495450  0.199170  1.0  -0.1373
  C  C725  1  0.718200  0.495010  0.221250  1.0  0.0763
  C  C726  1  0.713370  0.518310  0.257220  1.0  -0.1348
  C  C727  1  0.743630  0.518240  0.287670  1.0  -0.1389
  C  C728  1  0.779580  0.494870  0.283000  1.0  0.0759
  C  C729  1  0.784390  0.471520  0.247050  1.0  -0.137
  C  C730  1  0.754120  0.471590  0.216590  1.0  -0.1312
  C  C731  1  0.811930  0.495010  0.315390  1.0  0.0781
  C  C732  1  0.853710  0.495200  0.304810  1.0  -0.1021
  C  C733  1  0.884090  0.495770  0.335130  1.0  -0.0883
  C  C734  1  0.873620  0.496170  0.377120  1.0  -0.0227
  C  C735  1  0.831630  0.495730  0.387560  1.0  -0.0952
  C  C736  1  0.801330  0.495200  0.357160  1.0  -0.098
  C  C737  1  0.186490  0.003380  0.814030  1.0  0.0836
  C  C738  1  0.144770  0.003070  0.803230  1.0  -0.132
  C  C739  1  0.114360  0.002360  0.833450  1.0  -0.0655
  C  C740  1  0.124920  0.001970  0.875280  1.0  -0.0907
  C  C741  1  0.166690  0.002540  0.886050  1.0  -0.0673
  C  C742  1  0.197060  0.003210  0.855800  1.0  -0.1344
  C  C743  1  0.218840  0.003570  0.781870  1.0  0.0866
  C  C744  1  0.254460  0.979750  0.786480  1.0  -0.1417
  C  C745  1  0.284780  0.979700  0.756180  1.0  -0.1324
  C  C746  1  0.280240  0.003470  0.720510  1.0  0.0869
  C  C747  1  0.244640  0.027340  0.715920  1.0  -0.137
  C  C748  1  0.214310  0.027390  0.746230  1.0  -0.137
  C  C749  1  0.312420  0.003170  0.688180  1.0  0.083
  C  C750  1  0.301640  0.002820  0.646460  1.0  -0.1317
  C  C751  1  0.331880  0.002050  0.616070  1.0  -0.0673
  C  C752  1  0.373700  0.001630  0.626650  1.0  -0.0929
  C  C753  1  0.384450  0.002230  0.668430  1.0  -0.0718
  C  C754  1  0.354190  0.002970  0.698780  1.0  -0.1365
  C  C755  1  0.311330  0.504060  0.187880  1.0  0.0845
  C  C756  1  0.300790  0.503890  0.146080  1.0  -0.136
  C  C757  1  0.331180  0.503250  0.115810  1.0  -0.0681
  C  C758  1  0.372970  0.502730  0.126520  1.0  -0.0984
  C  C759  1  0.383500  0.503130  0.168360  1.0  -0.0665
  C  C760  1  0.353080  0.503800  0.198620  1.0  -0.1309
  C  C761  1  0.278920  0.504240  0.220110  1.0  0.0852
  C  C762  1  0.283550  0.527800  0.255930  1.0  -0.1367
  C  C763  1  0.253190  0.527760  0.286250  1.0  -0.1368
  C  C764  1  0.217400  0.504170  0.281550  1.0  0.086
  C  C765  1  0.212760  0.480660  0.245700  1.0  -0.1361
  C  C766  1  0.243110  0.480700  0.215390  1.0  -0.1342
  C  C767  1  0.185140  0.503900  0.313920  1.0  0.0845
  C  C768  1  0.143350  0.503710  0.303340  1.0  -0.137
  C  C769  1  0.113050  0.503000  0.333710  1.0  -0.07
  C  C770  1  0.123740  0.502420  0.375510  1.0  -0.0954
  C  C771  1  0.165570  0.502830  0.386070  1.0  -0.0692
  C  C772  1  0.195850  0.503580  0.355680  1.0  -0.1324
  C  C773  1  0.812690  0.003500  0.186650  1.0  0.0812
  C  C774  1  0.802180  0.003290  0.144860  1.0  -0.099
  C  C775  1  0.832540  0.002660  0.114520  1.0  -0.0891
  C  C776  1  0.874510  0.002170  0.125060  1.0  -0.0234
  C  C777  1  0.884890  0.002620  0.167060  1.0  -0.0918
  C  C778  1  0.854450  0.003290  0.197320  1.0  -0.0974
  C  C779  1  0.780260  0.003700  0.218950  1.0  0.0782
  C  C780  1  0.784990  0.027080  0.254880  1.0  -0.133
  C  C781  1  0.754630  0.027050  0.285260  1.0  -0.1361
  C  C782  1  0.718720  0.003630  0.280530  1.0  0.0783
  C  C783  1  0.713970  0.980300  0.244570  1.0  -0.1308
  C  C784  1  0.744320  0.980330  0.214200  1.0  -0.1356
  C  C785  1  0.686440  0.003390  0.312980  1.0  0.0764
  C  C786  1  0.644610  0.003160  0.302470  1.0  -0.1315
  C  C787  1  0.614320  0.002500  0.332880  1.0  -0.0672
  C  C788  1  0.625000  0.002000  0.374690  1.0  -0.0962
  C  C789  1  0.666860  0.002430  0.385190  1.0  -0.068
  C  C790  1  0.697140  0.003130  0.354750  1.0  -0.1122
  C  C791  1  0.685000  0.503830  0.815130  1.0  0.085
  C  C792  1  0.643270  0.503540  0.804440  1.0  -0.0948
  C  C793  1  0.612860  0.502850  0.834690  1.0  -0.0905
  C  C794  1  0.623300  0.502440  0.876670  1.0  -0.0291
  C  C795  1  0.665250  0.503020  0.887220  1.0  -0.0949
  C  C796  1  0.695580  0.503670  0.856890  1.0  -0.1006
  C  C797  1  0.717350  0.504020  0.782870  1.0  0.0869
  C  C798  1  0.753120  0.480400  0.787510  1.0  -0.1355
  C  C799  1  0.783430  0.480350  0.757150  1.0  -0.1375
  C  C800  1  0.778760  0.503930  0.721350  1.0  0.0873
  C  C801  1  0.743010  0.527590  0.716730  1.0  -0.1304
  C  C802  1  0.712700  0.527630  0.747100  1.0  -0.1387
  C  C803  1  0.810980  0.503680  0.688950  1.0  0.0846
  C  C804  1  0.800230  0.503420  0.647200  1.0  -0.132
  C  C805  1  0.830490  0.502710  0.616790  1.0  -0.0675
  C  C806  1  0.872330  0.502250  0.627330  1.0  -0.0981
  C  C807  1  0.883040  0.502760  0.669120  1.0  -0.0705
  C  C808  1  0.852770  0.503440  0.699500  1.0  -0.1331
  O  O809  1  0.104600  0.054130  0.999370  1.0  -0.5879
  O  O810  1  0.893610  0.054390  0.002150  1.0  -0.5953
  O  O811  1  0.000570  0.104140  0.944960  1.0  -0.6116
  O  O812  1  0.997620  0.104350  0.056100  1.0  -0.6016
  O  O813  1  0.997440  0.054500  0.106170  1.0  -0.6019
  O  O814  1  0.000570  0.054140  0.895150  1.0  -0.6089
  O  O815  1  0.943620  0.104290  0.002000  1.0  -0.6071
  O  O816  1  0.054670  0.104130  0.999140  1.0  -0.6005
  O  O817  1  0.961830  0.036080  0.037910  1.0  -0.929
  O  O818  1  0.036320  0.035800  0.963570  1.0  -0.9314
  O  O819  1  0.962070  0.035730  0.963650  1.0  -0.8439
  O  O820  1  0.036050  0.035790  0.037790  1.0  -0.8428
  O  O821  1  0.893580  0.943350  0.999300  1.0  -0.5968
  O  O822  1  0.104530  0.943020  0.002400  1.0  -0.5934
  O  O823  1  0.943620  0.997040  0.895310  1.0  -0.5967
  O  O824  1  0.943280  0.000350  0.106310  1.0  -0.6018
  O  O825  1  0.054390  0.997410  0.106350  1.0  -0.6038
  O  O826  1  0.054700  0.000020  0.895370  1.0  -0.5986
  O  O827  1  0.997600  0.893130  0.945380  1.0  -0.6098
  O  O828  1  0.000430  0.893340  0.056520  1.0  -0.6031
  O  O829  1  0.997670  0.942940  0.895370  1.0  -0.5949
  O  O830  1  0.000340  0.943410  0.106380  1.0  -0.5976
  O  O831  1  0.893650  0.997230  0.945260  1.0  -0.5917
  O  O832  1  0.104580  0.000020  0.945400  1.0  -0.6007
  O  O833  1  0.104430  0.997200  0.056460  1.0  -0.6004
  O  O834  1  0.893450  0.000310  0.056350  1.0  -0.6061
  O  O835  1  0.943480  0.893320  0.999380  1.0  -0.5999
  O  O836  1  0.054600  0.893160  0.002430  1.0  -0.6046
  O  O837  1  0.036150  0.961580  0.038110  1.0  -0.9315
  O  O838  1  0.961900  0.961540  0.963690  1.0  -0.9272
  O  O839  1  0.036130  0.961570  0.963820  1.0  -0.8465
  O  O840  1  0.961950  0.961770  0.037880  1.0  -0.8446
  O  O841  1  0.604260  0.554880  0.999240  1.0  -0.5974
  O  O842  1  0.393250  0.554710  0.002040  1.0  -0.5999
  O  O843  1  0.500210  0.604590  0.944830  1.0  -0.6105
  O  O844  1  0.497140  0.604820  0.055930  1.0  -0.6064
  O  O845  1  0.497200  0.555010  0.106060  1.0  -0.6037
  O  O846  1  0.500380  0.554540  0.895100  1.0  -0.6012
  O  O847  1  0.443130  0.604740  0.001850  1.0  -0.5959
  O  O848  1  0.554210  0.604760  0.998990  1.0  -0.5984
  O  O849  1  0.461630  0.536480  0.037860  1.0  -0.9267
  O  O850  1  0.536070  0.536370  0.963530  1.0  -0.9287
  O  O851  1  0.461790  0.536140  0.963570  1.0  -0.8433
  O  O852  1  0.535810  0.536420  0.037740  1.0  -0.8453
  O  O853  1  0.393490  0.443610  0.999390  1.0  -0.6001
  O  O854  1  0.604470  0.443840  0.002510  1.0  -0.5982
  O  O855  1  0.443440  0.497380  0.895270  1.0  -0.6005
  O  O856  1  0.443260  0.500840  0.106310  1.0  -0.5981
  O  O857  1  0.554390  0.498200  0.106430  1.0  -0.6017
  O  O858  1  0.554590  0.500520  0.895370  1.0  -0.5956
  O  O859  1  0.497600  0.393620  0.945540  1.0  -0.6019
  O  O860  1  0.500450  0.393870  0.056590  1.0  -0.6001
  O  O861  1  0.497600  0.443430  0.895420  1.0  -0.5991
  O  O862  1  0.500380  0.443930  0.106440  1.0  -0.5997
  O  O863  1  0.393480  0.497460  0.945240  1.0  -0.6087
  O  O864  1  0.604430  0.500670  0.945340  1.0  -0.5974
  O  O865  1  0.604420  0.498130  0.056540  1.0  -0.5996
  O  O866  1  0.393340  0.500720  0.056310  1.0  -0.5945
  O  O867  1  0.443500  0.393700  0.999530  1.0  -0.6055
  O  O868  1  0.554570  0.393820  0.002560  1.0  -0.5943
  O  O869  1  0.536130  0.462170  0.038150  1.0  -0.9405
  O  O870  1  0.461810  0.461960  0.963710  1.0  -0.9287
  O  O871  1  0.536030  0.462160  0.963890  1.0  -0.8422
  O  O872  1  0.461860  0.462250  0.037920  1.0  -0.8433
  O  O873  1  0.103650  0.554250  0.500000  1.0  -0.6051
  O  O874  1  0.892660  0.554670  0.503060  1.0  -0.5934
  O  O875  1  0.999680  0.604510  0.446200  1.0  -0.5953
  O  O876  1  0.996830  0.604310  0.557310  1.0  -0.5998
  O  O877  1  0.996790  0.554240  0.607170  1.0  -0.6017
  O  O878  1  0.999570  0.554670  0.396110  1.0  -0.6093
  O  O879  1  0.942670  0.604470  0.503200  1.0  -0.5996
  O  O880  1  0.053760  0.604300  0.500200  1.0  -0.6069
  O  O881  1  0.960940  0.536070  0.538790  1.0  -0.9269
  O  O882  1  0.035250  0.536090  0.464340  1.0  -0.93
  O  O883  1  0.961050  0.536110  0.464510  1.0  -0.8442
  O  O884  1  0.035180  0.535770  0.538570  1.0  -0.8445
  O  O885  1  0.892560  0.443570  0.499830  1.0  -0.5914
  O  O886  1  0.103550  0.443180  0.502690  1.0  -0.5918
  O  O887  1  0.942360  0.497810  0.395950  1.0  -0.6028
  O  O888  1  0.942530  0.500210  0.607000  1.0  -0.6142
  O  O889  1  0.053670  0.497070  0.606900  1.0  -0.6129
  O  O890  1  0.053510  0.500500  0.395880  1.0  -0.6007
  O  O891  1  0.996460  0.393500  0.445710  1.0  -0.5996
  O  O892  1  0.999410  0.393220  0.556830  1.0  -0.6098
  O  O893  1  0.996400  0.443580  0.395850  1.0  -0.5982
  O  O894  1  0.999450  0.443050  0.606930  1.0  -0.6043
  O  O895  1  0.892480  0.497810  0.445880  1.0  -0.6007
  O  O896  1  0.103530  0.500320  0.445780  1.0  -0.5972
  O  O897  1  0.103590  0.497130  0.556880  1.0  -0.6026
  O  O898  1  0.892550  0.500410  0.557050  1.0  -0.5973
  O  O899  1  0.942460  0.393540  0.499750  1.0  -0.5992
  O  O900  1  0.053530  0.393280  0.502680  1.0  -0.6001
  O  O901  1  0.035240  0.461570  0.538570  1.0  -0.9306
  O  O902  1  0.960810  0.461850  0.464230  1.0  -0.9278
  O  O903  1  0.035040  0.461870  0.464290  1.0  -0.8444
  O  O904  1  0.961000  0.461850  0.538430  1.0  -0.845
  O  O905  1  0.604600  0.054030  0.499230  1.0  -0.5981
  O  O906  1  0.393620  0.053830  0.502450  1.0  -0.5974
  O  O907  1  0.500490  0.104060  0.445550  1.0  -0.5994
  O  O908  1  0.497700  0.103750  0.556600  1.0  -0.6029
  O  O909  1  0.497880  0.053670  0.606430  1.0  -0.5941
  O  O910  1  0.500600  0.054250  0.395440  1.0  -0.603
  O  O911  1  0.443490  0.103870  0.502550  1.0  -0.5988
  O  O912  1  0.554540  0.103890  0.499480  1.0  -0.6088
  O  O913  1  0.462020  0.035460  0.538140  1.0  -0.9278
  O  O914  1  0.536350  0.035740  0.463660  1.0  -0.9302
  O  O915  1  0.462100  0.035510  0.463860  1.0  -0.8441
  O  O916  1  0.536260  0.035350  0.537840  1.0  -0.8458
  O  O917  1  0.393800  0.942810  0.499330  1.0  -0.5928
  O  O918  1  0.604800  0.942910  0.502010  1.0  -0.5969
  O  O919  1  0.443650  0.997130  0.395360  1.0  -0.5965
  O  O920  1  0.443840  0.999610  0.606340  1.0  -0.5994
  O  O921  1  0.554880  0.996690  0.606140  1.0  -0.6024
  O  O922  1  0.554740  0.000100  0.395150  1.0  -0.5986
  O  O923  1  0.497700  0.893080  0.445080  1.0  -0.6035
  O  O924  1  0.500820  0.892720  0.556190  1.0  -0.6047
  O  O925  1  0.497630  0.943190  0.395250  1.0  -0.6114
  O  O926  1  0.500820  0.942580  0.606240  1.0  -0.597
  O  O927  1  0.393740  0.996910  0.445380  1.0  -0.6012
  O  O928  1  0.604770  0.999980  0.445030  1.0  -0.5947
  O  O929  1  0.604800  0.996900  0.556130  1.0  -0.5976
  O  O930  1  0.393820  0.999700  0.556440  1.0  -0.6039
  O  O931  1  0.443760  0.892840  0.499200  1.0  -0.5974
  O  O932  1  0.554880  0.892900  0.502020  1.0  -0.6062
  O  O933  1  0.536520  0.961150  0.537850  1.0  -0.9396
  O  O934  1  0.462100  0.961310  0.463600  1.0  -0.9267
  O  O935  1  0.536270  0.961440  0.463610  1.0  -0.8437
  O  O936  1  0.462250  0.961220  0.537820  1.0  -0.8476
