# generated using pymatgen
data_Zr12Fe3H104C144(N3O16)4
_symmetry_space_group_name_H-M   'P 1'
_cell_length_a   38.42650000
_cell_length_b   38.42650000
_cell_length_c   38.42650000
_cell_angle_alpha   90.00000000
_cell_angle_beta   90.00000000
_cell_angle_gamma   90.00000000
_symmetry_Int_Tables_number   1
_chemical_formula_structural   Zr12Fe3H104C144(N3O16)4
_chemical_formula_sum   'Zr48 Fe12 H416 C576 N48 O256'
_cell_volume   56740.41243781
_cell_formula_units_Z   4
loop_
 _symmetry_equiv_pos_site_id
 _symmetry_equiv_pos_as_xyz
  1  'x, y, z'
loop_
 _atom_site_type_symbol
 _atom_site_label
 _atom_site_symmetry_multiplicity
 _atom_site_fract_x
 _atom_site_fract_y
 _atom_site_fract_z
 _atom_site_occupancy
 _atom_site_charge
  Zr  Zr1  1  0.245210  0.251600  0.188850  1.0  1.7835
  Zr  Zr2  1  0.247580  0.191510  0.243000  1.0  1.8027
  Zr  Zr3  1  0.188180  0.245940  0.244690  1.0  1.7903
  Zr  Zr4  1  0.309040  0.255970  0.250990  1.0  1.7849
  Zr  Zr5  1  0.250190  0.309990  0.247440  1.0  1.7804
  Zr  Zr6  1  0.251160  0.254880  0.306560  1.0  1.7888
  Zr  Zr7  1  0.746910  0.692450  0.250230  1.0  1.7844
  Zr  Zr8  1  0.745610  0.747740  0.309470  1.0  1.7865
  Zr  Zr9  1  0.688550  0.747200  0.252700  1.0  1.7892
  Zr  Zr10  1  0.809520  0.755830  0.247430  1.0  1.7879
  Zr  Zr11  1  0.753330  0.750050  0.190980  1.0  1.7833
  Zr  Zr12  1  0.750400  0.810150  0.245030  1.0  1.7962
  Zr  Zr13  1  0.745330  0.304020  0.744400  1.0  1.782
  Zr  Zr14  1  0.748870  0.249360  0.684620  1.0  1.807
  Zr  Zr15  1  0.690870  0.245620  0.740300  1.0  1.7958
  Zr  Zr16  1  0.812050  0.245170  0.747510  1.0  1.7865
  Zr  Zr17  1  0.754380  0.246190  0.803050  1.0  1.7907
  Zr  Zr18  1  0.756960  0.186670  0.748710  1.0  1.7926
  Zr  Zr19  1  0.252990  0.741400  0.694860  1.0  1.7833
  Zr  Zr20  1  0.312490  0.745100  0.749760  1.0  1.7883
  Zr  Zr21  1  0.258240  0.685540  0.751830  1.0  1.796
  Zr  Zr22  1  0.248090  0.806650  0.755350  1.0  1.7905
  Zr  Zr23  1  0.193990  0.747910  0.752670  1.0  1.7847
  Zr  Zr24  1  0.248500  0.749900  0.812280  1.0  1.7944
  Zr  Zr25  1  0.255620  0.247320  0.688950  1.0  1.7845
  Zr  Zr26  1  0.251800  0.308280  0.742180  1.0  1.8051
  Zr  Zr27  1  0.311340  0.254270  0.745940  1.0  1.7883
  Zr  Zr28  1  0.190510  0.243960  0.749870  1.0  1.7889
  Zr  Zr29  1  0.249500  0.189950  0.748320  1.0  1.7801
  Zr  Zr30  1  0.247190  0.245720  0.806710  1.0  1.7908
  Zr  Zr31  1  0.749420  0.746140  0.690800  1.0  1.7809
  Zr  Zr32  1  0.751510  0.686390  0.745390  1.0  1.8058
  Zr  Zr33  1  0.692440  0.741160  0.746690  1.0  1.7947
  Zr  Zr34  1  0.813280  0.750550  0.752940  1.0  1.786
  Zr  Zr35  1  0.754780  0.804920  0.749030  1.0  1.7794
  Zr  Zr36  1  0.755420  0.750240  0.808550  1.0  1.7934
  Zr  Zr37  1  0.252200  0.695830  0.256130  1.0  1.7881
  Zr  Zr38  1  0.309410  0.753210  0.256950  1.0  1.7984
  Zr  Zr39  1  0.251900  0.751420  0.313550  1.0  1.7949
  Zr  Zr40  1  0.248240  0.756720  0.191350  1.0  1.8006
  Zr  Zr41  1  0.191650  0.751750  0.247570  1.0  1.7952
  Zr  Zr42  1  0.243960  0.812910  0.249060  1.0  1.7924
  Zr  Zr43  1  0.743360  0.251270  0.302650  1.0  1.7867
  Zr  Zr44  1  0.741940  0.310740  0.247580  1.0  1.7882
  Zr  Zr45  1  0.686650  0.252320  0.246150  1.0  1.792
  Zr  Zr46  1  0.807950  0.250800  0.241310  1.0  1.7899
  Zr  Zr47  1  0.753310  0.192600  0.244990  1.0  1.7833
  Zr  Zr48  1  0.750750  0.246650  0.185030  1.0  1.7963
  Fe  Fe49  1  0.251560  0.001350  0.998570  1.0  0.8316
  Fe  Fe50  1  0.755150  0.498530  0.497010  1.0  0.8646
  Fe  Fe51  1  0.746880  0.998210  0.997100  1.0  0.8698
  Fe  Fe52  1  0.245180  0.498800  0.498810  1.0  0.8267
  Fe  Fe53  1  0.999600  0.249940  0.996270  1.0  0.8316
  Fe  Fe54  1  0.500350  0.755020  0.502200  1.0  0.8305
  Fe  Fe55  1  0.001560  0.744360  0.000570  1.0  0.8406
  Fe  Fe56  1  0.499700  0.242270  0.495910  1.0  0.831
  Fe  Fe57  1  0.998800  0.001250  0.247010  1.0  0.8395
  Fe  Fe58  1  0.502510  0.496390  0.750880  1.0  0.8402
  Fe  Fe59  1  0.002580  0.996910  0.748060  1.0  0.8409
  Fe  Fe60  1  0.497140  0.502910  0.243500  1.0  0.84
  H  H61  1  0.273770  0.132720  0.028400  1.0  0.1247
  H  H62  1  0.228830  0.870110  0.968630  1.0  0.1253
  H  H63  1  0.249050  0.965330  0.865130  1.0  0.1217
  H  H64  1  0.253290  0.037520  0.131960  1.0  0.1267
  H  H65  1  0.273700  0.132670  0.962060  1.0  0.1256
  H  H66  1  0.229410  0.869980  0.034960  1.0  0.1278
  H  H67  1  0.253480  0.031050  0.865180  1.0  0.1196
  H  H68  1  0.249510  0.971700  0.131960  1.0  0.122
  H  H69  1  0.774260  0.629680  0.529980  1.0  0.1239
  H  H70  1  0.735610  0.367410  0.464070  1.0  0.1258
  H  H71  1  0.750940  0.465970  0.362650  1.0  0.1222
  H  H72  1  0.758220  0.531310  0.631330  1.0  0.1269
  H  H73  1  0.773150  0.631390  0.463720  1.0  0.124
  H  H74  1  0.737020  0.365680  0.530310  1.0  0.1303
  H  H75  1  0.753550  0.531780  0.364400  1.0  0.1197
  H  H76  1  0.755970  0.465480  0.629670  1.0  0.1223
  H  H77  1  0.745530  0.963520  0.130970  1.0  0.1252
  H  H78  1  0.748660  0.032820  0.863230  1.0  0.125
  H  H79  1  0.763430  0.130150  0.965840  1.0  0.1271
  H  H80  1  0.730870  0.866200  0.028340  1.0  0.1237
  H  H81  1  0.746850  0.029420  0.130220  1.0  0.1239
  H  H82  1  0.747440  0.966950  0.864000  1.0  0.1221
  H  H83  1  0.762810  0.130920  0.032100  1.0  0.1238
  H  H84  1  0.731630  0.865440  0.962060  1.0  0.1264
  H  H85  1  0.245640  0.460410  0.631610  1.0  0.1291
  H  H86  1  0.244030  0.536960  0.365950  1.0  0.1244
  H  H87  1  0.262100  0.631350  0.470730  1.0  0.1268
  H  H88  1  0.229080  0.366080  0.526730  1.0  0.1251
  H  H89  1  0.247720  0.526310  0.632710  1.0  0.1247
  H  H90  1  0.242510  0.471090  0.364970  1.0  0.1209
  H  H91  1  0.263000  0.630370  0.537010  1.0  0.1246
  H  H92  1  0.228700  0.367100  0.460440  1.0  0.1251
  H  H93  1  0.132560  0.265710  0.028390  1.0  0.1233
  H  H94  1  0.866690  0.264340  0.963440  1.0  0.1205
  H  H95  1  0.965830  0.233660  0.865430  1.0  0.1268
  H  H96  1  0.033290  0.240090  0.127810  1.0  0.1287
  H  H97  1  0.130860  0.262050  0.962220  1.0  0.1219
  H  H98  1  0.868330  0.263200  0.029680  1.0  0.1279
  H  H99  1  0.032040  0.231350  0.863810  1.0  0.123
  H  H100  1  0.967090  0.237580  0.129450  1.0  0.124
  H  H101  1  0.634020  0.766940  0.532750  1.0  0.1251
  H  H102  1  0.367310  0.772990  0.471900  1.0  0.1248
  H  H103  1  0.464350  0.743960  0.371400  1.0  0.1257
  H  H104  1  0.535740  0.739600  0.632730  1.0  0.1264
  H  H105  1  0.631310  0.765720  0.466560  1.0  0.1245
  H  H106  1  0.369830  0.769770  0.538050  1.0  0.1273
  H  H107  1  0.530450  0.740640  0.368580  1.0  0.1246
  H  H108  1  0.469510  0.738630  0.635420  1.0  0.1254
  H  H109  1  0.031890  0.724820  0.867700  1.0  0.1243
  H  H110  1  0.970330  0.732920  0.134190  1.0  0.1242
  H  H111  1  0.871260  0.762760  0.035450  1.0  0.1222
  H  H112  1  0.132640  0.753690  0.964990  1.0  0.1243
  H  H113  1  0.965810  0.729340  0.870140  1.0  0.1276
  H  H114  1  0.036570  0.733910  0.131630  1.0  0.1292
  H  H115  1  0.869080  0.764220  0.969240  1.0  0.1231
  H  H116  1  0.135100  0.757490  0.031050  1.0  0.1219
  H  H117  1  0.527200  0.228760  0.361710  1.0  0.1212
  H  H118  1  0.471260  0.226100  0.629650  1.0  0.1247
  H  H119  1  0.370270  0.259660  0.534370  1.0  0.1237
  H  H120  1  0.630030  0.252050  0.457970  1.0  0.1236
  H  H121  1  0.461220  0.233840  0.365620  1.0  0.1244
  H  H122  1  0.537470  0.226310  0.625680  1.0  0.1299
  H  H123  1  0.366590  0.263850  0.468320  1.0  0.1235
  H  H124  1  0.633950  0.253300  0.524020  1.0  0.1259
  H  H125  1  0.134230  0.028210  0.244620  1.0  0.1293
  H  H126  1  0.864580  0.973210  0.233120  1.0  0.1278
  H  H127  1  0.959580  0.871880  0.264540  1.0  0.124
  H  H128  1  0.037530  0.132050  0.242090  1.0  0.1255
  H  H129  1  0.129800  0.962410  0.247290  1.0  0.123
  H  H130  1  0.868770  0.039350  0.231820  1.0  0.1242
  H  H131  1  0.025650  0.867440  0.267550  1.0  0.1256
  H  H132  1  0.971680  0.136720  0.243870  1.0  0.1291
  H  H133  1  0.636990  0.522430  0.736100  1.0  0.1304
  H  H134  1  0.366720  0.471450  0.747020  1.0  0.1245
  H  H135  1  0.461890  0.366170  0.745870  1.0  0.1257
  H  H136  1  0.543540  0.625240  0.768010  1.0  0.1258
  H  H137  1  0.631850  0.456350  0.735860  1.0  0.1219
  H  H138  1  0.372170  0.537120  0.750670  1.0  0.1274
  H  H139  1  0.527660  0.360640  0.748770  1.0  0.1281
  H  H140  1  0.477520  0.630400  0.771720  1.0  0.1264
  H  H141  1  0.973570  0.131950  0.745590  1.0  0.1275
  H  H142  1  0.032140  0.862930  0.734510  1.0  0.126
  H  H143  1  0.132920  0.959680  0.763260  1.0  0.1232
  H  H144  1  0.871140  0.033860  0.746480  1.0  0.1253
  H  H145  1  0.039470  0.128410  0.747070  1.0  0.1232
  H  H146  1  0.965960  0.866400  0.734040  1.0  0.1224
  H  H147  1  0.136350  0.025850  0.765390  1.0  0.1315
  H  H148  1  0.867550  0.967880  0.748260  1.0  0.1283
  H  H149  1  0.468790  0.638180  0.243830  1.0  0.1281
  H  H150  1  0.525850  0.368880  0.228080  1.0  0.1249
  H  H151  1  0.627530  0.464850  0.256420  1.0  0.1247
  H  H152  1  0.365760  0.540340  0.244620  1.0  0.1259
  H  H153  1  0.534720  0.634180  0.243820  1.0  0.1259
  H  H154  1  0.459700  0.372700  0.229010  1.0  0.1226
  H  H155  1  0.631290  0.530930  0.259090  1.0  0.1321
  H  H156  1  0.362050  0.474380  0.246030  1.0  0.1324
  H  H157  1  0.295090  0.300130  0.196790  1.0  0.2406
  H  H158  1  0.197470  0.297060  0.291650  1.0  0.247
  H  H159  1  0.198640  0.199420  0.193640  1.0  0.3182
  H  H160  1  0.294330  0.202840  0.293730  1.0  0.2274
  H  H161  1  0.343680  0.199620  0.239410  1.0  0.4478
  H  H162  1  0.302230  0.155550  0.261070  1.0  0.3063
  H  H163  1  0.193580  0.346220  0.257680  1.0  0.3737
  H  H164  1  0.149540  0.300490  0.244950  1.0  0.3927
  H  H165  1  0.367710  0.259160  0.216940  1.0  0.3912
  H  H166  1  0.283440  0.250310  0.131390  1.0  0.3345
  H  H167  1  0.197040  0.267850  0.345340  1.0  0.3935
  H  H168  1  0.155690  0.225850  0.300910  1.0  0.3902
  H  H169  1  0.244020  0.307690  0.152730  1.0  0.3828
  H  H170  1  0.254820  0.351710  0.195120  1.0  0.3774
  H  H171  1  0.251280  0.160360  0.302400  1.0  0.3613
  H  H172  1  0.254610  0.201110  0.346310  1.0  0.3354
  H  H173  1  0.798700  0.700530  0.203720  1.0  0.2791
  H  H174  1  0.698920  0.793210  0.200950  1.0  0.1986
  H  H175  1  0.698300  0.697390  0.300740  1.0  0.3246
  H  H176  1  0.791710  0.799290  0.299010  1.0  0.309
  H  H177  1  0.842460  0.747230  0.305290  1.0  0.4323
  H  H178  1  0.798980  0.766360  0.346840  1.0  0.2428
  H  H179  1  0.699110  0.760310  0.151260  1.0  0.3776
  H  H180  1  0.653200  0.743810  0.196040  1.0  0.3537
  H  H181  1  0.868430  0.722100  0.247790  1.0  0.3889
  H  H182  1  0.785840  0.635320  0.253420  1.0  0.3306
  H  H183  1  0.695200  0.847670  0.235540  1.0  0.4295
  H  H184  1  0.651780  0.802200  0.268880  1.0  0.3775
  H  H185  1  0.747820  0.654520  0.195320  1.0  0.4412
  H  H186  1  0.759890  0.696510  0.151220  1.0  0.3861
  H  H187  1  0.743760  0.809070  0.336960  1.0  0.4012
  H  H188  1  0.754310  0.853900  0.295710  1.0  0.3707
  H  H189  1  0.796700  0.298620  0.791960  1.0  0.3003
  H  H190  1  0.703290  0.199680  0.791610  1.0  0.2584
  H  H191  1  0.697940  0.296580  0.693200  1.0  0.313
  H  H192  1  0.798250  0.201020  0.695480  1.0  0.2126
  H  H193  1  0.845130  0.257050  0.690300  1.0  0.4376
  H  H194  1  0.803810  0.233880  0.647910  1.0  0.1953
  H  H195  1  0.698720  0.234240  0.840240  1.0  0.2767
  H  H196  1  0.654890  0.243330  0.796620  1.0  0.4106
  H  H197  1  0.868630  0.282820  0.748670  1.0  0.3837
  H  H198  1  0.781450  0.362760  0.740480  1.0  0.3382
  H  H199  1  0.704320  0.146430  0.763820  1.0  0.3624
  H  H200  1  0.661630  0.187790  0.719980  1.0  0.3679
  H  H201  1  0.744120  0.341700  0.799480  1.0  0.3845
  H  H202  1  0.759030  0.299970  0.842790  1.0  0.4544
  H  H203  1  0.755840  0.190710  0.652670  1.0  0.3863
  H  H204  1  0.760520  0.148120  0.694100  1.0  0.4289
  H  H205  1  0.204350  0.791600  0.701150  1.0  0.2471
  H  H206  1  0.206620  0.695770  0.797950  1.0  0.2197
  H  H207  1  0.305400  0.694950  0.701490  1.0  0.3418
  H  H208  1  0.300510  0.792990  0.799280  1.0  0.3066
  H  H209  1  0.304800  0.841490  0.746810  1.0  0.4365
  H  H210  1  0.348180  0.800310  0.766410  1.0  0.2581
  H  H211  1  0.157760  0.691680  0.764880  1.0  0.393
  H  H212  1  0.203270  0.647580  0.749820  1.0  0.3964
  H  H213  1  0.246880  0.863500  0.718200  1.0  0.3778
  H  H214  1  0.256330  0.778660  0.636770  1.0  0.34
  H  H215  1  0.242290  0.695990  0.852200  1.0  0.4373
  H  H216  1  0.276040  0.651830  0.808270  1.0  0.4172
  H  H217  1  0.198070  0.739860  0.656920  1.0  0.3419
  H  H218  1  0.154430  0.751880  0.698760  1.0  0.3832
  H  H219  1  0.340410  0.747170  0.810890  1.0  0.3531
  H  H220  1  0.299140  0.758280  0.855460  1.0  0.3377
  H  H221  1  0.205530  0.198710  0.696940  1.0  0.237
  H  H222  1  0.301470  0.203700  0.793180  1.0  0.2433
  H  H223  1  0.301780  0.299900  0.693930  1.0  0.3351
  H  H224  1  0.204170  0.297460  0.792310  1.0  0.2179
  H  H225  1  0.156080  0.299440  0.733820  1.0  0.4478
  H  H226  1  0.196500  0.344030  0.758720  1.0  0.1739
  H  H227  1  0.306460  0.154590  0.759600  1.0  0.2584
  H  H228  1  0.349560  0.199430  0.747270  1.0  0.3861
  H  H229  1  0.131810  0.239290  0.716030  1.0  0.3938
  H  H230  1  0.217820  0.248570  0.631130  1.0  0.333
  H  H231  1  0.301540  0.233150  0.845540  1.0  0.372
  H  H232  1  0.341790  0.274880  0.803110  1.0  0.2843
  H  H233  1  0.257390  0.191280  0.652750  1.0  0.3902
  H  H234  1  0.244900  0.148140  0.696100  1.0  0.3854
  H  H235  1  0.245620  0.341550  0.800210  1.0  0.3832
  H  H236  1  0.242990  0.301180  0.843980  1.0  0.4312
  H  H237  1  0.799600  0.794450  0.698470  1.0  0.2399
  H  H238  1  0.701880  0.792460  0.793320  1.0  0.252
  H  H239  1  0.702500  0.694360  0.695900  1.0  0.3233
  H  H240  1  0.798260  0.697810  0.796090  1.0  0.2778
  H  H241  1  0.847810  0.694140  0.741280  1.0  0.4295
  H  H242  1  0.806530  0.650790  0.762920  1.0  0.2525
  H  H243  1  0.698360  0.841570  0.758870  1.0  0.374
  H  H244  1  0.654570  0.796270  0.748130  1.0  0.3763
  H  H245  1  0.872060  0.753130  0.719020  1.0  0.3879
  H  H246  1  0.787830  0.743970  0.633480  1.0  0.3375
  H  H247  1  0.701290  0.763430  0.847200  1.0  0.3767
  H  H248  1  0.660080  0.719630  0.802420  1.0  0.3705
  H  H249  1  0.748710  0.801940  0.654230  1.0  0.3802
  H  H250  1  0.759890  0.846200  0.696410  1.0  0.3847
  H  H251  1  0.754020  0.655890  0.805150  1.0  0.3895
  H  H252  1  0.758860  0.696860  0.848830  1.0  0.3284
  H  H253  1  0.205560  0.701110  0.203870  1.0  0.2758
  H  H254  1  0.200350  0.796530  0.300810  1.0  0.206
  H  H255  1  0.301840  0.703240  0.305220  1.0  0.3222
  H  H256  1  0.298560  0.801360  0.207400  1.0  0.2583
  H  H257  1  0.306150  0.748510  0.158410  1.0  0.3412
  H  H258  1  0.345820  0.759280  0.201020  1.0  0.3836
  H  H259  1  0.151630  0.762130  0.301560  1.0  0.286
  H  H260  1  0.194250  0.750680  0.347410  1.0  0.3827
  H  H261  1  0.249310  0.719470  0.134540  1.0  0.3819
  H  H262  1  0.257750  0.637930  0.218850  1.0  0.3402
  H  H263  1  0.238910  0.850420  0.304250  1.0  0.4011
  H  H264  1  0.268050  0.810060  0.343830  1.0  0.3446
  H  H265  1  0.198030  0.656820  0.255180  1.0  0.3313
  H  H266  1  0.153800  0.696850  0.240830  1.0  0.4491
  H  H267  1  0.339030  0.811580  0.276080  1.0  0.2565
  H  H268  1  0.295130  0.855250  0.235040  1.0  0.3847
  H  H269  1  0.796800  0.206230  0.295790  1.0  0.2485
  H  H270  1  0.699910  0.201190  0.200250  1.0  0.2518
  H  H271  1  0.693160  0.300040  0.296550  1.0  0.3173
  H  H272  1  0.789940  0.301900  0.197430  1.0  0.2345
  H  H273  1  0.838900  0.309120  0.253820  1.0  0.4355
  H  H274  1  0.795500  0.349060  0.231730  1.0  0.2731
  H  H275  1  0.700740  0.151220  0.232890  1.0  0.3897
  H  H276  1  0.653510  0.194230  0.245890  1.0  0.3908
  H  H277  1  0.866440  0.251710  0.275760  1.0  0.3967
  H  H278  1  0.781120  0.255960  0.360450  1.0  0.3285
  H  H279  1  0.696220  0.234210  0.147050  1.0  0.4468
  H  H280  1  0.652830  0.270360  0.190030  1.0  0.3906
  H  H281  1  0.745520  0.196580  0.340870  1.0  0.38
  H  H282  1  0.759750  0.153220  0.298790  1.0  0.382
  H  H283  1  0.740430  0.339150  0.186720  1.0  0.4217
  H  H284  1  0.755540  0.299310  0.143850  1.0  0.4443
  H  H285  1  0.305390  0.077590  0.114050  1.0  0.1119
  H  H286  1  0.212280  0.118550  0.066660  1.0  0.1201
  H  H287  1  0.210980  0.165630  0.109960  1.0  0.1135
  H  H288  1  0.302610  0.123290  0.158810  1.0  0.1212
  H  H289  1  0.714210  0.613410  0.568950  1.0  0.1228
  H  H290  1  0.808710  0.573020  0.613990  1.0  0.112
  H  H291  1  0.805970  0.617800  0.659710  1.0  0.1213
  H  H292  1  0.712940  0.659650  0.613180  1.0  0.1113
  H  H293  1  0.789660  0.882530  0.068390  1.0  0.1221
  H  H294  1  0.694360  0.922060  0.112490  1.0  0.1103
  H  H295  1  0.696950  0.877240  0.158110  1.0  0.1226
  H  H296  1  0.790870  0.836200  0.112600  1.0  0.1224
  H  H297  1  0.289030  0.381690  0.566440  1.0  0.1226
  H  H298  1  0.193700  0.419400  0.612060  1.0  0.1091
  H  H299  1  0.196880  0.373470  0.656490  1.0  0.1205
  H  H300  1  0.290940  0.334350  0.609580  1.0  0.1215
  H  H301  1  0.705760  0.114950  0.924330  1.0  0.1203
  H  H302  1  0.801140  0.072870  0.882830  1.0  0.1124
  H  H303  1  0.800610  0.117210  0.836840  1.0  0.1046
  H  H304  1  0.706690  0.160940  0.879650  1.0  0.1222
  H  H305  1  0.297510  0.576110  0.385550  1.0  0.1131
  H  H306  1  0.203050  0.617140  0.430120  1.0  0.1199
  H  H307  1  0.203110  0.664270  0.386640  1.0  0.1221
  H  H308  1  0.296110  0.621690  0.340730  1.0  0.1138
  H  H309  1  0.289920  0.884280  0.929520  1.0  0.1203
  H  H310  1  0.196330  0.925820  0.883570  1.0  0.1098
  H  H311  1  0.198220  0.880240  0.838630  1.0  0.1225
  H  H312  1  0.290390  0.837330  0.886040  1.0  0.1236
  H  H313  1  0.793460  0.382400  0.422620  1.0  0.1207
  H  H314  1  0.698570  0.426130  0.381720  1.0  0.1132
  H  H315  1  0.698260  0.382030  0.335360  1.0  0.1204
  H  H316  1  0.791740  0.336770  0.377650  1.0  0.1205
  H  H317  1  0.117630  0.207330  0.067520  1.0  0.1139
  H  H318  1  0.070870  0.299000  0.112390  1.0  0.1135
  H  H319  1  0.114430  0.298030  0.159450  1.0  0.1204
  H  H320  1  0.162350  0.207860  0.113110  1.0  0.1156
  H  H321  1  0.618590  0.707110  0.569610  1.0  0.1148
  H  H322  1  0.574540  0.797970  0.618680  1.0  0.1143
  H  H323  1  0.619340  0.794840  0.664370  1.0  0.1231
  H  H324  1  0.664670  0.705550  0.613870  1.0  0.1138
  H  H325  1  0.069640  0.784370  0.880300  1.0  0.1218
  H  H326  1  0.118250  0.695300  0.928310  1.0  0.1123
  H  H327  1  0.164790  0.697180  0.884290  1.0  0.1227
  H  H328  1  0.114590  0.784470  0.835010  1.0  0.1
  H  H329  1  0.613400  0.194240  0.419420  1.0  0.1132
  H  H330  1  0.566760  0.287150  0.377040  1.0  0.1155
  H  H331  1  0.611430  0.288800  0.331500  1.0  0.1108
  H  H332  1  0.659600  0.197360  0.375090  1.0  0.1237
  H  H333  1  0.883500  0.702900  0.072530  1.0  0.1154
  H  H334  1  0.933470  0.791410  0.120130  1.0  0.1167
  H  H335  1  0.888190  0.792770  0.165040  1.0  0.1014
  H  H336  1  0.836690  0.706020  0.116080  1.0  0.1155
  H  H337  1  0.434700  0.286650  0.617380  1.0  0.1192
  H  H338  1  0.383740  0.198570  0.570040  1.0  0.1117
  H  H339  1  0.338030  0.201080  0.614750  1.0  0.1183
  H  H340  1  0.390260  0.287790  0.663250  1.0  0.1173
  H  H341  1  0.880820  0.205140  0.926030  1.0  0.1182
  H  H342  1  0.929590  0.294600  0.878850  1.0  0.1154
  H  H343  1  0.886380  0.293080  0.831570  1.0  0.123
  H  H344  1  0.836340  0.205190  0.880140  1.0  0.1188
  H  H345  1  0.427430  0.803370  0.386730  1.0  0.1133
  H  H346  1  0.381130  0.712700  0.434070  1.0  0.1218
  H  H347  1  0.335330  0.712800  0.389570  1.0  0.12
  H  H348  1  0.382800  0.801990  0.340760  1.0  0.1215
  H  H349  1  0.079530  0.107710  0.295320  1.0  0.1164
  H  H350  1  0.114450  0.073860  0.194170  1.0  0.1135
  H  H351  1  0.160540  0.118390  0.195250  1.0  0.1195
  H  H352  1  0.124180  0.153600  0.295360  1.0  0.1192
  H  H353  1  0.626490  0.562120  0.793600  1.0  0.1188
  H  H354  1  0.576150  0.608740  0.704750  1.0  0.1169
  H  H355  1  0.620150  0.655150  0.704230  1.0  0.116
  H  H356  1  0.671820  0.607270  0.791580  1.0  0.1229
  H  H357  1  0.896400  0.077870  0.798360  1.0  0.1224
  H  H358  1  0.926900  0.110250  0.695330  1.0  0.1133
  H  H359  1  0.882240  0.156240  0.696630  1.0  0.1164
  H  H360  1  0.850710  0.122700  0.798860  1.0  0.1132
  H  H361  1  0.391320  0.582420  0.296740  1.0  0.1174
  H  H362  1  0.421210  0.619010  0.194960  1.0  0.1127
  H  H363  1  0.376930  0.665280  0.198690  1.0  0.1185
  H  H364  1  0.345840  0.627380  0.299510  1.0  0.1151
  H  H365  1  0.118010  0.923190  0.703640  1.0  0.1125
  H  H366  1  0.069910  0.876210  0.793530  1.0  0.1156
  H  H367  1  0.114730  0.830630  0.793610  1.0  0.1014
  H  H368  1  0.164200  0.878860  0.705330  1.0  0.1245
  H  H369  1  0.564140  0.381280  0.286810  1.0  0.1169
  H  H370  1  0.612230  0.428740  0.197180  1.0  0.1121
  H  H371  1  0.658210  0.384170  0.198380  1.0  0.1213
  H  H372  1  0.608670  0.335430  0.286390  1.0  0.1157
  H  H373  1  0.925740  0.887900  0.201790  1.0  0.1193
  H  H374  1  0.876420  0.934100  0.291420  1.0  0.1132
  H  H375  1  0.831570  0.888450  0.290220  1.0  0.122
  H  H376  1  0.882150  0.841170  0.202030  1.0  0.0982
  H  H377  1  0.386740  0.425640  0.696200  1.0  0.1148
  H  H378  1  0.419170  0.391330  0.798030  1.0  0.1139
  H  H379  1  0.373830  0.346190  0.797240  1.0  0.1197
  H  H380  1  0.339950  0.381800  0.696400  1.0  0.1198
  H  H381  1  0.116330  0.201890  0.926220  1.0  0.1128
  H  H382  1  0.069710  0.291280  0.876840  1.0  0.112
  H  H383  1  0.114630  0.289630  0.831410  1.0  0.123
  H  H384  1  0.162620  0.201830  0.882040  1.0  0.1025
  H  H385  1  0.570650  0.797770  0.382140  1.0  0.1125
  H  H386  1  0.614790  0.706270  0.429910  1.0  0.1135
  H  H387  1  0.661160  0.705760  0.385810  1.0  0.1154
  H  H388  1  0.615610  0.795720  0.336710  1.0  0.1235
  H  H389  1  0.880050  0.704880  0.931330  1.0  0.1155
  H  H390  1  0.932800  0.792020  0.884130  1.0  0.1155
  H  H391  1  0.889690  0.792370  0.836870  1.0  0.1058
  H  H392  1  0.835660  0.706900  0.885460  1.0  0.1175
  H  H393  1  0.376760  0.206460  0.427390  1.0  0.1158
  H  H394  1  0.428540  0.295700  0.383150  1.0  0.1163
  H  H395  1  0.384910  0.297690  0.336360  1.0  0.1093
  H  H396  1  0.331920  0.210000  0.382050  1.0  0.1157
  H  H397  1  0.120710  0.701000  0.072280  1.0  0.1126
  H  H398  1  0.073530  0.793960  0.113970  1.0  0.1208
  H  H399  1  0.117530  0.795260  0.160410  1.0  0.1134
  H  H400  1  0.165940  0.703730  0.117480  1.0  0.1256
  H  H401  1  0.620750  0.195970  0.563870  1.0  0.1123
  H  H402  1  0.573580  0.287380  0.608870  1.0  0.1195
  H  H403  1  0.618190  0.287730  0.654600  1.0  0.1072
  H  H404  1  0.666770  0.197840  0.608390  1.0  0.1216
  H  H405  1  0.883570  0.203490  0.067540  1.0  0.1203
  H  H406  1  0.928040  0.295680  0.113660  1.0  0.1135
  H  H407  1  0.882300  0.295420  0.158270  1.0  0.1201
  H  H408  1  0.836460  0.204610  0.110910  1.0  0.1229
  H  H409  1  0.430340  0.796690  0.623270  1.0  0.1153
  H  H410  1  0.384500  0.707800  0.572320  1.0  0.1212
  H  H411  1  0.337620  0.707030  0.615910  1.0  0.1241
  H  H412  1  0.384800  0.794460  0.668050  1.0  0.1187
  H  H413  1  0.304380  0.073040  0.880730  1.0  0.116
  H  H414  1  0.210200  0.114850  0.925150  1.0  0.1185
  H  H415  1  0.208710  0.159680  0.879760  1.0  0.1094
  H  H416  1  0.301550  0.116760  0.833810  1.0  0.1209
  H  H417  1  0.710650  0.614410  0.427130  1.0  0.1221
  H  H418  1  0.803990  0.573830  0.379890  1.0  0.1126
  H  H419  1  0.800360  0.618840  0.334300  1.0  0.1205
  H  H420  1  0.708480  0.660660  0.383120  1.0  0.1123
  H  H421  1  0.702530  0.113160  0.070920  1.0  0.1213
  H  H422  1  0.797600  0.071490  0.113510  1.0  0.1111
  H  H423  1  0.796270  0.115880  0.159740  1.0  0.1182
  H  H424  1  0.702530  0.158870  0.115670  1.0  0.1209
  H  H425  1  0.298950  0.568070  0.616160  1.0  0.1132
  H  H426  1  0.203650  0.612230  0.576710  1.0  0.119
  H  H427  1  0.204870  0.656270  0.623060  1.0  0.1214
  H  H428  1  0.298870  0.610750  0.663970  1.0  0.1218
  H  H429  1  0.792930  0.884320  0.924480  1.0  0.1209
  H  H430  1  0.697860  0.923710  0.879780  1.0  0.1125
  H  H431  1  0.701320  0.879360  0.833540  1.0  0.1191
  H  H432  1  0.795050  0.838680  0.879780  1.0  0.1204
  H  H433  1  0.290190  0.387790  0.422600  1.0  0.1214
  H  H434  1  0.193680  0.426790  0.380670  1.0  0.111
  H  H435  1  0.196600  0.383190  0.333650  1.0  0.1204
  H  H436  1  0.291850  0.342960  0.377120  1.0  0.1231
  H  H437  1  0.292040  0.886550  0.072440  1.0  0.1206
  H  H438  1  0.198370  0.930430  0.115940  1.0  0.1137
  H  H439  1  0.199520  0.886450  0.162560  1.0  0.1205
  H  H440  1  0.291820  0.841270  0.117590  1.0  0.1232
  H  H441  1  0.797600  0.381360  0.569170  1.0  0.1207
  H  H442  1  0.703910  0.425160  0.612670  1.0  0.1132
  H  H443  1  0.704600  0.380700  0.658800  1.0  0.1202
  H  H444  1  0.796890  0.335540  0.613840  1.0  0.1203
  H  H445  1  0.120620  0.066560  0.705560  1.0  0.1192
  H  H446  1  0.079040  0.109080  0.800750  1.0  0.1134
  H  H447  1  0.122230  0.156290  0.798450  1.0  0.116
  H  H448  1  0.165260  0.112410  0.704580  1.0  0.1192
  H  H449  1  0.574740  0.613260  0.296710  1.0  0.1143
  H  H450  1  0.615470  0.572760  0.200280  1.0  0.1181
  H  H451  1  0.661460  0.617350  0.200980  1.0  0.1205
  H  H452  1  0.619260  0.659200  0.296130  1.0  0.1252
  H  H453  1  0.110480  0.924260  0.301160  1.0  0.1139
  H  H454  1  0.066260  0.880400  0.207800  1.0  0.1214
  H  H455  1  0.111250  0.834950  0.207890  1.0  0.0996
  H  H456  1  0.156940  0.880230  0.299690  1.0  0.1271
  H  H457  1  0.611500  0.417260  0.796110  1.0  0.1186
  H  H458  1  0.571640  0.377610  0.698950  1.0  0.1141
  H  H459  1  0.615780  0.331400  0.699780  1.0  0.1077
  H  H460  1  0.657170  0.372370  0.795600  1.0  0.1228
  H  H461  1  0.927590  0.119960  0.194830  1.0  0.1171
  H  H462  1  0.888480  0.078590  0.291560  1.0  0.119
  H  H463  1  0.842470  0.123050  0.291900  1.0  0.1216
  H  H464  1  0.883050  0.165900  0.196520  1.0  0.1234
  H  H465  1  0.392460  0.574910  0.805510  1.0  0.1155
  H  H466  1  0.436570  0.616950  0.711240  1.0  0.1226
  H  H467  1  0.391700  0.662510  0.710530  1.0  0.1211
  H  H468  1  0.346170  0.619130  0.803450  1.0  0.1258
  H  H469  1  0.884520  0.923880  0.698090  1.0  0.1139
  H  H470  1  0.927530  0.886470  0.794780  1.0  0.122
  H  H471  1  0.883690  0.839950  0.796180  1.0  0.105
  H  H472  1  0.839310  0.878640  0.700750  1.0  0.1208
  H  H473  1  0.423300  0.392560  0.291280  1.0  0.1225
  H  H474  1  0.377610  0.430320  0.195960  1.0  0.1118
  H  H475  1  0.332880  0.384690  0.199390  1.0  0.1225
  H  H476  1  0.379950  0.345570  0.293370  1.0  0.1078
  C  C477  1  0.262050  0.074350  0.024150  1.0  0.1873
  C  C478  1  0.268960  0.110060  0.012410  1.0  -0.0076
  C  C479  1  0.240770  0.928420  0.972940  1.0  0.1859
  C  C480  1  0.233870  0.892700  0.984650  1.0  0.003
  C  C481  1  0.247590  0.970560  0.924680  1.0  0.1245
  C  C482  1  0.249640  0.981280  0.888300  1.0  0.0207
  C  C483  1  0.255110  0.032240  0.072440  1.0  0.1114
  C  C484  1  0.252960  0.021520  0.108810  1.0  0.0162
  C  C485  1  0.262210  0.074340  0.967540  1.0  0.1395
  C  C486  1  0.268970  0.110130  0.978280  1.0  0.0055
  C  C487  1  0.241130  0.928290  0.029570  1.0  0.1316
  C  C488  1  0.234140  0.892550  0.018780  1.0  0.009
  C  C489  1  0.253240  0.026950  0.924800  1.0  0.1586
  C  C490  1  0.252150  0.015280  0.888420  1.0  0.0251
  C  C491  1  0.249980  0.975730  0.072350  1.0  0.1484
  C  C492  1  0.250800  0.987470  0.108710  1.0  0.0216
  C  C493  1  0.258730  0.065230  0.061430  1.0  0.0009
  C  C494  1  0.243720  0.937630  0.935650  1.0  -0.0036
  C  C495  1  0.258160  0.063900  0.934480  1.0  -0.0225
  C  C496  1  0.245170  0.938700  0.062660  1.0  -0.0027
  C  C497  1  0.763830  0.571190  0.524380  1.0  0.1765
  C  C498  1  0.769650  0.607350  0.513480  1.0  0.0078
  C  C499  1  0.746220  0.425870  0.469600  1.0  0.1607
  C  C500  1  0.740400  0.389730  0.480540  1.0  0.0231
  C  C501  1  0.750760  0.469520  0.422330  1.0  0.1123
  C  C502  1  0.751650  0.481310  0.386230  1.0  0.0152
  C  C503  1  0.759050  0.527640  0.571670  1.0  0.1062
  C  C504  1  0.757830  0.515930  0.607770  1.0  0.0137
  C  C505  1  0.763020  0.572680  0.467730  1.0  0.1446
  C  C506  1  0.769120  0.608320  0.479360  1.0  0.0043
  C  C507  1  0.747330  0.424350  0.526310  1.0  0.151
  C  C508  1  0.741100  0.388740  0.514670  1.0  0.0114
  C  C509  1  0.754870  0.526120  0.423860  1.0  0.149
  C  C510  1  0.753250  0.515370  0.387230  1.0  0.0201
  C  C511  1  0.755170  0.471020  0.570190  1.0  0.1465
  C  C512  1  0.756420  0.481860  0.606810  1.0  0.0234
  C  C513  1  0.761570  0.561040  0.561520  1.0  -0.0087
  C  C514  1  0.747820  0.436140  0.432420  1.0  -0.0002
  C  C515  1  0.758890  0.563040  0.434390  1.0  -0.0089
  C  C516  1  0.750950  0.434090  0.559700  1.0  -0.0084
  C  C517  1  0.744210  0.968010  0.071370  1.0  0.109
  C  C518  1  0.745510  0.979240  0.107630  1.0  0.0125
  C  C519  1  0.749660  0.028380  0.922840  1.0  0.1139
  C  C520  1  0.748560  0.017110  0.886580  1.0  0.0153
  C  C521  1  0.754040  0.071420  0.970670  1.0  0.1639
  C  C522  1  0.759280  0.107520  0.982050  1.0  0.0213
  C  C523  1  0.739880  0.925000  0.023520  1.0  0.1652
  C  C524  1  0.734850  0.888870  0.012130  1.0  0.0092
  C  C525  1  0.747210  0.024700  0.070670  1.0  0.1451
  C  C526  1  0.746440  0.013340  0.107140  1.0  0.0243
  C  C527  1  0.746770  0.971690  0.923550  1.0  0.1447
  C  C528  1  0.747680  0.983020  0.887080  1.0  0.0208
  C  C529  1  0.753610  0.072110  0.027380  1.0  0.1512
  C  C530  1  0.758990  0.108010  0.016190  1.0  0.0011
  C  C531  1  0.740370  0.924310  0.966830  1.0  0.1315
  C  C532  1  0.735220  0.888380  0.978000  1.0  0.0028
  C  C533  1  0.741980  0.934720  0.060790  1.0  -0.0048
  C  C534  1  0.752190  0.061650  0.933390  1.0  -0.0032
  C  C535  1  0.750500  0.061850  0.060660  1.0  -0.0063
  C  C536  1  0.743770  0.934540  0.933570  1.0  -0.0094
  C  C537  1  0.243590  0.466630  0.572200  1.0  0.1114
  C  C538  1  0.245530  0.476800  0.608740  1.0  0.0087
  C  C539  1  0.246540  0.530880  0.425380  1.0  0.1342
  C  C540  1  0.244470  0.520620  0.388860  1.0  0.0243
  C  C541  1  0.252400  0.572580  0.474240  1.0  0.1628
  C  C542  1  0.258170  0.608320  0.486440  1.0  0.0199
  C  C543  1  0.238120  0.424980  0.523300  1.0  0.1687
  C  C544  1  0.232790  0.389170  0.511060  1.0  0.0024
  C  C545  1  0.247180  0.523270  0.573040  1.0  0.1463
  C  C546  1  0.246830  0.510890  0.609200  1.0  0.0236
  C  C547  1  0.243420  0.474270  0.424620  1.0  0.1526
  C  C548  1  0.243450  0.486550  0.388450  1.0  0.0203
  C  C549  1  0.253220  0.571780  0.530940  1.0  0.1322
  C  C550  1  0.258660  0.607910  0.520580  1.0  0.0022
  C  C551  1  0.237620  0.425810  0.466690  1.0  0.1311
  C  C552  1  0.232580  0.389600  0.476940  1.0  -0.0005
  C  C553  1  0.240990  0.433700  0.560700  1.0  0.0028
  C  C554  1  0.249600  0.563780  0.436790  1.0  -0.0026
  C  C555  1  0.250720  0.560640  0.564000  1.0  -0.0062
  C  C556  1  0.240560  0.436930  0.433720  1.0  -0.0021
  C  C557  1  0.073870  0.255230  0.025100  1.0  0.1639
  C  C558  1  0.109510  0.260520  0.013080  1.0  0.0181
  C  C559  1  0.925350  0.253760  0.967220  1.0  0.1635
  C  C560  1  0.889720  0.259650  0.978960  1.0  0.0191
  C  C561  1  0.971960  0.245490  0.923630  1.0  0.1945
  C  C562  1  0.982530  0.238230  0.887620  1.0  0.0282
  C  C563  1  0.027230  0.249060  0.069080  1.0  0.1847
  C  C564  1  0.016620  0.243530  0.105390  1.0  0.0322
  C  C565  1  0.072320  0.252160  0.968560  1.0  0.1939
  C  C566  1  0.108530  0.258550  0.979000  1.0  0.0122
  C  C567  1  0.926850  0.252900  0.023780  1.0  0.1927
  C  C568  1  0.890650  0.258970  0.013070  1.0  0.0153
  C  C569  1  0.028500  0.243600  0.922160  1.0  0.1805
  C  C570  1  0.016620  0.236950  0.886700  1.0  0.0292
  C  C571  1  0.970670  0.246970  0.070580  1.0  0.1462
  C  C572  1  0.982520  0.242140  0.106330  1.0  0.0241
  C  C573  1  0.064080  0.252870  0.058530  1.0  -0.0015
  C  C574  1  0.935170  0.250040  0.933950  1.0  -0.0014
  C  C575  1  0.061820  0.247200  0.931840  1.0  -0.0035
  C  C576  1  0.937300  0.249520  0.060660  1.0  1e-04
  C  C577  1  0.575090  0.757580  0.529970  1.0  0.1632
  C  C578  1  0.610650  0.762680  0.517620  1.0  0.0253
  C  C579  1  0.425820  0.761340  0.474530  1.0  0.1826
  C  C580  1  0.390460  0.767450  0.486950  1.0  0.0216
  C  C581  1  0.471590  0.753580  0.429890  1.0  0.1847
  C  C582  1  0.481460  0.747480  0.393470  1.0  0.0323
  C  C583  1  0.528970  0.750800  0.574480  1.0  0.193
  C  C584  1  0.518790  0.744230  0.610740  1.0  0.0293
  C  C585  1  0.572710  0.756600  0.473410  1.0  0.1958
  C  C586  1  0.609170  0.761970  0.483530  1.0  0.0151
  C  C587  1  0.428060  0.758600  0.530980  1.0  0.1976
  C  C588  1  0.391850  0.765700  0.521000  1.0  0.0141
  C  C589  1  0.528090  0.750850  0.427380  1.0  0.1483
  C  C590  1  0.515520  0.745700  0.391920  1.0  0.0258
  C  C591  1  0.472350  0.750050  0.576880  1.0  0.1497
  C  C592  1  0.484670  0.743650  0.612220  1.0  0.0311
  C  C593  1  0.565760  0.754020  0.563420  1.0  -0.0056
  C  C594  1  0.435020  0.758060  0.441040  1.0  -0.0033
  C  C595  1  0.561670  0.753070  0.436670  1.0  -0.0068
  C  C596  1  0.438850  0.753430  0.567560  1.0  -0.004
  C  C597  1  0.029480  0.737040  0.926090  1.0  0.1735
  C  C598  1  0.016940  0.730850  0.890790  1.0  0.0177
  C  C599  1  0.973290  0.742270  0.075280  1.0  0.1721
  C  C600  1  0.985530  0.737090  0.110860  1.0  0.0184
  C  C601  1  0.929200  0.749840  0.029000  1.0  0.1971
  C  C602  1  0.893220  0.757540  0.018630  1.0  0.0262
  C  C603  1  0.074040  0.744510  0.971930  1.0  0.1794
  C  C604  1  0.110450  0.750400  0.981980  1.0  0.0295
  C  C605  1  0.973040  0.740870  0.928290  1.0  0.2016
  C  C606  1  0.982920  0.733270  0.892140  1.0  0.0119
  C  C607  1  0.029920  0.742920  0.073000  1.0  0.1902
  C  C608  1  0.019650  0.737670  0.109450  1.0  0.0147
  C  C609  1  0.927230  0.751030  0.972410  1.0  0.1587
  C  C610  1  0.892000  0.758420  0.984520  1.0  0.0279
  C  C611  1  0.076240  0.747730  0.028450  1.0  0.1413
  C  C612  1  0.111810  0.752460  0.016040  1.0  0.023
  C  C613  1  0.063050  0.739990  0.935250  1.0  -0.0078
  C  C614  1  0.939850  0.745980  0.065840  1.0  -0.0043
  C  C615  1  0.936590  0.747050  0.939020  1.0  -0.0027
  C  C616  1  0.066710  0.746060  0.062000  1.0  -0.0023
  C  C617  1  0.525970  0.238050  0.420670  1.0  0.1732
  C  C618  1  0.512730  0.233770  0.385350  1.0  0.0147
  C  C619  1  0.473120  0.237390  0.571040  1.0  0.1646
  C  C620  1  0.486030  0.230820  0.606150  1.0  0.0214
  C  C621  1  0.428060  0.247140  0.526080  1.0  0.1863
  C  C622  1  0.391850  0.255210  0.516850  1.0  0.0192
  C  C623  1  0.571530  0.242900  0.465860  1.0  0.1786
  C  C624  1  0.608200  0.248200  0.475300  1.0  0.0342
  C  C625  1  0.469640  0.242420  0.424130  1.0  0.1938
  C  C626  1  0.478770  0.236500  0.387470  1.0  0.0177
  C  C627  1  0.529630  0.237470  0.567570  1.0  0.1991
  C  C628  1  0.520110  0.231010  0.604020  1.0  0.0134
  C  C629  1  0.424800  0.250630  0.469630  1.0  0.1424
  C  C630  1  0.389860  0.257480  0.482830  1.0  0.0231
  C  C631  1  0.574990  0.243860  0.522320  1.0  0.1537
  C  C632  1  0.610310  0.248940  0.509350  1.0  0.0347
  C  C633  1  0.559710  0.239990  0.429350  1.0  0.0005
  C  C634  1  0.439590  0.241930  0.562480  1.0  -0.0078
  C  C635  1  0.433440  0.248250  0.435880  1.0  -0.0017
  C  C636  1  0.566170  0.240940  0.555930  1.0  -0.0036
  C  C637  1  0.074500  0.026980  0.245450  1.0  0.1051
  C  C638  1  0.110090  0.013770  0.245790  1.0  0.0062
  C  C639  1  0.923390  0.975090  0.243360  1.0  0.1337
  C  C640  1  0.888210  0.987970  0.237140  1.0  0.0069
  C  C641  1  0.968260  0.929870  0.253210  1.0  0.1888
  C  C642  1  0.977240  0.893410  0.260470  1.0  -0.0107
  C  C643  1  0.029230  0.072910  0.243380  1.0  0.1431
  C  C644  1  0.020040  0.110010  0.242680  1.0  -0.0046
  C  C645  1  0.070630  0.970600  0.249280  1.0  0.156
  C  C646  1  0.107690  0.979790  0.247420  1.0  0.0274
  C  C647  1  0.927050  0.031580  0.242030  1.0  0.1734
  C  C648  1  0.890450  0.022030  0.236570  1.0  0.0186
  C  C649  1  0.024670  0.926000  0.255980  1.0  0.1408
  C  C650  1  0.011250  0.891020  0.262080  1.0  -0.004
  C  C651  1  0.972710  0.076950  0.243200  1.0  0.1258
  C  C652  1  0.986030  0.112510  0.243390  1.0  0.0143
  C  C653  1  0.065750  0.060730  0.244330  1.0  0.0002
  C  C654  1  0.931990  0.941540  0.247630  1.0  -0.0082
  C  C655  1  0.058480  0.934230  0.253470  1.0  -0.0056
  C  C656  1  0.938880  0.068230  0.242770  1.0  -0.0102
  C  C657  1  0.578220  0.521530  0.746790  1.0  0.1455
  C  C658  1  0.613170  0.508070  0.740500  1.0  0.0238
  C  C659  1  0.426460  0.471740  0.748540  1.0  0.1143
  C  C660  1  0.391070  0.485490  0.748640  1.0  0.0049
  C  C661  1  0.471000  0.425190  0.746970  1.0  0.1437
  C  C662  1  0.479670  0.387970  0.746640  1.0  -0.0064
  C  C663  1  0.534070  0.567360  0.756750  1.0  0.1956
  C  C664  1  0.525590  0.603910  0.764150  1.0  -0.0053
  C  C665  1  0.573740  0.465120  0.746270  1.0  0.1633
  C  C666  1  0.610450  0.474050  0.740490  1.0  0.0112
  C  C667  1  0.431200  0.527940  0.753110  1.0  0.1554
  C  C668  1  0.394000  0.519380  0.750790  1.0  0.0172
  C  C669  1  0.527410  0.420420  0.747750  1.0  0.139
  C  C670  1  0.513620  0.385020  0.747950  1.0  0.0164
  C  C671  1  0.477790  0.571840  0.760160  1.0  0.1506
  C  C672  1  0.491630  0.606670  0.766150  1.0  -0.0028
  C  C673  1  0.570120  0.555230  0.750780  1.0  -0.0083
  C  C674  1  0.434690  0.437910  0.747270  1.0  0.002
  C  C675  1  0.561310  0.428720  0.747380  1.0  -0.0046
  C  C676  1  0.443920  0.563990  0.757650  1.0  -0.0087
  C  C677  1  0.975650  0.072260  0.746820  1.0  0.1221
  C  C678  1  0.988360  0.108020  0.746660  1.0  0.0033
  C  C679  1  0.029780  0.921810  0.744310  1.0  0.1497
  C  C680  1  0.017190  0.886440  0.738530  1.0  0.0201
  C  C681  1  0.074560  0.967290  0.753100  1.0  0.1944
  C  C682  1  0.111020  0.976930  0.759430  1.0  0.0225
  C  C683  1  0.930390  0.026410  0.746020  1.0  0.1442
  C  C684  1  0.893430  0.016680  0.746400  1.0  -0.0048
  C  C685  1  0.032100  0.069120  0.749550  1.0  0.1472
  C  C686  1  0.022390  0.106070  0.747680  1.0  0.0164
  C  C687  1  0.973250  0.924850  0.743680  1.0  0.1703
  C  C688  1  0.983110  0.888310  0.738360  1.0  -0.0127
  C  C689  1  0.077570  0.023800  0.755220  1.0  0.1507
  C  C690  1  0.112900  0.011000  0.760610  1.0  -0.0016
  C  C691  1  0.927260  0.969890  0.746000  1.0  0.1162
  C  C692  1  0.891490  0.982640  0.747140  1.0  0.0197
  C  C693  1  0.942020  0.063090  0.746360  1.0  0.0009
  C  C694  1  0.063280  0.930730  0.748420  1.0  -0.0043
  C  C695  1  0.068670  0.057450  0.752910  1.0  -0.0104
  C  C696  1  0.936520  0.936240  0.745260  1.0  -0.0059
  C  C697  1  0.470450  0.578470  0.243780  1.0  0.109
  C  C698  1  0.483430  0.614140  0.244040  1.0  0.0052
  C  C699  1  0.523990  0.427660  0.238520  1.0  0.1506
  C  C700  1  0.511100  0.392430  0.232640  1.0  0.0145
  C  C701  1  0.569090  0.472810  0.247010  1.0  0.1939
  C  C702  1  0.605670  0.482220  0.252950  1.0  0.0237
  C  C703  1  0.424990  0.532800  0.243160  1.0  0.1449
  C  C704  1  0.388020  0.523130  0.244070  1.0  0.0009
  C  C705  1  0.527010  0.574940  0.245230  1.0  0.1495
  C  C706  1  0.517480  0.611960  0.244270  1.0  0.0157
  C  C707  1  0.467480  0.431010  0.239100  1.0  0.1854
  C  C708  1  0.477040  0.394480  0.233190  1.0  -0.0121
  C  C709  1  0.572370  0.529280  0.249550  1.0  0.1515
  C  C710  1  0.607710  0.516260  0.254400  1.0  0.004
  C  C711  1  0.421700  0.476230  0.242730  1.0  0.1163
  C  C712  1  0.386010  0.489080  0.244610  1.0  0.02
  C  C713  1  0.436710  0.569500  0.243900  1.0  -0.0069
  C  C714  1  0.557620  0.436310  0.242250  1.0  -0.0063
  C  C715  1  0.563600  0.563000  0.247770  1.0  -0.0086
  C  C716  1  0.430860  0.442550  0.241720  1.0  -0.005
  C  C717  1  0.168110  0.252420  0.166950  1.0  0.6512
  C  C718  1  0.253690  0.173890  0.165600  1.0  0.6712
  C  C719  1  0.171630  0.166910  0.245130  1.0  0.6517
  C  C720  1  0.328940  0.255140  0.328140  1.0  0.6811
  C  C721  1  0.327280  0.333780  0.247900  1.0  0.6549
  C  C722  1  0.245580  0.332360  0.325380  1.0  0.6619
  C  C723  1  0.669860  0.669240  0.248360  1.0  0.6401
  C  C724  1  0.752230  0.670910  0.328970  1.0  0.6664
  C  C725  1  0.668800  0.749740  0.331090  1.0  0.6557
  C  C726  1  0.827900  0.833280  0.246260  1.0  0.6678
  C  C727  1  0.831510  0.751040  0.170620  1.0  0.6556
  C  C728  1  0.746360  0.827420  0.166970  1.0  0.6583
  C  C729  1  0.667180  0.322140  0.746880  1.0  0.6553
  C  C730  1  0.750110  0.326930  0.666120  1.0  0.6569
  C  C731  1  0.672270  0.243620  0.662000  1.0  0.6529
  C  C732  1  0.835680  0.168960  0.748030  1.0  0.6584
  C  C733  1  0.831950  0.248490  0.824960  1.0  0.654
  C  C734  1  0.753380  0.168450  0.826550  1.0  0.6765
  C  C735  1  0.252800  0.663630  0.674430  1.0  0.6632
  C  C736  1  0.331280  0.748750  0.672690  1.0  0.6403
  C  C737  1  0.337490  0.669630  0.754890  1.0  0.6726
  C  C738  1  0.245860  0.828440  0.831980  1.0  0.669
  C  C739  1  0.170480  0.825210  0.750820  1.0  0.6559
  C  C740  1  0.171000  0.742760  0.830330  1.0  0.6621
  C  C741  1  0.333470  0.246290  0.669070  1.0  0.6699
  C  C742  1  0.247230  0.324730  0.664440  1.0  0.6615
  C  C743  1  0.327580  0.333200  0.745970  1.0  0.6825
  C  C744  1  0.169000  0.245160  0.826620  1.0  0.6728
  C  C745  1  0.172430  0.166050  0.749890  1.0  0.6489
  C  C746  1  0.253520  0.168640  0.826540  1.0  0.6544
  C  C747  1  0.672200  0.748250  0.669210  1.0  0.6517
  C  C748  1  0.756850  0.668190  0.667870  1.0  0.6546
  C  C749  1  0.675190  0.662410  0.747570  1.0  0.6419
  C  C750  1  0.833210  0.750330  0.830070  1.0  0.6819
  C  C751  1  0.832090  0.828180  0.749610  1.0  0.6578
  C  C752  1  0.749940  0.827920  0.826860  1.0  0.6597
  C  C753  1  0.249160  0.673630  0.333520  1.0  0.6534
  C  C754  1  0.331130  0.676600  0.251400  1.0  0.6382
  C  C755  1  0.329090  0.756370  0.334850  1.0  0.6634
  C  C756  1  0.245860  0.833460  0.170430  1.0  0.6754
  C  C757  1  0.171550  0.751000  0.169460  1.0  0.6528
  C  C758  1  0.166230  0.829120  0.251840  1.0  0.661
  C  C759  1  0.665870  0.245340  0.323320  1.0  0.6546
  C  C760  1  0.744790  0.329970  0.324870  1.0  0.6616
  C  C761  1  0.664330  0.329910  0.243430  1.0  0.6638
  C  C762  1  0.828920  0.249960  0.164550  1.0  0.6826
  C  C763  1  0.831910  0.174400  0.244530  1.0  0.6568
  C  C764  1  0.749640  0.168700  0.167350  1.0  0.6632
  C  C765  1  0.284590  0.096590  0.113080  1.0  -0.1404
  C  C766  1  0.258720  0.094280  0.087300  1.0  0.065
  C  C767  1  0.232440  0.119720  0.086330  1.0  -0.1313
  C  C768  1  0.231730  0.146600  0.110920  1.0  -0.1247
  C  C769  1  0.256670  0.147880  0.137550  1.0  -0.0499
  C  C770  1  0.283110  0.122700  0.138460  1.0  -0.1314
  C  C771  1  0.734640  0.614460  0.588340  1.0  -0.1178
  C  C772  1  0.761370  0.589450  0.588260  1.0  0.0623
  C  C773  1  0.787560  0.591640  0.613770  1.0  -0.1361
  C  C774  1  0.786090  0.617240  0.639730  1.0  -0.1278
  C  C775  1  0.759310  0.642090  0.639740  1.0  -0.0347
  C  C776  1  0.733940  0.640860  0.613500  1.0  -0.1319
  C  C777  1  0.769020  0.881250  0.087540  1.0  -0.1197
  C  C778  1  0.742090  0.906050  0.087240  1.0  0.0648
  C  C779  1  0.715640  0.903580  0.112440  1.0  -0.138
  C  C780  1  0.717050  0.877970  0.138360  1.0  -0.1369
  C  C781  1  0.744050  0.853370  0.138680  1.0  -0.0392
  C  C782  1  0.769690  0.854810  0.112700  1.0  -0.1223
  C  C783  1  0.268500  0.379710  0.585650  1.0  -0.1298
  C  C784  1  0.241410  0.404340  0.586230  1.0  0.0677
  C  C785  1  0.215070  0.401030  0.611380  1.0  -0.1419
  C  C786  1  0.216780  0.374770  0.636570  1.0  -0.1308
  C  C787  1  0.244030  0.350450  0.636150  1.0  -0.0511
  C  C788  1  0.269530  0.352680  0.610110  1.0  -0.1318
  C  C789  1  0.726830  0.115560  0.905620  1.0  -0.1306
  C  C790  1  0.753200  0.090170  0.906800  1.0  0.056
  C  C791  1  0.780250  0.091780  0.882200  1.0  -0.1385
  C  C792  1  0.779990  0.117090  0.856010  1.0  -0.1299
  C  C793  1  0.753570  0.142280  0.854740  1.0  -0.0452
  C  C794  1  0.727330  0.141740  0.880150  1.0  -0.1357
  C  C795  1  0.276620  0.595030  0.385800  1.0  -0.1415
  C  C796  1  0.250120  0.592890  0.410950  1.0  0.0574
  C  C797  1  0.223690  0.618210  0.410950  1.0  -0.1302
  C  C798  1  0.223640  0.644960  0.386140  1.0  -0.1294
  C  C799  1  0.249350  0.646100  0.360240  1.0  -0.0254
  C  C800  1  0.275810  0.620950  0.360240  1.0  -0.1329
  C  C801  1  0.269550  0.883320  0.910060  1.0  -0.1219
  C  C802  1  0.243270  0.908750  0.909640  1.0  0.0634
  C  C803  1  0.217110  0.906780  0.884110  1.0  -0.1292
  C  C804  1  0.218170  0.880850  0.858540  1.0  -0.1198
  C  C805  1  0.244540  0.855590  0.859000  1.0  -0.033
  C  C806  1  0.269850  0.856620  0.885290  1.0  -0.1218
  C  C807  1  0.772350  0.382250  0.403950  1.0  -0.1232
  C  C808  1  0.746320  0.407980  0.405440  1.0  0.0539
  C  C809  1  0.719200  0.406950  0.380860  1.0  -0.1305
  C  C810  1  0.719020  0.381810  0.354450  1.0  -0.1168
  C  C811  1  0.745090  0.356250  0.352970  1.0  -0.0301
  C  C812  1  0.771410  0.356280  0.378300  1.0  -0.1251
  C  C813  1  0.117010  0.227540  0.087160  1.0  -0.1338
  C  C814  1  0.091090  0.253320  0.086360  1.0  0.0725
  C  C815  1  0.090620  0.278900  0.112530  1.0  -0.142
  C  C816  1  0.115360  0.278360  0.139280  1.0  -0.1283
  C  C817  1  0.141570  0.252970  0.139480  1.0  -0.0369
  C  C818  1  0.142420  0.227770  0.113140  1.0  -0.1282
  C  C819  1  0.618840  0.726660  0.589910  1.0  -0.143
  C  C820  1  0.593280  0.752830  0.590700  1.0  0.0827
  C  C821  1  0.593950  0.777560  0.617620  1.0  -0.1365
  C  C822  1  0.619440  0.775830  0.643550  1.0  -0.1322
  C  C823  1  0.645320  0.750130  0.642170  1.0  -0.0347
  C  C824  1  0.645050  0.725740  0.615080  1.0  -0.1456
  C  C825  1  0.089920  0.764810  0.881040  1.0  -0.1315
  C  C826  1  0.090410  0.739680  0.907640  1.0  0.0667
  C  C827  1  0.117380  0.714960  0.908140  1.0  -0.1427
  C  C828  1  0.143820  0.715980  0.883060  1.0  -0.1366
  C  C829  1  0.142910  0.740840  0.856310  1.0  -0.036
  C  C830  1  0.115540  0.764910  0.855240  1.0  -0.1303
  C  C831  1  0.612910  0.215020  0.400390  1.0  -0.1434
  C  C832  1  0.586570  0.240390  0.401440  1.0  0.0603
  C  C833  1  0.586540  0.267080  0.376450  1.0  -0.1276
  C  C834  1  0.612020  0.268090  0.350600  1.0  -0.1325
  C  C835  1  0.638700  0.243230  0.350070  1.0  -0.0315
  C  C836  1  0.639200  0.216810  0.375240  1.0  -0.1228
  C  C837  1  0.884530  0.722800  0.092460  1.0  -0.1353
  C  C838  1  0.912130  0.746820  0.093100  1.0  0.0723
  C  C839  1  0.912750  0.772320  0.119330  1.0  -0.1388
  C  C840  1  0.886830  0.773240  0.144840  1.0  -0.1383
  C  C841  1  0.858970  0.749680  0.143800  1.0  -0.0351
  C  C842  1  0.857840  0.724620  0.117230  1.0  -0.1251
  C  C843  1  0.414000  0.267520  0.616940  1.0  -0.1426
  C  C844  1  0.412680  0.242350  0.590420  1.0  0.0687
  C  C845  1  0.385230  0.218200  0.590210  1.0  -0.1415
  C  C846  1  0.359230  0.219640  0.615660  1.0  -0.1277
  C  C847  1  0.360910  0.244490  0.642380  1.0  -0.0376
  C  C848  1  0.388680  0.268190  0.643040  1.0  -0.1286
  C  C849  1  0.881930  0.224750  0.905810  1.0  -0.1376
  C  C850  1  0.908320  0.250080  0.906020  1.0  0.0839
  C  C851  1  0.909460  0.274870  0.879150  1.0  -0.1432
  C  C852  1  0.884930  0.274000  0.852270  1.0  -0.1261
  C  C853  1  0.858240  0.249130  0.852620  1.0  -0.0315
  C  C854  1  0.856690  0.224710  0.879670  1.0  -0.1401
  C  C855  1  0.407530  0.783420  0.387360  1.0  -0.1384
  C  C856  1  0.407500  0.758190  0.413830  1.0  0.0855
  C  C857  1  0.381380  0.732600  0.414110  1.0  -0.1286
  C  C858  1  0.355350  0.732640  0.388810  1.0  -0.1338
  C  C859  1  0.355770  0.757460  0.362090  1.0  -0.0307
  C  C860  1  0.382160  0.782660  0.361270  1.0  -0.1263
  C  C861  1  0.097020  0.109990  0.273330  1.0  -0.1411
  C  C862  1  0.093680  0.087510  0.244710  1.0  0.0793
  C  C863  1  0.116740  0.090860  0.216530  1.0  -0.1241
  C  C864  1  0.142950  0.116110  0.217170  1.0  -0.1263
  C  C865  1  0.145630  0.139020  0.245440  1.0  -0.0346
  C  C866  1  0.122420  0.136000  0.273400  1.0  -0.1229
  C  C867  1  0.625280  0.581990  0.773650  1.0  -0.1395
  C  C868  1  0.598090  0.581980  0.749180  1.0  0.0543
  C  C869  1  0.596870  0.608320  0.723870  1.0  -0.1315
  C  C870  1  0.621850  0.634730  0.723600  1.0  -0.1336
  C  C871  1  0.649110  0.634500  0.747870  1.0  -0.0188
  C  C872  1  0.651000  0.607710  0.772570  1.0  -0.1261
  C  C873  1  0.893320  0.094730  0.775990  1.0  -0.13
  C  C874  1  0.914900  0.090710  0.746760  1.0  0.0835
  C  C875  1  0.910550  0.113030  0.718120  1.0  -0.1314
  C  C876  1  0.885230  0.139180  0.718870  1.0  -0.1385
  C  C877  1  0.863310  0.142630  0.747830  1.0  -0.0303
  C  C878  1  0.867360  0.120200  0.776290  1.0  -0.1253
  C  C879  1  0.388160  0.600200  0.275100  1.0  -0.1296
  C  C880  1  0.409600  0.597290  0.245610  1.0  0.0759
  C  C881  1  0.405040  0.620860  0.217980  1.0  -0.1286
  C  C882  1  0.379860  0.647150  0.220080  1.0  -0.129
  C  C883  1  0.358130  0.649520  0.249310  1.0  -0.0221
  C  C884  1  0.362280  0.625760  0.276680  1.0  -0.1223
  C  C885  1  0.117220  0.903190  0.723490  1.0  -0.1384
  C  C886  1  0.090490  0.903030  0.748450  1.0  0.0767
  C  C887  1  0.090070  0.876670  0.773830  1.0  -0.1443
  C  C888  1  0.115560  0.850700  0.773900  1.0  -0.1295
  C  C889  1  0.142610  0.851400  0.749460  1.0  -0.0359
  C  C890  1  0.143450  0.877940  0.724400  1.0  -0.1225
  C  C891  1  0.584240  0.381800  0.267040  1.0  -0.1374
  C  C892  1  0.584700  0.408390  0.241890  1.0  0.0828
  C  C893  1  0.611390  0.408590  0.216870  1.0  -0.1399
  C  C894  1  0.637520  0.383190  0.217500  1.0  -0.1266
  C  C895  1  0.636640  0.356420  0.242330  1.0  -0.0417
  C  C896  1  0.609600  0.355690  0.266830  1.0  -0.1267
  C  C897  1  0.905370  0.888120  0.221270  1.0  -0.1332
  C  C898  1  0.904320  0.914450  0.246580  1.0  0.0535
  C  C899  1  0.877520  0.914190  0.271490  1.0  -0.1404
  C  C900  1  0.852070  0.888190  0.270870  1.0  -0.1277
  C  C901  1  0.853790  0.861410  0.246140  1.0  -0.0377
  C  C902  1  0.880630  0.861480  0.221430  1.0  -0.1183
  C  C903  1  0.383730  0.408690  0.718520  1.0  -0.1302
  C  C904  1  0.406340  0.411630  0.747110  1.0  0.0741
  C  C905  1  0.402060  0.389320  0.775710  1.0  -0.1427
  C  C906  1  0.376240  0.363760  0.775330  1.0  -0.1268
  C  C907  1  0.353560  0.361060  0.746910  1.0  -0.0398
  C  C908  1  0.357110  0.383890  0.718670  1.0  -0.1413
  C  C909  1  0.115990  0.221330  0.905810  1.0  -0.1452
  C  C910  1  0.089550  0.246550  0.904780  1.0  0.0804
  C  C911  1  0.089660  0.271400  0.877930  1.0  -0.1416
  C  C912  1  0.115230  0.270500  0.852110  1.0  -0.1352
  C  C913  1  0.141860  0.245630  0.853510  1.0  -0.0275
  C  C914  1  0.142310  0.221270  0.880690  1.0  -0.1367
  C  C915  1  0.590040  0.777320  0.382880  1.0  -0.1465
  C  C916  1  0.589190  0.752010  0.409300  1.0  0.0772
  C  C917  1  0.614980  0.726080  0.409860  1.0  -0.1423
  C  C918  1  0.641390  0.725800  0.384800  1.0  -0.1351
  C  C919  1  0.641710  0.750700  0.358100  1.0  -0.0334
  C  C920  1  0.615680  0.776240  0.357090  1.0  -0.1282
  C  C921  1  0.882020  0.724440  0.911120  1.0  -0.1471
  C  C922  1  0.909550  0.748510  0.911310  1.0  0.073
  C  C923  1  0.911780  0.773230  0.884460  1.0  -0.1389
  C  C924  1  0.887290  0.773420  0.857560  1.0  -0.1417
  C  C925  1  0.859500  0.749760  0.857820  1.0  -0.0244
  C  C926  1  0.856830  0.725510  0.884960  1.0  -0.121
  C  C927  1  0.378390  0.226850  0.407990  1.0  -0.1484
  C  C928  1  0.405840  0.250990  0.408810  1.0  0.0641
  C  C929  1  0.407600  0.276830  0.382980  1.0  -0.1351
  C  C930  1  0.382820  0.277950  0.356340  1.0  -0.1339
  C  C931  1  0.355240  0.254050  0.355880  1.0  -0.0208
  C  C932  1  0.352940  0.228790  0.382120  1.0  -0.1319
  C  C933  1  0.120070  0.721900  0.091180  1.0  -0.1463
  C  C934  1  0.093890  0.747440  0.089610  1.0  0.077
  C  C935  1  0.093410  0.773990  0.114740  1.0  -0.1367
  C  C936  1  0.118390  0.774730  0.141180  1.0  -0.1242
  C  C937  1  0.144800  0.749600  0.142240  1.0  -0.0224
  C  C938  1  0.145720  0.723370  0.116930  1.0  -0.1415
  C  C939  1  0.620300  0.216350  0.583340  1.0  -0.144
  C  C940  1  0.593870  0.241680  0.582980  1.0  0.08
  C  C941  1  0.593630  0.267570  0.608740  1.0  -0.1317
  C  C942  1  0.619000  0.267790  0.634740  1.0  -0.1398
  C  C943  1  0.645640  0.242860  0.634690  1.0  -0.0149
  C  C944  1  0.646420  0.217360  0.608650  1.0  -0.1385
  C  C945  1  0.883260  0.223810  0.087070  1.0  -0.1495
  C  C946  1  0.909370  0.249410  0.087490  1.0  0.0872
  C  C947  1  0.908390  0.275470  0.113130  1.0  -0.1489
  C  C948  1  0.882300  0.275420  0.138400  1.0  -0.1318
  C  C949  1  0.856010  0.250140  0.137630  1.0  -0.03
  C  C950  1  0.856420  0.224510  0.111650  1.0  -0.1378
  C  C951  1  0.410430  0.776800  0.621680  1.0  -0.1467
  C  C952  1  0.411060  0.752170  0.594650  1.0  0.0695
  C  C953  1  0.384530  0.727020  0.592930  1.0  -0.1433
  C  C954  1  0.357740  0.726700  0.617620  1.0  -0.1342
  C  C955  1  0.357710  0.750810  0.645030  1.0  -0.0344
  C  C956  1  0.384370  0.775690  0.647030  1.0  -0.1237
  C  C957  1  0.283200  0.091630  0.880400  1.0  -0.1366
  C  C958  1  0.257370  0.090580  0.906300  1.0  0.0739
  C  C959  1  0.230400  0.115220  0.905490  1.0  -0.1013
  C  C960  1  0.229520  0.140720  0.879630  1.0  -0.1245
  C  C961  1  0.254890  0.141380  0.853410  1.0  -0.0272
  C  C962  1  0.281580  0.116460  0.853710  1.0  -0.1195
  C  C963  1  0.730530  0.615320  0.407160  1.0  -0.1151
  C  C964  1  0.757440  0.590540  0.406830  1.0  0.0736
  C  C965  1  0.782810  0.592410  0.380490  1.0  -0.1429
  C  C966  1  0.780780  0.618060  0.354570  1.0  -0.1215
  C  C967  1  0.754200  0.643110  0.355430  1.0  -0.0192
  C  C968  1  0.729280  0.641680  0.382080  1.0  -0.1331
  C  C969  1  0.723170  0.113620  0.090110  1.0  -0.1233
  C  C970  1  0.750020  0.088780  0.088830  1.0  0.0744
  C  C971  1  0.776440  0.090090  0.114150  1.0  -0.1435
  C  C972  1  0.775650  0.115340  0.140510  1.0  -0.1263
  C  C973  1  0.749180  0.140520  0.141210  1.0  -0.0402
  C  C974  1  0.723110  0.139610  0.115650  1.0  -0.1274
  C  C975  1  0.278030  0.586880  0.617800  1.0  -0.1406
  C  C976  1  0.251170  0.586740  0.592920  1.0  0.0772
  C  C977  1  0.224640  0.611810  0.595520  1.0  -0.1237
  C  C978  1  0.225280  0.636850  0.621990  1.0  -0.1205
  C  C979  1  0.251760  0.636550  0.647150  1.0  -0.0319
  C  C980  1  0.277960  0.611160  0.645070  1.0  -0.1308
  C  C981  1  0.772690  0.883320  0.904890  1.0  -0.1173
  C  C982  1  0.745270  0.907530  0.905520  1.0  0.0776
  C  C983  1  0.719420  0.905570  0.879650  1.0  -0.1464
  C  C984  1  0.721380  0.880320  0.853320  1.0  -0.1254
  C  C985  1  0.748450  0.855790  0.853260  1.0  -0.0299
  C  C986  1  0.773930  0.857360  0.879390  1.0  -0.1377
  C  C987  1  0.269560  0.386900  0.403410  1.0  -0.1131
  C  C988  1  0.241840  0.410690  0.405040  1.0  0.0804
  C  C989  1  0.215460  0.408920  0.379730  1.0  -0.1474
  C  C990  1  0.217100  0.384130  0.352970  1.0  -0.1163
  C  C991  1  0.244450  0.359950  0.351980  1.0  -0.0356
  C  C992  1  0.270530  0.361410  0.377480  1.0  -0.1273
  C  C993  1  0.271640  0.886600  0.091890  1.0  -0.1215
  C  C994  1  0.245310  0.911990  0.090890  1.0  0.0796
  C  C995  1  0.219140  0.911380  0.116440  1.0  -0.1411
  C  C996  1  0.219780  0.886350  0.142960  1.0  -0.1254
  C  C997  1  0.245810  0.860720  0.143480  1.0  -0.0268
  C  C998  1  0.271530  0.860840  0.117590  1.0  -0.1284
  C  C999  1  0.777090  0.381310  0.588510  1.0  -0.1094
  C  C1000  1  0.750860  0.406820  0.587560  1.0  0.0846
  C  C1001  1  0.724610  0.406040  0.613060  1.0  -0.1406
  C  C1002  1  0.725030  0.380750  0.639380  1.0  -0.1178
  C  C1003  1  0.750940  0.354980  0.639840  1.0  -0.0396
  C  C1004  1  0.776760  0.355280  0.614020  1.0  -0.1194
  C  C1005  1  0.121140  0.085740  0.726210  1.0  -0.122
  C  C1006  1  0.096450  0.084500  0.753170  1.0  0.0554
  C  C1007  1  0.097650  0.109750  0.779590  1.0  -0.1115
  C  C1008  1  0.122150  0.136630  0.778230  1.0  -0.128
  C  C1009  1  0.146680  0.137820  0.751220  1.0  -0.0406
  C  C1010  1  0.146450  0.111870  0.725580  1.0  -0.1227
  C  C1011  1  0.593370  0.614160  0.275580  1.0  -0.1185
  C  C1012  1  0.591600  0.589820  0.248390  1.0  0.0615
  C  C1013  1  0.616400  0.591290  0.221500  1.0  -0.1288
  C  C1014  1  0.642530  0.616640  0.221850  1.0  -0.1247
  C  C1015  1  0.643460  0.641590  0.248440  1.0  -0.0407
  C  C1016  1  0.618690  0.640260  0.275240  1.0  -0.1133
  C  C1017  1  0.110530  0.904940  0.280640  1.0  -0.1235
  C  C1018  1  0.085080  0.905880  0.254400  1.0  0.0669
  C  C1019  1  0.085580  0.880180  0.228330  1.0  -0.1267
  C  C1020  1  0.111190  0.854280  0.228340  1.0  -0.1343
  C  C1021  1  0.137430  0.854350  0.253680  1.0  -0.0475
  C  C1022  1  0.136930  0.879840  0.279850  1.0  -0.1333
  C  C1023  1  0.612310  0.398640  0.774970  1.0  -0.1116
  C  C1024  1  0.587960  0.400570  0.747750  1.0  0.0704
  C  C1025  1  0.589760  0.376230  0.720510  1.0  -0.1388
  C  C1026  1  0.614850  0.349930  0.720960  1.0  -0.1212
  C  C1027  1  0.639420  0.348400  0.747880  1.0  -0.0389
  C  C1028  1  0.638230  0.373080  0.774720  1.0  -0.1229
  C  C1029  1  0.909520  0.120820  0.216440  1.0  -0.1359
  C  C1030  1  0.911720  0.096070  0.243340  1.0  0.0699
  C  C1031  1  0.887390  0.097430  0.270620  1.0  -0.1119
  C  C1032  1  0.861230  0.122770  0.270860  1.0  -0.1207
  C  C1033  1  0.859660  0.147930  0.244450  1.0  -0.028
  C  C1034  1  0.884150  0.146970  0.217380  1.0  -0.1335
  C  C1035  1  0.392410  0.593920  0.784700  1.0  -0.1266
  C  C1036  1  0.417770  0.592540  0.758400  1.0  0.0584
  C  C1037  1  0.417320  0.617660  0.731820  1.0  -0.1125
  C  C1038  1  0.391790  0.643530  0.731380  1.0  -0.137
  C  C1039  1  0.365670  0.643930  0.756840  1.0  -0.0449
  C  C1040  1  0.366100  0.619020  0.783510  1.0  -0.1319
  C  C1041  1  0.884190  0.905980  0.719850  1.0  -0.1437
  C  C1042  1  0.909160  0.908780  0.746450  1.0  0.0653
  C  C1043  1  0.908500  0.884820  0.774050  1.0  -0.0978
  C  C1044  1  0.883580  0.858330  0.774850  1.0  -0.1233
  C  C1045  1  0.858280  0.856040  0.748670  1.0  -0.0344
  C  C1046  1  0.858500  0.880220  0.721330  1.0  -0.1317
  C  C1047  1  0.403740  0.390920  0.271040  1.0  -0.0969
  C  C1048  1  0.403520  0.415100  0.243610  1.0  0.0591
  C  C1049  1  0.377930  0.412290  0.217620  1.0  -0.1454
  C  C1050  1  0.352540  0.386290  0.219530  1.0  -0.1293
  C  C1051  1  0.353220  0.361860  0.246640  1.0  -0.0298
  C  C1052  1  0.379120  0.364170  0.272230  1.0  -0.1232
  N  N1053  1  0.259090  0.053110  0.997890  1.0  -0.4117
  N  N1054  1  0.244050  0.949580  0.999240  1.0  -0.4104
  N  N1055  1  0.250420  0.000780  0.946200  1.0  -0.4089
  N  N1056  1  0.252680  0.001930  0.050950  1.0  -0.4081
  N  N1057  1  0.760940  0.550570  0.497580  1.0  -0.4104
  N  N1058  1  0.749410  0.446460  0.496420  1.0  -0.4106
  N  N1059  1  0.753290  0.499280  0.444600  1.0  -0.4075
  N  N1060  1  0.756960  0.497820  0.549410  1.0  -0.4049
  N  N1061  1  0.745720  0.998160  0.049530  1.0  -0.4057
  N  N1062  1  0.748030  0.998250  0.944690  1.0  -0.407
  N  N1063  1  0.751590  0.050390  0.997220  1.0  -0.4221
  N  N1064  1  0.742170  0.946050  0.996980  1.0  -0.4112
  N  N1065  1  0.245040  0.497350  0.551200  1.0  -0.4048
  N  N1066  1  0.245280  0.500220  0.446430  1.0  -0.4087
  N  N1067  1  0.250350  0.550890  0.500270  1.0  -0.4113
  N  N1068  1  0.240010  0.446730  0.497340  1.0  -0.4177
  N  N1069  1  0.051810  0.251080  0.995510  1.0  -0.4008
  N  N1070  1  0.947390  0.250740  0.996940  1.0  -0.3991
  N  N1071  1  0.998850  0.247680  0.944110  1.0  -0.4086
  N  N1072  1  0.000340  0.250220  0.048500  1.0  -0.4075
  N  N1073  1  0.552540  0.754980  0.500600  1.0  -0.403
  N  N1074  1  0.448210  0.757040  0.503800  1.0  -0.4
  N  N1075  1  0.498850  0.754690  0.449970  1.0  -0.4109
  N  N1076  1  0.501790  0.753420  0.554420  1.0  -0.4098
  N  N1077  1  0.000230  0.742020  0.948430  1.0  -0.3956
  N  N1078  1  0.002790  0.744710  0.052790  1.0  -0.3977
  N  N1079  1  0.949390  0.746940  0.001920  1.0  -0.3932
  N  N1080  1  0.053800  0.743800  0.999130  1.0  -0.4176
  N  N1081  1  0.497220  0.242320  0.443770  1.0  -0.3945
  N  N1082  1  0.502120  0.240280  0.548020  1.0  -0.402
  N  N1083  1  0.447610  0.245270  0.498450  1.0  -0.3992
  N  N1084  1  0.551880  0.241220  0.493400  1.0  -0.3976
  N  N1085  1  0.051040  0.998270  0.247730  1.0  -0.407
  N  N1086  1  0.946590  0.004050  0.245210  1.0  -0.4105
  N  N1087  1  0.995990  0.949250  0.251590  1.0  -0.4095
  N  N1088  1  0.001530  0.053390  0.243430  1.0  -0.4064
  N  N1089  1  0.554630  0.492940  0.749190  1.0  -0.4166
  N  N1090  1  0.450340  0.500020  0.751430  1.0  -0.404
  N  N1091  1  0.498960  0.444330  0.747410  1.0  -0.4076
  N  N1092  1  0.506110  0.548300  0.755440  1.0  -0.4056
  N  N1093  1  0.004710  0.049180  0.748690  1.0  -0.4005
  N  N1094  1  0.000580  0.944710  0.746300  1.0  -0.3954
  N  N1095  1  0.054720  0.994730  0.751570  1.0  -0.4193
  N  N1096  1  0.950340  0.999020  0.745620  1.0  -0.4108
  N  N1097  1  0.499470  0.555180  0.244610  1.0  -0.4009
  N  N1098  1  0.494940  0.450720  0.241280  1.0  -0.3959
  N  N1099  1  0.549340  0.500370  0.245970  1.0  -0.4202
  N  N1100  1  0.444860  0.505320  0.242110  1.0  -0.4108
  O  O1101  1  0.200400  0.253400  0.157350  1.0  -0.6525
  O  O1102  1  0.235260  0.284470  0.145810  1.0  -0.6426
  O  O1103  1  0.253350  0.162490  0.197160  1.0  -0.6498
  O  O1104  1  0.290610  0.157330  0.238170  1.0  -0.7351
  O  O1105  1  0.160340  0.198570  0.246120  1.0  -0.5819
  O  O1106  1  0.154720  0.248450  0.288560  1.0  -0.6949
  O  O1107  1  0.339570  0.257540  0.296300  1.0  -0.6271
  O  O1108  1  0.346890  0.216590  0.258520  1.0  -0.6871
  O  O1109  1  0.294790  0.342170  0.244860  1.0  -0.6677
  O  O1110  1  0.257150  0.357360  0.220240  1.0  -0.6071
  O  O1111  1  0.248590  0.300770  0.336170  1.0  -0.5867
  O  O1112  1  0.206240  0.245280  0.337030  1.0  -0.6701
  O  O1113  1  0.296590  0.253230  0.337360  1.0  -0.659
  O  O1114  1  0.259130  0.225720  0.352530  1.0  -0.6345
  O  O1115  1  0.244410  0.341060  0.292890  1.0  -0.5986
  O  O1116  1  0.205660  0.340460  0.235680  1.0  -0.6449
  O  O1117  1  0.338370  0.302260  0.251730  1.0  -0.5888
  O  O1118  1  0.343650  0.256650  0.207930  1.0  -0.6639
  O  O1119  1  0.157830  0.249730  0.198940  1.0  -0.6713
  O  O1120  1  0.142430  0.276130  0.240440  1.0  -0.6275
  O  O1121  1  0.204050  0.158320  0.242740  1.0  -0.65
  O  O1122  1  0.241670  0.151400  0.280300  1.0  -0.7819
  O  O1123  1  0.250220  0.206360  0.157210  1.0  -0.5903
  O  O1124  1  0.289850  0.254620  0.156030  1.0  -0.6592
  O  O1125  1  0.281840  0.284220  0.212160  1.0  -0.917
  O  O1126  1  0.280170  0.217910  0.278400  1.0  -0.9015
  O  O1127  1  0.213570  0.282490  0.277790  1.0  -0.8566
  O  O1128  1  0.283900  0.221770  0.215060  1.0  -0.8007
  O  O1129  1  0.212850  0.286240  0.215740  1.0  -0.7663
  O  O1130  1  0.218500  0.217870  0.281590  1.0  -0.7671
  O  O1131  1  0.212860  0.214100  0.209450  1.0  -0.8726
  O  O1132  1  0.284240  0.290670  0.284220  1.0  -0.8982
  O  O1133  1  0.702350  0.660290  0.246630  1.0  -0.6794
  O  O1134  1  0.738200  0.648340  0.218430  1.0  -0.6313
  O  O1135  1  0.748800  0.702500  0.339860  1.0  -0.625
  O  O1136  1  0.787440  0.743410  0.345140  1.0  -0.7085
  O  O1137  1  0.658830  0.749880  0.298970  1.0  -0.5831
  O  O1138  1  0.653740  0.789660  0.246450  1.0  -0.6999
  O  O1139  1  0.839200  0.801600  0.245490  1.0  -0.645
  O  O1140  1  0.845930  0.765670  0.287640  1.0  -0.6899
  O  O1141  1  0.799450  0.747310  0.160840  1.0  -0.644
  O  O1142  1  0.762190  0.721430  0.144800  1.0  -0.6272
  O  O1143  1  0.744860  0.838660  0.198540  1.0  -0.5926
  O  O1144  1  0.704230  0.837400  0.257380  1.0  -0.6803
  O  O1145  1  0.795320  0.841930  0.246970  1.0  -0.6835
  O  O1146  1  0.757630  0.858430  0.270490  1.0  -0.6019
  O  O1147  1  0.750110  0.794980  0.158830  1.0  -0.6096
  O  O1148  1  0.710410  0.738270  0.158300  1.0  -0.6856
  O  O1149  1  0.840990  0.755750  0.202540  1.0  -0.5814
  O  O1150  1  0.844380  0.713050  0.250100  1.0  -0.6908
  O  O1151  1  0.659040  0.700990  0.251450  1.0  -0.6592
  O  O1152  1  0.644820  0.740090  0.220120  1.0  -0.6713
  O  O1153  1  0.700880  0.747890  0.340970  1.0  -0.6559
  O  O1154  1  0.738910  0.786420  0.348150  1.0  -0.7066
  O  O1155  1  0.752580  0.662140  0.296400  1.0  -0.6072
  O  O1156  1  0.791920  0.659970  0.248660  1.0  -0.662
  O  O1157  1  0.784450  0.715910  0.218730  1.0  -0.9191
  O  O1158  1  0.778540  0.783330  0.283690  1.0  -0.8871
  O  O1159  1  0.714780  0.780000  0.216360  1.0  -0.853
  O  O1160  1  0.783720  0.720060  0.281250  1.0  -0.8354
  O  O1161  1  0.715500  0.718140  0.213870  1.0  -0.7894
  O  O1162  1  0.716800  0.785240  0.281270  1.0  -0.7733
  O  O1163  1  0.712690  0.713040  0.286080  1.0  -0.8717
  O  O1164  1  0.785520  0.787920  0.211060  1.0  -0.9097
  O  O1165  1  0.698990  0.333030  0.748930  1.0  -0.6727
  O  O1166  1  0.734550  0.347600  0.776280  1.0  -0.5947
  O  O1167  1  0.751180  0.295250  0.655010  1.0  -0.6376
  O  O1168  1  0.791020  0.256150  0.649690  1.0  -0.7243
  O  O1169  1  0.661660  0.243950  0.693890  1.0  -0.5852
  O  O1170  1  0.659450  0.200280  0.742430  1.0  -0.7011
  O  O1171  1  0.844790  0.201360  0.747460  1.0  -0.6408
  O  O1172  1  0.849800  0.238780  0.707830  1.0  -0.7483
  O  O1173  1  0.799570  0.248480  0.834240  1.0  -0.6544
  O  O1174  1  0.762000  0.275150  0.849250  1.0  -0.6035
  O  O1175  1  0.756490  0.157400  0.795030  1.0  -0.5934
  O  O1176  1  0.713820  0.153200  0.740860  1.0  -0.7053
  O  O1177  1  0.803820  0.158000  0.748940  1.0  -0.6856
  O  O1178  1  0.767230  0.142050  0.718210  1.0  -0.605
  O  O1179  1  0.750720  0.200970  0.834750  1.0  -0.5867
  O  O1180  1  0.711060  0.256390  0.835740  1.0  -0.7003
  O  O1181  1  0.842530  0.247390  0.793050  1.0  -0.5787
  O  O1182  1  0.844030  0.290210  0.746140  1.0  -0.6707
  O  O1183  1  0.658360  0.289860  0.742800  1.0  -0.654
  O  O1184  1  0.646490  0.247740  0.772680  1.0  -0.7038
  O  O1185  1  0.704530  0.245480  0.652640  1.0  -0.653
  O  O1186  1  0.744070  0.212020  0.644410  1.0  -0.7612
  O  O1187  1  0.747100  0.335400  0.698640  1.0  -0.601
  O  O1188  1  0.788640  0.338650  0.746270  1.0  -0.6619
  O  O1189  1  0.783730  0.282700  0.776350  1.0  -0.9315
  O  O1190  1  0.783640  0.215810  0.710650  1.0  -0.8881
  O  O1191  1  0.718510  0.214040  0.776610  1.0  -0.8734
  O  O1192  1  0.784420  0.279450  0.713660  1.0  -0.8298
  O  O1193  1  0.715010  0.275900  0.779920  1.0  -0.7955
  O  O1194  1  0.722350  0.209750  0.712140  1.0  -0.7862
  O  O1195  1  0.713260  0.281640  0.707680  1.0  -0.876
  O  O1196  1  0.789840  0.211120  0.783200  1.0  -0.8987
  O  O1197  1  0.249720  0.695710  0.664540  1.0  -0.6492
  O  O1198  1  0.221460  0.730810  0.650970  1.0  -0.6007
  O  O1199  1  0.342260  0.749360  0.704380  1.0  -0.647
  O  O1200  1  0.346690  0.787960  0.743870  1.0  -0.748
  O  O1201  1  0.305860  0.658200  0.755680  1.0  -0.5962
  O  O1202  1  0.253530  0.652330  0.795750  1.0  -0.71
  O  O1203  1  0.244390  0.838250  0.799800  1.0  -0.6472
  O  O1204  1  0.286200  0.845500  0.764160  1.0  -0.6892
  O  O1205  1  0.161790  0.792620  0.750570  1.0  -0.6458
  O  O1206  1  0.147740  0.754440  0.723560  1.0  -0.5906
  O  O1207  1  0.202620  0.743400  0.841440  1.0  -0.5921
  O  O1208  1  0.263520  0.705570  0.841190  1.0  -0.6879
  O  O1209  1  0.248380  0.796330  0.842030  1.0  -0.6762
  O  O1210  1  0.273810  0.760460  0.860030  1.0  -0.6029
  O  O1211  1  0.162490  0.744400  0.797840  1.0  -0.6054
  O  O1212  1  0.162160  0.703920  0.742650  1.0  -0.7235
  O  O1213  1  0.202160  0.836280  0.752430  1.0  -0.5886
  O  O1214  1  0.250730  0.839100  0.710720  1.0  -0.6948
  O  O1215  1  0.257420  0.654110  0.706490  1.0  -0.6682
  O  O1216  1  0.227750  0.640050  0.746950  1.0  -0.6673
  O  O1217  1  0.345940  0.701950  0.751360  1.0  -0.6538
  O  O1218  1  0.351510  0.741140  0.788480  1.0  -0.705
  O  O1219  1  0.298910  0.745130  0.663930  1.0  -0.5963
  O  O1220  1  0.250180  0.785260  0.660960  1.0  -0.6524
  O  O1221  1  0.220100  0.778640  0.716930  1.0  -0.9195
  O  O1222  1  0.285700  0.778490  0.784000  1.0  -0.8805
  O  O1223  1  0.221180  0.711720  0.783930  1.0  -0.8575
  O  O1224  1  0.282670  0.780670  0.720520  1.0  -0.8438
  O  O1225  1  0.218100  0.709680  0.722140  1.0  -0.7909
  O  O1226  1  0.285770  0.716650  0.788510  1.0  -0.7772
  O  O1227  1  0.290400  0.709610  0.716580  1.0  -0.8746
  O  O1228  1  0.212990  0.782580  0.788810  1.0  -0.9106
  O  O1229  1  0.301450  0.243190  0.658970  1.0  -0.6551
  O  O1230  1  0.266100  0.214580  0.645940  1.0  -0.6087
  O  O1231  1  0.246690  0.336520  0.695840  1.0  -0.649
  O  O1232  1  0.208580  0.342010  0.736080  1.0  -0.7407
  O  O1233  1  0.338930  0.301640  0.747810  1.0  -0.5975
  O  O1234  1  0.343910  0.252500  0.790510  1.0  -0.6864
  O  O1235  1  0.159070  0.245160  0.794480  1.0  -0.618
  O  O1236  1  0.153220  0.284320  0.754480  1.0  -0.7293
  O  O1237  1  0.204910  0.157640  0.746660  1.0  -0.6783
  O  O1238  1  0.242510  0.142540  0.721210  1.0  -0.6093
  O  O1239  1  0.250010  0.200300  0.836950  1.0  -0.5956
  O  O1240  1  0.290800  0.255620  0.839010  1.0  -0.7112
  O  O1241  1  0.201160  0.244740  0.836730  1.0  -0.6502
  O  O1242  1  0.237170  0.277040  0.850820  1.0  -0.6136
  O  O1243  1  0.255140  0.159570  0.794190  1.0  -0.6036
  O  O1244  1  0.293650  0.158570  0.737610  1.0  -0.6678
  O  O1245  1  0.161260  0.197680  0.752500  1.0  -0.5838
  O  O1246  1  0.155930  0.240430  0.706910  1.0  -0.666
  O  O1247  1  0.342830  0.251710  0.701010  1.0  -0.6632
  O  O1248  1  0.356920  0.223700  0.742730  1.0  -0.6597
  O  O1249  1  0.295230  0.341650  0.742420  1.0  -0.6467
  O  O1250  1  0.257000  0.349360  0.778510  1.0  -0.7725
  O  O1251  1  0.251480  0.292210  0.656540  1.0  -0.5966
  O  O1252  1  0.211410  0.243450  0.655620  1.0  -0.6618
  O  O1253  1  0.218510  0.215080  0.712070  1.0  -0.9258
  O  O1254  1  0.218720  0.282290  0.777450  1.0  -0.8685
  O  O1255  1  0.285490  0.218020  0.778950  1.0  -0.8601
  O  O1256  1  0.216300  0.277460  0.713810  1.0  -0.8147
  O  O1257  1  0.287510  0.213330  0.717160  1.0  -0.7946
  O  O1258  1  0.280120  0.282610  0.781820  1.0  -0.7915
  O  O1259  1  0.287270  0.285380  0.709620  1.0  -0.8726
  O  O1260  1  0.214660  0.209760  0.784090  1.0  -0.9044
  O  O1261  1  0.704450  0.748430  0.659420  1.0  -0.6556
  O  O1262  1  0.739900  0.778700  0.647430  1.0  -0.6449
  O  O1263  1  0.756420  0.656960  0.699540  1.0  -0.6498
  O  O1264  1  0.794370  0.652050  0.740270  1.0  -0.7376
  O  O1265  1  0.664040  0.694120  0.746410  1.0  -0.5859
  O  O1266  1  0.658960  0.742500  0.790580  1.0  -0.7023
  O  O1267  1  0.843850  0.752300  0.798200  1.0  -0.6184
  O  O1268  1  0.850760  0.710860  0.760650  1.0  -0.6821
  O  O1269  1  0.799660  0.836800  0.746420  1.0  -0.6702
  O  O1270  1  0.762170  0.852030  0.721490  1.0  -0.6015
  O  O1271  1  0.752870  0.796390  0.837870  1.0  -0.5892
  O  O1272  1  0.710360  0.740810  0.838850  1.0  -0.6669
  O  O1273  1  0.800860  0.748650  0.839320  1.0  -0.6599
  O  O1274  1  0.763280  0.721540  0.854830  1.0  -0.6276
  O  O1275  1  0.748950  0.836340  0.794280  1.0  -0.5989
  O  O1276  1  0.710540  0.835690  0.736950  1.0  -0.6434
  O  O1277  1  0.842940  0.796600  0.753530  1.0  -0.587
  O  O1278  1  0.847990  0.751030  0.709950  1.0  -0.6666
  O  O1279  1  0.662060  0.745750  0.701210  1.0  -0.6651
  O  O1280  1  0.647090  0.772080  0.743370  1.0  -0.6679
  O  O1281  1  0.707660  0.653650  0.747320  1.0  -0.6498
  O  O1282  1  0.746310  0.646150  0.782630  1.0  -0.7194
  O  O1283  1  0.753850  0.700680  0.659370  1.0  -0.5945
  O  O1284  1  0.794170  0.748550  0.658090  1.0  -0.6585
  O  O1285  1  0.786240  0.778700  0.713920  1.0  -0.9202
  O  O1286  1  0.784210  0.712870  0.780640  1.0  -0.9066
  O  O1287  1  0.717980  0.777800  0.779560  1.0  -0.8606
  O  O1288  1  0.787960  0.716280  0.717220  1.0  -0.8284
  O  O1289  1  0.717290  0.781160  0.717500  1.0  -0.7532
  O  O1290  1  0.722620  0.713230  0.783800  1.0  -0.7775
  O  O1291  1  0.716890  0.708930  0.711650  1.0  -0.8761
  O  O1292  1  0.788700  0.785660  0.785940  1.0  -0.8992
  O  O1293  1  0.250310  0.664180  0.301130  1.0  -0.6648
  O  O1294  1  0.221080  0.651330  0.265300  1.0  -0.6458
  O  O1295  1  0.341020  0.708690  0.252690  1.0  -0.6657
  O  O1296  1  0.352540  0.748090  0.223200  1.0  -0.6415
  O  O1297  1  0.297000  0.753960  0.344530  1.0  -0.5942
  O  O1298  1  0.246610  0.795890  0.345860  1.0  -0.69
  O  O1299  1  0.247630  0.801480  0.160150  1.0  -0.6482
  O  O1300  1  0.287640  0.765830  0.153880  1.0  -0.7582
  O  O1301  1  0.161490  0.749540  0.201580  1.0  -0.6675
  O  O1302  1  0.146600  0.721510  0.238300  1.0  -0.598
  O  O1303  1  0.197470  0.841320  0.251780  1.0  -0.6694
  O  O1304  1  0.234150  0.857400  0.279900  1.0  -0.6221
  O  O1305  1  0.243920  0.843010  0.202720  1.0  -0.593
  O  O1306  1  0.287280  0.845920  0.257720  1.0  -0.6878
  O  O1307  1  0.158840  0.796300  0.250310  1.0  -0.5944
  O  O1308  1  0.157900  0.740150  0.289700  1.0  -0.7153
  O  O1309  1  0.203590  0.753820  0.159760  1.0  -0.5842
  O  O1310  1  0.252870  0.712150  0.159020  1.0  -0.6813
  O  O1311  1  0.249160  0.705680  0.343900  1.0  -0.6621
  O  O1312  1  0.217940  0.746190  0.356460  1.0  -0.7093
  O  O1313  1  0.339340  0.756250  0.302850  1.0  -0.5893
  O  O1314  1  0.342580  0.797400  0.254850  1.0  -0.6469
  O  O1315  1  0.299020  0.666667  0.252950  1.0  -0.5983
  O  O1316  1  0.252550  0.662260  0.211950  1.0  -0.6653
  O  O1317  1  0.220260  0.717190  0.217670  1.0  -0.9192
  O  O1318  1  0.283260  0.786120  0.221430  1.0  -0.8911
  O  O1319  1  0.216200  0.782970  0.285700  1.0  -0.8479
  O  O1320  1  0.282970  0.723470  0.219010  1.0  -0.7891
  O  O1321  1  0.214440  0.720950  0.286400  1.0  -0.7746
  O  O1322  1  0.279140  0.789820  0.285170  1.0  -0.8104
  O  O1323  1  0.286960  0.718330  0.290440  1.0  -0.8718
  O  O1324  1  0.211310  0.788900  0.213890  1.0  -0.9036
  O  O1325  1  0.698100  0.245150  0.333290  1.0  -0.6807
  O  O1326  1  0.734850  0.219320  0.346690  1.0  -0.6151
  O  O1327  1  0.742010  0.340930  0.293210  1.0  -0.615
  O  O1328  1  0.782510  0.347530  0.253910  1.0  -0.706
  O  O1329  1  0.655200  0.297550  0.245020  1.0  -0.5919
  O  O1330  1  0.653550  0.247660  0.202210  1.0  -0.6796
  O  O1331  1  0.838990  0.252180  0.196550  1.0  -0.6361
  O  O1332  1  0.842800  0.292930  0.234170  1.0  -0.7296
  O  O1333  1  0.800130  0.163780  0.248190  1.0  -0.6796
  O  O1334  1  0.762940  0.146810  0.273970  1.0  -0.628
  O  O1335  1  0.747490  0.200230  0.156160  1.0  -0.5811
  O  O1336  1  0.705860  0.256810  0.154790  1.0  -0.6858
  O  O1337  1  0.796750  0.247150  0.154740  1.0  -0.6637
  O  O1338  1  0.759490  0.274430  0.138330  1.0  -0.5979
  O  O1339  1  0.752460  0.160550  0.199880  1.0  -0.6013
  O  O1340  1  0.711280  0.158310  0.255290  1.0  -0.7027
  O  O1341  1  0.840650  0.206660  0.240520  1.0  -0.5839
  O  O1342  1  0.842220  0.252350  0.284630  1.0  -0.6772
  O  O1343  1  0.655890  0.248570  0.291330  1.0  -0.6568
  O  O1344  1  0.644070  0.217790  0.250280  1.0  -0.6833
  O  O1345  1  0.696190  0.340620  0.244010  1.0  -0.6551
  O  O1346  1  0.736130  0.350180  0.209560  1.0  -0.7194
  O  O1347  1  0.746090  0.297370  0.333450  1.0  -0.5946
  O  O1348  1  0.787780  0.251180  0.335960  1.0  -0.6719
  O  O1349  1  0.782540  0.221050  0.280220  1.0  -0.9232
  O  O1350  1  0.776720  0.286120  0.212900  1.0  -0.8755
  O  O1351  1  0.714940  0.216970  0.213970  1.0  -0.8539
  O  O1352  1  0.780000  0.283590  0.276420  1.0  -0.8233
  O  O1353  1  0.713850  0.214130  0.275810  1.0  -0.7906
  O  O1354  1  0.715320  0.281760  0.209080  1.0  -0.7547
  O  O1355  1  0.708670  0.286190  0.281210  1.0  -0.8709
  O  O1356  1  0.786140  0.213870  0.208340  1.0  -0.8897
