# generated using pymatgen
data_Zn4H30C54O13F12
_symmetry_space_group_name_H-M   'P 1'
_cell_length_a   37.12950000
_cell_length_b   37.12950000
_cell_length_c   30.05200000
_cell_angle_alpha   90.00000000
_cell_angle_beta   90.00000000
_cell_angle_gamma   120.00000000
_symmetry_Int_Tables_number   1
_chemical_formula_structural   Zn4H30C54O13F12
_chemical_formula_sum   'Zn32 H240 C432 O104 F96'
_cell_volume   35879.15560662
_cell_formula_units_Z   8
loop_
 _symmetry_equiv_pos_site_id
 _symmetry_equiv_pos_as_xyz
  1  'x, y, z'
loop_
 _atom_site_type_symbol
 _atom_site_label
 _atom_site_symmetry_multiplicity
 _atom_site_fract_x
 _atom_site_fract_y
 _atom_site_fract_z
 _atom_site_occupancy
 _atom_site_charge
  Zn  Zn1  1  0.714830  0.337610  0.226230  1.0  1.1354
  Zn  Zn2  1  0.666750  0.332610  0.309880  1.0  1.1469
  Zn  Zn3  1  0.661510  0.376130  0.226620  1.0  1.1274
  Zn  Zn4  1  0.622920  0.283970  0.227280  1.0  1.1233
  Zn  Zn5  1  0.376420  0.662060  0.727590  1.0  1.0857
  Zn  Zn6  1  0.284450  0.623100  0.726640  1.0  1.1374
  Zn  Zn7  1  0.332240  0.666430  0.810340  1.0  1.1464
  Zn  Zn8  1  0.337290  0.715140  0.727070  1.0  1.1237
  Zn  Zn9  1  0.164620  0.367780  0.293070  1.0  1.0998
  Zn  Zn10  1  0.186300  0.301710  0.273100  1.0  1.14
  Zn  Zn11  1  0.113900  0.302530  0.226260  1.0  1.1258
  Zn  Zn12  1  0.202500  0.368340  0.207650  1.0  1.0815
  Zn  Zn13  1  0.299540  0.159570  0.703530  1.0  1.1056
  Zn  Zn14  1  0.365200  0.143320  0.740220  1.0  1.1712
  Zn  Zn15  1  0.364380  0.221270  0.765420  1.0  1.1216
  Zn  Zn16  1  0.298000  0.138630  0.799760  1.0  1.1399
  Zn  Zn17  1  0.139140  0.841660  0.203070  1.0  1.099
  Zn  Zn18  1  0.142130  0.779410  0.263970  1.0  1.1515
  Zn  Zn19  1  0.220970  0.857490  0.239640  1.0  1.133
  Zn  Zn20  1  0.158760  0.861940  0.299430  1.0  1.1034
  Zn  Zn21  1  0.630260  0.833310  0.210570  1.0  1.0794
  Zn  Zn22  1  0.696290  0.810980  0.228560  1.0  1.1409
  Zn  Zn23  1  0.697030  0.884090  0.275650  1.0  1.1261
  Zn  Zn24  1  0.631160  0.796030  0.295690  1.0  1.0936
  Zn  Zn25  1  0.797130  0.167710  0.708520  1.0  1.1266
  Zn  Zn26  1  0.812280  0.116260  0.774190  1.0  1.1297
  Zn  Zn27  1  0.885230  0.189960  0.728160  1.0  1.1388
  Zn  Zn28  1  0.833880  0.203830  0.795350  1.0  1.1155
  Zn  Zn29  1  0.858760  0.700710  0.702890  1.0  1.083
  Zn  Zn30  1  0.776480  0.634690  0.738120  1.0  1.1087
  Zn  Zn31  1  0.854800  0.634510  0.763210  1.0  1.1084
  Zn  Zn32  1  0.838640  0.700550  0.799120  1.0  1.1035
  H  H33  1  0.959890  0.923840  0.247280  1.0  0.1096
  H  H34  1  0.959000  0.038520  0.248880  1.0  0.1023
  H  H35  1  0.075670  0.039470  0.250040  1.0  0.1126
  H  H36  1  0.037820  0.078650  0.747970  1.0  0.1049
  H  H37  1  0.921970  0.962980  0.750850  1.0  0.1079
  H  H38  1  0.036630  0.961650  0.750550  1.0  0.1057
  H  H39  1  0.369660  0.629340  0.253820  1.0  0.1155
  H  H40  1  0.369580  0.744950  0.257620  1.0  0.1143
  H  H41  1  0.253850  0.628990  0.249650  1.0  0.1113
  H  H42  1  0.626460  0.257570  0.756050  1.0  0.1163
  H  H43  1  0.741770  0.373210  0.751030  1.0  0.1051
  H  H44  1  0.625840  0.373120  0.753060  1.0  0.111
  H  H45  1  0.324390  0.272540  0.049550  1.0  0.1004
  H  H46  1  0.411060  0.314410  0.157990  1.0  0.1139
  H  H47  1  0.441860  0.275690  0.036180  1.0  0.1021
  H  H48  1  0.331390  0.052770  0.458450  1.0  0.1093
  H  H49  1  0.414630  0.091580  0.347780  1.0  0.0916
  H  H50  1  0.447500  0.166880  0.467430  1.0  0.1113
  H  H51  1  0.725570  0.050730  0.050670  1.0  0.1123
  H  H52  1  0.681520  0.093440  0.159020  1.0  0.1059
  H  H53  1  0.724770  0.165330  0.037800  1.0  0.1067
  H  H54  1  0.281020  0.445140  0.534330  1.0  0.1134
  H  H55  1  0.323130  0.415140  0.654700  1.0  0.1141
  H  H56  1  0.280370  0.329360  0.544690  1.0  0.1105
  H  H57  1  0.165010  0.722280  0.534660  1.0  0.0986
  H  H58  1  0.092660  0.679990  0.656010  1.0  0.1047
  H  H59  1  0.050630  0.723280  0.546360  1.0  0.1119
  H  H60  1  0.051610  0.329940  0.953430  1.0  0.1049
  H  H61  1  0.092010  0.414560  0.844590  1.0  0.1059
  H  H62  1  0.166520  0.446870  0.963550  1.0  0.0941
  H  H63  1  0.832980  0.278240  0.463630  1.0  0.1037
  H  H64  1  0.906790  0.319840  0.343350  1.0  0.108
  H  H65  1  0.947090  0.275970  0.453250  1.0  0.1155
  H  H66  1  0.723220  0.554840  0.464990  1.0  0.1095
  H  H67  1  0.682880  0.585860  0.343520  1.0  0.1092
  H  H68  1  0.723620  0.670590  0.453830  1.0  0.1142
  H  H69  1  0.834450  0.555010  0.033470  1.0  0.0997
  H  H70  1  0.904830  0.586500  0.154720  1.0  0.1153
  H  H71  1  0.948570  0.672580  0.045660  1.0  0.1091
  H  H72  1  0.556530  0.835150  0.538760  1.0  0.108
  H  H73  1  0.586940  0.906740  0.658560  1.0  0.11
  H  H74  1  0.673550  0.950430  0.549970  1.0  0.1038
  H  H75  1  0.279590  0.832720  0.967110  1.0  0.1067
  H  H76  1  0.323260  0.908510  0.847900  1.0  0.1083
  H  H77  1  0.278590  0.947350  0.958370  1.0  0.1136
  H  H78  1  0.548730  0.714750  0.966630  1.0  0.1011
  H  H79  1  0.582320  0.674000  0.848230  1.0  0.1046
  H  H80  1  0.665530  0.715730  0.959340  1.0  0.0959
  H  H81  1  0.051040  0.335180  0.026180  1.0  0.1071
  H  H82  1  0.183970  0.411920  0.006870  1.0  0.1108
  H  H83  1  0.122110  0.437880  0.091130  1.0  -0.0171
  H  H84  1  0.023180  0.250470  0.184820  1.0  0.0147
  H  H85  1  0.294720  0.345040  0.466680  1.0  0.1082
  H  H86  1  0.217150  0.397180  0.499200  1.0  0.11
  H  H87  1  0.265010  0.476630  0.457050  1.0  0.036
  H  H88  1  0.305900  0.442470  0.409970  1.0  -0.0166
  H  H89  1  0.303710  0.219870  0.002050  1.0  0.1096
  H  H90  1  0.434000  0.288460  0.965840  1.0  0.1119
  H  H91  1  0.368300  0.168540  0.970120  1.0  -0.0399
  H  H92  1  0.236650  0.095110  0.883140  1.0  0.0354
  H  H93  1  0.314450  0.100860  0.497440  1.0  0.1096
  H  H94  1  0.436730  0.132940  0.543530  1.0  0.107
  H  H95  1  0.409240  0.210220  0.507800  1.0  0.0119
  H  H96  1  0.333780  0.211610  0.593650  1.0  -0.0507
  H  H97  1  0.789170  0.181080  0.003320  1.0  0.1084
  H  H98  1  0.709430  0.051470  0.971940  1.0  0.1075
  H  H99  1  0.730070  0.126880  0.787150  1.0  -0.0384
  H  H100  1  0.696480  0.141680  0.928810  1.0  0.0081
  H  H101  1  0.302680  0.866670  0.043490  1.0  0.108
  H  H102  1  0.213020  0.899220  0.996690  1.0  0.1113
  H  H103  1  0.117520  0.790390  0.092720  1.0  -0.0313
  H  H104  1  0.162920  0.772990  0.160490  1.0  -0.0652
  H  H105  1  0.130800  0.699140  0.460740  1.0  0.1077
  H  H106  1  0.097930  0.789020  0.505920  1.0  0.1116
  H  H107  1  0.208200  0.818340  0.456950  1.0  -0.0226
  H  H108  1  0.225840  0.832790  0.344550  1.0  -0.0317
  H  H109  1  0.947710  0.293650  0.530710  1.0  0.1081
  H  H110  1  0.817210  0.216520  0.501600  1.0  0.1084
  H  H111  1  0.852540  0.315300  0.549350  1.0  -0.0353
  H  H112  1  0.835530  0.110990  0.664040  1.0  -0.0305
  H  H113  1  0.698440  0.565120  0.539780  1.0  0.1089
  H  H114  1  0.787540  0.688700  0.496050  1.0  0.1091
  H  H115  1  0.818100  0.608900  0.546730  1.0  -0.0254
  H  H116  1  0.789740  0.723470  0.713640  1.0  -0.0401
  H  H117  1  0.915770  0.693380  0.999660  1.0  0.1094
  H  H118  1  0.853930  0.563260  0.962650  1.0  0.1109
  H  H119  1  0.798680  0.628490  0.966070  1.0  -0.0336
  H  H120  1  0.933610  0.728050  0.785540  1.0  -0.0759
  H  H121  1  0.583160  0.766630  0.011040  1.0  0.1043
  H  H122  1  0.660690  0.711440  0.031430  1.0  0.1051
  H  H123  1  0.700550  0.827290  0.013220  1.0  -0.0419
  H  H124  1  0.723850  0.888540  0.159340  1.0  -0.0502
  H  H125  1  0.669690  0.949760  0.476600  1.0  0.1043
  H  H126  1  0.592650  0.817110  0.497430  1.0  0.1048
  H  H127  1  0.692480  0.811700  0.421250  1.0  0.0196
  H  H128  1  0.546810  0.805820  0.354610  1.0  -0.0235
  H  H129  1  0.327340  0.572290  0.204430  1.0  0.1046
  H  H130  1  0.238700  0.570290  0.298350  1.0  0.1057
  H  H131  1  0.246730  0.454770  0.360280  1.0  -0.0139
  H  H132  1  0.190760  0.453160  0.152130  1.0  -0.0127
  H  H133  1  0.233180  0.667760  0.292070  1.0  0.1091
  H  H134  1  0.331160  0.765170  0.214240  1.0  0.107
  H  H135  1  0.308100  0.778850  0.124560  1.0  0.0137
  H  H136  1  0.229430  0.766880  0.143510  1.0  -0.0065
  H  H137  1  0.428090  0.760570  0.209420  1.0  0.1046
  H  H138  1  0.427050  0.671670  0.302320  1.0  0.1078
  H  H139  1  0.426960  0.657730  0.182460  1.0  -0.0215
  H  H140  1  0.569140  0.847790  0.138090  1.0  -0.0372
  H  H141  1  0.568010  0.238480  0.712100  1.0  0.1105
  H  H142  1  0.566700  0.332560  0.795300  1.0  0.1097
  H  H143  1  0.574760  0.345370  0.677060  1.0  -0.02
  H  H144  1  0.396200  0.227530  0.661640  1.0  -0.1005
  H  H145  1  0.669470  0.243070  0.706200  1.0  0.1052
  H  H146  1  0.756660  0.330250  0.800810  1.0  0.1053
  H  H147  1  0.771430  0.344710  0.680540  1.0  -0.0118
  H  H148  1  0.739400  0.189730  0.853380  1.0  -0.0125
  H  H149  1  0.666120  0.431910  0.710360  1.0  0.1084
  H  H150  1  0.760620  0.432080  0.794130  1.0  0.1088
  H  H151  1  0.765180  0.425060  0.675180  1.0  -0.0218
  H  H152  1  0.830000  0.604360  0.659180  1.0  -0.0386
  H  H153  1  0.467940  0.248110  0.093530  1.0  0.1078
  H  H154  1  0.486330  0.362990  0.149270  1.0  0.1062
  H  H155  1  0.509490  0.273230  0.251330  1.0  -0.0461
  H  H156  1  0.580230  0.336830  0.289270  1.0  -0.0468
  H  H157  1  0.451590  0.149270  0.314690  1.0  0.1092
  H  H158  1  0.511230  0.193880  0.442650  1.0  0.1071
  H  H159  1  0.443870  0.227220  0.410990  1.0  -0.0258
  H  H160  1  0.663150  0.241700  0.288960  1.0  -0.042
  H  H161  1  0.742900  0.217840  0.084080  1.0  0.1094
  H  H162  1  0.642200  0.122520  0.162040  1.0  0.1086
  H  H163  1  0.627820  0.180850  0.065620  1.0  -0.0406
  H  H164  1  0.724850  0.232310  0.250910  1.0  -0.0605
  H  H165  1  0.252450  0.468740  0.592970  1.0  0.1065
  H  H166  1  0.369390  0.491440  0.647180  1.0  0.107
  H  H167  1  0.357590  0.557740  0.555450  1.0  -0.0299
  H  H168  1  0.391280  0.637410  0.605310  1.0  -0.0199
  H  H169  1  0.848230  0.298090  0.310980  1.0  0.1088
  H  H170  1  0.806580  0.315510  0.439690  1.0  0.1074
  H  H171  1  0.771530  0.213800  0.411190  1.0  -0.023
  H  H172  1  0.757610  0.421140  0.286910  1.0  -0.0506
  H  H173  1  0.717140  0.553410  0.315070  1.0  0.1118
  H  H174  1  0.673030  0.487050  0.439030  1.0  0.1079
  H  H175  1  0.610450  0.503900  0.337610  1.0  -0.0307
  H  H176  1  0.596880  0.429970  0.281990  1.0  -0.0142
  H  H177  1  0.877230  0.510310  0.146370  1.0  0.106
  H  H178  1  0.781590  0.530520  0.091560  1.0  0.1069
  H  H179  1  0.785650  0.499100  0.246240  1.0  0.0123
  H  H180  1  0.773090  0.373460  0.106250  1.0  -0.0208
  H  H181  1  0.217220  0.740830  0.581500  1.0  0.1097
  H  H182  1  0.122110  0.640760  0.660240  1.0  0.1095
  H  H183  1  0.182060  0.625750  0.565610  1.0  -0.0326
  H  H184  1  0.333440  0.667090  0.636260  1.0  -0.0683
  H  H185  1  0.150930  0.450390  0.811890  1.0  0.111
  H  H186  1  0.191970  0.510330  0.940290  1.0  0.1046
  H  H187  1  0.257730  0.483440  0.860010  1.0  -0.0454
  H  H188  1  0.334670  0.577720  0.787870  1.0  -0.0623
  H  H189  1  0.511270  0.877980  0.649550  1.0  0.1079
  H  H190  1  0.532650  0.782310  0.597010  1.0  0.1081
  H  H191  1  0.470610  0.816480  0.538800  1.0  -0.0354
  H  H192  1  0.451950  0.650860  0.690860  1.0  -0.0378
  H  H193  1  0.301620  0.850600  0.814630  1.0  0.1069
  H  H194  1  0.316690  0.805900  0.942510  1.0  0.1097
  H  H195  1  0.405400  0.865130  0.859180  1.0  -0.029
  H  H196  1  0.242210  0.664850  0.787290  1.0  -0.043
  H  H197  1  0.482130  0.665330  0.940850  1.0  0.1095
  H  H198  1  0.551030  0.709220  0.818310  1.0  0.1115
  H  H199  1  0.421020  0.756410  0.788280  1.0  -0.0353
  H  H200  1  0.428760  0.596370  0.775320  1.0  -0.0407
  H  H201  1  0.094860  0.001160  0.290770  1.0  0.1126
  H  H202  1  0.999570  0.904880  0.208610  1.0  0.1134
  H  H203  1  0.109690  0.982600  0.169410  1.0  -0.0568
  H  H204  1  0.207420  0.935740  0.216410  1.0  -0.0543
  H  H205  1  0.995450  0.098700  0.217190  1.0  0.1037
  H  H206  1  0.098780  0.098510  0.283860  1.0  0.1093
  H  H207  1  0.092520  0.086090  0.168750  1.0  -0.0231
  H  H208  1  0.188950  0.221510  0.197900  1.0  -0.0393
  H  H209  1  0.901040  0.907230  0.201360  1.0  0.1072
  H  H210  1  0.901090  0.995920  0.293820  1.0  0.106
  H  H211  1  0.896040  0.011490  0.179600  1.0  -0.03
  H  H212  1  0.812230  0.943250  0.155780  1.0  -0.0351
  H  H213  1  0.096630  0.098020  0.709510  1.0  0.1117
  H  H214  1  0.095130  0.000050  0.789080  1.0  0.1093
  H  H215  1  0.083030  0.987490  0.671010  1.0  -0.0231
  H  H216  1  0.241650  0.145630  0.618430  1.0  -0.0308
  H  H217  1  0.906130  0.006000  0.794980  1.0  0.1111
  H  H218  1  0.995460  0.095460  0.703560  1.0  0.1078
  H  H219  1  0.985340  0.119920  0.824400  1.0  -0.0578
  H  H220  1  0.808200  0.031040  0.703520  1.0  -0.0028
  H  H221  1  0.913140  0.904800  0.806180  1.0  0.1134
  H  H222  1  0.987540  0.904700  0.696360  1.0  0.1156
  H  H223  1  0.871840  0.874270  0.690850  1.0  -0.0474
  H  H224  1  0.958020  0.808270  0.828170  1.0  -0.0068
  H  H225  1  0.323390  0.333760  0.078810  1.0  0.1084
  H  H226  1  0.340380  0.275000  0.194130  1.0  0.107
  H  H227  1  0.405740  0.386670  0.169210  1.0  -0.0419
  H  H228  1  0.163370  0.274660  0.158430  1.0  -0.0375
  H  H229  1  0.934300  0.278430  0.307570  1.0  0.1088
  H  H230  1  0.011050  0.334890  0.422900  1.0  0.1075
  H  H231  1  0.108850  0.273720  0.341940  1.0  -0.045
  H  H232  1  0.029690  0.222570  0.300710  1.0  -0.0219
  H  H233  1  0.285430  0.036460  0.396220  1.0  0.1091
  H  H234  1  0.382530  0.017360  0.343550  1.0  0.1076
  H  H235  1  0.299220  0.945350  0.429380  1.0  -0.0484
  H  H236  1  0.141780  0.906970  0.381980  1.0  -0.0125
  H  H237  1  0.720300  0.063570  0.195440  1.0  0.1082
  H  H238  1  0.664650  0.987110  0.079740  1.0  0.1083
  H  H239  1  0.767140  0.004330  0.130680  1.0  -0.0304
  H  H240  1  0.780370  0.976830  0.214900  1.0  -0.0184
  H  H241  1  0.367350  0.382880  0.659510  1.0  0.1079
  H  H242  1  0.251100  0.285230  0.607550  1.0  0.1075
  H  H243  1  0.355130  0.297470  0.574580  1.0  -0.0152
  H  H244  1  0.352850  0.316370  0.929660  1.0  -0.0373
  H  H245  1  0.249430  0.963960  0.895950  1.0  0.1101
  H  H246  1  0.365800  0.982810  0.844100  1.0  0.106
  H  H247  1  0.266550  0.912690  0.790870  1.0  -0.0229
  H  H248  1  0.272990  0.065400  0.717030  1.0  -0.0517
  H  H249  1  0.963310  0.717250  0.108270  1.0  0.1086
  H  H250  1  0.980800  0.618790  0.159850  1.0  0.1094
  H  H251  1  0.053730  0.703380  0.074170  1.0  -0.021
  H  H252  1  0.095330  0.856720  0.118720  1.0  -0.032
  H  H253  1  0.035080  0.752030  0.609640  1.0  0.1098
  H  H254  1  0.016420  0.635160  0.659620  1.0  0.1081
  H  H255  1  0.050030  0.731620  0.730770  1.0  -0.0643
  H  H256  1  0.903040  0.759800  0.618310  1.0  -0.0221
  H  H257  1  0.987570  0.326360  0.924060  1.0  0.1095
  H  H258  1  0.064330  0.345440  0.809050  1.0  0.1114
  H  H259  1  0.006390  0.241950  0.875660  1.0  -0.0339
  H  H260  1  0.891810  0.166260  0.841280  1.0  -0.0151
  H  H261  1  0.722310  0.656130  0.308000  1.0  0.1068
  H  H262  1  0.663840  0.673480  0.423360  1.0  0.1067
  H  H263  1  0.611180  0.591630  0.330690  1.0  -0.0557
  H  H264  1  0.727350  0.835210  0.339870  1.0  -0.0061
  H  H265  1  0.675090  0.014000  0.579240  1.0  0.1133
  H  H266  1  0.656800  0.937150  0.693950  1.0  0.1048
  H  H267  1  0.759490  0.996020  0.624530  1.0  -0.012
  H  H268  1  0.812550  0.112350  0.580630  1.0  0.0301
  H  H269  1  0.614430  0.631010  0.842810  1.0  0.108
  H  H270  1  0.711340  0.745390  0.899120  1.0  0.1085
  H  H271  1  0.788950  0.776430  0.770640  1.0  -0.0076
  H  H272  1  0.772140  0.603670  0.842400  1.0  -0.0606
  C  C273  1  0.021030  0.978860  0.249280  1.0  0.0671
  C  C274  1  0.977070  0.957480  0.246670  1.0  -0.1262
  C  C275  1  0.954490  0.978750  0.247010  1.0  -0.0052
  C  C276  1  0.976710  0.022660  0.248240  1.0  -0.1378
  C  C277  1  0.020820  0.045800  0.250200  1.0  0.0412
  C  C278  1  0.042130  0.022920  0.251430  1.0  -0.0983
  C  C279  1  0.043870  0.023480  0.749090  1.0  0.0586
  C  C280  1  0.021270  0.045020  0.747530  1.0  -0.0977
  C  C281  1  0.977300  0.023800  0.749060  1.0  -0.0076
  C  C282  1  0.955650  0.979920  0.750990  1.0  -0.1287
  C  C283  1  0.976940  0.957420  0.751330  1.0  -0.0025
  C  C284  1  0.020770  0.979420  0.750890  1.0  -0.1585
  C  C285  1  0.309050  0.623840  0.252490  1.0  0.05
  C  C286  1  0.352790  0.646140  0.253810  1.0  -0.1117
  C  C287  1  0.374980  0.689890  0.255040  1.0  0.0704
  C  C288  1  0.352640  0.711360  0.255170  1.0  -0.103
  C  C289  1  0.308780  0.689900  0.253570  1.0  0.04
  C  C290  1  0.287420  0.646030  0.252190  1.0  -0.1004
  C  C291  1  0.620450  0.312490  0.753700  1.0  0.0631
  C  C292  1  0.642970  0.291190  0.754140  1.0  -0.1046
  C  C293  1  0.686720  0.312810  0.753570  1.0  0.071
  C  C294  1  0.708150  0.356560  0.752840  1.0  -0.0988
  C  C295  1  0.686640  0.378880  0.752870  1.0  0.0755
  C  C296  1  0.642740  0.356390  0.753210  1.0  -0.1036
  C  C297  1  0.381430  0.271740  0.036150  1.0  0.0401
  C  C298  1  0.353820  0.278240  0.062970  1.0  -0.1364
  C  C299  1  0.364390  0.294110  0.106620  1.0  0.017
  C  C300  1  0.402940  0.302600  0.124340  1.0  -0.1141
  C  C301  1  0.431150  0.296160  0.099000  1.0  0.0061
  C  C302  1  0.420230  0.281150  0.055040  1.0  -0.1386
  C  C303  1  0.388670  0.110340  0.468100  1.0  0.0118
  C  C304  1  0.360430  0.075490  0.443250  1.0  -0.1205
  C  C305  1  0.369530  0.068850  0.399660  1.0  0.0134
  C  C306  1  0.407920  0.098090  0.380790  1.0  -0.139
  C  C307  1  0.437250  0.134520  0.404030  1.0  -0.0117
  C  C308  1  0.427050  0.139390  0.448480  1.0  -0.1088
  C  C309  1  0.727600  0.109030  0.039240  1.0  0.0339
  C  C310  1  0.718430  0.073450  0.064300  1.0  -0.1156
  C  C311  1  0.701820  0.067740  0.107570  1.0  0.0073
  C  C312  1  0.693550  0.097970  0.125460  1.0  -0.1424
  C  C313  1  0.702140  0.134220  0.101300  1.0  0.0299
  C  C314  1  0.719440  0.139080  0.058140  1.0  -0.1057
  C  C315  1  0.278500  0.385750  0.534070  1.0  0.0269
  C  C316  1  0.286900  0.423850  0.553360  1.0  -0.0898
  C  C317  1  0.303370  0.435110  0.596710  1.0  0.0238
  C  C318  1  0.311760  0.407500  0.620870  1.0  -0.0879
  C  C319  1  0.303210  0.369000  0.602610  1.0  -0.0134
  C  C320  1  0.287110  0.358850  0.558990  1.0  -0.1145
  C  C321  1  0.108820  0.725200  0.535820  1.0  0.0054
  C  C322  1  0.138490  0.716570  0.554730  1.0  -0.1487
  C  C323  1  0.133440  0.699590  0.598180  1.0  0.0275
  C  C324  1  0.097010  0.691180  0.622110  1.0  -0.1141
  C  C325  1  0.067450  0.700500  0.604220  1.0  -0.009
  C  C326  1  0.073750  0.717240  0.561010  1.0  -0.1598
  C  C327  1  0.109810  0.387190  0.965300  1.0  -0.0027
  C  C328  1  0.074160  0.359980  0.940200  1.0  -0.1118
  C  C329  1  0.068440  0.369430  0.896340  1.0  0.0152
  C  C330  1  0.098540  0.407140  0.877300  1.0  -0.122
  C  C331  1  0.134770  0.435890  0.900710  1.0  0.0149
  C  C332  1  0.139440  0.425330  0.944920  1.0  -0.1257
  C  C333  1  0.889740  0.276150  0.464070  1.0  0.0016
  C  C334  1  0.860070  0.284600  0.444340  1.0  -0.1147
  C  C335  1  0.864320  0.299240  0.399890  1.0  0.0217
  C  C336  1  0.900330  0.306130  0.376160  1.0  -0.1145
  C  C337  1  0.930330  0.298150  0.395030  1.0  0.0275
  C  C338  1  0.924720  0.283300  0.439000  1.0  -0.1156
  C  C339  1  0.724900  0.613850  0.465010  1.0  0.0479
  C  C340  1  0.716860  0.575730  0.445820  1.0  -0.0979
  C  C341  1  0.702460  0.565360  0.401490  1.0  -0.0269
  C  C342  1  0.695340  0.593730  0.376930  1.0  -0.1433
  C  C343  1  0.702770  0.631700  0.395390  1.0  0.0204
  C  C344  1  0.717700  0.641400  0.439360  1.0  -0.1004
  C  C345  1  0.890670  0.615600  0.033030  1.0  0.0531
  C  C346  1  0.861730  0.576710  0.052020  1.0  -0.1391
  C  C347  1  0.866360  0.565870  0.095840  1.0  -0.0003
  C  C348  1  0.901330  0.594180  0.120820  1.0  -0.1196
  C  C349  1  0.930670  0.633180  0.103220  1.0  0.0086
  C  C350  1  0.924830  0.643430  0.059600  1.0  -0.105
  C  C351  1  0.617160  0.891530  0.537720  1.0  0.0147
  C  C352  1  0.578990  0.861800  0.557560  1.0  -0.129
  C  C353  1  0.567690  0.866910  0.600850  1.0  0.0278
  C  C354  1  0.595120  0.902640  0.625090  1.0  -0.0982
  C  C355  1  0.633070  0.933130  0.606600  1.0  0.0153
  C  C356  1  0.643520  0.927540  0.562910  1.0  -0.1034
  C  C357  1  0.277750  0.889500  0.967880  1.0  0.0099
  C  C358  1  0.286950  0.860360  0.948280  1.0  -0.1154
  C  C359  1  0.302270  0.865340  0.903940  1.0  -0.0024
  C  C360  1  0.309820  0.901960  0.880810  1.0  -0.1322
  C  C361  1  0.300830  0.931300  0.899700  1.0  0.021
  C  C362  1  0.284810  0.924570  0.943160  1.0  -0.1281
  C  C363  1  0.608720  0.717650  0.969950  1.0  -0.0077
  C  C364  1  0.570980  0.709440  0.948970  1.0  -0.1318
  C  C365  1  0.560940  0.693760  0.905140  1.0  -0.007
  C  C366  1  0.589300  0.685780  0.881940  1.0  -0.1273
  C  C367  1  0.627130  0.693800  0.901290  1.0  0.0098
  C  C368  1  0.636020  0.708980  0.945310  1.0  -0.1054
  C  C369  1  0.741300  0.328440  0.311770  1.0  0.6786
  C  C370  1  0.671800  0.411700  0.312420  1.0  0.6773
  C  C371  1  0.738990  0.413560  0.182180  1.0  0.6917
  C  C372  1  0.585090  0.323830  0.183400  1.0  0.708
  C  C373  1  0.588070  0.258040  0.313360  1.0  0.6782
  C  C374  1  0.674610  0.259680  0.183280  1.0  0.7119
  C  C375  1  0.325410  0.586180  0.683130  1.0  0.6859
  C  C376  1  0.257660  0.587810  0.812230  1.0  0.6741
  C  C377  1  0.410650  0.669920  0.813590  1.0  0.6778
  C  C378  1  0.328720  0.741390  0.813210  1.0  0.6814
  C  C379  1  0.259660  0.674640  0.683020  1.0  0.7011
  C  C380  1  0.413840  0.739780  0.684070  1.0  0.6871
  C  C381  1  0.204390  0.343380  0.356320  1.0  0.6988
  C  C382  1  0.112210  0.227410  0.249610  1.0  0.6677
  C  C383  1  0.077280  0.326920  0.294210  1.0  0.702
  C  C384  1  0.139050  0.345260  0.143390  1.0  0.6648
  C  C385  1  0.248240  0.326550  0.206330  1.0  0.7063
  C  C386  1  0.220140  0.442180  0.250680  1.0  0.6825
  C  C387  1  0.343310  0.132160  0.648870  1.0  0.6973
  C  C388  1  0.438800  0.219810  0.753650  1.0  0.6876
  C  C389  1  0.325450  0.245370  0.700580  1.0  0.6726
  C  C390  1  0.339730  0.208870  0.855830  1.0  0.6911
  C  C391  1  0.324590  0.079210  0.803990  1.0  0.6903
  C  C392  1  0.224110  0.111980  0.750300  1.0  0.686
  C  C393  1  0.078410  0.756040  0.199920  1.0  0.6724
  C  C394  1  0.218130  0.781040  0.252390  1.0  0.6813
  C  C395  1  0.210160  0.868380  0.148300  1.0  0.6904
  C  C396  1  0.244740  0.921500  0.303540  1.0  0.6768
  C  C397  1  0.130400  0.791150  0.354790  1.0  0.6883
  C  C398  1  0.111880  0.889390  0.250530  1.0  0.6795
  C  C399  1  0.651910  0.791640  0.146670  1.0  0.6982
  C  C400  1  0.771350  0.885150  0.250330  1.0  0.6705
  C  C401  1  0.671950  0.920630  0.208430  1.0  0.7162
  C  C402  1  0.656310  0.860230  0.359460  1.0  0.6518
  C  C403  1  0.672230  0.749580  0.296110  1.0  0.7084
  C  C404  1  0.556660  0.778810  0.254680  1.0  0.6956
  C  C405  1  0.750060  0.080290  0.707510  1.0  0.687
  C  C406  1  0.886290  0.115900  0.750280  1.0  0.6735
  C  C407  1  0.860770  0.206640  0.644410  1.0  0.7103
  C  C408  1  0.921300  0.251530  0.795630  1.0  0.7053
  C  C409  1  0.796420  0.139450  0.858900  1.0  0.685
  C  C410  1  0.778020  0.222590  0.752750  1.0  0.7017
  C  C411  1  0.788270  0.657820  0.647160  1.0  0.6925
  C  C412  1  0.778490  0.560560  0.750710  1.0  0.677
  C  C413  1  0.918920  0.675050  0.699600  1.0  0.671
  C  C414  1  0.867280  0.658150  0.853930  1.0  0.7
  C  C415  1  0.752540  0.673730  0.803290  1.0  0.6754
  C  C416  1  0.885450  0.775360  0.750970  1.0  0.6863
  C  C417  1  0.082960  0.347970  0.036760  1.0  -0.1007
  C  C418  1  0.116320  0.376030  0.009200  1.0  0.0193
  C  C419  1  0.156790  0.392220  0.026630  1.0  -0.1167
  C  C420  1  0.163790  0.381690  0.069190  1.0  0.2544
  C  C421  1  0.130430  0.354370  0.096970  1.0  -0.2165
  C  C422  1  0.089820  0.337460  0.079840  1.0  0.2335
  C  C423  1  0.270690  0.352240  0.458110  1.0  -0.1144
  C  C424  1  0.259010  0.373320  0.488780  1.0  0.0499
  C  C425  1  0.227850  0.382140  0.476120  1.0  -0.1147
  C  C426  1  0.209610  0.371410  0.433900  1.0  0.2397
  C  C427  1  0.221970  0.351270  0.402530  1.0  -0.1965
  C  C428  1  0.252440  0.341290  0.415520  1.0  0.2144
  C  C429  1  0.328800  0.230330  0.978210  1.0  -0.1278
  C  C430  1  0.370660  0.256590  0.991430  1.0  0.0574
  C  C431  1  0.401550  0.267400  0.958480  1.0  -0.1154
  C  C432  1  0.391250  0.253000  0.914570  1.0  0.2029
  C  C433  1  0.349600  0.226190  0.901990  1.0  -0.173
  C  C434  1  0.318500  0.214830  0.934500  1.0  0.2057
  C  C435  1  0.337100  0.109390  0.523890  1.0  -0.1145
  C  C436  1  0.377220  0.116270  0.514380  1.0  0.0463
  C  C437  1  0.405720  0.127670  0.549630  1.0  -0.1211
  C  C438  1  0.394440  0.131750  0.593230  1.0  0.2526
  C  C439  1  0.354220  0.125050  0.602810  1.0  -0.2101
  C  C440  1  0.325780  0.113980  0.567270  1.0  0.2142
  C  C441  1  0.777560  0.155230  0.980280  1.0  -0.1126
  C  C442  1  0.746410  0.115470  0.993590  1.0  0.0022
  C  C443  1  0.733480  0.082540  0.962870  1.0  -0.1165
  C  C444  1  0.750280  0.089550  0.919530  1.0  0.2194
  C  C445  1  0.780570  0.129860  0.905850  1.0  -0.2031
  C  C446  1  0.794410  0.162430  0.937370  1.0  0.2557
  C  C447  1  0.276990  0.872070  0.049410  1.0  -0.129
  C  C448  1  0.260090  0.883510  0.014010  1.0  0.0126
  C  C449  1  0.226950  0.890610  0.023270  1.0  -0.1317
  C  C450  1  0.210960  0.886220  0.066590  1.0  0.2371
  C  C451  1  0.228170  0.875160  0.102280  1.0  -0.2061
  C  C452  1  0.261580  0.868210  0.092930  1.0  0.2749
  C  C453  1  0.125390  0.724760  0.454410  1.0  -0.1077
  C  C454  1  0.113940  0.742020  0.489430  1.0  0.069
  C  C455  1  0.106670  0.774940  0.479620  1.0  -0.1287
  C  C456  1  0.111370  0.790660  0.436110  1.0  0.2331
  C  C457  1  0.122830  0.773300  0.400890  1.0  -0.1903
  C  C458  1  0.129550  0.739870  0.410780  1.0  0.2501
  C  C459  1  0.916550  0.270180  0.540240  1.0  -0.1203
  C  C460  1  0.883250  0.258030  0.510140  1.0  0.0222
  C  C461  1  0.843400  0.227630  0.524110  1.0  -0.1383
  C  C462  1  0.836590  0.210540  0.566920  1.0  0.2325
  C  C463  1  0.869680  0.223260  0.597660  1.0  -0.2164
  C  C464  1  0.909960  0.253070  0.583400  1.0  0.2341
  C  C465  1  0.723590  0.596310  0.546530  1.0  -0.1342
  C  C466  1  0.740950  0.625310  0.511740  1.0  0.0578
  C  C467  1  0.773300  0.665650  0.522110  1.0  -0.1301
  C  C468  1  0.788330  0.676590  0.565870  1.0  0.2119
  C  C469  1  0.770850  0.647520  0.600850  1.0  -0.189
  C  C470  1  0.738010  0.607190  0.590450  1.0  0.2357
  C  C471  1  0.900960  0.668400  0.975730  1.0  -0.0975
  C  C472  1  0.885670  0.626480  0.988570  1.0  0.0601
  C  C473  1  0.865200  0.595740  0.955570  1.0  -0.1176
  C  C474  1  0.860510  0.606260  0.911940  1.0  0.2413
  C  C475  1  0.875150  0.647970  0.899760  1.0  -0.1734
  C  C476  1  0.895230  0.678900  0.932340  1.0  0.2291
  C  C477  1  0.603230  0.759720  0.030870  1.0  -0.0864
  C  C478  1  0.619630  0.735500  0.013780  1.0  -0.0042
  C  C479  1  0.647900  0.730690  0.041520  1.0  -0.1171
  C  C480  1  0.658840  0.748890  0.084150  1.0  0.2337
  C  C481  1  0.642020  0.772820  0.100790  1.0  -0.2108
  C  C482  1  0.614140  0.778030  0.073070  1.0  0.2335
  C  C483  1  0.656480  0.917740  0.466200  1.0  -0.1182
  C  C484  1  0.628540  0.884730  0.494120  1.0  0.0152
  C  C485  1  0.612110  0.844040  0.477210  1.0  -0.1226
  C  C486  1  0.621780  0.836500  0.434530  1.0  0.2381
  C  C487  1  0.648530  0.869490  0.406120  1.0  -0.2182
  C  C488  1  0.666140  0.910330  0.422910  1.0  0.2274
  C  C489  1  0.300010  0.555530  0.225140  1.0  -0.1345
  C  C490  1  0.286000  0.577350  0.251490  1.0  0.0604
  C  C491  1  0.250050  0.554410  0.277340  1.0  -0.136
  C  C492  1  0.228750  0.510820  0.277210  1.0  0.2321
  C  C493  1  0.242800  0.488760  0.250830  1.0  -0.2184
  C  C494  1  0.278790  0.511930  0.224620  1.0  0.2248
  C  C495  1  0.246510  0.697040  0.274380  1.0  -0.1239
  C  C496  1  0.285410  0.713230  0.253220  1.0  0.0555
  C  C497  1  0.301800  0.752000  0.231750  1.0  -0.0961
  C  C498  1  0.280280  0.774090  0.231710  1.0  0.2444
  C  C499  1  0.241210  0.757680  0.252660  1.0  -0.1882
  C  C500  1  0.224550  0.718710  0.273900  1.0  0.2563
  C  C501  1  0.444160  0.749180  0.230080  1.0  -0.1212
  C  C502  1  0.421480  0.713120  0.255830  1.0  0.064
  C  C503  1  0.443580  0.699080  0.281680  1.0  -0.124
  C  C504  1  0.487190  0.720310  0.281670  1.0  0.2219
  C  C505  1  0.510090  0.756360  0.255460  1.0  -0.2025
  C  C506  1  0.487740  0.770530  0.229750  1.0  0.2141
  C  C507  1  0.551630  0.250710  0.730910  1.0  -0.1212
  C  C508  1  0.573780  0.288780  0.753760  1.0  0.0769
  C  C509  1  0.550890  0.303850  0.776600  1.0  -0.1234
  C  C510  1  0.507270  0.281720  0.776470  1.0  0.3116
  C  C511  1  0.485190  0.243440  0.753850  1.0  -0.195
  C  C512  1  0.508030  0.228180  0.731150  1.0  0.2448
  C  C513  1  0.696700  0.253960  0.727140  1.0  -0.1223
  C  C514  1  0.710020  0.289640  0.753550  1.0  0.0743
  C  C515  1  0.745820  0.303070  0.779790  1.0  -0.1244
  C  C516  1  0.767770  0.281420  0.779810  1.0  0.2342
  C  C517  1  0.754550  0.245630  0.753150  1.0  -0.2099
  C  C518  1  0.718580  0.232260  0.726750  1.0  0.2093
  C  C519  1  0.694830  0.448040  0.729030  1.0  -0.1167
  C  C520  1  0.710090  0.425560  0.752350  1.0  0.0726
  C  C521  1  0.748200  0.448130  0.775030  1.0  -0.1167
  C  C522  1  0.770550  0.491720  0.774220  1.0  0.2544
  C  C523  1  0.755060  0.514160  0.751090  1.0  -0.1972
  C  C524  1  0.716770  0.491670  0.728590  1.0  0.2314
  C  C525  1  0.486080  0.276170  0.112790  1.0  -0.1413
  C  C526  1  0.471780  0.304490  0.118730  1.0  0.0324
  C  C527  1  0.496210  0.340340  0.144380  1.0  -0.1165
  C  C528  1  0.533600  0.347470  0.164050  1.0  0.2541
  C  C529  1  0.547430  0.318510  0.159030  1.0  -0.1934
  C  C530  1  0.523130  0.282840  0.132750  1.0  0.2352
  C  C531  1  0.477940  0.168370  0.335720  1.0  -0.0923
  C  C532  1  0.474990  0.165400  0.382630  1.0  0.0186
  C  C533  1  0.510630  0.194610  0.406730  1.0  -0.1112
  C  C534  1  0.547290  0.224500  0.384950  1.0  0.2475
  C  C535  1  0.549790  0.226420  0.338070  1.0  -0.2484
  C  C536  1  0.514170  0.197770  0.314010  1.0  0.2591
  C  C537  1  0.717510  0.207360  0.107520  1.0  -0.119
  C  C538  1  0.693980  0.165000  0.120000  1.0  0.0556
  C  C539  1  0.662400  0.154490  0.152150  1.0  -0.1285
  C  C540  1  0.654970  0.184760  0.171160  1.0  0.1952
  C  C541  1  0.679500  0.226980  0.159500  1.0  -0.1754
  C  C542  1  0.710810  0.237820  0.127280  1.0  0.1972
  C  C543  1  0.280430  0.487560  0.612110  1.0  -0.1197
  C  C544  1  0.310100  0.474860  0.617300  1.0  0.0506
  C  C545  1  0.345750  0.500090  0.642840  1.0  -0.1206
  C  C546  1  0.351470  0.536790  0.662970  1.0  0.2427
  C  C547  1  0.321230  0.549070  0.658580  1.0  -0.2018
  C  C548  1  0.285690  0.523900  0.632530  1.0  0.2274
  C  C549  1  0.829770  0.305990  0.332290  1.0  -0.0752
  C  C550  1  0.833460  0.306400  0.379110  1.0  0.0316
  C  C551  1  0.805160  0.313750  0.403800  1.0  -0.1219
  C  C552  1  0.775420  0.321050  0.382610  1.0  0.2499
  C  C553  1  0.772800  0.321280  0.335800  1.0  -0.2282
  C  C554  1  0.800510  0.313360  0.311160  1.0  0.2694
  C  C555  1  0.704030  0.525100  0.334510  1.0  -0.1337
  C  C556  1  0.695560  0.525650  0.380030  1.0  0.0018
  C  C557  1  0.680190  0.488060  0.403980  1.0  -0.1019
  C  C558  1  0.672770  0.451010  0.382740  1.0  0.2307
  C  C559  1  0.680200  0.450520  0.336750  1.0  -0.1937
  C  C560  1  0.696340  0.488410  0.313170  1.0  0.2581
  C  C561  1  0.844770  0.500960  0.141830  1.0  -0.1219
  C  C562  1  0.833760  0.525660  0.116130  1.0  0.0228
  C  C563  1  0.791220  0.512120  0.110780  1.0  -0.1363
  C  C564  1  0.760550  0.475520  0.131260  1.0  0.2045
  C  C565  1  0.771530  0.450890  0.157480  1.0  -0.198
  C  C566  1  0.814230  0.464000  0.161970  1.0  0.2246
  C  C567  1  0.206850  0.715820  0.605400  1.0  -0.1195
  C  C568  1  0.164420  0.692050  0.617610  1.0  0.0609
  C  C569  1  0.154090  0.661040  0.650420  1.0  -0.119
  C  C570  1  0.184570  0.654330  0.670210  1.0  0.2143
  C  C571  1  0.226840  0.679100  0.658790  1.0  -0.1905
  C  C572  1  0.237510  0.709900  0.626010  1.0  0.2046
  C  C573  1  0.169300  0.476920  0.833040  1.0  -0.0921
  C  C574  1  0.165520  0.473890  0.879850  1.0  0.0299
  C  C575  1  0.193580  0.509730  0.904420  1.0  -0.1257
  C  C576  1  0.223260  0.546700  0.883120  1.0  0.2358
  C  C577  1  0.226100  0.549270  0.836320  1.0  -0.2273
  C  C578  1  0.198580  0.513460  0.811790  1.0  0.2547
  C  C579  1  0.502050  0.845530  0.645300  1.0  -0.111
  C  C580  1  0.527330  0.834460  0.620770  1.0  0.0514
  C  C581  1  0.513860  0.791950  0.615500  1.0  -0.1281
  C  C582  1  0.476700  0.761320  0.634920  1.0  0.2182
  C  C583  1  0.451520  0.772340  0.660080  1.0  -0.2031
  C  C584  1  0.464560  0.815010  0.664500  1.0  0.2338
  C  C585  1  0.308800  0.831390  0.835600  1.0  -0.1111
  C  C586  1  0.308920  0.834370  0.882500  1.0  0.0076
  C  C587  1  0.315260  0.805110  0.906590  1.0  -0.1207
  C  C588  1  0.321880  0.775150  0.884780  1.0  0.2162
  C  C589  1  0.322320  0.773160  0.837900  1.0  -0.2385
  C  C590  1  0.315400  0.801850  0.813860  1.0  0.2385
  C  C591  1  0.484050  0.673130  0.905900  1.0  -0.1169
  C  C592  1  0.521880  0.687560  0.882640  1.0  -0.0029
  C  C593  1  0.522450  0.696810  0.837200  1.0  -0.1306
  C  C594  1  0.486670  0.691210  0.815390  1.0  0.232
  C  C595  1  0.448580  0.676270  0.838370  1.0  -0.1985
  C  C596  1  0.447920  0.667700  0.884190  1.0  0.2384
  C  C597  1  0.082010  0.972450  0.272070  1.0  -0.1236
  C  C598  1  0.043510  0.956690  0.249610  1.0  0.0355
  C  C599  1  0.028210  0.918100  0.227470  1.0  -0.0997
  C  C600  1  0.050660  0.896810  0.227020  1.0  0.214
  C  C601  1  0.088520  0.912500  0.250150  1.0  -0.1739
  C  C602  1  0.103720  0.950410  0.273030  1.0  0.2234
  C  C603  1  0.025760  0.113940  0.232730  1.0  -0.1193
  C  C604  1  0.043170  0.090670  0.250450  1.0  0.0369
  C  C605  1  0.083890  0.113820  0.268090  1.0  -0.1161
  C  C606  1  0.105990  0.157560  0.267910  1.0  0.226
  C  C607  1  0.088450  0.180460  0.249880  1.0  -0.2442
  C  C608  1  0.047820  0.157720  0.232290  1.0  0.2124
  C  C609  1  0.884860  0.918320  0.222260  1.0  -0.1189
  C  C610  1  0.907540  0.954950  0.247380  1.0  0.0607
  C  C611  1  0.884910  0.968330  0.273380  1.0  -0.1135
  C  C612  1  0.841190  0.946030  0.274360  1.0  0.2561
  C  C613  1  0.818300  0.909150  0.249240  1.0  -0.2129
  C  C614  1  0.841090  0.895750  0.223080  1.0  0.2173
  C  C615  1  0.111930  0.084320  0.727750  1.0  -0.1134
  C  C616  1  0.088500  0.045400  0.749200  1.0  0.0386
  C  C617  1  0.111070  0.029020  0.770870  1.0  -0.1333
  C  C618  1  0.154790  0.050800  0.771780  1.0  0.2285
  C  C619  1  0.177660  0.089080  0.749650  1.0  -0.1676
  C  C620  1  0.155690  0.105390  0.727240  1.0  0.213
  C  C621  1  0.917560  0.033620  0.774590  1.0  -0.1217
  C  C622  1  0.953990  0.047430  0.749180  1.0  0.0591
  C  C623  1  0.967930  0.084060  0.724080  1.0  -0.115
  C  C624  1  0.946300  0.106210  0.724320  1.0  0.2052
  C  C625  1  0.909670  0.092350  0.749840  1.0  -0.2522
  C  C626  1  0.895720  0.055510  0.774990  1.0  0.2338
  C  C627  1  0.921150  0.888350  0.781960  1.0  -0.1311
  C  C628  1  0.953400  0.910780  0.751320  1.0  0.0765
  C  C629  1  0.963010  0.888300  0.720520  1.0  -0.1364
  C  C630  1  0.940760  0.844570  0.719960  1.0  0.2073
  C  C631  1  0.908700  0.821990  0.751010  1.0  -0.1539
  C  C632  1  0.899390  0.844590  0.782240  1.0  0.2151
  C  C633  1  0.316650  0.323690  0.113140  1.0  -0.1188
  C  C634  1  0.335490  0.303020  0.133010  1.0  0.0557
  C  C635  1  0.326400  0.291070  0.177900  1.0  -0.1348
  C  C636  1  0.298460  0.298800  0.202050  1.0  0.2142
  C  C637  1  0.279370  0.319410  0.181960  1.0  -0.2109
  C  C638  1  0.289210  0.331960  0.137080  1.0  0.2164
  C  C639  1  0.964410  0.293690  0.323720  1.0  -0.1333
  C  C640  1  0.967770  0.305650  0.368710  1.0  0.0449
  C  C641  1  0.007300  0.324980  0.388490  1.0  -0.1214
  C  C642  1  0.042570  0.332280  0.364240  1.0  0.2744
  C  C643  1  0.039360  0.320100  0.319130  1.0  -0.2174
  C  C644  1  0.999600  0.300510  0.299260  1.0  0.2286
  C  C645  1  0.295710  0.018970  0.376330  1.0  -0.1148
  C  C646  1  0.338210  0.031720  0.373640  1.0  0.0532
  C  C647  1  0.350090  0.008660  0.346190  1.0  -0.1042
  C  C648  1  0.320230  0.973370  0.322830  1.0  0.2136
  C  C649  1  0.277440  0.960140  0.326340  1.0  -0.2117
  C  C650  1  0.265820  0.983930  0.353220  1.0  0.2395
  C  C651  1  0.705050  0.033490  0.179250  1.0  -0.122
  C  C652  1  0.693450  0.030220  0.134170  1.0  0.0584
  C  C653  1  0.674200  0.990740  0.114280  1.0  -0.1174
  C  C654  1  0.666770  0.955420  0.138470  1.0  0.2479
  C  C655  1  0.678730  0.958540  0.183630  1.0  -0.1975
  C  C656  1  0.698100  0.998230  0.203660  1.0  0.2307
  C  C657  1  0.343680  0.350390  0.657170  1.0  -0.1139
  C  C658  1  0.308820  0.338160  0.629540  1.0  0.0322
  C  C659  1  0.278920  0.295700  0.627410  1.0  -0.1107
  C  C660  1  0.284010  0.266060  0.650960  1.0  0.2763
  C  C661  1  0.319510  0.277940  0.677750  1.0  -0.2025
  C  C662  1  0.349080  0.320730  0.680990  1.0  0.2216
  C  C663  1  0.277360  0.981480  0.876310  1.0  -0.1275
  C  C664  1  0.307020  0.968610  0.873810  1.0  0.0493
  C  C665  1  0.342160  0.991660  0.846620  1.0  -0.097
  C  C666  1  0.347870  0.027090  0.823350  1.0  0.2299
  C  C667  1  0.318420  0.040460  0.826690  1.0  -0.2273
  C  C668  1  0.282790  0.016640  0.853290  1.0  0.2326
  C  C669  1  0.980510  0.706500  0.127970  1.0  -0.1298
  C  C670  1  0.967320  0.663880  0.130210  1.0  0.0288
  C  C671  1  0.989950  0.651370  0.157500  1.0  -0.1106
  C  C672  1  0.025500  0.680800  0.180850  1.0  0.2229
  C  C673  1  0.039360  0.723730  0.177490  1.0  -0.2144
  C  C674  1  0.015790  0.735950  0.151060  1.0  0.2868
  C  C675  1  0.017510  0.723800  0.628820  1.0  -0.1256
  C  C676  1  0.030450  0.694170  0.630770  1.0  0.0322
  C  C677  1  0.007400  0.658690  0.657460  1.0  -0.1081
  C  C678  1  0.971650  0.652450  0.680500  1.0  0.2066
  C  C679  1  0.958060  0.681770  0.677420  1.0  -0.2085
  C  C680  1  0.982080  0.717880  0.651610  1.0  0.2323
  C  C681  1  0.991270  0.320020  0.889700  1.0  -0.1121
  C  C682  1  0.030850  0.339740  0.870030  1.0  0.0706
  C  C683  1  0.034190  0.330940  0.825110  1.0  -0.1299
  C  C684  1  0.998950  0.302740  0.800640  1.0  0.2343
  C  C685  1  0.959150  0.282930  0.820410  1.0  -0.1997
  C  C686  1  0.955930  0.292220  0.865410  1.0  0.2465
  C  C687  1  0.706480  0.670330  0.324300  1.0  -0.1075
  C  C688  1  0.694310  0.661050  0.369140  1.0  0.0636
  C  C689  1  0.674060  0.680280  0.389080  1.0  -0.1167
  C  C690  1  0.666360  0.708200  0.365270  1.0  0.2552
  C  C691  1  0.679080  0.718170  0.320430  1.0  -0.219
  C  C692  1  0.699310  0.698720  0.300280  1.0  0.2561
  C  C693  1  0.681520  0.010320  0.613580  1.0  -0.1113
  C  C694  1  0.662160  0.970710  0.633140  1.0  0.0701
  C  C695  1  0.671040  0.967340  0.678000  1.0  -0.1293
  C  C696  1  0.699130  0.002620  0.702490  1.0  0.2282
  C  C697  1  0.718660  0.042450  0.682790  1.0  -0.193
  C  C698  1  0.709140  0.045700  0.637900  1.0  0.2567
  C  C699  1  0.646890  0.654500  0.846180  1.0  -0.1105
  C  C700  1  0.658630  0.688550  0.874950  1.0  0.0125
  C  C701  1  0.701130  0.718130  0.878390  1.0  -0.1311
  C  C702  1  0.731170  0.713570  0.854880  1.0  0.2459
  C  C703  1  0.719690  0.679030  0.826640  1.0  -0.2221
  C  C704  1  0.676900  0.649710  0.822320  1.0  0.241
  O  O705  1  0.666490  0.332620  0.247850  1.0  -1.137
  O  O706  1  0.745810  0.334880  0.270080  1.0  -0.6084
  O  O707  1  0.672710  0.381680  0.332300  1.0  -0.6085
  O  O708  1  0.704120  0.410780  0.190750  1.0  -0.6171
  O  O709  1  0.710260  0.327050  0.331940  1.0  -0.6051
  O  O710  1  0.746780  0.385650  0.195750  1.0  -0.6031
  O  O711  1  0.665060  0.410150  0.270780  1.0  -0.6067
  O  O712  1  0.588050  0.291840  0.191970  1.0  -0.6139
  O  O713  1  0.617950  0.289300  0.332990  1.0  -0.6051
  O  O714  1  0.613000  0.359700  0.196660  1.0  -0.6012
  O  O715  1  0.589510  0.253300  0.271640  1.0  -0.6069
  O  O716  1  0.638980  0.251760  0.197260  1.0  -0.6028
  O  O717  1  0.706700  0.294800  0.190840  1.0  -0.6226
  O  O718  1  0.332590  0.666667  0.748270  1.0  -1.106
  O  O719  1  0.360890  0.614350  0.696850  1.0  -0.6194
  O  O720  1  0.253480  0.589430  0.770450  1.0  -0.6109
  O  O721  1  0.380640  0.671010  0.833280  1.0  -0.6069
  O  O722  1  0.293020  0.588530  0.691380  1.0  -0.6039
  O  O723  1  0.409700  0.664410  0.771790  1.0  -0.6184
  O  O724  1  0.288470  0.617650  0.832450  1.0  -0.6057
  O  O725  1  0.334670  0.745940  0.771430  1.0  -0.6054
  O  O726  1  0.252220  0.638970  0.696290  1.0  -0.6034
  O  O727  1  0.327270  0.710150  0.833000  1.0  -0.6075
  O  O728  1  0.294350  0.706990  0.691540  1.0  -0.5983
  O  O729  1  0.385510  0.747290  0.696840  1.0  -0.6066
  O  O730  1  0.411290  0.705090  0.692910  1.0  -0.6131
  O  O731  1  0.166500  0.334480  0.249960  1.0  -1.1583
  O  O732  1  0.188720  0.364970  0.343000  1.0  -0.6119
  O  O733  1  0.146560  0.246930  0.270800  1.0  -0.612
  O  O734  1  0.074170  0.305890  0.259370  1.0  -0.6114
  O  O735  1  0.204840  0.315950  0.330940  1.0  -0.6071
  O  O736  1  0.112780  0.353370  0.309210  1.0  -0.6072
  O  O737  1  0.097850  0.247320  0.228270  1.0  -0.6045
  O  O738  1  0.176120  0.366070  0.157510  1.0  -0.6103
  O  O739  1  0.229220  0.304740  0.240320  1.0  -0.6054
  O  O740  1  0.110550  0.317690  0.168210  1.0  -0.6008
  O  O741  1  0.240180  0.353880  0.191780  1.0  -0.6022
  O  O742  1  0.229790  0.422790  0.222590  1.0  -0.5944
  O  O743  1  0.191210  0.422160  0.278670  1.0  -0.5993
  O  O744  1  0.331780  0.165670  0.752240  1.0  -1.1492
  O  O745  1  0.315000  0.141650  0.654460  1.0  -0.6083
  O  O746  1  0.419600  0.180420  0.749290  1.0  -0.611
  O  O747  1  0.351360  0.254670  0.732420  1.0  -0.6075
  O  O748  1  0.363810  0.130400  0.681930  1.0  -0.6107
  O  O749  1  0.304230  0.208050  0.687130  1.0  -0.617
  O  O750  1  0.418970  0.239380  0.757700  1.0  -0.5963
  O  O751  1  0.311540  0.171190  0.849390  1.0  -0.5916
  O  O752  1  0.351630  0.096660  0.773240  1.0  -0.5978
  O  O753  1  0.361330  0.231630  0.823580  1.0  -0.6246
  O  O754  1  0.302430  0.094630  0.816400  1.0  -0.6008
  O  O755  1  0.243090  0.116840  0.787100  1.0  -0.5936
  O  O756  1  0.244170  0.126400  0.714100  1.0  -0.5894
  O  O757  1  0.165240  0.835150  0.251540  1.0  -1.1173
  O  O758  1  0.094690  0.793470  0.186740  1.0  -0.6189
  O  O759  1  0.178640  0.761260  0.255540  1.0  -0.5973
  O  O760  1  0.232400  0.870140  0.181380  1.0  -0.6066
  O  O761  1  0.095310  0.746390  0.231190  1.0  -0.6143
  O  O762  1  0.172450  0.859230  0.153890  1.0  -0.6077
  O  O763  1  0.238270  0.820500  0.248980  1.0  -0.5984
  O  O764  1  0.207220  0.905960  0.316190  1.0  -0.62
  O  O765  1  0.128870  0.768640  0.322100  1.0  -0.6188
  O  O766  1  0.254190  0.904200  0.272520  1.0  -0.5963
  O  O767  1  0.140120  0.828960  0.348780  1.0  -0.6071
  O  O768  1  0.125540  0.883800  0.287300  1.0  -0.6035
  O  O769  1  0.117740  0.875450  0.214080  1.0  -0.5926
  O  O770  1  0.664330  0.831390  0.252640  1.0  -1.1614
  O  O771  1  0.631130  0.807930  0.160810  1.0  -0.6194
  O  O772  1  0.751400  0.850700  0.229290  1.0  -0.6096
  O  O773  1  0.693460  0.923770  0.242850  1.0  -0.6138
  O  O774  1  0.680200  0.791620  0.171020  1.0  -0.6008
  O  O775  1  0.645050  0.885130  0.193840  1.0  -0.6001
  O  O776  1  0.751870  0.899570  0.272310  1.0  -0.61
  O  O777  1  0.634790  0.823060  0.345790  1.0  -0.6057
  O  O778  1  0.693560  0.768150  0.261640  1.0  -0.6081
  O  O779  1  0.683470  0.888310  0.333980  1.0  -0.5945
  O  O780  1  0.645470  0.758210  0.311180  1.0  -0.6031
  O  O781  1  0.576430  0.768830  0.281920  1.0  -0.5925
  O  O782  1  0.576320  0.807800  0.226670  1.0  -0.5965
  O  O783  1  0.832400  0.169210  0.751540  1.0  -1.136
  O  O784  1  0.758770  0.115880  0.693060  1.0  -0.6002
  O  O785  1  0.851490  0.100610  0.770630  1.0  -0.6114
  O  O786  1  0.889080  0.208090  0.669920  1.0  -0.6051
  O  O787  1  0.768800  0.076950  0.741470  1.0  -0.6054
  O  O788  1  0.823620  0.190770  0.658100  1.0  -0.6101
  O  O789  1  0.901370  0.150910  0.730340  1.0  -0.6021
  O  O790  1  0.885710  0.242390  0.810480  1.0  -0.6063
  O  O791  1  0.794930  0.111580  0.832710  1.0  -0.6137
  O  O792  1  0.924620  0.233250  0.761220  1.0  -0.6165
  O  O793  1  0.811670  0.176710  0.845750  1.0  -0.6204
  O  O794  1  0.805060  0.229810  0.782610  1.0  -0.6045
  O  O795  1  0.770830  0.195900  0.722490  1.0  -0.5985
  O  O796  1  0.832150  0.667590  0.750870  1.0  -1.1105
  O  O797  1  0.826060  0.685870  0.653350  1.0  -0.6077
  O  O798  1  0.758740  0.580180  0.746330  1.0  -0.6048
  O  O799  1  0.901510  0.648040  0.730360  1.0  -0.6035
  O  O800  1  0.765540  0.637020  0.679830  1.0  -0.6057
  O  O801  1  0.903160  0.696790  0.686790  1.0  -0.6193
  O  O802  1  0.817890  0.579960  0.754920  1.0  -0.5989
  O  O803  1  0.857810  0.686430  0.848180  1.0  -0.602
  O  O804  1  0.743230  0.647690  0.771550  1.0  -0.5966
  O  O805  1  0.868200  0.636810  0.821280  1.0  -0.6081
  O  O806  1  0.790020  0.695530  0.816180  1.0  -0.6152
  O  O807  1  0.871550  0.755710  0.787480  1.0  -0.6107
  O  O808  1  0.879950  0.755770  0.714440  1.0  -0.61
  F  F809  1  0.056460  0.311340  0.104920  1.0  -0.1258
  F  F810  1  0.203910  0.398280  0.082630  1.0  -0.1262
  F  F811  1  0.265690  0.322260  0.386660  1.0  -0.1379
  F  F812  1  0.179450  0.380660  0.424080  1.0  -0.1318
  F  F813  1  0.277980  0.188860  0.924020  1.0  -0.1296
  F  F814  1  0.422490  0.264440  0.884610  1.0  -0.1242
  F  F815  1  0.286770  0.107190  0.574390  1.0  -0.1302
  F  F816  1  0.423500  0.143390  0.625790  1.0  -0.138
  F  F817  1  0.824590  0.201680  0.926940  1.0  -0.1236
  F  F818  1  0.735710  0.057190  0.890620  1.0  -0.1343
  F  F819  1  0.278880  0.856630  0.125670  1.0  -0.1338
  F  F820  1  0.178860  0.893240  0.073490  1.0  -0.1239
  F  F821  1  0.141470  0.722400  0.378530  1.0  -0.1333
  F  F822  1  0.104440  0.822740  0.428570  1.0  -0.1272
  F  F823  1  0.942830  0.266680  0.611500  1.0  -0.1392
  F  F824  1  0.797220  0.181060  0.577890  1.0  -0.1245
  F  F825  1  0.720520  0.577600  0.622500  1.0  -0.1317
  F  F826  1  0.819870  0.715770  0.573870  1.0  -0.1371
  F  F827  1  0.909610  0.719470  0.922230  1.0  -0.1365
  F  F828  1  0.840370  0.575180  0.881880  1.0  -0.131
  F  F829  1  0.597470  0.801570  0.086160  1.0  -0.1246
  F  F830  1  0.685330  0.742260  0.109290  1.0  -0.1407
  F  F831  1  0.691990  0.943350  0.397270  1.0  -0.1421
  F  F832  1  0.604820  0.796200  0.421570  1.0  -0.1209
  F  F833  1  0.293920  0.492640  0.198600  1.0  -0.1412
  F  F834  1  0.194250  0.490440  0.302940  1.0  -0.1462
  F  F835  1  0.187440  0.701910  0.295330  1.0  -0.133
  F  F836  1  0.297380  0.811130  0.210100  1.0  -0.1297
  F  F837  1  0.507830  0.805170  0.204170  1.0  -0.1242
  F  F838  1  0.506760  0.705090  0.307110  1.0  -0.1347
  F  F839  1  0.488280  0.191950  0.708050  1.0  -0.1327
  F  F840  1  0.486740  0.297410  0.799500  1.0  -0.1334
  F  F841  1  0.704100  0.197910  0.700700  1.0  -0.1424
  F  F842  1  0.802240  0.295980  0.805660  1.0  -0.1428
  F  F843  1  0.700900  0.511790  0.705110  1.0  -0.134
  F  F844  1  0.806840  0.511890  0.797170  1.0  -0.1298
  F  F845  1  0.535030  0.254100  0.126330  1.0  -0.1214
  F  F846  1  0.555360  0.382070  0.189330  1.0  -0.1341
  F  F847  1  0.513460  0.198510  0.268850  1.0  -0.1337
  F  F848  1  0.580440  0.251080  0.410000  1.0  -0.1373
  F  F849  1  0.735270  0.278100  0.114870  1.0  -0.1307
  F  F850  1  0.624610  0.172720  0.202310  1.0  -0.1434
  F  F851  1  0.255770  0.534290  0.626690  1.0  -0.1312
  F  F852  1  0.386080  0.559460  0.687960  1.0  -0.1293
  F  F853  1  0.798930  0.311460  0.266020  1.0  -0.1328
  F  F854  1  0.749740  0.328540  0.408150  1.0  -0.1347
  F  F855  1  0.705700  0.490490  0.269220  1.0  -0.1351
  F  F856  1  0.657280  0.415510  0.407010  1.0  -0.1448
  F  F857  1  0.826750  0.441920  0.187160  1.0  -0.1317
  F  F858  1  0.720040  0.464370  0.125360  1.0  -0.1311
  F  F859  1  0.277820  0.734560  0.613800  1.0  -0.1435
  F  F860  1  0.172670  0.624390  0.701830  1.0  -0.1442
  F  F861  1  0.200450  0.512870  0.766680  1.0  -0.1435
  F  F862  1  0.248720  0.580070  0.908540  1.0  -0.1443
  F  F863  1  0.441880  0.827480  0.688700  1.0  -0.1352
  F  F864  1  0.465560  0.720810  0.629040  1.0  -0.1227
  F  F865  1  0.313720  0.800990  0.768700  1.0  -0.1471
  F  F866  1  0.328430  0.748550  0.909820  1.0  -0.1373
  F  F867  1  0.412190  0.653130  0.907870  1.0  -0.1436
  F  F868  1  0.489890  0.701540  0.771640  1.0  -0.1344
  F  F869  1  0.140130  0.966650  0.295760  1.0  -0.1365
  F  F870  1  0.034860  0.860290  0.204560  1.0  -0.1367
  F  F871  1  0.028990  0.177630  0.214370  1.0  -0.1269
  F  F872  1  0.144820  0.177290  0.285620  1.0  -0.1326
  F  F873  1  0.821250  0.860870  0.197830  1.0  -0.1401
  F  F874  1  0.821510  0.960690  0.300440  1.0  -0.1436
  F  F875  1  0.176600  0.142290  0.705520  1.0  -0.1369
  F  F876  1  0.174780  0.033980  0.793830  1.0  -0.139
  F  F877  1  0.861040  0.040520  0.800560  1.0  -0.143
  F  F878  1  0.961320  0.141100  0.699090  1.0  -0.1446
  F  F879  1  0.868650  0.824410  0.812610  1.0  -0.1379
  F  F880  1  0.951370  0.824400  0.689620  1.0  -0.1365
  F  F881  1  0.271470  0.351350  0.115600  1.0  -0.1321
  F  F882  1  0.290360  0.286240  0.245100  1.0  -0.1361
  F  F883  1  0.994640  0.288210  0.256090  1.0  -0.1285
  F  F884  1  0.079770  0.350560  0.385600  1.0  -0.1293
  F  F885  1  0.225380  0.973730  0.357110  1.0  -0.1305
  F  F886  1  0.333333  0.951710  0.297760  1.0  -0.1389
  F  F887  1  0.710150  0.003060  0.246910  1.0  -0.1459
  F  F888  1  0.648820  0.918290  0.116970  1.0  -0.1328
  F  F889  1  0.383810  0.333960  0.706110  1.0  -0.1447
  F  F890  1  0.253670  0.225610  0.647580  1.0  -0.1236
  F  F891  1  0.252590  0.026930  0.856960  1.0  -0.1344
  F  F892  1  0.382770  0.048730  0.798490  1.0  -0.1324
  F  F893  1  0.026510  0.776560  0.147500  1.0  -0.1278
  F  F894  1  0.046890  0.667200  0.205630  1.0  -0.1459
  F  F895  1  0.971690  0.748030  0.648430  1.0  -0.131
  F  F896  1  0.949860  0.617180  0.704750  1.0  -0.1466
  F  F897  1  0.918680  0.273650  0.886670  1.0  -0.1261
  F  F898  1  0.003930  0.295120  0.757570  1.0  -0.1422
  F  F899  1  0.712000  0.706880  0.257270  1.0  -0.1412
  F  F900  1  0.647220  0.726150  0.386840  1.0  -0.1187
  F  F901  1  0.727390  0.083010  0.616760  1.0  -0.1268
  F  F902  1  0.706980  0.997640  0.745470  1.0  -0.1355
  F  F903  1  0.663950  0.615800  0.795890  1.0  -0.1415
  F  F904  1  0.771610  0.743530  0.859760  1.0  -0.13
