# generated using pymatgen
data_Zn4H42C60O19
_symmetry_space_group_name_H-M   'P 1'
_cell_length_a   37.15100000
_cell_length_b   37.15100000
_cell_length_c   30.04200000
_cell_angle_alpha   90.00000000
_cell_angle_beta   90.00000000
_cell_angle_gamma   120.00000000
_symmetry_Int_Tables_number   1
_chemical_formula_structural   Zn4H42C60O19
_chemical_formula_sum   'Zn32 H336 C480 O152'
_cell_volume   35908.76674730
_cell_formula_units_Z   8
loop_
 _symmetry_equiv_pos_site_id
 _symmetry_equiv_pos_as_xyz
  1  'x, y, z'
loop_
 _atom_site_type_symbol
 _atom_site_label
 _atom_site_symmetry_multiplicity
 _atom_site_fract_x
 _atom_site_fract_y
 _atom_site_fract_z
 _atom_site_occupancy
 _atom_site_charge
  Zn  Zn1  1  0.714410  0.337540  0.224200  1.0  1.1524
  Zn  Zn2  1  0.665230  0.332600  0.306830  1.0  1.1395
  Zn  Zn3  1  0.661450  0.376250  0.223570  1.0  1.1665
  Zn  Zn4  1  0.622200  0.283770  0.224000  1.0  1.1583
  Zn  Zn5  1  0.282660  0.658520  0.773130  1.0  1.1713
  Zn  Zn6  1  0.336230  0.619570  0.771910  1.0  1.161
  Zn  Zn7  1  0.331140  0.664510  0.689920  1.0  1.1424
  Zn  Zn8  1  0.375130  0.711820  0.773340  1.0  1.1664
  Zn  Zn9  1  0.199490  0.365800  0.208290  1.0  1.0328
  Zn  Zn10  1  0.110640  0.300600  0.227770  1.0  1.1408
  Zn  Zn11  1  0.183180  0.299160  0.274010  1.0  1.1733
  Zn  Zn12  1  0.162500  0.365920  0.294190  1.0  1.1154
  Zn  Zn13  1  0.368690  0.164910  0.790830  1.0  1.0954
  Zn  Zn14  1  0.303270  0.114710  0.724690  1.0  1.1627
  Zn  Zn15  1  0.301490  0.186050  0.773530  1.0  1.1639
  Zn  Zn16  1  0.368140  0.203690  0.708220  1.0  1.0783
  Zn  Zn17  1  0.203700  0.838060  0.289010  1.0  1.062
  Zn  Zn18  1  0.114680  0.814540  0.273830  1.0  1.1772
  Zn  Zn19  1  0.185010  0.886260  0.224550  1.0  1.1822
  Zn  Zn20  1  0.163700  0.798190  0.206990  1.0  1.0612
  Zn  Zn21  1  0.629490  0.831150  0.206800  1.0  1.1089
  Zn  Zn22  1  0.695620  0.809530  0.227510  1.0  1.1361
  Zn  Zn23  1  0.695240  0.882900  0.273390  1.0  1.1459
  Zn  Zn24  1  0.629510  0.794280  0.292470  1.0  1.0383
  Zn  Zn25  1  0.793810  0.160950  0.707670  1.0  1.0547
  Zn  Zn26  1  0.811550  0.111220  0.772550  1.0  1.197
  Zn  Zn27  1  0.882020  0.183690  0.725290  1.0  1.1781
  Zn  Zn28  1  0.831860  0.198890  0.791570  1.0  1.0655
  Zn  Zn29  1  0.860420  0.699620  0.700480  1.0  1.1602
  Zn  Zn30  1  0.778720  0.632560  0.735260  1.0  1.149
  Zn  Zn31  1  0.858200  0.634530  0.761630  1.0  1.1508
  Zn  Zn32  1  0.839800  0.699620  0.796280  1.0  1.1885
  H  H33  1  0.074370  0.038520  0.254260  1.0  0.0925
  H  H34  1  0.956910  0.035360  0.253710  1.0  0.0968
  H  H35  1  0.959200  0.921680  0.253080  1.0  0.0964
  H  H36  1  0.038830  0.960760  0.751670  1.0  0.1066
  H  H37  1  0.924350  0.962070  0.749730  1.0  0.1167
  H  H38  1  0.039780  0.077650  0.750280  1.0  0.0958
  H  H39  1  0.367230  0.625820  0.246450  1.0  0.1073
  H  H40  1  0.369920  0.742890  0.246300  1.0  0.1063
  H  H41  1  0.252740  0.628440  0.245500  1.0  0.1052
  H  H42  1  0.628100  0.256460  0.750430  1.0  0.1127
  H  H43  1  0.745000  0.370880  0.750760  1.0  0.1162
  H  H44  1  0.630190  0.373160  0.753040  1.0  0.1149
  H  H45  1  0.323910  0.273440  0.047630  1.0  0.104
  H  H46  1  0.408780  0.315500  0.157880  1.0  0.1099
  H  H47  1  0.443370  0.280090  0.037140  1.0  0.1061
  H  H48  1  0.449220  0.164410  0.462410  1.0  0.1026
  H  H49  1  0.409390  0.097040  0.338790  1.0  0.0998
  H  H50  1  0.327660  0.055740  0.450310  1.0  0.1106
  H  H51  1  0.718370  0.047100  0.045780  1.0  0.1027
  H  H52  1  0.681480  0.093580  0.157000  1.0  0.1063
  H  H53  1  0.723590  0.164760  0.035350  1.0  0.0952
  H  H54  1  0.277460  0.443460  0.535730  1.0  0.1153
  H  H55  1  0.314920  0.411710  0.658510  1.0  0.1078
  H  H56  1  0.268670  0.324230  0.550520  1.0  0.1144
  H  H57  1  0.050080  0.714180  0.538060  1.0  0.0935
  H  H58  1  0.093260  0.680990  0.653450  1.0  0.1027
  H  H59  1  0.161900  0.707410  0.530470  1.0  0.1001
  H  H60  1  0.048180  0.322720  0.952640  1.0  0.1114
  H  H61  1  0.092920  0.405660  0.841190  1.0  0.1044
  H  H62  1  0.162060  0.440990  0.963020  1.0  0.106
  H  H63  1  0.826660  0.271360  0.460780  1.0  0.1063
  H  H64  1  0.901590  0.315980  0.342560  1.0  0.1143
  H  H65  1  0.946090  0.278590  0.454910  1.0  0.1006
  H  H66  1  0.723590  0.554190  0.462680  1.0  0.1169
  H  H67  1  0.684310  0.585890  0.340940  1.0  0.1164
  H  H68  1  0.723470  0.669700  0.452110  1.0  0.1115
  H  H69  1  0.947790  0.675710  0.047260  1.0  0.1019
  H  H70  1  0.902520  0.589280  0.155850  1.0  0.1085
  H  H71  1  0.834620  0.557370  0.032830  1.0  0.1047
  H  H72  1  0.550800  0.831180  0.536330  1.0  0.0928
  H  H73  1  0.584770  0.904420  0.656410  1.0  0.1086
  H  H74  1  0.668880  0.944330  0.547020  1.0  0.1128
  H  H75  1  0.271000  0.829470  0.960420  1.0  0.1034
  H  H76  1  0.314780  0.902800  0.840330  1.0  0.0987
  H  H77  1  0.274880  0.946630  0.951240  1.0  0.1012
  H  H78  1  0.553550  0.717260  0.963830  1.0  0.1139
  H  H79  1  0.583880  0.674660  0.844980  1.0  0.1135
  H  H80  1  0.669920  0.717680  0.954070  1.0  0.0962
  H  H81  1  0.047970  0.327500  0.025690  1.0  0.1048
  H  H82  1  0.180230  0.405570  0.005500  1.0  0.107
  H  H83  1  0.060960  0.310800  0.100050  1.0  0.1101
  H  H84  1  0.208650  0.450380  0.109690  1.0  0.1346
  H  H85  1  0.228950  0.453970  0.053740  1.0  0.0998
  H  H86  1  0.256130  0.449520  0.100950  1.0  0.1206
  H  H87  1  0.214380  0.398420  0.497620  1.0  0.1137
  H  H88  1  0.286270  0.338990  0.474520  1.0  0.1029
  H  H89  1  0.185790  0.380590  0.423330  1.0  0.1078
  H  H90  1  0.273810  0.279830  0.432460  1.0  0.1254
  H  H91  1  0.317180  0.328490  0.411410  1.0  0.1201
  H  H92  1  0.291150  0.283810  0.375930  1.0  0.0941
  H  H93  1  0.327040  0.275470  0.974380  1.0  0.1038
  H  H94  1  0.409550  0.227210  0.995520  1.0  0.0785
  H  H95  1  0.311780  0.245870  0.900090  1.0  0.1114
  H  H96  1  0.425170  0.179900  0.969060  1.0  0.1142
  H  H97  1  0.461000  0.229790  0.942970  1.0  0.1129
  H  H98  1  0.449280  0.181560  0.916880  1.0  0.1282
  H  H99  1  0.331210  0.054690  0.522760  1.0  0.1087
  H  H100  1  0.417340  0.185280  0.505420  1.0  0.0821
  H  H101  1  0.315000  0.067850  0.596910  1.0  0.113
  H  H102  1  0.429800  0.247580  0.532840  1.0  0.1141
  H  H103  1  0.466790  0.234230  0.557300  1.0  0.1143
  H  H104  1  0.454520  0.269680  0.584930  1.0  0.1067
  H  H105  1  0.773260  0.079800  0.996620  1.0  0.1109
  H  H106  1  0.704960  0.141690  0.965230  1.0  0.0932
  H  H107  1  0.798990  0.089580  0.920130  1.0  0.1173
  H  H108  1  0.722140  0.200160  0.918400  1.0  0.1163
  H  H109  1  0.675420  0.152130  0.901690  1.0  0.1072
  H  H110  1  0.703290  0.193120  0.862170  1.0  0.1254
  H  H111  1  0.220710  0.914270  0.999930  1.0  0.1087
  H  H112  1  0.288140  0.851430  0.031220  1.0  0.0971
  H  H113  1  0.195900  0.905620  0.076620  1.0  0.1154
  H  H114  1  0.318030  0.841290  0.094680  1.0  0.1111
  H  H115  1  0.270860  0.793350  0.078720  1.0  0.1155
  H  H116  1  0.290230  0.800810  0.134760  1.0  0.1212
  H  H117  1  0.051930  0.712060  0.466510  1.0  0.1059
  H  H118  1  0.182840  0.762110  0.489490  1.0  0.0792
  H  H119  1  0.066660  0.746190  0.395050  1.0  0.1093
  H  H120  1  0.236550  0.770590  0.439640  1.0  0.1172
  H  H121  1  0.244410  0.818000  0.467180  1.0  0.1068
  H  H122  1  0.270320  0.820840  0.415840  1.0  0.1141
  H  H123  1  0.915410  0.225640  0.503680  1.0  0.1071
  H  H124  1  0.845080  0.286040  0.532600  1.0  0.087
  H  H125  1  0.905410  0.199560  0.579720  1.0  0.1137
  H  H126  1  0.783040  0.261750  0.576910  1.0  0.1246
  H  H127  1  0.827630  0.311060  0.594700  1.0  0.1036
  H  H128  1  0.786640  0.279930  0.633070  1.0  0.1171
  H  H129  1  0.698330  0.565610  0.538510  1.0  0.1098
  H  H130  1  0.788620  0.686480  0.491630  1.0  0.0947
  H  H131  1  0.724800  0.584840  0.614330  1.0  0.1173
  H  H132  1  0.822940  0.753530  0.521750  1.0  0.1078
  H  H133  1  0.858390  0.733250  0.513680  1.0  0.115
  H  H134  1  0.870720  0.774640  0.552460  1.0  0.1177
  H  H135  1  0.856780  0.565990  0.962290  1.0  0.1142
  H  H136  1  0.914590  0.694760  0.000590  1.0  0.0987
  H  H137  1  0.849450  0.584160  0.886780  1.0  0.1126
  H  H138  1  0.958650  0.757400  0.963000  1.0  0.116
  H  H139  1  0.907880  0.751220  0.976890  1.0  0.1162
  H  H140  1  0.938860  0.785680  0.933050  1.0  0.1297
  H  H141  1  0.588940  0.769610  0.007720  1.0  0.109
  H  H142  1  0.664670  0.712890  0.025680  1.0  0.093
  H  H143  1  0.605570  0.797560  0.081130  1.0  0.1089
  H  H144  1  0.729380  0.737300  0.062850  1.0  0.1231
  H  H145  1  0.686510  0.689040  0.085380  1.0  0.112
  H  H146  1  0.731220  0.721420  0.118900  1.0  0.1549
  H  H147  1  0.664070  0.945490  0.474140  1.0  0.1052
  H  H148  1  0.585510  0.813250  0.493680  1.0  0.1028
  H  H149  1  0.682300  0.932650  0.400510  1.0  0.111
  H  H150  1  0.541120  0.784190  0.390870  1.0  0.1363
  H  H151  1  0.538540  0.763660  0.446530  1.0  0.1002
  H  H152  1  0.543040  0.737170  0.398810  1.0  0.1084
  H  H153  1  0.321890  0.567680  0.197830  1.0  0.1074
  H  H154  1  0.239970  0.571890  0.295370  1.0  0.1008
  H  H155  1  0.284340  0.492060  0.200430  1.0  0.11
  H  H156  1  0.168750  0.528700  0.311100  1.0  0.1153
  H  H157  1  0.202540  0.529650  0.356010  1.0  0.1074
  H  H158  1  0.150170  0.487220  0.351030  1.0  0.1131
  H  H159  1  0.240880  0.675090  0.196910  1.0  0.1075
  H  H160  1  0.326020  0.755200  0.296190  1.0  0.1016
  H  H161  1  0.204580  0.714460  0.197980  1.0  0.1119
  H  H162  1  0.354490  0.825570  0.314840  1.0  0.115
  H  H163  1  0.318920  0.790910  0.357620  1.0  0.1147
  H  H164  1  0.330610  0.843920  0.353760  1.0  0.1167
  H  H165  1  0.428460  0.755030  0.198010  1.0  0.1071
  H  H166  1  0.423020  0.669400  0.296930  1.0  0.1034
  H  H167  1  0.504060  0.791620  0.199790  1.0  0.1103
  H  H168  1  0.464810  0.640340  0.314050  1.0  0.1157
  H  H169  1  0.465610  0.675000  0.357870  1.0  0.1145
  H  H170  1  0.506920  0.663370  0.353220  1.0  0.1239
  H  H171  1  0.569950  0.243690  0.799550  1.0  0.1084
  H  H172  1  0.573790  0.329630  0.702030  1.0  0.0928
  H  H173  1  0.494320  0.206470  0.798430  1.0  0.1125
  H  H174  1  0.530690  0.322640  0.640830  1.0  0.1098
  H  H175  1  0.531200  0.357470  0.684280  1.0  0.1185
  H  H176  1  0.488950  0.333660  0.645360  1.0  0.1202
  H  H177  1  0.755220  0.322620  0.802010  1.0  0.1095
  H  H178  1  0.673700  0.246490  0.698210  1.0  0.0964
  H  H179  1  0.791100  0.282790  0.801170  1.0  0.1116
  H  H180  1  0.685600  0.215210  0.635030  1.0  0.11
  H  H181  1  0.646760  0.178140  0.673900  1.0  0.1097
  H  H182  1  0.673020  0.161820  0.635770  1.0  0.1302
  H  H183  1  0.671920  0.431310  0.708040  1.0  0.1152
  H  H184  1  0.762250  0.429170  0.795340  1.0  0.0984
  H  H185  1  0.710190  0.506940  0.708140  1.0  0.1129
  H  H186  1  0.834340  0.472680  0.805840  1.0  0.1137
  H  H187  1  0.803750  0.473610  0.853150  1.0  0.1163
  H  H188  1  0.855730  0.515610  0.844090  1.0  0.1217
  H  H189  1  0.465450  0.248480  0.096010  1.0  0.1085
  H  H190  1  0.484230  0.363850  0.148430  1.0  0.0946
  H  H191  1  0.530180  0.260440  0.129700  1.0  0.1132
  H  H192  1  0.514930  0.401210  0.214250  1.0  0.1126
  H  H193  1  0.543680  0.428610  0.164180  1.0  0.1114
  H  H194  1  0.568680  0.440840  0.217650  1.0  0.1424
  H  H195  1  0.487430  0.217980  0.420420  1.0  0.1053
  H  H196  1  0.475140  0.122020  0.330650  1.0  0.0928
  H  H197  1  0.551970  0.267130  0.384870  1.0  0.1157
  H  H198  1  0.492150  0.123150  0.254500  1.0  0.1167
  H  H199  1  0.520710  0.107740  0.292360  1.0  0.1173
  H  H200  1  0.540930  0.128060  0.238130  1.0  0.1261
  H  H201  1  0.642270  0.123480  0.160040  1.0  0.1089
  H  H202  1  0.743260  0.216190  0.081730  1.0  0.0974
  H  H203  1  0.631120  0.176810  0.192560  1.0  0.1092
  H  H204  1  0.754400  0.277840  0.046930  1.0  0.1144
  H  H205  1  0.791750  0.286580  0.091250  1.0  0.1189
  H  H206  1  0.782460  0.327490  0.073980  1.0  0.1374
  H  H207  1  0.256720  0.477440  0.587430  1.0  0.1124
  H  H208  1  0.361590  0.482540  0.653500  1.0  0.098
  H  H209  1  0.272050  0.543250  0.621840  1.0  0.1236
  H  H210  1  0.427890  0.540370  0.670690  1.0  0.1199
  H  H211  1  0.398390  0.510940  0.719550  1.0  0.1078
  H  H212  1  0.439530  0.563950  0.724780  1.0  0.0975
  H  H213  1  0.835790  0.283620  0.312190  1.0  0.1108
  H  H214  1  0.812060  0.323090  0.437610  1.0  0.0978
  H  H215  1  0.786630  0.298430  0.275840  1.0  0.11
  H  H216  1  0.791430  0.370510  0.459780  1.0  0.1148
  H  H217  1  0.750290  0.316740  0.469030  1.0  0.115
  H  H218  1  0.738190  0.357780  0.464800  1.0  0.1283
  H  H219  1  0.669110  0.485840  0.434410  1.0  0.1153
  H  H220  1  0.724330  0.556390  0.315970  1.0  0.1012
  H  H221  1  0.656310  0.421920  0.396470  1.0  0.1124
  H  H222  1  0.765300  0.550970  0.259460  1.0  0.1075
  H  H223  1  0.715340  0.542930  0.239120  1.0  0.1066
  H  H224  1  0.743370  0.523200  0.208580  1.0  0.1144
  H  H225  1  0.780090  0.531330  0.092010  1.0  0.1117
  H  H226  1  0.877920  0.514510  0.144230  1.0  0.0945
  H  H227  1  0.728080  0.466660  0.126750  1.0  0.1095
  H  H228  1  0.885790  0.484660  0.209920  1.0  0.1113
  H  H229  1  0.884140  0.455540  0.160050  1.0  0.1119
  H  H230  1  0.872260  0.431100  0.213810  1.0  0.1378
  H  H231  1  0.213950  0.718870  0.570560  1.0  0.0998
  H  H232  1  0.120670  0.644450  0.667890  1.0  0.0886
  H  H233  1  0.263050  0.704900  0.607860  1.0  0.1108
  H  H234  1  0.107530  0.604580  0.728740  1.0  0.1115
  H  H235  1  0.139440  0.657580  0.749920  1.0  0.112
  H  H236  1  0.137820  0.614250  0.778320  1.0  0.1105
  H  H237  1  0.216760  0.468510  0.910040  1.0  0.1092
  H  H238  1  0.119550  0.477470  0.843100  1.0  0.0971
  H  H239  1  0.268900  0.533180  0.875440  1.0  0.1149
  H  H240  1  0.107920  0.524340  0.804440  1.0  0.1074
  H  H241  1  0.122000  0.495760  0.765090  1.0  0.122
  H  H242  1  0.128480  0.545400  0.750500  1.0  0.1017
  H  H243  1  0.546200  0.845810  0.688560  1.0  0.1041
  H  H244  1  0.488660  0.808110  0.559410  1.0  0.0934
  H  H245  1  0.482870  0.796530  0.723350  1.0  0.1096
  H  H246  1  0.439790  0.741760  0.530990  1.0  0.123
  H  H247  1  0.421550  0.779330  0.531680  1.0  0.1189
  H  H248  1  0.385180  0.724520  0.530340  1.0  0.1417
  H  H249  1  0.253040  0.777810  0.912960  1.0  0.1082
  H  H250  1  0.354860  0.874650  0.839270  1.0  0.0922
  H  H251  1  0.266300  0.726380  0.879390  1.0  0.116
  H  H252  1  0.418050  0.884210  0.811790  1.0  0.1108
  H  H253  1  0.381220  0.876890  0.767390  1.0  0.1179
  H  H254  1  0.423110  0.866890  0.757550  1.0  0.1359
  H  H255  1  0.533800  0.748600  0.898480  1.0  0.1121
  H  H256  1  0.505970  0.626130  0.861350  1.0  0.0894
  H  H257  1  0.470060  0.737830  0.863180  1.0  0.1115
  H  H258  1  0.439820  0.562590  0.859720  1.0  0.1157
  H  H259  1  0.468280  0.577670  0.806970  1.0  0.1196
  H  H260  1  0.413090  0.542950  0.807810  1.0  0.1113
  H  H261  1  0.996040  0.898300  0.284830  1.0  0.1023
  H  H262  1  0.097680  0.003900  0.220580  1.0  0.0847
  H  H263  1  0.034260  0.861630  0.282000  1.0  0.1095
  H  H264  1  0.170680  0.034280  0.232520  1.0  0.1139
  H  H265  1  0.153130  0.017530  0.175360  1.0  0.1106
  H  H266  1  0.201420  0.023280  0.194720  1.0  0.1125
  H  H267  1  0.097020  0.098010  0.286030  1.0  0.1057
  H  H268  1  0.992370  0.093560  0.219050  1.0  0.0938
  H  H269  1  0.133490  0.172610  0.283230  1.0  0.11
  H  H270  1  0.961730  0.135890  0.225750  1.0  0.1124
  H  H271  1  0.981780  0.135560  0.170140  1.0  0.1145
  H  H272  1  0.974580  0.177760  0.187480  1.0  0.1447
  H  H273  1  0.898330  0.992160  0.298820  1.0  0.1139
  H  H274  1  0.902680  0.906770  0.206200  1.0  0.1008
  H  H275  1  0.822680  0.953990  0.296740  1.0  0.1093
  H  H276  1  0.859610  0.834540  0.194490  1.0  0.1162
  H  H277  1  0.860610  0.866350  0.147420  1.0  0.1109
  H  H278  1  0.818210  0.814230  0.154370  1.0  0.1299
  H  H279  1  0.100460  0.101280  0.781150  1.0  0.1041
  H  H280  1  0.096580  0.996080  0.716120  1.0  0.0857
  H  H281  1  0.175220  0.137730  0.779060  1.0  0.1108
  H  H282  1  0.138940  0.985180  0.668020  1.0  0.1159
  H  H283  1  0.138750  0.965450  0.723950  1.0  0.1205
  H  H284  1  0.180950  0.978020  0.686250  1.0  0.145
  H  H285  1  0.907090  0.004020  0.794740  1.0  0.1134
  H  H286  1  0.998220  0.093220  0.705850  1.0  0.1012
  H  H287  1  0.868170  0.040650  0.792590  1.0  0.1145
  H  H288  1  0.999390  0.136950  0.649710  1.0  0.1093
  H  H289  1  0.026770  0.166330  0.699510  1.0  0.1204
  H  H290  1  0.007160  0.188050  0.659330  1.0  0.1337
  H  H291  1  0.909520  0.902710  0.797780  1.0  0.1131
  H  H292  1  0.995990  0.905130  0.701660  1.0  0.0942
  H  H293  1  0.871560  0.826640  0.796720  1.0  0.1113
  H  H294  1  0.025670  0.860620  0.699510  1.0  0.1252
  H  H295  1  0.999990  0.862170  0.648110  1.0  0.1091
  H  H296  1  0.007830  0.819190  0.659860  1.0  0.1032
  H  H297  1  0.321020  0.335200  0.079450  1.0  0.1096
  H  H298  1  0.338740  0.273170  0.190250  1.0  0.0979
  H  H299  1  0.272670  0.347330  0.122660  1.0  0.1159
  H  H300  1  0.337860  0.279890  0.268080  1.0  0.1209
  H  H301  1  0.294240  0.230970  0.247880  1.0  0.1126
  H  H302  1  0.291670  0.251630  0.301030  1.0  0.1118
  H  H303  1  0.932430  0.275560  0.308880  1.0  0.1146
  H  H304  1  0.006680  0.337160  0.423190  1.0  0.1026
  H  H305  1  0.994400  0.288180  0.267490  1.0  0.1098
  H  H306  1  0.067310  0.342210  0.453640  1.0  0.1187
  H  H307  1  0.074930  0.392190  0.433890  1.0  0.1157
  H  H308  1  0.118370  0.384010  0.440330  1.0  0.1207
  H  H309  1  0.324890  0.990660  0.418170  1.0  0.1086
  H  H310  1  0.338360  0.070310  0.308740  1.0  0.0953
  H  H311  1  0.275490  0.930060  0.375940  1.0  0.1121
  H  H312  1  0.333860  0.063400  0.231170  1.0  0.1119
  H  H313  1  0.290180  0.067100  0.254180  1.0  0.1187
  H  H314  1  0.286380  0.044480  0.200300  1.0  0.1222
  H  H315  1  0.718920  0.061350  0.191990  1.0  0.1162
  H  H316  1  0.660250  0.986960  0.076830  1.0  0.0991
  H  H317  1  0.706550  0.999490  0.233610  1.0  0.1117
  H  H318  1  0.659210  0.927730  0.046880  1.0  0.1125
  H  H319  1  0.607860  0.918280  0.063850  1.0  0.0979
  H  H320  1  0.617950  0.875960  0.058680  1.0  0.1106
  H  H321  1  0.278850  0.343720  0.696240  1.0  0.1162
  H  H322  1  0.326970  0.320200  0.576980  1.0  0.0976
  H  H323  1  0.291790  0.294220  0.737240  1.0  0.1085
  H  H324  1  0.374360  0.298490  0.558710  1.0  0.1148
  H  H325  1  0.320520  0.258110  0.547960  1.0  0.1203
  H  H326  1  0.360330  0.244750  0.555520  1.0  0.1166
  H  H327  1  0.280840  0.935430  0.803640  1.0  0.1125
  H  H328  1  0.329730  0.007460  0.922560  1.0  0.1053
  H  H329  1  0.294230  0.997760  0.762380  1.0  0.11
  H  H330  1  0.372870  0.075950  0.943660  1.0  0.1032
  H  H331  1  0.318160  0.061260  0.949970  1.0  0.1147
  H  H332  1  0.357590  0.114780  0.944700  1.0  0.1006
  H  H333  1  0.010150  0.678720  0.078160  1.0  0.1082
  H  H334  1  0.931640  0.659310  0.190670  1.0  0.1008
  H  H335  1  0.070830  0.727650  0.120360  1.0  0.1101
  H  H336  1  0.941510  0.659070  0.268290  1.0  0.1081
  H  H337  1  0.933920  0.701880  0.250260  1.0  0.1021
  H  H338  1  0.958880  0.704530  0.302340  1.0  0.1429
  H  H339  1  0.021050  0.637230  0.663220  1.0  0.1152
  H  H340  1  0.029720  0.741420  0.592230  1.0  0.0974
  H  H341  1  0.961040  0.629740  0.704470  1.0  0.1153
  H  H342  1  0.964520  0.737720  0.558870  1.0  0.1141
  H  H343  1  0.004220  0.784550  0.586940  1.0  0.1093
  H  H344  1  0.951740  0.774050  0.583530  1.0  0.1184
  H  H345  1  0.984760  0.320570  0.920760  1.0  0.1098
  H  H346  1  0.063780  0.335460  0.810130  1.0  0.0963
  H  H347  1  0.923930  0.271760  0.878450  1.0  0.1096
  H  H348  1  0.060680  0.289660  0.753370  1.0  0.108
  H  H349  1  0.056010  0.333420  0.732420  1.0  0.1145
  H  H350  1  0.037300  0.286720  0.700170  1.0  0.1326
  H  H351  1  0.724450  0.658480  0.307090  1.0  0.1088
  H  H352  1  0.661100  0.668120  0.421430  1.0  0.0923
  H  H353  1  0.710690  0.707440  0.266320  1.0  0.1099
  H  H354  1  0.651950  0.720540  0.452600  1.0  0.1159
  H  H355  1  0.603380  0.677710  0.430580  1.0  0.1231
  H  H356  1  0.609340  0.728250  0.438630  1.0  0.0988
  H  H357  1  0.673640  0.008790  0.577700  1.0  0.1065
  H  H358  1  0.654330  0.929690  0.689650  1.0  0.0951
  H  H359  1  0.723760  0.069070  0.619810  1.0  0.1135
  H  H360  1  0.697050  0.930930  0.748460  1.0  0.112
  H  H361  1  0.654990  0.939360  0.767360  1.0  0.1094
  H  H362  1  0.700700  0.955930  0.800790  1.0  0.136
  H  H363  1  0.714270  0.745310  0.892590  1.0  0.1151
  H  H364  1  0.615020  0.630890  0.841210  1.0  0.1054
  H  H365  1  0.764780  0.734930  0.852550  1.0  0.1146
  H  H366  1  0.605180  0.596330  0.771980  1.0  0.1179
  H  H367  1  0.608820  0.567360  0.819400  1.0  0.1173
  H  H368  1  0.618990  0.556830  0.763890  1.0  0.139
  C  C369  1  0.020420  0.977000  0.253730  1.0  0.0061
  C  C370  1  0.040940  0.021210  0.253820  1.0  -0.1116
  C  C371  1  0.019080  0.043560  0.253200  1.0  0.0109
  C  C372  1  0.975010  0.019940  0.253020  1.0  -0.1212
  C  C373  1  0.953290  0.976110  0.253390  1.0  -0.0087
  C  C374  1  0.976290  0.955240  0.253900  1.0  -0.1129
  C  C375  1  0.046410  0.022730  0.749830  1.0  0.0118
  C  C376  1  0.023140  0.978590  0.749680  1.0  -0.1217
  C  C377  1  0.979280  0.956420  0.750090  1.0  0.0174
  C  C378  1  0.957990  0.978890  0.750790  1.0  -0.1034
  C  C379  1  0.979570  0.022740  0.751010  1.0  -0.0226
  C  C380  1  0.023590  0.044100  0.750870  1.0  -0.1108
  C  C381  1  0.307200  0.621670  0.245810  1.0  0.0411
  C  C382  1  0.350960  0.643210  0.246100  1.0  -0.1101
  C  C383  1  0.373950  0.686950  0.246340  1.0  0.0423
  C  C384  1  0.352470  0.709230  0.246050  1.0  -0.1097
  C  C385  1  0.308690  0.688490  0.245820  1.0  0.0368
  C  C386  1  0.286400  0.644680  0.245570  1.0  -0.1038
  C  C387  1  0.623780  0.312250  0.751260  1.0  0.0386
  C  C388  1  0.645400  0.290120  0.751000  1.0  -0.1125
  C  C389  1  0.689150  0.311000  0.751230  1.0  0.0454
  C  C390  1  0.711370  0.354780  0.751810  1.0  -0.1553
  C  C391  1  0.690550  0.377820  0.751900  1.0  0.0139
  C  C392  1  0.646690  0.356040  0.751740  1.0  -0.1037
  C  C393  1  0.381460  0.272960  0.035590  1.0  -0.0173
  C  C394  1  0.353940  0.281020  0.060890  1.0  -0.1352
  C  C395  1  0.363390  0.296120  0.105100  1.0  0.0068
  C  C396  1  0.401370  0.304080  0.124020  1.0  -0.0971
  C  C397  1  0.429850  0.297410  0.099720  1.0  0.0371
  C  C398  1  0.419780  0.282430  0.055860  1.0  -0.1223
  C  C399  1  0.386480  0.112280  0.462580  1.0  -0.029
  C  C400  1  0.425170  0.140470  0.442230  1.0  -0.1622
  C  C401  1  0.434980  0.135940  0.397650  1.0  0.0054
  C  C402  1  0.404430  0.101330  0.373370  1.0  -0.13
  C  C403  1  0.366360  0.071970  0.392640  1.0  0.0204
  C  C404  1  0.357880  0.077620  0.437020  1.0  -0.1373
  C  C405  1  0.722790  0.106600  0.034930  1.0  -0.0159
  C  C406  1  0.713950  0.071230  0.060390  1.0  -0.1021
  C  C407  1  0.699230  0.066410  0.104540  1.0  -0.0067
  C  C408  1  0.692510  0.097490  0.123040  1.0  -0.1514
  C  C409  1  0.701200  0.133760  0.098790  1.0  0.0291
  C  C410  1  0.717010  0.137790  0.054950  1.0  -0.0966
  C  C411  1  0.270850  0.382340  0.537670  1.0  0.0016
  C  C412  1  0.281040  0.421360  0.555990  1.0  -0.0853
  C  C413  1  0.297000  0.432650  0.599630  1.0  -0.0143
  C  C414  1  0.302860  0.403850  0.624960  1.0  -0.1363
  C  C415  1  0.293650  0.365000  0.607230  1.0  -0.0104
  C  C416  1  0.277310  0.354600  0.563760  1.0  -0.1223
  C  C417  1  0.108660  0.715830  0.528870  1.0  -0.0075
  C  C418  1  0.072860  0.708110  0.553110  1.0  -0.105
  C  C419  1  0.066800  0.694730  0.597800  1.0  -0.0279
  C  C420  1  0.096930  0.687850  0.618300  1.0  -0.1075
  C  C421  1  0.132310  0.692460  0.595020  1.0  -0.0184
  C  C422  1  0.137180  0.706390  0.550160  1.0  -0.1205
  C  C423  1  0.106520  0.379810  0.964450  1.0  0.005
  C  C424  1  0.071040  0.352470  0.939140  1.0  -0.1144
  C  C425  1  0.066000  0.361510  0.894710  1.0  0.0065
  C  C426  1  0.096620  0.398920  0.875410  1.0  -0.1196
  C  C427  1  0.131730  0.427650  0.899750  1.0  0.0116
  C  C428  1  0.136120  0.417750  0.944000  1.0  -0.1363
  C  C429  1  0.886010  0.273640  0.464380  1.0  -0.0238
  C  C430  1  0.855290  0.279720  0.443410  1.0  -0.1307
  C  C431  1  0.860380  0.295180  0.399520  1.0  0.0351
  C  C432  1  0.896570  0.303350  0.375920  1.0  -0.1586
  C  C433  1  0.927290  0.296830  0.395330  1.0  0.0099
  C  C434  1  0.921950  0.282630  0.439710  1.0  -0.1011
  C  C435  1  0.725280  0.613210  0.462940  1.0  0.0223
  C  C436  1  0.717350  0.575210  0.443610  1.0  -0.0994
  C  C437  1  0.703340  0.565200  0.399130  1.0  -0.0176
  C  C438  1  0.696260  0.593560  0.374580  1.0  -0.1644
  C  C439  1  0.703070  0.631150  0.393400  1.0  0.0161
  C  C440  1  0.717840  0.640680  0.437460  1.0  -0.1079
  C  C441  1  0.890510  0.618270  0.033310  1.0  0.0276
  C  C442  1  0.924120  0.646200  0.060550  1.0  -0.1394
  C  C443  1  0.929050  0.635990  0.104510  1.0  0.0132
  C  C444  1  0.899130  0.597250  0.122030  1.0  -0.0955
  C  C445  1  0.865020  0.568610  0.096260  1.0  0.0037
  C  C446  1  0.861280  0.579300  0.052030  1.0  -0.157
  C  C447  1  0.610960  0.887020  0.534920  1.0  -0.0078
  C  C448  1  0.572610  0.857850  0.555250  1.0  -0.1194
  C  C449  1  0.562200  0.862370  0.599640  1.0  0.0166
  C  C450  1  0.591710  0.898010  0.623420  1.0  -0.1227
  C  C451  1  0.629700  0.927710  0.604370  1.0  0.0222
  C  C452  1  0.638720  0.922150  0.560260  1.0  -0.1074
  C  C453  1  0.271220  0.887450  0.961580  1.0  -0.0412
  C  C454  1  0.277740  0.856760  0.941330  1.0  -0.115
  C  C455  1  0.294540  0.861780  0.897820  1.0  0.0313
  C  C456  1  0.303140  0.898260  0.874060  1.0  -0.1317
  C  C457  1  0.295540  0.928720  0.892640  1.0  -0.0045
  C  C458  1  0.279990  0.923000  0.936500  1.0  -0.1174
  C  C459  1  0.613700  0.720380  0.965870  1.0  0.0421
  C  C460  1  0.575830  0.712370  0.945600  1.0  -0.1432
  C  C461  1  0.564550  0.695450  0.902450  1.0  0.018
  C  C462  1  0.591810  0.686490  0.878640  1.0  -0.1287
  C  C463  1  0.630080  0.694730  0.897070  1.0  0.0085
  C  C464  1  0.640210  0.710950  0.940710  1.0  -0.1222
  C  C465  1  0.738970  0.327360  0.310220  1.0  0.7074
  C  C466  1  0.672130  0.412250  0.309100  1.0  0.711
  C  C467  1  0.739270  0.413880  0.180270  1.0  0.6973
  C  C468  1  0.584120  0.324400  0.182090  1.0  0.6989
  C  C469  1  0.587740  0.256980  0.310000  1.0  0.712
  C  C470  1  0.674550  0.260270  0.179720  1.0  0.7127
  C  C471  1  0.258040  0.581290  0.814880  1.0  0.716
  C  C472  1  0.329910  0.587390  0.685200  1.0  0.6973
  C  C473  1  0.255150  0.665710  0.687270  1.0  0.6826
  C  C474  1  0.409690  0.739250  0.687380  1.0  0.6959
  C  C475  1  0.412050  0.670730  0.816930  1.0  0.6977
  C  C476  1  0.322980  0.736550  0.816220  1.0  0.7172
  C  C477  1  0.135850  0.341560  0.144100  1.0  0.6706
  C  C478  1  0.108460  0.225130  0.250960  1.0  0.7044
  C  C479  1  0.245470  0.324280  0.207270  1.0  0.7099
  C  C480  1  0.201410  0.340690  0.357580  1.0  0.7002
  C  C481  1  0.075180  0.326310  0.295790  1.0  0.6903
  C  C482  1  0.217210  0.440160  0.250500  1.0  0.701
  C  C483  1  0.326650  0.077520  0.793130  1.0  0.7078
  C  C484  1  0.227840  0.112190  0.748360  1.0  0.705
  C  C485  1  0.345240  0.204610  0.855800  1.0  0.6664
  C  C486  1  0.324380  0.247170  0.706040  1.0  0.7115
  C  C487  1  0.348120  0.141550  0.642950  1.0  0.6618
  C  C488  1  0.442090  0.222270  0.749620  1.0  0.7007
  C  C489  1  0.141570  0.793290  0.353420  1.0  0.6679
  C  C490  1  0.112410  0.887420  0.250630  1.0  0.712
  C  C491  1  0.246290  0.925330  0.292140  1.0  0.7003
  C  C492  1  0.206130  0.861800  0.143530  1.0  0.7079
  C  C493  1  0.076210  0.754050  0.205390  1.0  0.705
  C  C494  1  0.220760  0.782130  0.247610  1.0  0.6971
  C  C495  1  0.654310  0.791310  0.143870  1.0  0.6858
  C  C496  1  0.770170  0.883600  0.250540  1.0  0.6994
  C  C497  1  0.669980  0.918700  0.204960  1.0  0.6929
  C  C498  1  0.652430  0.857860  0.356370  1.0  0.679
  C  C499  1  0.670720  0.748150  0.295050  1.0  0.6959
  C  C500  1  0.555350  0.775270  0.249480  1.0  0.6946
  C  C501  1  0.750410  0.073610  0.704620  1.0  0.7
  C  C502  1  0.885580  0.111730  0.748320  1.0  0.6952
  C  C503  1  0.857460  0.205190  0.644870  1.0  0.7114
  C  C504  1  0.919130  0.243460  0.794240  1.0  0.7108
  C  C505  1  0.789110  0.134120  0.853710  1.0  0.7084
  C  C506  1  0.776290  0.216650  0.749490  1.0  0.6962
  C  C507  1  0.790100  0.656950  0.644610  1.0  0.7059
  C  C508  1  0.782460  0.559440  0.749830  1.0  0.7098
  C  C509  1  0.920400  0.673910  0.695470  1.0  0.6824
  C  C510  1  0.869970  0.659200  0.852270  1.0  0.6958
  C  C511  1  0.753400  0.671240  0.799570  1.0  0.7018
  C  C512  1  0.887670  0.774370  0.748410  1.0  0.7144
  C  C513  1  0.079930  0.341360  0.036450  1.0  -0.1131
  C  C514  1  0.112990  0.369480  0.008720  1.0  0.0123
  C  C515  1  0.153500  0.386780  0.026220  1.0  -0.1252
  C  C516  1  0.161110  0.378090  0.069600  1.0  0.1144
  C  C517  1  0.127760  0.350100  0.097220  1.0  -0.1393
  C  C518  1  0.087240  0.331950  0.079830  1.0  -0.1125
  C  C519  1  0.224850  0.439430  0.087020  1.0  -0.0327
  C  C520  1  0.224320  0.381550  0.476260  1.0  -0.1287
  C  C521  1  0.252930  0.370280  0.491570  1.0  0.0188
  C  C522  1  0.263870  0.347240  0.462760  1.0  -0.1619
  C  C523  1  0.247010  0.336040  0.418950  1.0  0.177
  C  C524  1  0.218710  0.348450  0.404040  1.0  -0.2154
  C  C525  1  0.207640  0.370920  0.433460  1.0  -0.0944
  C  C526  1  0.286520  0.301030  0.403380  1.0  -0.0307
  C  C527  1  0.342290  0.258660  0.963700  1.0  -0.1122
  C  C528  1  0.371280  0.255390  0.991490  1.0  0.0228
  C  C529  1  0.390130  0.233490  0.974100  1.0  -0.193
  C  C530  1  0.382540  0.217230  0.930330  1.0  0.1286
  C  C531  1  0.353780  0.221480  0.902730  1.0  -0.1933
  C  C532  1  0.333750  0.242020  0.920300  1.0  -0.0948
  C  C533  1  0.436090  0.197150  0.937170  1.0  -0.0258
  C  C534  1  0.346930  0.086540  0.534180  1.0  -0.1243
  C  C535  1  0.376800  0.119080  0.507230  1.0  -0.015
  C  C536  1  0.396580  0.159370  0.525920  1.0  -0.1798
  C  C537  1  0.388160  0.167340  0.569760  1.0  0.1612
  C  C538  1  0.358090  0.134020  0.596220  1.0  -0.2028
  C  C539  1  0.337840  0.093920  0.577600  1.0  -0.1207
  C  C540  1  0.441520  0.241210  0.564160  1.0  -0.0311
  C  C541  1  0.763420  0.095370  0.973300  1.0  -0.114
  C  C542  1  0.737630  0.110990  0.987310  1.0  -0.0195
  C  C543  1  0.726290  0.131390  0.955430  1.0  -0.1771
  C  C544  1  0.741990  0.138260  0.911270  1.0  0.1786
  C  C545  1  0.768660  0.123190  0.898360  1.0  -0.1588
  C  C546  1  0.778310  0.101000  0.929370  1.0  -0.1038
  C  C547  1  0.706880  0.176940  0.891400  1.0  -0.0299
  C  C548  1  0.230580  0.898720  0.023240  1.0  -0.1209
  C  C549  1  0.256020  0.882690  0.009140  1.0  -0.0098
  C  C550  1  0.267190  0.862180  0.041080  1.0  -0.1723
  C  C551  1  0.251960  0.855960  0.085440  1.0  0.1907
  C  C552  1  0.225920  0.871750  0.098500  1.0  -0.1508
  C  C553  1  0.216190  0.893750  0.067330  1.0  -0.0901
  C  C554  1  0.286560  0.816820  0.105410  1.0  -0.0262
  C  C555  1  0.084210  0.730610  0.457040  1.0  -0.1097
  C  C556  1  0.116440  0.733770  0.484880  1.0  0.0254
  C  C557  1  0.157390  0.757120  0.468270  1.0  -0.1829
  C  C558  1  0.166350  0.776620  0.425870  1.0  0.1747
  C  C559  1  0.133320  0.773120  0.398770  1.0  -0.2003
  C  C560  1  0.092530  0.749900  0.415090  1.0  -0.1039
  C  C561  1  0.241080  0.802250  0.434770  1.0  -0.0293
  C  C562  1  0.897950  0.233760  0.526300  1.0  -0.1199
  C  C563  1  0.880400  0.257730  0.511690  1.0  -0.0149
  C  C564  1  0.857170  0.266280  0.542740  1.0  -0.1785
  C  C565  1  0.849900  0.249930  0.586650  1.0  0.1964
  C  C566  1  0.867560  0.225660  0.600250  1.0  -0.1609
  C  C567  1  0.892110  0.218520  0.570020  1.0  -0.1083
  C  C568  1  0.804940  0.278640  0.604550  1.0  -0.0321
  C  C569  1  0.724170  0.596540  0.544660  1.0  -0.1431
  C  C570  1  0.741850  0.624880  0.509480  1.0  0.0188
  C  C571  1  0.775110  0.664920  0.519000  1.0  -0.1716
  C  C572  1  0.791180  0.676680  0.562920  1.0  0.1917
  C  C573  1  0.772860  0.647620  0.598090  1.0  -0.2081
  C  C574  1  0.739150  0.607840  0.588240  1.0  -0.083
  C  C575  1  0.844920  0.745650  0.538170  1.0  -0.0493
  C  C576  1  0.867640  0.598360  0.955100  1.0  -0.1032
  C  C577  1  0.886480  0.629050  0.988380  1.0  0.0623
  C  C578  1  0.901350  0.670860  0.975480  1.0  -0.1585
  C  C579  1  0.896840  0.681760  0.931170  1.0  0.206
  C  C580  1  0.878030  0.650230  0.898690  1.0  -0.1274
  C  C581  1  0.864140  0.608860  0.911130  1.0  -0.0663
  C  C582  1  0.929950  0.755690  0.949630  1.0  -0.0258
  C  C583  1  0.608740  0.762150  0.027300  1.0  -0.0907
  C  C584  1  0.624990  0.738030  0.009790  1.0  0.0287
  C  C585  1  0.652910  0.732460  0.037350  1.0  -0.1739
  C  C586  1  0.663840  0.749850  0.081000  1.0  0.2032
  C  C587  1  0.646300  0.773300  0.097620  1.0  -0.2014
  C  C588  1  0.619110  0.779220  0.069920  1.0  -0.0774
  C  C589  1  0.710290  0.721770  0.092770  1.0  -0.0323
  C  C590  1  0.650370  0.913540  0.463390  1.0  -0.1125
  C  C591  1  0.621710  0.880460  0.490800  1.0  0.0212
  C  C592  1  0.604560  0.840010  0.473160  1.0  -0.1254
  C  C593  1  0.613980  0.832510  0.429990  1.0  0.1685
  C  C594  1  0.642780  0.865890  0.402880  1.0  -0.1822
  C  C595  1  0.660660  0.906330  0.420370  1.0  -0.1222
  C  C596  1  0.552760  0.768250  0.413020  1.0  -0.075
  C  C597  1  0.295580  0.552080  0.220110  1.0  -0.1331
  C  C598  1  0.283380  0.575190  0.246670  1.0  0.0268
  C  C599  1  0.248750  0.553740  0.274690  1.0  -0.1612
  C  C600  1  0.226380  0.509640  0.276720  1.0  0.1829
  C  C601  1  0.239330  0.486750  0.249770  1.0  -0.2112
  C  C602  1  0.273840  0.508630  0.221520  1.0  -0.098
  C  C603  1  0.177860  0.509790  0.331860  1.0  -0.0278
  C  C604  1  0.251710  0.701350  0.219280  1.0  -0.1331
  C  C605  1  0.286380  0.712670  0.246560  1.0  0.0493
  C  C606  1  0.299730  0.747230  0.274760  1.0  -0.1748
  C  C607  1  0.278960  0.770570  0.276030  1.0  0.173
  C  C608  1  0.244120  0.758870  0.247890  1.0  -0.1943
  C  C609  1  0.231020  0.724120  0.219850  1.0  -0.1039
  C  C610  1  0.325650  0.816570  0.334040  1.0  -0.0164
  C  C611  1  0.443800  0.744140  0.220440  1.0  -0.1309
  C  C612  1  0.420380  0.709320  0.247480  1.0  0.0312
  C  C613  1  0.441450  0.695890  0.275780  1.0  -0.1878
  C  C614  1  0.485530  0.716710  0.277320  1.0  0.1856
  C  C615  1  0.508760  0.751820  0.249530  1.0  -0.2029
  C  C616  1  0.487230  0.764940  0.221340  1.0  -0.1066
  C  C617  1  0.484610  0.668760  0.333890  1.0  -0.0388
  C  C618  1  0.554250  0.254510  0.777550  1.0  -0.1284
  C  C619  1  0.577270  0.289620  0.750730  1.0  0.0323
  C  C620  1  0.555700  0.302920  0.723020  1.0  -0.1723
  C  C621  1  0.511560  0.281590  0.721710  1.0  0.1915
  C  C622  1  0.488750  0.246230  0.749330  1.0  -0.2112
  C  C623  1  0.510780  0.233280  0.776970  1.0  -0.1021
  C  C624  1  0.511580  0.328790  0.664740  1.0  -0.0441
  C  C625  1  0.745150  0.297150  0.778670  1.0  -0.1318
  C  C626  1  0.711540  0.286950  0.750140  1.0  0.0402
  C  C627  1  0.699210  0.253540  0.720510  1.0  -0.1761
  C  C628  1  0.719940  0.230180  0.719100  1.0  0.1741
  C  C629  1  0.753420  0.240410  0.748840  1.0  -0.1791
  C  C630  1  0.765610  0.274140  0.778190  1.0  -0.1154
  C  C631  1  0.676850  0.187960  0.656940  1.0  -0.031
  C  C632  1  0.700120  0.447180  0.727580  1.0  -0.132
  C  C633  1  0.714490  0.424500  0.751780  1.0  0.0314
  C  C634  1  0.751800  0.446680  0.775930  1.0  -0.171
  C  C635  1  0.774760  0.490850  0.775900  1.0  0.1979
  C  C636  1  0.759720  0.513000  0.751060  1.0  -0.1616
  C  C637  1  0.722220  0.490650  0.727450  1.0  -0.0785
  C  C638  1  0.826790  0.492470  0.827130  1.0  -0.0328
  C  C639  1  0.483930  0.276850  0.114680  1.0  -0.1279
  C  C640  1  0.470130  0.305520  0.120070  1.0  0.0086
  C  C641  1  0.494900  0.341760  0.144930  1.0  -0.1493
  C  C642  1  0.532960  0.349440  0.164630  1.0  0.1786
  C  C643  1  0.546040  0.319740  0.159310  1.0  -0.2041
  C  C644  1  0.521060  0.283710  0.134170  1.0  -0.1128
  C  C645  1  0.545290  0.415220  0.196690  1.0  -0.0294
  C  C646  1  0.498310  0.206590  0.393480  1.0  -0.1065
  C  C647  1  0.474360  0.165220  0.377830  1.0  0.0332
  C  C648  1  0.490880  0.153930  0.341440  1.0  -0.1642
  C  C649  1  0.528510  0.182860  0.319990  1.0  0.2035
  C  C650  1  0.550760  0.224470  0.335300  1.0  -0.1588
  C  C651  1  0.535670  0.235450  0.372710  1.0  -0.0802
  C  C652  1  0.523320  0.130460  0.266700  1.0  -0.0259
  C  C653  1  0.662620  0.155280  0.149730  1.0  -0.1122
  C  C654  1  0.694050  0.165190  0.117690  1.0  0.0373
  C  C655  1  0.718020  0.207430  0.104820  1.0  -0.1888
  C  C656  1  0.711580  0.238900  0.123690  1.0  0.1973
  C  C657  1  0.679950  0.227880  0.155790  1.0  -0.1738
  C  C658  1  0.655430  0.185910  0.167880  1.0  -0.088
  C  C659  1  0.767540  0.293450  0.079250  1.0  -0.027
  C  C660  1  0.283530  0.492950  0.609030  1.0  -0.1157
  C  C661  1  0.307720  0.474420  0.618710  1.0  -0.0146
  C  C662  1  0.342070  0.495890  0.647310  1.0  -0.1327
  C  C663  1  0.351180  0.534080  0.667690  1.0  0.1937
  C  C664  1  0.325320  0.551120  0.658960  1.0  -0.1387
  C  C665  1  0.292340  0.530800  0.628690  1.0  -0.0821
  C  C666  1  0.413980  0.541780  0.702920  1.0  -0.0226
  C  C667  1  0.820110  0.295860  0.332180  1.0  -0.1408
  C  C668  1  0.828050  0.302650  0.377970  1.0  -0.0087
  C  C669  1  0.805520  0.317290  0.402500  1.0  -0.1625
  C  C670  1  0.775760  0.325430  0.381680  1.0  0.1973
  C  C671  1  0.769120  0.319170  0.335250  1.0  -0.1951
  C  C672  1  0.791550  0.304250  0.311270  1.0  -0.1057
  C  C673  1  0.758850  0.346540  0.452060  1.0  -0.0365
  C  C674  1  0.678660  0.487640  0.400050  1.0  -0.1465
  C  C675  1  0.696950  0.525910  0.377350  1.0  -0.0058
  C  C676  1  0.708920  0.526730  0.332810  1.0  -0.1569
  C  C677  1  0.701750  0.490150  0.310370  1.0  0.1781
  C  C678  1  0.681700  0.451500  0.333160  1.0  -0.1847
  C  C679  1  0.671210  0.450970  0.378280  1.0  -0.104
  C  C680  1  0.735710  0.529130  0.242500  1.0  -0.0067
  C  C681  1  0.790430  0.513240  0.110710  1.0  -0.1213
  C  C682  1  0.833050  0.527700  0.115890  1.0  0.0217
  C  C683  1  0.845040  0.503370  0.140880  1.0  -0.1581
  C  C684  1  0.815160  0.465340  0.161140  1.0  0.1506
  C  C685  1  0.772210  0.451730  0.156380  1.0  -0.1748
  C  C686  1  0.760600  0.476120  0.130840  1.0  -0.0943
  C  C687  1  0.869480  0.454100  0.192730  1.0  -0.0289
  C  C688  1  0.203020  0.699310  0.599710  1.0  -0.1103
  C  C689  1  0.162210  0.683970  0.616450  1.0  0.0173
  C  C690  1  0.152150  0.659930  0.655880  1.0  -0.1926
  C  C691  1  0.181730  0.653730  0.679420  1.0  0.198
  C  C692  1  0.222300  0.669610  0.661900  1.0  -0.1936
  C  C693  1  0.232060  0.691750  0.621630  1.0  -0.0911
  C  C694  1  0.137290  0.626900  0.745040  1.0  -0.0209
  C  C695  1  0.206430  0.484600  0.888010  1.0  -0.1258
  C  C696  1  0.163880  0.467970  0.878990  1.0  -0.0033
  C  C697  1  0.152260  0.489750  0.849340  1.0  -0.1483
  C  C698  1  0.182360  0.526940  0.828050  1.0  0.1934
  C  C699  1  0.225010  0.543370  0.838050  1.0  -0.1795
  C  C700  1  0.236420  0.521620  0.867890  1.0  -0.0785
  C  C701  1  0.130310  0.526890  0.778400  1.0  -0.0321
  C  C702  1  0.520020  0.827760  0.666880  1.0  -0.1056
  C  C703  1  0.523660  0.831950  0.620150  1.0  0.0147
  C  C704  1  0.487830  0.804620  0.595030  1.0  -0.1846
  C  C705  1  0.450040  0.774130  0.615600  1.0  0.2071
  C  C706  1  0.447740  0.771030  0.662580  1.0  -0.2098
  C  C707  1  0.483150  0.798360  0.687360  1.0  -0.0856
  C  C708  1  0.415710  0.748560  0.543630  1.0  -0.0266
  C  C709  1  0.278990  0.788710  0.890220  1.0  -0.1132
  C  C710  1  0.302760  0.831160  0.878630  1.0  0.0531
  C  C711  1  0.335070  0.842230  0.847240  1.0  -0.1361
  C  C712  1  0.343280  0.812170  0.827620  1.0  0.2126
  C  C713  1  0.318180  0.769780  0.839170  1.0  -0.167
  C  C714  1  0.286210  0.758710  0.870420  1.0  -0.1056
  C  C715  1  0.400380  0.864920  0.782760  1.0  -0.0272
  C  C716  1  0.513450  0.718920  0.882890  1.0  -0.1325
  C  C717  1  0.524510  0.687930  0.882010  1.0  0.0104
  C  C718  1  0.497290  0.649890  0.861360  1.0  -0.117
  C  C719  1  0.459450  0.642600  0.841350  1.0  0.176
  C  C720  1  0.449430  0.674860  0.841230  1.0  -0.2101
  C  C721  1  0.476810  0.712650  0.862530  1.0  -0.111
  C  C722  1  0.438970  0.570480  0.824210  1.0  -0.0436
  C  C723  1  0.026440  0.914130  0.269550  1.0  -0.1131
  C  C724  1  0.043490  0.955130  0.253060  1.0  0.0378
  C  C725  1  0.084390  0.973630  0.235650  1.0  -0.1629
  C  C726  1  0.107640  0.952620  0.234960  1.0  0.2146
  C  C727  1  0.089440  0.911400  0.251410  1.0  -0.1949
  C  C728  1  0.048910  0.892940  0.268800  1.0  -0.103
  C  C729  1  0.169140  0.013820  0.204730  1.0  -0.0114
  C  C730  1  0.081430  0.112450  0.269930  1.0  -0.1178
  C  C731  1  0.040790  0.088460  0.252620  1.0  0.04
  C  C732  1  0.022480  0.110750  0.234460  1.0  -0.1582
  C  C733  1  0.043490  0.155050  0.233560  1.0  0.2066
  C  C734  1  0.084330  0.178130  0.251080  1.0  -0.2038
  C  C735  1  0.102510  0.156040  0.269190  1.0  -0.0949
  C  C736  1  0.983680  0.155070  0.199060  1.0  -0.0246
  C  C737  1  0.882890  0.964990  0.277690  1.0  -0.1337
  C  C738  1  0.906330  0.952050  0.252580  1.0  0.0263
  C  C739  1  0.884620  0.916150  0.226210  1.0  -0.1591
  C  C740  1  0.840360  0.893180  0.224740  1.0  0.1779
  C  C741  1  0.817190  0.906730  0.250470  1.0  -0.2237
  C  C742  1  0.839260  0.942820  0.276610  1.0  -0.0938
  C  C743  1  0.840740  0.842720  0.172480  1.0  -0.0197
  C  C744  1  0.115090  0.085550  0.765770  1.0  -0.1302
  C  C745  1  0.091270  0.044700  0.749000  1.0  0.0421
  C  C746  1  0.113670  0.026320  0.731290  1.0  -0.1314
  C  C747  1  0.157940  0.047320  0.730700  1.0  0.1961
  C  C748  1  0.180880  0.088230  0.747980  1.0  -0.1964
  C  C749  1  0.158700  0.106610  0.765380  1.0  -0.0994
  C  C750  1  0.158190  0.987230  0.697260  1.0  -0.0265
  C  C751  1  0.918870  0.031730  0.774470  1.0  -0.1324
  C  C752  1  0.956000  0.046110  0.750380  1.0  0.0216
  C  C753  1  0.970200  0.082690  0.725150  1.0  -0.152
  C  C754  1  0.948160  0.104930  0.723900  1.0  0.1842
  C  C755  1  0.910500  0.089700  0.748300  1.0  -0.2188
  C  C756  1  0.896580  0.053040  0.773400  1.0  -0.0726
  C  C757  1  0.000930  0.158800  0.675890  1.0  -0.0288
  C  C758  1  0.920340  0.886790  0.776130  1.0  -0.1352
  C  C759  1  0.955780  0.909620  0.749510  1.0  0.015
  C  C760  1  0.969030  0.887480  0.722470  1.0  -0.1459
  C  C761  1  0.947550  0.843270  0.721830  1.0  0.1742
  C  C762  1  0.911600  0.820920  0.748440  1.0  -0.1688
  C  C763  1  0.898770  0.843160  0.775790  1.0  -0.096
  C  C764  1  0.000710  0.842070  0.675060  1.0  -0.0252
  C  C765  1  0.314260  0.323970  0.113400  1.0  -0.1299
  C  C766  1  0.333333  0.303120  0.131930  1.0  0.027
  C  C767  1  0.324040  0.289440  0.176380  1.0  -0.1653
  C  C768  1  0.295630  0.295990  0.202190  1.0  0.1844
  C  C769  1  0.276790  0.317310  0.182870  1.0  -0.2127
  C  C770  1  0.286770  0.331210  0.138490  1.0  -0.1047
  C  C771  1  0.303480  0.260160  0.266520  1.0  -0.0402
  C  C772  1  0.962440  0.292210  0.325080  1.0  -0.1272
  C  C773  1  0.965320  0.305420  0.369440  1.0  0.0358
  C  C774  1  0.004750  0.326580  0.389320  1.0  -0.1732
  C  C775  1  0.041120  0.334300  0.365900  1.0  0.1731
  C  C776  1  0.037660  0.320330  0.321150  1.0  -0.2075
  C  C777  1  0.997990  0.299310  0.301430  1.0  -0.0913
  C  C778  1  0.085120  0.368820  0.430740  1.0  -0.0194
  C  C779  1  0.316900  0.995090  0.384740  1.0  -0.1234
  C  C780  1  0.335280  0.035040  0.366280  1.0  0.0091
  C  C781  1  0.324250  0.039340  0.322530  1.0  -0.1623
  C  C782  1  0.295040  0.004250  0.297320  1.0  0.1792
  C  C783  1  0.277240  0.964020  0.316440  1.0  -0.2296
  C  C784  1  0.288700  0.960270  0.360210  1.0  -0.103
  C  C785  1  0.299500  0.047900  0.234230  1.0  -0.0493
  C  C786  1  0.702970  0.031380  0.175630  1.0  -0.1445
  C  C787  1  0.690500  0.028490  0.130950  1.0  0.0173
  C  C788  1  0.670330  0.989040  0.110930  1.0  -0.1501
  C  C789  1  0.663060  0.952820  0.134380  1.0  0.167
  C  C790  1  0.676110  0.956280  0.179470  1.0  -0.1916
  C  C791  1  0.696090  0.995890  0.199410  1.0  -0.0775
  C  C792  1  0.631810  0.909050  0.068530  1.0  -0.025
  C  C793  1  0.292440  0.327900  0.678790  1.0  -0.1334
  C  C794  1  0.301930  0.335360  0.633230  1.0  -0.0041
  C  C795  1  0.319090  0.313790  0.611800  1.0  -0.1425
  C  C796  1  0.326330  0.284690  0.634780  1.0  0.1769
  C  C797  1  0.316790  0.277630  0.680850  1.0  -0.1921
  C  C798  1  0.299570  0.299280  0.702200  1.0  -0.0918
  C  C799  1  0.349520  0.266270  0.566460  1.0  -0.0218
  C  C800  1  0.294710  0.964890  0.821020  1.0  -0.1361
  C  C801  1  0.304280  0.966920  0.866620  1.0  0.0169
  C  C802  1  0.321590  0.005780  0.887820  1.0  -0.164
  C  C803  1  0.328630  0.042070  0.864720  1.0  0.2016
  C  C804  1  0.319320  0.039570  0.818560  1.0  -0.1855
  C  C805  1  0.302070  0.000620  0.797420  1.0  -0.0883
  C  C806  1  0.348170  0.082830  0.933560  1.0  -0.0203
  C  C807  1  0.005960  0.685240  0.112310  1.0  -0.123
  C  C808  1  0.966240  0.665580  0.131500  1.0  0.0085
  C  C809  1  0.962410  0.674490  0.176240  1.0  -0.0995
  C  C810  1  0.997660  0.703230  0.201580  1.0  0.1783
  C  C811  1  0.037520  0.722890  0.181380  1.0  -0.2077
  C  C812  1  0.040880  0.713150  0.136800  1.0  -0.1066
  C  C813  1  0.955060  0.693340  0.267490  1.0  -0.0296
  C  C814  1  0.009990  0.658630  0.656220  1.0  -0.1311
  C  C815  1  0.029690  0.689720  0.623630  1.0  0.023
  C  C816  1  0.013630  0.716260  0.615560  1.0  -0.2016
  C  C817  1  0.977850  0.711360  0.637840  1.0  0.1421
  C  C818  1  0.958530  0.680070  0.671040  1.0  -0.2096
  C  C819  1  0.975270  0.654140  0.679770  1.0  -0.0737
  C  C820  1  0.971220  0.759340  0.587270  1.0  -0.0081
  C  C821  1  0.988980  0.313090  0.887010  1.0  -0.1286
  C  C822  1  0.028800  0.331520  0.868240  1.0  0.0211
  C  C823  1  0.032880  0.321320  0.824110  1.0  -0.1726
  C  C824  1  0.997710  0.292720  0.798790  1.0  0.1935
  C  C825  1  0.957650  0.274490  0.818390  1.0  -0.2177
  C  C826  1  0.954050  0.285290  0.862470  1.0  -0.1085
  C  C827  1  0.040950  0.299030  0.734520  1.0  -0.0368
  C  C828  1  0.707170  0.671110  0.323400  1.0  -0.1436
  C  C829  1  0.693850  0.660160  0.367600  1.0  0.0275
  C  C830  1  0.671690  0.677290  0.387640  1.0  -0.1566
  C  C831  1  0.663040  0.705440  0.364530  1.0  0.1799
  C  C832  1  0.677380  0.716870  0.320040  1.0  -0.1996
  C  C833  1  0.699370  0.699290  0.300130  1.0  -0.0979
  C  C834  1  0.625900  0.711600  0.428860  1.0  -0.0179
  C  C835  1  0.680410  0.004400  0.611680  1.0  -0.1318
  C  C836  1  0.660330  0.964700  0.630850  1.0  0.016
  C  C837  1  0.669730  0.960490  0.675310  1.0  -0.1657
  C  C838  1  0.699090  0.995400  0.700520  1.0  0.1892
  C  C839  1  0.718990  0.035270  0.680480  1.0  -0.2039
  C  C840  1  0.709000  0.039030  0.636090  1.0  -0.1079
  C  C841  1  0.689180  0.952390  0.766100  1.0  -0.0293
  C  C842  1  0.703220  0.717440  0.872710  1.0  -0.1432
  C  C843  1  0.660640  0.688310  0.870350  1.0  -0.0014
  C  C844  1  0.647840  0.653320  0.842720  1.0  -0.1619
  C  C845  1  0.677150  0.646840  0.818440  1.0  0.1813
  C  C846  1  0.720120  0.676320  0.822250  1.0  -0.2196
  C  C847  1  0.732290  0.711510  0.849320  1.0  -0.1081
  C  C848  1  0.622290  0.581780  0.786700  1.0  -0.0408
  O  O849  1  0.665770  0.332470  0.244930  1.0  -1.2826
  O  O850  1  0.744540  0.333830  0.268560  1.0  -0.6253
  O  O851  1  0.671810  0.381800  0.329320  1.0  -0.6226
  O  O852  1  0.703970  0.410610  0.187400  1.0  -0.6153
  O  O853  1  0.707900  0.326530  0.329540  1.0  -0.6247
  O  O854  1  0.746930  0.386070  0.194510  1.0  -0.6208
  O  O855  1  0.665620  0.410670  0.267440  1.0  -0.604
  O  O856  1  0.586720  0.292060  0.189910  1.0  -0.6205
  O  O857  1  0.616410  0.289340  0.329380  1.0  -0.6209
  O  O858  1  0.612830  0.360110  0.194610  1.0  -0.626
  O  O859  1  0.589280  0.251970  0.268320  1.0  -0.6211
  O  O860  1  0.638650  0.252190  0.192950  1.0  -0.6271
  O  O861  1  0.706540  0.295120  0.188440  1.0  -0.6203
  O  O862  1  0.331280  0.663590  0.751800  1.0  -1.2957
  O  O863  1  0.251000  0.610190  0.803220  1.0  -0.6164
  O  O864  1  0.335830  0.587590  0.726890  1.0  -0.6164
  O  O865  1  0.287100  0.668750  0.667620  1.0  -0.6194
  O  O866  1  0.292600  0.583560  0.805810  1.0  -0.622
  O  O867  1  0.250820  0.660020  0.729090  1.0  -0.6203
  O  O868  1  0.326740  0.616620  0.666560  1.0  -0.6147
  O  O869  1  0.408890  0.743230  0.729360  1.0  -0.6182
  O  O870  1  0.383610  0.635320  0.803380  1.0  -0.6294
  O  O871  1  0.379470  0.708520  0.667550  1.0  -0.6238
  O  O872  1  0.409860  0.703220  0.808620  1.0  -0.6253
  O  O873  1  0.358740  0.743790  0.803450  1.0  -0.6124
  O  O874  1  0.290680  0.701680  0.808180  1.0  -0.6201
  O  O875  1  0.163650  0.332280  0.251010  1.0  -1.2182
  O  O876  1  0.172810  0.362150  0.158340  1.0  -0.6102
  O  O877  1  0.094140  0.245420  0.230390  1.0  -0.6269
  O  O878  1  0.226150  0.302310  0.241090  1.0  -0.629
  O  O879  1  0.107030  0.314790  0.169240  1.0  -0.6175
  O  O880  1  0.237500  0.351660  0.192650  1.0  -0.6311
  O  O881  1  0.143240  0.244280  0.271480  1.0  -0.627
  O  O882  1  0.186080  0.362580  0.344250  1.0  -0.6214
  O  O883  1  0.071340  0.304800  0.261090  1.0  -0.6248
  O  O884  1  0.201580  0.313160  0.332090  1.0  -0.6252
  O  O885  1  0.111000  0.352480  0.310160  1.0  -0.6146
  O  O886  1  0.189840  0.420230  0.279970  1.0  -0.6181
  O  O887  1  0.225940  0.420680  0.221570  1.0  -0.6009
  O  O888  1  0.334410  0.166820  0.749350  1.0  -1.1751
  O  O889  1  0.353560  0.113030  0.807690  1.0  -0.6144
  O  O890  1  0.248210  0.099140  0.725690  1.0  -0.6208
  O  O891  1  0.316530  0.204220  0.831780  1.0  -0.6097
  O  O892  1  0.305830  0.074400  0.758040  1.0  -0.6171
  O  O893  1  0.367170  0.189950  0.840630  1.0  -0.6161
  O  O894  1  0.246830  0.145570  0.771380  1.0  -0.6272
  O  O895  1  0.351860  0.239390  0.691580  1.0  -0.611
  O  O896  1  0.319770  0.112470  0.666667  1.0  -0.6102
  O  O897  1  0.303340  0.228830  0.740760  1.0  -0.6286
  O  O898  1  0.368430  0.178220  0.658280  1.0  -0.6229
  O  O899  1  0.421670  0.233890  0.725540  1.0  -0.6046
  O  O900  1  0.422800  0.190140  0.774010  1.0  -0.6062
  O  O901  1  0.166200  0.834700  0.248560  1.0  -1.138
  O  O902  1  0.178360  0.810140  0.338240  1.0  -0.6175
  O  O903  1  0.099800  0.854850  0.274780  1.0  -0.6307
  O  O904  1  0.227260  0.927260  0.257620  1.0  -0.626
  O  O905  1  0.112710  0.794000  0.330680  1.0  -0.6211
  O  O906  1  0.239020  0.890270  0.306980  1.0  -0.6265
  O  O907  1  0.144330  0.899860  0.225630  1.0  -0.6182
  O  O908  1  0.191060  0.824700  0.157510  1.0  -0.6128
  O  O909  1  0.074120  0.772390  0.240440  1.0  -0.6185
  O  O910  1  0.204050  0.889440  0.167060  1.0  -0.6274
  O  O911  1  0.111340  0.762250  0.189740  1.0  -0.6312
  O  O912  1  0.187090  0.768100  0.225620  1.0  -0.6018
  O  O913  1  0.234340  0.815860  0.269300  1.0  -0.5887
  O  O914  1  0.663130  0.829900  0.250030  1.0  -1.1719
  O  O915  1  0.632790  0.807190  0.156860  1.0  -0.6158
  O  O916  1  0.750270  0.849030  0.229870  1.0  -0.6281
  O  O917  1  0.691600  0.922440  0.239590  1.0  -0.6342
  O  O918  1  0.681590  0.790960  0.169600  1.0  -0.6225
  O  O919  1  0.643430  0.882890  0.190770  1.0  -0.6261
  O  O920  1  0.750620  0.898680  0.271410  1.0  -0.6317
  O  O921  1  0.631890  0.820960  0.341970  1.0  -0.623
  O  O922  1  0.692520  0.766630  0.260830  1.0  -0.6219
  O  O923  1  0.680090  0.886570  0.331740  1.0  -0.6177
  O  O924  1  0.643660  0.756730  0.309060  1.0  -0.6105
  O  O925  1  0.575250  0.766830  0.278030  1.0  -0.6072
  O  O926  1  0.574870  0.803730  0.220840  1.0  -0.6187
  O  O927  1  0.830180  0.163220  0.749290  1.0  -1.1294
  O  O928  1  0.758130  0.108860  0.689880  1.0  -0.6247
  O  O929  1  0.852410  0.097350  0.771660  1.0  -0.6167
  O  O930  1  0.885320  0.203690  0.668490  1.0  -0.628
  O  O931  1  0.769340  0.071100  0.738940  1.0  -0.6205
  O  O932  1  0.820150  0.188930  0.658450  1.0  -0.6107
  O  O933  1  0.897800  0.144640  0.725130  1.0  -0.6145
  O  O934  1  0.883860  0.234760  0.809830  1.0  -0.6219
  O  O935  1  0.791890  0.107080  0.829820  1.0  -0.6251
  O  O936  1  0.921610  0.225670  0.758990  1.0  -0.6211
  O  O937  1  0.803940  0.171390  0.840390  1.0  -0.6113
  O  O938  1  0.808700  0.229310  0.773390  1.0  -0.6025
  O  O939  1  0.763480  0.183850  0.726290  1.0  -0.5942
  O  O940  1  0.834250  0.666460  0.748490  1.0  -1.2719
  O  O941  1  0.827570  0.685370  0.651350  1.0  -0.634
  O  O942  1  0.762110  0.578260  0.743700  1.0  -0.6243
  O  O943  1  0.904510  0.647880  0.727440  1.0  -0.6198
  O  O944  1  0.767590  0.634930  0.676850  1.0  -0.6425
  O  O945  1  0.903840  0.695000  0.683280  1.0  -0.6214
  O  O946  1  0.821770  0.579640  0.754770  1.0  -0.6196
  O  O947  1  0.858950  0.686220  0.845730  1.0  -0.6347
  O  O948  1  0.744760  0.644810  0.768380  1.0  -0.6229
  O  O949  1  0.872140  0.638070  0.820040  1.0  -0.6206
  O  O950  1  0.790740  0.693980  0.812500  1.0  -0.6261
  O  O951  1  0.872620  0.754850  0.784760  1.0  -0.6231
  O  O952  1  0.882620  0.754710  0.712050  1.0  -0.6048
  O  O953  1  0.202400  0.395130  0.084080  1.0  -0.2897
  O  O954  1  0.258020  0.313820  0.388990  1.0  -0.2854
  O  O955  1  0.402270  0.195960  0.913290  1.0  -0.2587
  O  O956  1  0.408450  0.207860  0.588090  1.0  -0.2849
  O  O957  1  0.731940  0.159430  0.878850  1.0  -0.286
  O  O958  1  0.261990  0.834860  0.117970  1.0  -0.2867
  O  O959  1  0.207520  0.800400  0.409760  1.0  -0.277
  O  O960  1  0.826010  0.257220  0.618220  1.0  -0.286
  O  O961  1  0.824720  0.716540  0.573330  1.0  -0.2754
  O  O962  1  0.910700  0.723090  0.917620  1.0  -0.2711
  O  O963  1  0.691070  0.744160  0.109140  1.0  -0.2855
  O  O964  1  0.597080  0.791290  0.415310  1.0  -0.3227
  O  O965  1  0.191300  0.487360  0.304450  1.0  -0.2772
  O  O966  1  0.291350  0.804970  0.304700  1.0  -0.2728
  O  O967  1  0.507420  0.703680  0.305340  1.0  -0.2762
  O  O968  1  0.489220  0.294070  0.693660  1.0  -0.2724
  O  O969  1  0.708800  0.197130  0.688810  1.0  -0.2605
  O  O970  1  0.811720  0.514050  0.800690  1.0  -0.2757
  O  O971  1  0.558040  0.385130  0.190570  1.0  -0.2601
  O  O972  1  0.545450  0.171790  0.283870  1.0  -0.2648
  O  O973  1  0.735410  0.281280  0.111660  1.0  -0.2629
  O  O974  1  0.385410  0.556430  0.696460  1.0  -0.2802
  O  O975  1  0.753030  0.340510  0.405120  1.0  -0.2635
  O  O976  1  0.714710  0.490610  0.265980  1.0  -0.2596
  O  O977  1  0.826470  0.440870  0.187190  1.0  -0.2704
  O  O978  1  0.171820  0.631220  0.719780  1.0  -0.2801
  O  O979  1  0.171700  0.547540  0.795570  1.0  -0.2722
  O  O980  1  0.414110  0.746860  0.591100  1.0  -0.2624
  O  O981  1  0.374910  0.822500  0.795660  1.0  -0.2668
  O  O982  1  0.431570  0.604550  0.820550  1.0  -0.2647
  O  O983  1  0.148860  0.971430  0.218730  1.0  -0.2718
  O  O984  1  0.025170  0.177350  0.215760  1.0  -0.2629
  O  O985  1  0.818220  0.857250  0.198150  1.0  -0.2664
  O  O986  1  0.180370  0.028830  0.713700  1.0  -0.2605
  O  O987  1  0.962310  0.141910  0.699070  1.0  -0.2727
  O  O988  1  0.961260  0.820240  0.696680  1.0  -0.2767
  O  O989  1  0.285540  0.282470  0.246760  1.0  -0.2651
  O  O990  1  0.080940  0.354690  0.385840  1.0  -0.2764
  O  O991  1  0.283240  0.007590  0.253470  1.0  -0.2615
  O  O992  1  0.644090  0.913150  0.114120  1.0  -0.2748
  O  O993  1  0.341770  0.261300  0.613230  1.0  -0.2647
  O  O994  1  0.343550  0.080800  0.886300  1.0  -0.2826
  O  O995  1  0.994860  0.712800  0.246510  1.0  -0.257
  O  O996  1  0.961040  0.737300  0.628540  1.0  -0.2769
  O  O997  1  0.000820  0.281840  0.754460  1.0  -0.2586
  O  O998  1  0.641300  0.723440  0.384570  1.0  -0.2761
  O  O999  1  0.709000  0.992250  0.745240  1.0  -0.2465
  O  O1000  1  0.665390  0.611680  0.791200  1.0  -0.2563
