# generated using pymatgen
data_Zn4H42C59O13
_symmetry_space_group_name_H-M   'P 1'
_cell_length_a   29.95250000
_cell_length_b   29.95250000
_cell_length_c   29.95250000
_cell_angle_alpha   90.00000000
_cell_angle_beta   90.00000000
_cell_angle_gamma   90.00000000
_symmetry_Int_Tables_number   1
_chemical_formula_structural   Zn4H42C59O13
_chemical_formula_sum   'Zn24 H252 C354 O78'
_cell_volume   26871.95295533
_cell_formula_units_Z   6
loop_
 _symmetry_equiv_pos_site_id
 _symmetry_equiv_pos_as_xyz
  1  'x, y, z'
loop_
 _atom_site_type_symbol
 _atom_site_label
 _atom_site_symmetry_multiplicity
 _atom_site_fract_x
 _atom_site_fract_y
 _atom_site_fract_z
 _atom_site_occupancy
 _atom_site_charge
  Zn  Zn1  1  0.500000  0.053320  0.822640  1.0  1.1022
  Zn  Zn2  1  0.177360  0.500000  0.053320  1.0  1.1053
  Zn  Zn3  1  0.000000  0.251390  0.446720  1.0  1.1059
  Zn  Zn4  1  0.177360  0.500000  0.946680  1.0  1.1052
  Zn  Zn5  1  0.822640  0.500000  0.946680  1.0  1.1055
  Zn  Zn6  1  0.000000  0.251390  0.553280  1.0  1.1061
  Zn  Zn7  1  0.553280  0.000000  0.748610  1.0  1.105
  Zn  Zn8  1  0.446720  0.000000  0.748610  1.0  1.1051
  Zn  Zn9  1  0.500000  0.053320  0.177360  1.0  1.1025
  Zn  Zn10  1  0.053320  0.177360  0.500000  1.0  1.1027
  Zn  Zn11  1  0.946680  0.177360  0.500000  1.0  1.1029
  Zn  Zn12  1  0.553280  0.000000  0.251390  1.0  1.1042
  Zn  Zn13  1  0.000000  0.748610  0.446720  1.0  1.1062
  Zn  Zn14  1  0.946680  0.822640  0.500000  1.0  1.103
  Zn  Zn15  1  0.500000  0.946680  0.822640  1.0  1.1027
  Zn  Zn16  1  0.251390  0.553280  0.000000  1.0  1.1034
  Zn  Zn17  1  0.748610  0.446720  0.000000  1.0  1.1036
  Zn  Zn18  1  0.053320  0.822640  0.500000  1.0  1.1027
  Zn  Zn19  1  0.748610  0.553280  0.000000  1.0  1.1035
  Zn  Zn20  1  0.446720  0.000000  0.251390  1.0  1.1046
  Zn  Zn21  1  0.251390  0.446720  0.000000  1.0  1.1036
  Zn  Zn22  1  0.822640  0.500000  0.053320  1.0  1.1055
  Zn  Zn23  1  0.000000  0.748610  0.553280  1.0  1.1064
  Zn  Zn24  1  0.500000  0.946680  0.177360  1.0  1.1031
  H  H25  1  0.238900  0.112000  0.754400  1.0  0.1152
  H  H26  1  0.112000  0.754400  0.761100  1.0  0.1136
  H  H27  1  0.467100  0.565000  0.000000  1.0  0.1604
  H  H28  1  0.654300  0.273800  0.173700  1.0  0.109
  H  H29  1  0.173700  0.345700  0.273800  1.0  0.1098
  H  H30  1  0.809500  0.323700  0.681800  1.0  0.1144
  H  H31  1  0.792000  0.840700  0.349200  1.0  0.1119
  H  H32  1  0.334900  0.312200  0.139700  1.0  0.1116
  H  H33  1  0.908200  0.287400  0.737000  1.0  0.1064
  H  H34  1  0.609800  0.434700  0.000000  1.0  0.1145
  H  H35  1  0.779200  0.877900  0.293600  1.0  0.1068
  H  H36  1  0.208000  0.840700  0.349200  1.0  0.1103
  H  H37  1  0.500000  0.066200  0.038600  1.0  0.1195
  H  H38  1  0.263000  0.091800  0.712600  1.0  0.105
  H  H39  1  0.792000  0.840700  0.650800  1.0  0.1129
  H  H40  1  0.066200  0.038600  0.500000  1.0  0.1207
  H  H41  1  0.712600  0.737000  0.908200  1.0  0.1088
  H  H42  1  0.737000  0.091800  0.287400  1.0  0.1056
  H  H43  1  0.403400  0.153300  0.839400  1.0  0.1168
  H  H44  1  0.653600  0.097600  0.732100  1.0  0.1181
  H  H45  1  0.902400  0.267900  0.653600  1.0  0.1186
  H  H46  1  0.687800  0.860300  0.665100  1.0  0.1107
  H  H47  1  0.159300  0.650800  0.792000  1.0  0.1105
  H  H48  1  0.665100  0.312200  0.139700  1.0  0.1113
  H  H49  1  0.312200  0.860300  0.334900  1.0  0.1102
  H  H50  1  0.267900  0.653600  0.097600  1.0  0.1187
  H  H51  1  0.737000  0.908200  0.287400  1.0  0.107
  H  H52  1  0.650800  0.208000  0.159300  1.0  0.1098
  H  H53  1  0.706400  0.220800  0.122100  1.0  0.1045
  H  H54  1  0.220800  0.877900  0.706400  1.0  0.1063
  H  H55  1  0.160600  0.596600  0.846700  1.0  0.1159
  H  H56  1  0.273800  0.173700  0.654300  1.0  0.11
  H  H57  1  0.933800  0.961400  0.500000  1.0  0.12
  H  H58  1  0.160600  0.596600  0.153300  1.0  0.116
  H  H59  1  0.220800  0.122100  0.293600  1.0  0.1078
  H  H60  1  0.318200  0.190500  0.676300  1.0  0.1183
  H  H61  1  0.839400  0.403400  0.153300  1.0  0.1164
  H  H62  1  0.706400  0.779200  0.877900  1.0  0.1063
  H  H63  1  0.726200  0.173700  0.345700  1.0  0.1101
  H  H64  1  0.839400  0.403400  0.846700  1.0  0.1165
  H  H65  1  0.860300  0.334900  0.312200  1.0  0.1065
  H  H66  1  0.153300  0.839400  0.596600  1.0  0.1164
  H  H67  1  0.091800  0.287400  0.737000  1.0  0.106
  H  H68  1  0.840700  0.650800  0.208000  1.0  0.1106
  H  H69  1  0.665100  0.312200  0.860300  1.0  0.1119
  H  H70  1  0.435000  0.000000  0.532900  1.0  0.1581
  H  H71  1  0.737000  0.091800  0.712600  1.0  0.1051
  H  H72  1  0.318200  0.190500  0.323700  1.0  0.1173
  H  H73  1  0.334900  0.312200  0.860300  1.0  0.1113
  H  H74  1  0.263000  0.091800  0.287400  1.0  0.1057
  H  H75  1  0.761100  0.888000  0.754400  1.0  0.1133
  H  H76  1  0.190500  0.323700  0.318200  1.0  0.1167
  H  H77  1  0.112000  0.245600  0.761100  1.0  0.1136
  H  H78  1  0.190500  0.676300  0.681800  1.0  0.1173
  H  H79  1  0.345700  0.726200  0.173700  1.0  0.1093
  H  H80  1  0.654300  0.726200  0.826300  1.0  0.1085
  H  H81  1  0.532900  0.435000  0.000000  1.0  0.1584
  H  H82  1  0.208000  0.159300  0.349200  1.0  0.1103
  H  H83  1  0.112000  0.754400  0.238900  1.0  0.1139
  H  H84  1  0.681800  0.809500  0.676300  1.0  0.117
  H  H85  1  0.888000  0.245600  0.761100  1.0  0.114
  H  H86  1  0.650800  0.792000  0.840700  1.0  0.11
  H  H87  1  0.323700  0.318200  0.190500  1.0  0.1161
  H  H88  1  0.792000  0.159300  0.349200  1.0  0.1113
  H  H89  1  0.961400  0.500000  0.066200  1.0  0.1205
  H  H90  1  0.902400  0.732100  0.653600  1.0  0.1178
  H  H91  1  0.334900  0.687800  0.139700  1.0  0.111
  H  H92  1  0.737000  0.908200  0.712600  1.0  0.1078
  H  H93  1  0.153300  0.839400  0.403400  1.0  0.1168
  H  H94  1  0.754400  0.238900  0.112000  1.0  0.1143
  H  H95  1  0.565300  0.000000  0.609800  1.0  0.1143
  H  H96  1  0.097600  0.732100  0.653600  1.0  0.1178
  H  H97  1  0.792000  0.159300  0.650800  1.0  0.1116
  H  H98  1  0.293600  0.220800  0.877900  1.0  0.1052
  H  H99  1  0.706400  0.779200  0.122100  1.0  0.1059
  H  H100  1  0.681800  0.809500  0.323700  1.0  0.1187
  H  H101  1  0.000000  0.609800  0.434700  1.0  0.115
  H  H102  1  0.139700  0.665100  0.312200  1.0  0.1087
  H  H103  1  0.000000  0.532900  0.565000  1.0  0.1583
  H  H104  1  0.097600  0.732100  0.346400  1.0  0.1179
  H  H105  1  0.687800  0.860300  0.334900  1.0  0.1108
  H  H106  1  0.346400  0.902400  0.732100  1.0  0.1183
  H  H107  1  0.267900  0.653600  0.902400  1.0  0.1192
  H  H108  1  0.654300  0.726200  0.173700  1.0  0.1091
  H  H109  1  0.345700  0.273800  0.826300  1.0  0.11
  H  H110  1  0.712600  0.263000  0.091800  1.0  0.1078
  H  H111  1  0.287400  0.737000  0.908200  1.0  0.1084
  H  H112  1  0.435000  0.000000  0.467100  1.0  0.1586
  H  H113  1  0.245600  0.238900  0.888000  1.0  0.1162
  H  H114  1  0.687800  0.139700  0.334900  1.0  0.1114
  H  H115  1  0.665100  0.687800  0.139700  1.0  0.1112
  H  H116  1  0.706400  0.220800  0.877900  1.0  0.1049
  H  H117  1  0.318200  0.809500  0.323700  1.0  0.1185
  H  H118  1  0.500000  0.066200  0.961400  1.0  0.1197
  H  H119  1  0.000000  0.467100  0.565000  1.0  0.1586
  H  H120  1  0.779200  0.877900  0.706400  1.0  0.107
  H  H121  1  0.091800  0.287400  0.263000  1.0  0.1047
  H  H122  1  0.761100  0.888000  0.245600  1.0  0.1168
  H  H123  1  0.754400  0.238900  0.888000  1.0  0.1119
  H  H124  1  0.066200  0.961400  0.500000  1.0  0.1204
  H  H125  1  0.676300  0.318200  0.190500  1.0  0.1162
  H  H126  1  0.761100  0.112000  0.754400  1.0  0.1144
  H  H127  1  0.877900  0.293600  0.220800  1.0  0.1042
  H  H128  1  0.596600  0.846700  0.839400  1.0  0.1168
  H  H129  1  0.091800  0.712600  0.263000  1.0  0.1049
  H  H130  1  0.122100  0.706400  0.779200  1.0  0.1057
  H  H131  1  0.840700  0.349200  0.208000  1.0  0.1102
  H  H132  1  0.323700  0.681800  0.809500  1.0  0.1164
  H  H133  1  0.596600  0.153300  0.160600  1.0  0.1169
  H  H134  1  0.000000  0.390200  0.565300  1.0  0.1143
  H  H135  1  0.112000  0.245600  0.238900  1.0  0.1133
  H  H136  1  0.846700  0.839400  0.596600  1.0  0.1167
  H  H137  1  0.238900  0.888000  0.245600  1.0  0.1144
  H  H138  1  0.860300  0.334900  0.687800  1.0  0.1074
  H  H139  1  0.809500  0.676300  0.318200  1.0  0.1163
  H  H140  1  0.000000  0.390200  0.434700  1.0  0.1148
  H  H141  1  0.403400  0.846700  0.839400  1.0  0.1169
  H  H142  1  0.654300  0.273800  0.826300  1.0  0.1088
  H  H143  1  0.312200  0.139700  0.334900  1.0  0.1108
  H  H144  1  0.245600  0.238900  0.112000  1.0  0.1149
  H  H145  1  0.220800  0.122100  0.706400  1.0  0.1083
  H  H146  1  0.676300  0.681800  0.809500  1.0  0.1154
  H  H147  1  0.318200  0.809500  0.676300  1.0  0.119
  H  H148  1  0.888000  0.245600  0.238900  1.0  0.114
  H  H149  1  0.860300  0.665100  0.687800  1.0  0.1058
  H  H150  1  0.779200  0.122100  0.293600  1.0  0.1074
  H  H151  1  0.000000  0.609800  0.565300  1.0  0.1142
  H  H152  1  0.726200  0.826300  0.654300  1.0  0.109
  H  H153  1  0.839400  0.596600  0.846700  1.0  0.116
  H  H154  1  0.349200  0.792000  0.840700  1.0  0.1099
  H  H155  1  0.173700  0.654300  0.726200  1.0  0.108
  H  H156  1  0.097600  0.267900  0.346400  1.0  0.1182
  H  H157  1  0.712600  0.263000  0.908200  1.0  0.1089
  H  H158  1  0.840700  0.650800  0.792000  1.0  0.1107
  H  H159  1  0.761100  0.112000  0.245600  1.0  0.1162
  H  H160  1  0.160600  0.403400  0.846700  1.0  0.1164
  H  H161  1  0.245600  0.761100  0.112000  1.0  0.1135
  H  H162  1  0.293600  0.779200  0.122100  1.0  0.105
  H  H163  1  0.153300  0.160600  0.403400  1.0  0.1167
  H  H164  1  0.263000  0.908200  0.287400  1.0  0.1074
  H  H165  1  0.122100  0.293600  0.779200  1.0  0.1045
  H  H166  1  0.160600  0.403400  0.153300  1.0  0.1163
  H  H167  1  0.390200  0.434700  0.000000  1.0  0.1142
  H  H168  1  0.826300  0.654300  0.726200  1.0  0.1071
  H  H169  1  0.826300  0.345700  0.726200  1.0  0.1088
  H  H170  1  0.208000  0.840700  0.650800  1.0  0.1121
  H  H171  1  0.038600  0.500000  0.933800  1.0  0.1202
  H  H172  1  0.349200  0.208000  0.840700  1.0  0.1094
  H  H173  1  0.287400  0.263000  0.091800  1.0  0.1082
  H  H174  1  0.139700  0.334900  0.687800  1.0  0.1077
  H  H175  1  0.097600  0.267900  0.653600  1.0  0.1184
  H  H176  1  0.908200  0.712600  0.263000  1.0  0.1049
  H  H177  1  0.902400  0.267900  0.346400  1.0  0.1184
  H  H178  1  0.732100  0.653600  0.097600  1.0  0.1183
  H  H179  1  0.754400  0.761100  0.112000  1.0  0.1151
  H  H180  1  0.293600  0.220800  0.122100  1.0  0.1045
  H  H181  1  0.122100  0.293600  0.220800  1.0  0.104
  H  H182  1  0.273800  0.173700  0.345700  1.0  0.1099
  H  H183  1  0.159300  0.349200  0.208000  1.0  0.1099
  H  H184  1  0.846700  0.160600  0.596600  1.0  0.1165
  H  H185  1  0.287400  0.737000  0.091800  1.0  0.1075
  H  H186  1  0.159300  0.650800  0.208000  1.0  0.1103
  H  H187  1  0.345700  0.726200  0.826300  1.0  0.1096
  H  H188  1  0.346400  0.097600  0.267900  1.0  0.119
  H  H189  1  0.826300  0.654300  0.273800  1.0  0.1086
  H  H190  1  0.888000  0.754400  0.761100  1.0  0.1133
  H  H191  1  0.732100  0.346400  0.902400  1.0  0.1191
  H  H192  1  0.532900  0.565000  0.000000  1.0  0.1608
  H  H193  1  0.877900  0.706400  0.220800  1.0  0.105
  H  H194  1  0.190500  0.323700  0.681800  1.0  0.1169
  H  H195  1  0.676300  0.681800  0.190500  1.0  0.1171
  H  H196  1  0.287400  0.263000  0.908200  1.0  0.1089
  H  H197  1  0.245600  0.761100  0.888000  1.0  0.115
  H  H198  1  0.826300  0.345700  0.273800  1.0  0.1101
  H  H199  1  0.000000  0.532900  0.435000  1.0  0.1582
  H  H200  1  0.267900  0.346400  0.902400  1.0  0.1191
  H  H201  1  0.846700  0.160600  0.403400  1.0  0.1169
  H  H202  1  0.653600  0.902400  0.732100  1.0  0.118
  H  H203  1  0.840700  0.349200  0.792000  1.0  0.1108
  H  H204  1  0.779200  0.122100  0.706400  1.0  0.1074
  H  H205  1  0.238900  0.888000  0.754400  1.0  0.1146
  H  H206  1  0.726200  0.826300  0.345700  1.0  0.1106
  H  H207  1  0.726200  0.173700  0.654300  1.0  0.1088
  H  H208  1  0.273800  0.826300  0.345700  1.0  0.11
  H  H209  1  0.653600  0.902400  0.267900  1.0  0.1187
  H  H210  1  0.238900  0.112000  0.245600  1.0  0.1146
  H  H211  1  0.609800  0.565300  0.000000  1.0  0.1146
  H  H212  1  0.038600  0.500000  0.066200  1.0  0.1205
  H  H213  1  0.159300  0.349200  0.792000  1.0  0.1111
  H  H214  1  0.323700  0.681800  0.190500  1.0  0.1169
  H  H215  1  0.334900  0.687800  0.860300  1.0  0.1109
  H  H216  1  0.681800  0.190500  0.676300  1.0  0.1174
  H  H217  1  0.434700  0.000000  0.609800  1.0  0.1137
  H  H218  1  0.500000  0.933800  0.038600  1.0  0.1192
  H  H219  1  0.267900  0.346400  0.097600  1.0  0.1187
  H  H220  1  0.860300  0.665100  0.312200  1.0  0.1064
  H  H221  1  0.345700  0.273800  0.173700  1.0  0.1089
  H  H222  1  0.687800  0.139700  0.665100  1.0  0.1099
  H  H223  1  0.596600  0.846700  0.160600  1.0  0.1166
  H  H224  1  0.565000  0.000000  0.532900  1.0  0.1573
  H  H225  1  0.732100  0.346400  0.097600  1.0  0.1183
  H  H226  1  0.208000  0.159300  0.650800  1.0  0.1112
  H  H227  1  0.434700  0.000000  0.390200  1.0  0.1141
  H  H228  1  0.220800  0.877900  0.293600  1.0  0.106
  H  H229  1  0.877900  0.706400  0.779200  1.0  0.1044
  H  H230  1  0.596600  0.153300  0.839400  1.0  0.1168
  H  H231  1  0.902400  0.732100  0.346400  1.0  0.1182
  H  H232  1  0.346400  0.902400  0.267900  1.0  0.1189
  H  H233  1  0.908200  0.287400  0.263000  1.0  0.1059
  H  H234  1  0.650800  0.792000  0.159300  1.0  0.1095
  H  H235  1  0.650800  0.208000  0.840700  1.0  0.1095
  H  H236  1  0.732100  0.653600  0.902400  1.0  0.1193
  H  H237  1  0.263000  0.908200  0.712600  1.0  0.108
  H  H238  1  0.403400  0.846700  0.160600  1.0  0.1168
  H  H239  1  0.846700  0.839400  0.403400  1.0  0.1169
  H  H240  1  0.712600  0.737000  0.091800  1.0  0.1074
  H  H241  1  0.349200  0.208000  0.159300  1.0  0.1101
  H  H242  1  0.877900  0.293600  0.779200  1.0  0.1042
  H  H243  1  0.139700  0.334900  0.312200  1.0  0.1081
  H  H244  1  0.312200  0.139700  0.665100  1.0  0.1108
  H  H245  1  0.809500  0.323700  0.318200  1.0  0.1164
  H  H246  1  0.653600  0.097600  0.267900  1.0  0.1191
  H  H247  1  0.139700  0.665100  0.687800  1.0  0.1073
  H  H248  1  0.403400  0.153300  0.160600  1.0  0.1171
  H  H249  1  0.153300  0.160600  0.596600  1.0  0.1162
  H  H250  1  0.467100  0.435000  0.000000  1.0  0.1583
  H  H251  1  0.888000  0.754400  0.238900  1.0  0.1147
  H  H252  1  0.190500  0.676300  0.318200  1.0  0.1166
  H  H253  1  0.293600  0.779200  0.877900  1.0  0.1052
  H  H254  1  0.346400  0.097600  0.732100  1.0  0.1182
  H  H255  1  0.681800  0.190500  0.323700  1.0  0.1183
  H  H256  1  0.173700  0.654300  0.273800  1.0  0.1084
  H  H257  1  0.565300  0.000000  0.390200  1.0  0.1146
  H  H258  1  0.390200  0.565300  0.000000  1.0  0.1144
  H  H259  1  0.665100  0.687800  0.860300  1.0  0.1118
  H  H260  1  0.273800  0.826300  0.654300  1.0  0.1102
  H  H261  1  0.809500  0.676300  0.681800  1.0  0.1153
  H  H262  1  0.000000  0.467100  0.435000  1.0  0.1584
  H  H263  1  0.349200  0.792000  0.159300  1.0  0.1101
  H  H264  1  0.676300  0.318200  0.809500  1.0  0.1156
  H  H265  1  0.908200  0.712600  0.737000  1.0  0.1057
  H  H266  1  0.839400  0.596600  0.153300  1.0  0.1159
  H  H267  1  0.091800  0.712600  0.737000  1.0  0.1062
  H  H268  1  0.565000  0.000000  0.467100  1.0  0.1574
  H  H269  1  0.122100  0.706400  0.220800  1.0  0.1053
  H  H270  1  0.323700  0.318200  0.809500  1.0  0.1165
  H  H271  1  0.933800  0.038600  0.500000  1.0  0.1196
  H  H272  1  0.500000  0.933800  0.961400  1.0  0.1192
  H  H273  1  0.173700  0.345700  0.726200  1.0  0.1097
  H  H274  1  0.754400  0.761100  0.888000  1.0  0.1127
  H  H275  1  0.961400  0.500000  0.933800  1.0  0.1202
  H  H276  1  0.312200  0.860300  0.665100  1.0  0.1111
  C  C277  1  0.652790  0.880180  0.753720  1.0  -0.0893
  C  C278  1  0.405360  0.538200  0.000000  1.0  -0.0491
  C  C279  1  0.277120  0.158460  0.721380  1.0  0.0241
  C  C280  1  0.153130  0.817960  0.619000  1.0  -0.0258
  C  C281  1  0.617770  0.500000  0.000000  1.0  -0.0714
  C  C282  1  0.880090  0.785740  0.619510  1.0  -0.1497
  C  C283  1  0.723930  0.247190  0.882730  1.0  -0.3104
  C  C284  1  0.277120  0.841540  0.278620  1.0  0.0242
  C  C285  1  0.882730  0.276070  0.247190  1.0  -0.3133
  C  C286  1  0.277120  0.841540  0.721380  1.0  0.0232
  C  C287  1  0.462010  0.000000  0.548170  1.0  -0.135
  C  C288  1  0.451830  0.537990  0.000000  1.0  -0.1404
  C  C289  1  0.500000  0.960670  0.023140  1.0  -0.0346
  C  C290  1  0.722880  0.841540  0.278620  1.0  0.0244
  C  C291  1  0.846940  0.754100  0.315110  1.0  -0.0067
  C  C292  1  0.721380  0.277120  0.158460  1.0  0.0267
  C  C293  1  0.347210  0.119820  0.753720  1.0  -0.0898
  C  C294  1  0.723580  0.216520  0.777720  1.0  -0.0823
  C  C295  1  0.500000  0.000000  0.524910  1.0  0.0975
  C  C296  1  0.000000  0.045990  0.500000  1.0  -0.0942
  C  C297  1  0.976860  0.500000  0.960670  1.0  -0.0346
  C  C298  1  0.000000  0.903960  0.500000  1.0  0.7332
  C  C299  1  0.415670  0.915450  0.785710  1.0  0.7381
  C  C300  1  0.817960  0.381000  0.846870  1.0  -0.0248
  C  C301  1  0.846940  0.245900  0.684890  1.0  -0.0041
  C  C302  1  0.500000  0.000000  0.332330  1.0  0.7421
  C  C303  1  0.976860  0.500000  0.039330  1.0  -0.0354
  C  C304  1  0.651390  0.813910  0.818680  1.0  -0.1012
  C  C305  1  0.783480  0.777720  0.723580  1.0  -0.0824
  C  C306  1  0.721380  0.722880  0.158460  1.0  0.0268
  C  C307  1  0.702810  0.166330  0.325110  1.0  -0.3409
  C  C308  1  0.158460  0.278620  0.277120  1.0  0.0251
  C  C309  1  0.684730  0.813510  0.213460  1.0  -0.0712
  C  C310  1  0.799540  0.260410  0.745620  1.0  -0.0105
  C  C311  1  0.785710  0.584330  0.084550  1.0  0.738
  C  C312  1  0.799540  0.739590  0.745620  1.0  -0.0103
  C  C313  1  0.276070  0.247190  0.882730  1.0  -0.3102
  C  C314  1  0.000000  0.451830  0.537990  1.0  -0.1374
  C  C315  1  0.315110  0.153060  0.754100  1.0  -0.0077
  C  C316  1  0.000000  0.594640  0.461800  1.0  -0.045
  C  C317  1  0.214290  0.584330  0.915450  1.0  0.7381
  C  C318  1  0.723580  0.216520  0.222280  1.0  -0.0824
  C  C319  1  0.813910  0.181320  0.651390  1.0  -0.1035
  C  C320  1  0.045990  0.500000  0.000000  1.0  -0.0948
  C  C321  1  0.813510  0.786540  0.684730  1.0  -0.0706
  C  C322  1  0.882730  0.723930  0.247190  1.0  -0.3143
  C  C323  1  0.880090  0.785740  0.380490  1.0  -0.149
  C  C324  1  0.158460  0.721380  0.277120  1.0  0.0262
  C  C325  1  0.246280  0.347210  0.119820  1.0  -0.0874
  C  C326  1  0.200460  0.739590  0.745620  1.0  -0.0098
  C  C327  1  0.405360  0.461800  0.000000  1.0  -0.0461
  C  C328  1  0.684890  0.846940  0.754100  1.0  -0.0068
  C  C329  1  0.785740  0.380490  0.880090  1.0  -0.1502
  C  C330  1  0.783480  0.777720  0.276420  1.0  -0.0826
  C  C331  1  0.584330  0.915450  0.785710  1.0  0.7381
  C  C332  1  0.000000  0.548170  0.537990  1.0  -0.1346
  C  C333  1  0.381000  0.153130  0.817960  1.0  -0.0242
  C  C334  1  0.214260  0.380490  0.880090  1.0  -0.1505
  C  C335  1  0.783480  0.222280  0.723580  1.0  -0.0823
  C  C336  1  0.158460  0.721380  0.722880  1.0  0.026
  C  C337  1  0.594640  0.538200  0.000000  1.0  -0.0488
  C  C338  1  0.723580  0.783480  0.222280  1.0  -0.0823
  C  C339  1  0.702810  0.833670  0.325110  1.0  -0.3395
  C  C340  1  0.813910  0.818680  0.348610  1.0  -0.1044
  C  C341  1  0.846870  0.817960  0.381000  1.0  -0.0259
  C  C342  1  0.500000  0.000000  0.382230  1.0  -0.0747
  C  C343  1  0.000000  0.332330  0.500000  1.0  0.7362
  C  C344  1  0.182040  0.381000  0.846870  1.0  -0.0245
  C  C345  1  0.722880  0.158460  0.721380  1.0  0.0242
  C  C346  1  0.000000  0.451830  0.462010  1.0  -0.1371
  C  C347  1  0.813910  0.818680  0.651390  1.0  -0.104
  C  C348  1  0.880090  0.214260  0.380490  1.0  -0.1491
  C  C349  1  0.216520  0.222280  0.276420  1.0  -0.0825
  C  C350  1  0.222280  0.276420  0.216520  1.0  -0.0827
  C  C351  1  0.277120  0.158460  0.278620  1.0  0.0245
  C  C352  1  0.461800  0.000000  0.405360  1.0  -0.0468
  C  C353  1  0.702810  0.166330  0.674890  1.0  -0.3394
  C  C354  1  0.651390  0.186090  0.181320  1.0  -0.1006
  C  C355  1  0.247190  0.117270  0.276070  1.0  -0.313
  C  C356  1  0.415670  0.084550  0.785710  1.0  0.7379
  C  C357  1  0.315110  0.153060  0.245900  1.0  -0.0059
  C  C358  1  0.000000  0.667670  0.500000  1.0  0.7373
  C  C359  1  0.216520  0.777720  0.723580  1.0  -0.0827
  C  C360  1  0.297190  0.833670  0.674890  1.0  -0.3392
  C  C361  1  0.584330  0.915450  0.214290  1.0  0.7381
  C  C362  1  0.846940  0.245900  0.315110  1.0  -0.0068
  C  C363  1  0.833670  0.325110  0.702810  1.0  -0.3385
  C  C364  1  0.652790  0.119820  0.753720  1.0  -0.0895
  C  C365  1  0.315110  0.846940  0.754100  1.0  -0.0068
  C  C366  1  0.752810  0.882730  0.276070  1.0  -0.3157
  C  C367  1  0.153060  0.754100  0.315110  1.0  -0.0044
  C  C368  1  0.000000  0.096040  0.500000  1.0  0.735
  C  C369  1  0.181320  0.651390  0.186090  1.0  -0.1079
  C  C370  1  0.619000  0.846870  0.817960  1.0  -0.0253
  C  C371  1  0.245900  0.684890  0.153060  1.0  -0.0093
  C  C372  1  0.818680  0.651390  0.813910  1.0  -0.1077
  C  C373  1  0.548170  0.462010  0.000000  1.0  -0.1411
  C  C374  1  0.117270  0.723930  0.752810  1.0  -0.3134
  C  C375  1  0.181320  0.348610  0.813910  1.0  -0.1079
  C  C376  1  0.817960  0.619000  0.153130  1.0  -0.027
  C  C377  1  0.216520  0.777720  0.276420  1.0  -0.0829
  C  C378  1  0.297190  0.166330  0.325110  1.0  -0.3403
  C  C379  1  0.785710  0.415670  0.915450  1.0  0.7383
  C  C380  1  0.500000  0.000000  0.667670  1.0  0.7432
  C  C381  1  0.119910  0.214260  0.619510  1.0  -0.1511
  C  C382  1  0.260410  0.254380  0.200460  1.0  -0.0101
  C  C383  1  0.880180  0.753720  0.347210  1.0  -0.0894
  C  C384  1  0.754100  0.684890  0.846940  1.0  -0.0081
  C  C385  1  0.315270  0.813510  0.786540  1.0  -0.071
  C  C386  1  0.786540  0.315270  0.186490  1.0  -0.07
  C  C387  1  0.153130  0.817960  0.381000  1.0  -0.0259
  C  C388  1  0.245900  0.684890  0.846940  1.0  -0.0076
  C  C389  1  0.684730  0.813510  0.786540  1.0  -0.0718
  C  C390  1  0.348610  0.813910  0.181320  1.0  -0.1016
  C  C391  1  0.119820  0.246280  0.652790  1.0  -0.0902
  C  C392  1  0.260410  0.254380  0.799540  1.0  -0.0104
  C  C393  1  0.380490  0.880090  0.785740  1.0  -0.1506
  C  C394  1  0.153130  0.182040  0.619000  1.0  -0.0264
  C  C395  1  0.537990  0.000000  0.451830  1.0  -0.1333
  C  C396  1  0.096040  0.500000  0.000000  1.0  0.7366
  C  C397  1  0.619510  0.880090  0.214260  1.0  -0.1507
  C  C398  1  0.786540  0.684730  0.813510  1.0  -0.0696
  C  C399  1  0.500000  0.000000  0.045990  1.0  -0.0972
  C  C400  1  0.000000  0.405360  0.538200  1.0  -0.0515
  C  C401  1  0.325110  0.297190  0.833670  1.0  -0.3406
  C  C402  1  0.753720  0.652790  0.119820  1.0  -0.0884
  C  C403  1  0.297190  0.166330  0.674890  1.0  -0.3401
  C  C404  1  0.538200  0.000000  0.405360  1.0  -0.0459
  C  C405  1  0.245900  0.315110  0.153060  1.0  -0.0069
  C  C406  1  0.247190  0.117270  0.723930  1.0  -0.3141
  C  C407  1  0.084550  0.785710  0.415670  1.0  0.7383
  C  C408  1  0.214260  0.619510  0.880090  1.0  -0.1507
  C  C409  1  0.723580  0.783480  0.777720  1.0  -0.0822
  C  C410  1  0.166330  0.674890  0.297190  1.0  -0.3403
  C  C411  1  0.084550  0.214290  0.415670  1.0  0.7384
  C  C412  1  0.023140  0.500000  0.039330  1.0  -0.036
  C  C413  1  0.739590  0.745620  0.799540  1.0  -0.0116
  C  C414  1  0.315270  0.186490  0.786540  1.0  -0.0697
  C  C415  1  0.745620  0.200460  0.260410  1.0  -0.0107
  C  C416  1  0.278620  0.277120  0.158460  1.0  0.0255
  C  C417  1  0.119820  0.753720  0.652790  1.0  -0.0897
  C  C418  1  0.214260  0.619510  0.119910  1.0  -0.1516
  C  C419  1  0.739590  0.254380  0.200460  1.0  -0.0114
  C  C420  1  0.039330  0.023140  0.500000  1.0  -0.0352
  C  C421  1  0.723930  0.752810  0.117270  1.0  -0.3106
  C  C422  1  0.684730  0.186490  0.213460  1.0  -0.0699
  C  C423  1  0.000000  0.617770  0.500000  1.0  -0.0735
  C  C424  1  0.818680  0.348610  0.813910  1.0  -0.1087
  C  C425  1  0.684890  0.153060  0.754100  1.0  -0.0073
  C  C426  1  0.786540  0.315270  0.813510  1.0  -0.0715
  C  C427  1  0.960670  0.976860  0.500000  1.0  -0.0322
  C  C428  1  0.117270  0.723930  0.247190  1.0  -0.3134
  C  C429  1  0.276070  0.752810  0.882730  1.0  -0.3112
  C  C430  1  0.753720  0.347210  0.880180  1.0  -0.0896
  C  C431  1  0.347210  0.880180  0.246280  1.0  -0.0908
  C  C432  1  0.182040  0.619000  0.153130  1.0  -0.0268
  C  C433  1  0.023140  0.500000  0.960670  1.0  -0.0353
  C  C434  1  0.667670  0.500000  0.000000  1.0  0.7405
  C  C435  1  0.799540  0.739590  0.254380  1.0  -0.0105
  C  C436  1  0.880180  0.246280  0.652790  1.0  -0.0897
  C  C437  1  0.214290  0.415670  0.915450  1.0  0.7378
  C  C438  1  0.000000  0.524910  0.500000  1.0  0.0989
  C  C439  1  0.846940  0.754100  0.684890  1.0  -0.0023
  C  C440  1  0.674890  0.297190  0.833670  1.0  -0.3401
  C  C441  1  0.186490  0.786540  0.684730  1.0  -0.0672
  C  C442  1  0.753720  0.652790  0.880180  1.0  -0.0891
  C  C443  1  0.723930  0.247190  0.117270  1.0  -0.3106
  C  C444  1  0.276420  0.783480  0.222280  1.0  -0.0821
  C  C445  1  0.651390  0.813910  0.181320  1.0  -0.1006
  C  C446  1  0.619510  0.119910  0.785740  1.0  -0.1518
  C  C447  1  0.381000  0.846870  0.817960  1.0  -0.0242
  C  C448  1  0.538200  0.000000  0.594640  1.0  -0.0459
  C  C449  1  0.915450  0.214290  0.584330  1.0  0.7376
  C  C450  1  0.182040  0.619000  0.846870  1.0  -0.0267
  C  C451  1  0.524910  0.500000  0.000000  1.0  0.0964
  C  C452  1  0.846870  0.817960  0.619000  1.0  -0.026
  C  C453  1  0.186090  0.818680  0.348610  1.0  -0.104
  C  C454  1  0.882730  0.276070  0.752810  1.0  -0.3138
  C  C455  1  0.117270  0.276070  0.247190  1.0  -0.3127
  C  C456  1  0.216520  0.222280  0.723580  1.0  -0.0825
  C  C457  1  0.674890  0.702810  0.833670  1.0  -0.3404
  C  C458  1  0.260410  0.745620  0.200460  1.0  -0.01
  C  C459  1  0.619000  0.846870  0.182040  1.0  -0.0257
  C  C460  1  0.846870  0.182040  0.381000  1.0  -0.0275
  C  C461  1  0.619000  0.153130  0.182040  1.0  -0.0254
  C  C462  1  0.619000  0.153130  0.817960  1.0  -0.0249
  C  C463  1  0.500000  0.960670  0.976860  1.0  -0.0347
  C  C464  1  0.461800  0.000000  0.594640  1.0  -0.046
  C  C465  1  0.783480  0.222280  0.276420  1.0  -0.0823
  C  C466  1  0.213460  0.684730  0.186490  1.0  -0.0723
  C  C467  1  0.880090  0.214260  0.619510  1.0  -0.1495
  C  C468  1  0.186090  0.181320  0.348610  1.0  -0.104
  C  C469  1  0.500000  0.039330  0.976860  1.0  -0.035
  C  C470  1  0.754100  0.684890  0.153060  1.0  -0.0061
  C  C471  1  0.903960  0.500000  0.000000  1.0  0.7372
  C  C472  1  0.247190  0.882730  0.723930  1.0  -0.3156
  C  C473  1  0.915450  0.785710  0.415670  1.0  0.7383
  C  C474  1  0.278620  0.277120  0.841540  1.0  0.0263
  C  C475  1  0.722880  0.841540  0.721380  1.0  0.0231
  C  C476  1  0.297190  0.833670  0.325110  1.0  -0.3395
  C  C477  1  0.315270  0.813510  0.213460  1.0  -0.0704
  C  C478  1  0.325110  0.297190  0.166330  1.0  -0.3408
  C  C479  1  0.247190  0.882730  0.276070  1.0  -0.3141
  C  C480  1  0.186090  0.818680  0.651390  1.0  -0.1031
  C  C481  1  0.153060  0.754100  0.684890  1.0  -0.006
  C  C482  1  0.213460  0.315270  0.813510  1.0  -0.073
  C  C483  1  0.347210  0.119820  0.246280  1.0  -0.09
  C  C484  1  0.754100  0.315110  0.153060  1.0  -0.0074
  C  C485  1  0.415670  0.915450  0.214290  1.0  0.7381
  C  C486  1  0.723930  0.752810  0.882730  1.0  -0.3112
  C  C487  1  0.276420  0.216520  0.777720  1.0  -0.0822
  C  C488  1  0.652790  0.880180  0.246280  1.0  -0.0898
  C  C489  1  0.000000  0.475090  0.500000  1.0  0.0984
  C  C490  1  0.000000  0.594640  0.538200  1.0  -0.0463
  C  C491  1  0.382230  0.500000  0.000000  1.0  -0.0779
  C  C492  1  0.260410  0.745620  0.799540  1.0  -0.0101
  C  C493  1  0.833670  0.325110  0.297190  1.0  -0.3412
  C  C494  1  0.119910  0.214260  0.380490  1.0  -0.1502
  C  C495  1  0.276070  0.247190  0.117270  1.0  -0.3088
  C  C496  1  0.186090  0.181320  0.651390  1.0  -0.103
  C  C497  1  0.186490  0.786540  0.315270  1.0  -0.07
  C  C498  1  0.415670  0.084550  0.214290  1.0  0.7379
  C  C499  1  0.500000  0.000000  0.903960  1.0  0.7379
  C  C500  1  0.186490  0.213460  0.315270  1.0  -0.0711
  C  C501  1  0.119910  0.785740  0.380490  1.0  -0.1499
  C  C502  1  0.381000  0.153130  0.182040  1.0  -0.0256
  C  C503  1  0.222280  0.723580  0.783480  1.0  -0.083
  C  C504  1  0.745620  0.799540  0.739590  1.0  -0.0104
  C  C505  1  0.915450  0.214290  0.415670  1.0  0.7384
  C  C506  1  0.960670  0.023140  0.500000  1.0  -0.0334
  C  C507  1  0.674890  0.702810  0.166330  1.0  -0.3405
  C  C508  1  0.276070  0.752810  0.117270  1.0  -0.3088
  C  C509  1  0.348610  0.186090  0.181320  1.0  -0.1018
  C  C510  1  0.222280  0.276420  0.783480  1.0  -0.0828
  C  C511  1  0.745620  0.200460  0.739590  1.0  -0.0108
  C  C512  1  0.674890  0.297190  0.166330  1.0  -0.3409
  C  C513  1  0.325110  0.702810  0.833670  1.0  -0.3403
  C  C514  1  0.833670  0.674890  0.297190  1.0  -0.3389
  C  C515  1  0.182040  0.381000  0.153130  1.0  -0.0246
  C  C516  1  0.039330  0.976860  0.500000  1.0  -0.034
  C  C517  1  0.721380  0.722880  0.841540  1.0  0.0278
  C  C518  1  0.817960  0.381000  0.153130  1.0  -0.0249
  C  C519  1  0.315110  0.846940  0.245900  1.0  -0.0078
  C  C520  1  0.084550  0.785710  0.584330  1.0  0.7378
  C  C521  1  0.813510  0.213460  0.684730  1.0  -0.0711
  C  C522  1  0.651390  0.186090  0.818680  1.0  -0.1008
  C  C523  1  0.777720  0.723580  0.216520  1.0  -0.082
  C  C524  1  0.381000  0.846870  0.182040  1.0  -0.0258
  C  C525  1  0.166330  0.674890  0.702810  1.0  -0.3373
  C  C526  1  0.475090  0.500000  0.000000  1.0  0.0985
  C  C527  1  0.752810  0.117270  0.276070  1.0  -0.3145
  C  C528  1  0.158460  0.278620  0.722880  1.0  0.025
  C  C529  1  0.254380  0.799540  0.260410  1.0  -0.01
  C  C530  1  0.213460  0.315270  0.186490  1.0  -0.0737
  C  C531  1  0.084550  0.214290  0.584330  1.0  0.7379
  C  C532  1  0.739590  0.254380  0.799540  1.0  -0.0119
  C  C533  1  0.752810  0.882730  0.723930  1.0  -0.3171
  C  C534  1  0.119820  0.246280  0.347210  1.0  -0.09
  C  C535  1  0.754100  0.315110  0.846940  1.0  -0.0069
  C  C536  1  0.315270  0.186490  0.213460  1.0  -0.0692
  C  C537  1  0.500000  0.000000  0.096040  1.0  0.7393
  C  C538  1  0.119910  0.785740  0.619510  1.0  -0.1514
  C  C539  1  0.200460  0.260410  0.254380  1.0  -0.0095
  C  C540  1  0.117270  0.276070  0.752810  1.0  -0.3133
  C  C541  1  0.739590  0.745620  0.200460  1.0  -0.0114
  C  C542  1  0.818680  0.348610  0.186090  1.0  -0.1088
  C  C543  1  0.785710  0.415670  0.084550  1.0  0.7381
  C  C544  1  0.954010  0.500000  0.000000  1.0  -0.0974
  C  C545  1  0.214260  0.380490  0.119910  1.0  -0.1505
  C  C546  1  0.753720  0.347210  0.119820  1.0  -0.0882
  C  C547  1  0.276420  0.783480  0.777720  1.0  -0.0821
  C  C548  1  0.841540  0.278620  0.722880  1.0  0.0245
  C  C549  1  0.276420  0.216520  0.222280  1.0  -0.0822
  C  C550  1  0.166330  0.325110  0.702810  1.0  -0.3394
  C  C551  1  0.833670  0.674890  0.702810  1.0  -0.3359
  C  C552  1  0.652790  0.119820  0.246280  1.0  -0.0898
  C  C553  1  0.000000  0.548170  0.462010  1.0  -0.1367
  C  C554  1  0.537990  0.000000  0.548170  1.0  -0.1359
  C  C555  1  0.000000  0.382230  0.500000  1.0  -0.0737
  C  C556  1  0.348610  0.813910  0.818680  1.0  -0.1027
  C  C557  1  0.000000  0.954010  0.500000  1.0  -0.0957
  C  C558  1  0.619510  0.880090  0.785740  1.0  -0.1509
  C  C559  1  0.785740  0.380490  0.119910  1.0  -0.1499
  C  C560  1  0.818680  0.651390  0.186090  1.0  -0.1078
  C  C561  1  0.722880  0.158460  0.278620  1.0  0.0247
  C  C562  1  0.880180  0.753720  0.652790  1.0  -0.0889
  C  C563  1  0.451830  0.462010  0.000000  1.0  -0.1402
  C  C564  1  0.684890  0.846940  0.245900  1.0  -0.0076
  C  C565  1  0.278620  0.722880  0.158460  1.0  0.0255
  C  C566  1  0.813910  0.181320  0.348610  1.0  -0.1038
  C  C567  1  0.882730  0.723930  0.752810  1.0  -0.3147
  C  C568  1  0.347210  0.880180  0.753720  1.0  -0.0907
  C  C569  1  0.785710  0.584330  0.915450  1.0  0.7386
  C  C570  1  0.786540  0.684730  0.186490  1.0  -0.0699
  C  C571  1  0.325110  0.702810  0.166330  1.0  -0.3399
  C  C572  1  0.841540  0.721380  0.722880  1.0  0.025
  C  C573  1  0.584330  0.084550  0.214290  1.0  0.7379
  C  C574  1  0.186490  0.213460  0.684730  1.0  -0.0691
  C  C575  1  0.380490  0.880090  0.214260  1.0  -0.1503
  C  C576  1  0.213460  0.684730  0.813510  1.0  -0.0722
  C  C577  1  0.214290  0.415670  0.084550  1.0  0.7378
  C  C578  1  0.584330  0.084550  0.785710  1.0  0.7378
  C  C579  1  0.153130  0.182040  0.381000  1.0  -0.0272
  C  C580  1  0.246280  0.652790  0.119820  1.0  -0.0885
  C  C581  1  0.153060  0.245900  0.684890  1.0  -0.0075
  C  C582  1  0.752810  0.117270  0.723930  1.0  -0.3152
  C  C583  1  0.254380  0.200460  0.739590  1.0  -0.0104
  C  C584  1  0.548170  0.537990  0.000000  1.0  -0.1381
  C  C585  1  0.841540  0.278620  0.277120  1.0  0.0247
  C  C586  1  0.594640  0.461800  0.000000  1.0  -0.0473
  C  C587  1  0.500000  0.000000  0.475090  1.0  0.098
  C  C588  1  0.200460  0.739590  0.254380  1.0  -0.0098
  C  C589  1  0.817960  0.619000  0.846870  1.0  -0.0269
  C  C590  1  0.166330  0.325110  0.297190  1.0  -0.3421
  C  C591  1  0.813510  0.213460  0.315270  1.0  -0.0731
  C  C592  1  0.200460  0.260410  0.745620  1.0  -0.01
  C  C593  1  0.332330  0.500000  0.000000  1.0  0.7404
  C  C594  1  0.181320  0.348610  0.186090  1.0  -0.1084
  C  C595  1  0.119820  0.753720  0.347210  1.0  -0.0897
  C  C596  1  0.222280  0.723580  0.216520  1.0  -0.0828
  C  C597  1  0.915450  0.785710  0.584330  1.0  0.7375
  C  C598  1  0.880180  0.246280  0.347210  1.0  -0.0901
  C  C599  1  0.246280  0.652790  0.880180  1.0  -0.0884
  C  C600  1  0.348610  0.186090  0.818680  1.0  -0.1024
  C  C601  1  0.777720  0.276420  0.783480  1.0  -0.0822
  C  C602  1  0.500000  0.039330  0.023140  1.0  -0.0342
  C  C603  1  0.380490  0.119910  0.214260  1.0  -0.1503
  C  C604  1  0.254380  0.200460  0.260410  1.0  -0.0103
  C  C605  1  0.684730  0.186490  0.786540  1.0  -0.0703
  C  C606  1  0.721380  0.277120  0.841540  1.0  0.0275
  C  C607  1  0.777720  0.276420  0.216520  1.0  -0.082
  C  C608  1  0.799540  0.260410  0.254380  1.0  -0.0103
  C  C609  1  0.619510  0.119910  0.214260  1.0  -0.1517
  C  C610  1  0.745620  0.799540  0.260410  1.0  -0.0103
  C  C611  1  0.214290  0.584330  0.084550  1.0  0.7376
  C  C612  1  0.500000  0.000000  0.617770  1.0  -0.0761
  C  C613  1  0.278620  0.722880  0.841540  1.0  0.0264
  C  C614  1  0.684890  0.153060  0.245900  1.0  -0.0071
  C  C615  1  0.246280  0.347210  0.880180  1.0  -0.0882
  C  C616  1  0.245900  0.315110  0.846940  1.0  -0.0083
  C  C617  1  0.000000  0.405360  0.461800  1.0  -0.0512
  C  C618  1  0.181320  0.651390  0.813910  1.0  -0.1071
  C  C619  1  0.380490  0.119910  0.785740  1.0  -0.1505
  C  C620  1  0.846870  0.182040  0.619000  1.0  -0.0269
  C  C621  1  0.785740  0.619510  0.880090  1.0  -0.1498
  C  C622  1  0.500000  0.000000  0.954010  1.0  -0.0967
  C  C623  1  0.153060  0.245900  0.315110  1.0  -0.0061
  C  C624  1  0.841540  0.721380  0.277120  1.0  0.0253
  C  C625  1  0.702810  0.833670  0.674890  1.0  -0.3385
  C  C626  1  0.254380  0.799540  0.739590  1.0  -0.0102
  C  C627  1  0.462010  0.000000  0.451830  1.0  -0.1361
  C  C628  1  0.777720  0.723580  0.783480  1.0  -0.0824
  C  C629  1  0.813510  0.786540  0.315270  1.0  -0.0714
  C  C630  1  0.785740  0.619510  0.119910  1.0  -0.1506
  O  O631  1  0.589140  0.947250  0.241170  1.0  -0.6112
  O  O632  1  0.962910  0.885070  0.500000  1.0  -0.6021
  O  O633  1  0.962910  0.114930  0.500000  1.0  -0.6019
  O  O634  1  0.214370  0.500000  0.000000  1.0  -1.2177
  O  O635  1  0.537070  0.000000  0.313670  1.0  -0.6002
  O  O636  1  0.500000  0.037090  0.114930  1.0  -0.602
  O  O637  1  0.552640  0.910870  0.187630  1.0  -0.6023
  O  O638  1  0.552640  0.910870  0.812370  1.0  -0.6024
  O  O639  1  0.410860  0.947250  0.758830  1.0  -0.6117
  O  O640  1  0.000000  0.785630  0.500000  1.0  -1.2179
  O  O641  1  0.410860  0.052750  0.758830  1.0  -0.6112
  O  O642  1  0.758830  0.589140  0.052750  1.0  -0.6105
  O  O643  1  0.758830  0.589140  0.947250  1.0  -0.6097
  O  O644  1  0.187630  0.447360  0.910870  1.0  -0.6042
  O  O645  1  0.910870  0.187630  0.552640  1.0  -0.604
  O  O646  1  0.785630  0.500000  0.000000  1.0  -1.2173
  O  O647  1  0.037090  0.114930  0.500000  1.0  -0.6016
  O  O648  1  0.089130  0.187630  0.552640  1.0  -0.6043
  O  O649  1  0.052750  0.241170  0.410860  1.0  -0.6116
  O  O650  1  0.000000  0.313670  0.537070  1.0  -0.5998
  O  O651  1  0.589140  0.052750  0.758830  1.0  -0.6112
  O  O652  1  0.758830  0.410860  0.947250  1.0  -0.6093
  O  O653  1  0.910870  0.812370  0.552640  1.0  -0.6044
  O  O654  1  0.410860  0.052750  0.241170  1.0  -0.6098
  O  O655  1  0.885070  0.500000  0.962910  1.0  -0.6022
  O  O656  1  0.552640  0.089130  0.187630  1.0  -0.6022
  O  O657  1  0.500000  0.000000  0.785630  1.0  -1.2174
  O  O658  1  0.885070  0.500000  0.037090  1.0  -0.6024
  O  O659  1  0.410860  0.947250  0.241170  1.0  -0.6109
  O  O660  1  0.313670  0.462930  0.000000  1.0  -0.6024
  O  O661  1  0.313670  0.537070  0.000000  1.0  -0.6033
  O  O662  1  0.686330  0.462930  0.000000  1.0  -0.6025
  O  O663  1  0.758830  0.410860  0.052750  1.0  -0.6104
  O  O664  1  0.187630  0.552640  0.910870  1.0  -0.6037
  O  O665  1  0.187630  0.447360  0.089130  1.0  -0.605
  O  O666  1  0.500000  0.962910  0.885070  1.0  -0.6022
  O  O667  1  0.000000  0.686330  0.462930  1.0  -0.5996
  O  O668  1  0.037090  0.885070  0.500000  1.0  -0.6019
  O  O669  1  0.910870  0.187630  0.447360  1.0  -0.6037
  O  O670  1  0.462930  0.000000  0.686330  1.0  -0.6004
  O  O671  1  0.686330  0.537070  0.000000  1.0  -0.6037
  O  O672  1  0.000000  0.313670  0.462930  1.0  -0.5997
  O  O673  1  0.052750  0.758830  0.410860  1.0  -0.6114
  O  O674  1  0.000000  0.214370  0.500000  1.0  -1.2181
  O  O675  1  0.500000  0.000000  0.214370  1.0  -1.2179
  O  O676  1  0.812370  0.552640  0.910870  1.0  -0.6045
  O  O677  1  0.552640  0.089130  0.812370  1.0  -0.6026
  O  O678  1  0.947250  0.241170  0.589140  1.0  -0.6113
  O  O679  1  0.052750  0.758830  0.589140  1.0  -0.6104
  O  O680  1  0.089130  0.187630  0.447360  1.0  -0.6037
  O  O681  1  0.910870  0.812370  0.447360  1.0  -0.6043
  O  O682  1  0.947250  0.758830  0.410860  1.0  -0.6115
  O  O683  1  0.114930  0.500000  0.962910  1.0  -0.6024
  O  O684  1  0.447360  0.089130  0.187630  1.0  -0.6033
  O  O685  1  0.500000  0.037090  0.885070  1.0  -0.6017
  O  O686  1  0.947250  0.241170  0.410860  1.0  -0.6118
  O  O687  1  0.812370  0.552640  0.089130  1.0  -0.6049
  O  O688  1  0.241170  0.410860  0.947250  1.0  -0.6093
  O  O689  1  0.589140  0.052750  0.241170  1.0  -0.6099
  O  O690  1  0.187630  0.552640  0.089130  1.0  -0.6045
  O  O691  1  0.447360  0.089130  0.812370  1.0  -0.6034
  O  O692  1  0.812370  0.447360  0.910870  1.0  -0.6051
  O  O693  1  0.000000  0.686330  0.537070  1.0  -0.5992
  O  O694  1  0.537070  0.000000  0.686330  1.0  -0.6002
  O  O695  1  0.500000  0.962910  0.114930  1.0  -0.6025
  O  O696  1  0.447360  0.910870  0.187630  1.0  -0.6029
  O  O697  1  0.089130  0.812370  0.552640  1.0  -0.6046
  O  O698  1  0.447360  0.910870  0.812370  1.0  -0.6029
  O  O699  1  0.462930  0.000000  0.313670  1.0  -0.6003
  O  O700  1  0.241170  0.410860  0.052750  1.0  -0.6104
  O  O701  1  0.812370  0.447360  0.089130  1.0  -0.6056
  O  O702  1  0.114930  0.500000  0.037090  1.0  -0.6027
  O  O703  1  0.052750  0.241170  0.589140  1.0  -0.6112
  O  O704  1  0.589140  0.947250  0.758830  1.0  -0.6118
  O  O705  1  0.089130  0.812370  0.447360  1.0  -0.6044
  O  O706  1  0.241170  0.589140  0.947250  1.0  -0.6096
  O  O707  1  0.241170  0.589140  0.052750  1.0  -0.6105
  O  O708  1  0.947250  0.758830  0.589140  1.0  -0.6105
