# generated using pymatgen
data_CdH26(C7O)4
_symmetry_space_group_name_H-M   'P 1'
_cell_length_a   34.31380000
_cell_length_b   34.31380000
_cell_length_c   34.31380000
_cell_angle_alpha   60.00000000
_cell_angle_beta   60.00000000
_cell_angle_gamma   60.00000000
_symmetry_Int_Tables_number   1
_chemical_formula_structural   CdH26(C7O)4
_chemical_formula_sum   'Cd24 H624 C672 O96'
_cell_volume   28568.76384151
_cell_formula_units_Z   24
loop_
 _symmetry_equiv_pos_site_id
 _symmetry_equiv_pos_as_xyz
  1  'x, y, z'
loop_
 _atom_site_type_symbol
 _atom_site_label
 _atom_site_symmetry_multiplicity
 _atom_site_fract_x
 _atom_site_fract_y
 _atom_site_fract_z
 _atom_site_occupancy
 _atom_site_charge
  Cd  Cd1  1  0.523150  0.926610  0.476850  1.0  1.0811
  Cd  Cd2  1  0.976850  0.426610  0.023150  1.0  1.0795
  Cd  Cd3  1  0.073390  0.523150  0.476850  1.0  1.0789
  Cd  Cd4  1  0.573390  0.426610  0.976850  1.0  1.0825
  Cd  Cd5  1  0.926610  0.476850  0.523150  1.0  1.0802
  Cd  Cd6  1  0.976850  0.573390  0.426610  1.0  1.0793
  Cd  Cd7  1  0.926610  0.523150  0.073390  1.0  1.0798
  Cd  Cd8  1  0.573390  0.976850  0.023150  1.0  1.0791
  Cd  Cd9  1  0.023150  0.573390  0.976850  1.0  1.0793
  Cd  Cd10  1  0.926610  0.073390  0.476850  1.0  1.0811
  Cd  Cd11  1  0.523150  0.476850  0.073390  1.0  1.0848
  Cd  Cd12  1  0.476850  0.926610  0.073390  1.0  1.0798
  Cd  Cd13  1  0.426610  0.023150  0.976850  1.0  1.0801
  Cd  Cd14  1  0.073390  0.926610  0.523150  1.0  1.0799
  Cd  Cd15  1  0.523150  0.073390  0.926610  1.0  1.0792
  Cd  Cd16  1  0.426610  0.976850  0.573390  1.0  1.082
  Cd  Cd17  1  0.073390  0.476850  0.926610  1.0  1.0793
  Cd  Cd18  1  0.573390  0.023150  0.426610  1.0  1.0788
  Cd  Cd19  1  0.426610  0.573390  0.023150  1.0  1.0827
  Cd  Cd20  1  0.023150  0.976850  0.426610  1.0  1.0856
  Cd  Cd21  1  0.476850  0.073390  0.523150  1.0  1.0791
  Cd  Cd22  1  0.023150  0.426610  0.573390  1.0  1.0806
  Cd  Cd23  1  0.476850  0.523150  0.926610  1.0  1.0805
  Cd  Cd24  1  0.976850  0.023150  0.573390  1.0  1.0809
  H  H25  1  0.826200  0.039200  0.445800  1.0  0.1094
  H  H26  1  0.438900  0.768500  0.798700  1.0  0.1279
  H  H27  1  0.807400  0.904400  0.719000  1.0  0.1265
  H  H28  1  0.192600  0.281000  0.430800  1.0  0.1268
  H  H29  1  0.692600  0.781000  0.595600  1.0  0.1261
  H  H30  1  0.731500  0.701300  0.506100  1.0  0.1293
  H  H31  1  0.460500  0.229500  0.123500  1.0  0.1159
  H  H32  1  0.539800  0.072800  0.334200  1.0  0.1209
  H  H33  1  0.688800  0.826200  0.445800  1.0  0.1096
  H  H34  1  0.904400  0.719000  0.807400  1.0  0.1268
  H  H35  1  0.668800  0.003400  0.102400  1.0  0.1201
  H  H36  1  0.957400  0.640400  0.625600  1.0  0.1275
  H  H37  1  0.874400  0.542600  0.723400  1.0  0.1259
  H  H38  1  0.946800  0.927200  0.460200  1.0  0.1206
  H  H39  1  0.768500  0.438900  0.993900  1.0  0.1284
  H  H40  1  0.781000  0.692600  0.930800  1.0  0.1268
  H  H41  1  0.298700  0.268500  0.938900  1.0  0.1289
  H  H42  1  0.857600  0.448000  0.263000  1.0  0.1214
  H  H43  1  0.111600  0.187600  0.648400  1.0  0.1294
  H  H44  1  0.542700  0.749700  0.005300  1.0  0.1038
  H  H45  1  0.005300  0.542700  0.749700  1.0  0.1034
  H  H46  1  0.168800  0.602400  0.503400  1.0  0.1173
  H  H47  1  0.397600  0.831200  0.274600  1.0  0.1163
  H  H48  1  0.173800  0.554200  0.311200  1.0  0.1129
  H  H49  1  0.702300  0.005300  0.749700  1.0  0.1034
  H  H50  1  0.750300  0.797700  0.957300  1.0  0.1027
  H  H51  1  0.496600  0.831200  0.397600  1.0  0.1176
  H  H52  1  0.542700  0.005300  0.702300  1.0  0.1049
  H  H53  1  0.960500  0.686500  0.623500  1.0  0.1167
  H  H54  1  0.311200  0.173800  0.554200  1.0  0.1092
  H  H55  1  0.908800  0.221400  0.376400  1.0  0.1053
  H  H56  1  0.721400  0.993400  0.408800  1.0  0.103
  H  H57  1  0.729100  0.506900  0.666667  1.0  0.1017
  H  H58  1  0.188800  0.326200  0.539200  1.0  0.1096
  H  H59  1  0.168800  0.725400  0.602400  1.0  0.1173
  H  H60  1  0.946800  0.460200  0.665800  1.0  0.1213
  H  H61  1  0.447600  0.851600  0.388400  1.0  0.1287
  H  H62  1  0.569200  0.719000  0.904400  1.0  0.1254
  H  H63  1  0.876400  0.408800  0.993400  1.0  0.1039
  H  H64  1  0.569200  0.807400  0.719000  1.0  0.1266
  H  H65  1  0.201300  0.006100  0.561100  1.0  0.1279
  H  H66  1  0.249700  0.042700  0.505300  1.0  0.1034
  H  H67  1  0.701100  0.840900  0.957700  1.0  0.0889
  H  H68  1  0.506900  0.097300  0.666667  1.0  0.1062
  H  H69  1  0.602400  0.168800  0.725400  1.0  0.1177
  H  H70  1  0.278600  0.006600  0.591200  1.0  0.1036
  H  H71  1  0.553200  0.572800  0.834200  1.0  0.1209
  H  H72  1  0.831200  0.496600  0.274600  1.0  0.1194
  H  H73  1  0.763000  0.357600  0.931400  1.0  0.1224
  H  H74  1  0.307400  0.404400  0.069200  1.0  0.1274
  H  H75  1  0.202300  0.505300  0.042700  1.0  0.1039
  H  H76  1  0.797700  0.750300  0.494700  1.0  0.101
  H  H77  1  0.460500  0.186500  0.229500  1.0  0.1161
  H  H78  1  0.237000  0.642400  0.068600  1.0  0.1227
  H  H79  1  0.874400  0.723400  0.859600  1.0  0.1265
  H  H80  1  0.831200  0.397600  0.496600  1.0  0.1144
  H  H81  1  0.763000  0.948000  0.357600  1.0  0.122
  H  H82  1  0.376400  0.908800  0.221400  1.0  0.1044
  H  H83  1  0.061100  0.506100  0.701300  1.0  0.1273
  H  H84  1  0.448000  0.431400  0.263000  1.0  0.1215
  H  H85  1  0.298900  0.159100  0.042300  1.0  0.0922
  H  H86  1  0.500300  0.701100  0.957700  1.0  0.0837
  H  H87  1  0.493400  0.376400  0.221400  1.0  0.1056
  H  H88  1  0.006600  0.123600  0.591200  1.0  0.1048
  H  H89  1  0.960200  0.446800  0.165800  1.0  0.1212
  H  H90  1  0.648400  0.187600  0.052400  1.0  0.128
  H  H91  1  0.686500  0.729500  0.623500  1.0  0.1183
  H  H92  1  0.173800  0.960800  0.554200  1.0  0.1092
  H  H93  1  0.312400  0.447600  0.388400  1.0  0.1259
  H  H94  1  0.357600  0.931400  0.763000  1.0  0.1214
  H  H95  1  0.999700  0.542300  0.798900  1.0  0.089
  H  H96  1  0.595600  0.930800  0.692600  1.0  0.1262
  H  H97  1  0.957400  0.625600  0.776600  1.0  0.1267
  H  H98  1  0.125600  0.140400  0.457400  1.0  0.1274
  H  H99  1  0.595600  0.781000  0.930800  1.0  0.1272
  H  H100  1  0.688800  0.039200  0.826200  1.0  0.1088
  H  H101  1  0.388400  0.447600  0.851600  1.0  0.1311
  H  H102  1  0.542300  0.659100  0.798900  1.0  0.0903
  H  H103  1  0.091200  0.506600  0.778600  1.0  0.1077
  H  H104  1  0.201100  0.457700  0.340900  1.0  0.0888
  H  H105  1  0.125600  0.276600  0.140400  1.0  0.1283
  H  H106  1  0.408800  0.876400  0.721400  1.0  0.1073
  H  H107  1  0.068600  0.642400  0.052000  1.0  0.1211
  H  H108  1  0.166700  0.597300  0.006900  1.0  0.1025
  H  H109  1  0.542600  0.723400  0.874400  1.0  0.127
  H  H110  1  0.687600  0.552400  0.611600  1.0  0.1246
  H  H111  1  0.159100  0.042300  0.298900  1.0  0.09
  H  H112  1  0.701300  0.506100  0.731500  1.0  0.1262
  H  H113  1  0.039800  0.553200  0.834200  1.0  0.1212
  H  H114  1  0.640400  0.957400  0.776600  1.0  0.1263
  H  H115  1  0.445800  0.688800  0.826200  1.0  0.111
  H  H116  1  0.642400  0.068600  0.237000  1.0  0.1214
  H  H117  1  0.091200  0.778600  0.623600  1.0  0.1053
  H  H118  1  0.102400  0.668800  0.003400  1.0  0.1174
  H  H119  1  0.359600  0.374400  0.042600  1.0  0.1277
  H  H120  1  0.957400  0.776600  0.640400  1.0  0.1257
  H  H121  1  0.826200  0.688800  0.039200  1.0  0.1091
  H  H122  1  0.042300  0.499700  0.298900  1.0  0.0881
  H  H123  1  0.994700  0.250300  0.297700  1.0  0.1029
  H  H124  1  0.506900  0.729100  0.097300  1.0  0.1024
  H  H125  1  0.539200  0.188800  0.326200  1.0  0.1085
  H  H126  1  0.770500  0.813500  0.876500  1.0  0.1162
  H  H127  1  0.460200  0.946800  0.927200  1.0  0.1208
  H  H128  1  0.774600  0.897600  0.996600  1.0  0.1163
  H  H129  1  0.774600  0.331200  0.897600  1.0  0.1164
  H  H130  1  0.597300  0.229100  0.006900  1.0  0.1041
  H  H131  1  0.148400  0.552400  0.687600  1.0  0.1283
  H  H132  1  0.069200  0.404400  0.219000  1.0  0.1277
  H  H133  1  0.229500  0.186500  0.123500  1.0  0.1155
  H  H134  1  0.591200  0.123600  0.278600  1.0  0.1049
  H  H135  1  0.221400  0.908800  0.493400  1.0  0.1042
  H  H136  1  0.326200  0.188800  0.945800  1.0  0.1095
  H  H137  1  0.042700  0.505300  0.249700  1.0  0.1032
  H  H138  1  0.006100  0.201300  0.231500  1.0  0.1261
  H  H139  1  0.359600  0.042600  0.223400  1.0  0.1269
  H  H140  1  0.000300  0.457700  0.201100  1.0  0.087
  H  H141  1  0.223400  0.042600  0.374400  1.0  0.1253
  H  H142  1  0.297700  0.457300  0.994700  1.0  0.1063
  H  H143  1  0.539500  0.813500  0.770500  1.0  0.1171
  H  H144  1  0.312400  0.388400  0.851600  1.0  0.1291
  H  H145  1  0.312400  0.851600  0.447600  1.0  0.1159
  H  H146  1  0.938900  0.268500  0.493900  1.0  0.1278
  H  H147  1  0.908800  0.493400  0.221400  1.0  0.1081
  H  H148  1  0.072800  0.539800  0.053200  1.0  0.1217
  H  H149  1  0.840900  0.500300  0.957700  1.0  0.0878
  H  H150  1  0.948000  0.931400  0.357600  1.0  0.1221
  H  H151  1  0.851600  0.388400  0.447600  1.0  0.1263
  H  H152  1  0.404400  0.219000  0.069200  1.0  0.1284
  H  H153  1  0.268500  0.298700  0.493900  1.0  0.1283
  H  H154  1  0.374400  0.042600  0.359600  1.0  0.1264
  H  H155  1  0.993100  0.402700  0.770900  1.0  0.1039
  H  H156  1  0.270900  0.902700  0.493100  1.0  0.1038
  H  H157  1  0.069200  0.307400  0.404400  1.0  0.1261
  H  H158  1  0.202300  0.249700  0.505300  1.0  0.1029
  H  H159  1  0.202300  0.042700  0.249700  1.0  0.1026
  H  H160  1  0.072800  0.334200  0.539800  1.0  0.1206
  H  H161  1  0.460200  0.927200  0.665800  1.0  0.1216
  H  H162  1  0.006900  0.166700  0.597300  1.0  0.1013
  H  H163  1  0.297700  0.994700  0.250300  1.0  0.1021
  H  H164  1  0.770900  0.833300  0.993100  1.0  0.104
  H  H165  1  0.623500  0.960500  0.686500  1.0  0.1189
  H  H166  1  0.687600  0.148400  0.552400  1.0  0.1244
  H  H167  1  0.948000  0.763000  0.931400  1.0  0.1237
  H  H168  1  0.123600  0.278600  0.591200  1.0  0.1031
  H  H169  1  0.237000  0.052000  0.642400  1.0  0.1219
  H  H170  1  0.334200  0.072800  0.053200  1.0  0.1215
  H  H171  1  0.225400  0.668800  0.102400  1.0  0.1173
  H  H172  1  0.833300  0.770900  0.402700  1.0  0.102
  H  H173  1  0.091200  0.623600  0.506600  1.0  0.1121
  H  H174  1  0.750300  0.957300  0.494700  1.0  0.1029
  H  H175  1  0.701300  0.731500  0.061100  1.0  0.1286
  H  H176  1  0.781000  0.595600  0.692600  1.0  0.127
  H  H177  1  0.623500  0.686500  0.729500  1.0  0.1151
  H  H178  1  0.123500  0.186500  0.460500  1.0  0.118
  H  H179  1  0.311200  0.554200  0.960800  1.0  0.1131
  H  H180  1  0.930800  0.595600  0.781000  1.0  0.1276
  H  H181  1  0.446800  0.427200  0.165800  1.0  0.1207
  H  H182  1  0.542300  0.999700  0.659100  1.0  0.0868
  H  H183  1  0.326200  0.945800  0.539200  1.0  0.1128
  H  H184  1  0.539500  0.770500  0.876500  1.0  0.1173
  H  H185  1  0.930800  0.781000  0.692600  1.0  0.1253
  H  H186  1  0.039800  0.834200  0.572800  1.0  0.122
  H  H187  1  0.388400  0.851600  0.312400  1.0  0.1268
  H  H188  1  0.874400  0.859600  0.542600  1.0  0.1281
  H  H189  1  0.268500  0.938900  0.298700  1.0  0.1271
  H  H190  1  0.165800  0.427200  0.960200  1.0  0.1216
  H  H191  1  0.397600  0.274600  0.496600  1.0  0.1167
  H  H192  1  0.054200  0.811200  0.460800  1.0  0.1111
  H  H193  1  0.042600  0.223400  0.359600  1.0  0.1256
  H  H194  1  0.250300  0.457300  0.297700  1.0  0.1032
  H  H195  1  0.111600  0.648400  0.052400  1.0  0.1261
  H  H196  1  0.812400  0.947600  0.351600  1.0  0.1298
  H  H197  1  0.659100  0.999700  0.798900  1.0  0.0885
  H  H198  1  0.807400  0.569200  0.904400  1.0  0.1253
  H  H199  1  0.438900  0.993900  0.768500  1.0  0.1284
  H  H200  1  0.102400  0.003400  0.225400  1.0  0.1162
  H  H201  1  0.298900  0.499700  0.159100  1.0  0.0901
  H  H202  1  0.648400  0.052400  0.111600  1.0  0.1265
  H  H203  1  0.223400  0.359600  0.042600  1.0  0.1278
  H  H204  1  0.142400  0.552000  0.737000  1.0  0.1211
  H  H205  1  0.313500  0.270500  0.376500  1.0  0.1183
  H  H206  1  0.006600  0.591200  0.278600  1.0  0.1059
  H  H207  1  0.039200  0.688800  0.445800  1.0  0.1088
  H  H208  1  0.993400  0.876400  0.408800  1.0  0.1056
  H  H209  1  0.731500  0.061100  0.701300  1.0  0.1271
  H  H210  1  0.333333  0.270900  0.493100  1.0  0.1013
  H  H211  1  0.219000  0.307400  0.069200  1.0  0.1258
  H  H212  1  0.187600  0.052400  0.648400  1.0  0.1279
  H  H213  1  0.659100  0.542300  0.999700  1.0  0.0879
  H  H214  1  0.039200  0.445800  0.826200  1.0  0.1113
  H  H215  1  0.457300  0.994700  0.297700  1.0  0.1053
  H  H216  1  0.768500  0.993900  0.798700  1.0  0.1293
  H  H217  1  0.376500  0.039500  0.313500  1.0  0.1173
  H  H218  1  0.268500  0.493900  0.938900  1.0  0.127
  H  H219  1  0.095600  0.281000  0.192600  1.0  0.1264
  H  H220  1  0.148400  0.687600  0.611600  1.0  0.1278
  H  H221  1  0.569200  0.904400  0.807400  1.0  0.1278
  H  H222  1  0.553200  0.039800  0.572800  1.0  0.121
  H  H223  1  0.539500  0.876500  0.813500  1.0  0.1174
  H  H224  1  0.931400  0.763000  0.357600  1.0  0.1262
  H  H225  1  0.876500  0.539500  0.770500  1.0  0.1176
  H  H226  1  0.061100  0.731500  0.506100  1.0  0.1258
  H  H227  1  0.770500  0.539500  0.813500  1.0  0.1147
  H  H228  1  0.833300  0.402700  0.993100  1.0  0.1015
  H  H229  1  0.957700  0.840900  0.500300  1.0  0.0893
  H  H230  1  0.994700  0.457300  0.250300  1.0  0.1027
  H  H231  1  0.770900  0.993100  0.402700  1.0  0.103
  H  H232  1  0.859600  0.874400  0.723400  1.0  0.1242
  H  H233  1  0.960800  0.173800  0.311200  1.0  0.109
  H  H234  1  0.673800  0.460800  0.811200  1.0  0.1092
  H  H235  1  0.408800  0.721400  0.993400  1.0  0.1058
  H  H236  1  0.993100  0.833300  0.402700  1.0  0.103
  H  H237  1  0.897600  0.331200  0.996600  1.0  0.1173
  H  H238  1  0.908800  0.376400  0.493400  1.0  0.1119
  H  H239  1  0.811200  0.460800  0.054200  1.0  0.1087
  H  H240  1  0.186500  0.123500  0.229500  1.0  0.1155
  H  H241  1  0.625600  0.640400  0.776600  1.0  0.1277
  H  H242  1  0.102400  0.225400  0.668800  1.0  0.1176
  H  H243  1  0.053200  0.334200  0.072800  1.0  0.1223
  H  H244  1  0.665800  0.946800  0.460200  1.0  0.1213
  H  H245  1  0.457300  0.250300  0.994700  1.0  0.1026
  H  H246  1  0.542300  0.798900  0.999700  1.0  0.0859
  H  H247  1  0.749700  0.005300  0.542700  1.0  0.1028
  H  H248  1  0.431400  0.448000  0.857600  1.0  0.1252
  H  H249  1  0.039200  0.826200  0.688800  1.0  0.1095
  H  H250  1  0.331200  0.774600  0.996600  1.0  0.1145
  H  H251  1  0.737000  0.142400  0.552000  1.0  0.1219
  H  H252  1  0.721400  0.876400  0.993400  1.0  0.0984
  H  H253  1  0.623500  0.729500  0.960500  1.0  0.1189
  H  H254  1  0.052000  0.642400  0.237000  1.0  0.1221
  H  H255  1  0.376500  0.270500  0.039500  1.0  0.1181
  H  H256  1  0.438900  0.798700  0.993900  1.0  0.1288
  H  H257  1  0.186500  0.460500  0.123500  1.0  0.1186
  H  H258  1  0.168800  0.503400  0.725400  1.0  0.1194
  H  H259  1  0.960500  0.623500  0.729500  1.0  0.1179
  H  H260  1  0.947600  0.351600  0.812400  1.0  0.1275
  H  H261  1  0.902700  0.270900  0.333333  1.0  0.1041
  H  H262  1  0.460800  0.673800  0.054200  1.0  0.1091
  H  H263  1  0.888400  0.947600  0.812400  1.0  0.1292
  H  H264  1  0.307400  0.219000  0.404400  1.0  0.1247
  H  H265  1  0.052400  0.187600  0.111600  1.0  0.1273
  H  H266  1  0.331200  0.897600  0.774600  1.0  0.1135
  H  H267  1  0.591200  0.006600  0.123600  1.0  0.1081
  H  H268  1  0.798700  0.993900  0.438900  1.0  0.1254
  H  H269  1  0.042700  0.249700  0.202300  1.0  0.1036
  H  H270  1  0.642400  0.237000  0.052000  1.0  0.1219
  H  H271  1  0.042300  0.298900  0.159100  1.0  0.0858
  H  H272  1  0.729100  0.097300  0.506900  1.0  0.1062
  H  H273  1  0.457400  0.125600  0.140400  1.0  0.1267
  H  H274  1  0.957300  0.494700  0.750300  1.0  0.1017
  H  H275  1  0.431400  0.857600  0.263000  1.0  0.1222
  H  H276  1  0.270900  0.333333  0.902700  1.0  0.1018
  H  H277  1  0.840900  0.701100  0.500300  1.0  0.0851
  H  H278  1  0.270500  0.039500  0.376500  1.0  0.1151
  H  H279  1  0.274600  0.831200  0.496600  1.0  0.1169
  H  H280  1  0.960800  0.311200  0.554200  1.0  0.1087
  H  H281  1  0.351600  0.812400  0.947600  1.0  0.1256
  H  H282  1  0.231500  0.006100  0.201300  1.0  0.1265
  H  H283  1  0.376400  0.221400  0.493400  1.0  0.104
  H  H284  1  0.159100  0.298900  0.499700  1.0  0.085
  H  H285  1  0.281000  0.430800  0.192600  1.0  0.1255
  H  H286  1  0.811200  0.673800  0.460800  1.0  0.1094
  H  H287  1  0.957700  0.500300  0.701100  1.0  0.0867
  H  H288  1  0.813500  0.876500  0.770500  1.0  0.1159
  H  H289  1  0.042700  0.202300  0.505300  1.0  0.1031
  H  H290  1  0.068600  0.052000  0.237000  1.0  0.1188
  H  H291  1  0.668800  0.225400  0.003400  1.0  0.1178
  H  H292  1  0.270500  0.313500  0.039500  1.0  0.1186
  H  H293  1  0.221400  0.493400  0.376400  1.0  0.1012
  H  H294  1  0.192600  0.430800  0.095600  1.0  0.1247
  H  H295  1  0.642400  0.052000  0.068600  1.0  0.1219
  H  H296  1  0.148400  0.611600  0.552400  1.0  0.1265
  H  H297  1  0.749700  0.702300  0.005300  1.0  0.1021
  H  H298  1  0.927200  0.460200  0.946800  1.0  0.1211
  H  H299  1  0.807400  0.719000  0.569200  1.0  0.1256
  H  H300  1  0.313500  0.376500  0.039500  1.0  0.1169
  H  H301  1  0.561100  0.006100  0.231500  1.0  0.1277
  H  H302  1  0.572800  0.553200  0.039800  1.0  0.1205
  H  H303  1  0.123600  0.006600  0.278600  1.0  0.107
  H  H304  1  0.500300  0.957700  0.840900  1.0  0.088
  H  H305  1  0.229100  0.166700  0.006900  1.0  0.1029
  H  H306  1  0.960800  0.554200  0.173800  1.0  0.1126
  H  H307  1  0.270900  0.493100  0.333333  1.0  0.1028
  H  H308  1  0.561100  0.201300  0.006100  1.0  0.1286
  H  H309  1  0.503400  0.725400  0.168800  1.0  0.1163
  H  H310  1  0.097300  0.666667  0.506900  1.0  0.1042
  H  H311  1  0.402700  0.770900  0.993100  1.0  0.1032
  H  H312  1  0.061100  0.701300  0.731500  1.0  0.128
  H  H313  1  0.052400  0.111600  0.648400  1.0  0.1292
  H  H314  1  0.673800  0.054200  0.460800  1.0  0.1127
  H  H315  1  0.859600  0.723400  0.542600  1.0  0.1262
  H  H316  1  0.187600  0.648400  0.111600  1.0  0.1244
  H  H317  1  0.263000  0.857600  0.448000  1.0  0.1215
  H  H318  1  0.542600  0.874400  0.859600  1.0  0.1267
  H  H319  1  0.357600  0.763000  0.948000  1.0  0.1228
  H  H320  1  0.960200  0.427200  0.446800  1.0  0.1206
  H  H321  1  0.666667  0.506900  0.097300  1.0  0.1025
  H  H322  1  0.376400  0.493400  0.908800  1.0  0.1118
  H  H323  1  0.552400  0.687600  0.148400  1.0  0.1285
  H  H324  1  0.692600  0.930800  0.781000  1.0  0.1245
  H  H325  1  0.591200  0.278600  0.006600  1.0  0.1049
  H  H326  1  0.229500  0.123500  0.460500  1.0  0.1171
  H  H327  1  0.494700  0.797700  0.750300  1.0  0.1037
  H  H328  1  0.165800  0.446800  0.427200  1.0  0.1214
  H  H329  1  0.229100  0.597300  0.166700  1.0  0.1051
  H  H330  1  0.776600  0.957400  0.625600  1.0  0.1265
  H  H331  1  0.553200  0.834200  0.039800  1.0  0.1225
  H  H332  1  0.812400  0.888400  0.947600  1.0  0.1256
  H  H333  1  0.506600  0.623600  0.778600  1.0  0.1049
  H  H334  1  0.494700  0.750300  0.957300  1.0  0.1025
  H  H335  1  0.552000  0.568600  0.737000  1.0  0.1216
  H  H336  1  0.042300  0.159100  0.499700  1.0  0.0889
  H  H337  1  0.188800  0.539200  0.945800  1.0  0.1086
  H  H338  1  0.554200  0.311200  0.173800  1.0  0.1106
  H  H339  1  0.003400  0.225400  0.102400  1.0  0.1142
  H  H340  1  0.493900  0.298700  0.938900  1.0  0.1258
  H  H341  1  0.640400  0.776600  0.625600  1.0  0.1249
  H  H342  1  0.493900  0.268500  0.298700  1.0  0.1271
  H  H343  1  0.298700  0.938900  0.493900  1.0  0.128
  H  H344  1  0.996600  0.774600  0.897600  1.0  0.116
  H  H345  1  0.052000  0.237000  0.068600  1.0  0.1208
  H  H346  1  0.945800  0.539200  0.326200  1.0  0.1076
  H  H347  1  0.460500  0.123500  0.186500  1.0  0.1186
  H  H348  1  0.902700  0.493100  0.270900  1.0  0.1036
  H  H349  1  0.539200  0.945800  0.188800  1.0  0.1111
  H  H350  1  0.568600  0.142400  0.737000  1.0  0.1213
  H  H351  1  0.231500  0.201300  0.561100  1.0  0.1289
  H  H352  1  0.140400  0.457400  0.125600  1.0  0.1263
  H  H353  1  0.333333  0.493100  0.902700  1.0  0.1037
  H  H354  1  0.446800  0.960200  0.427200  1.0  0.1212
  H  H355  1  0.996600  0.897600  0.331200  1.0  0.1183
  H  H356  1  0.834200  0.572800  0.039800  1.0  0.1214
  H  H357  1  0.281000  0.192600  0.095600  1.0  0.1258
  H  H358  1  0.249700  0.505300  0.202300  1.0  0.1025
  H  H359  1  0.445800  0.826200  0.039200  1.0  0.1104
  H  H360  1  0.313500  0.039500  0.270500  1.0  0.117
  H  H361  1  0.506100  0.731500  0.701300  1.0  0.1263
  H  H362  1  0.851600  0.312400  0.388400  1.0  0.1262
  H  H363  1  0.960500  0.729500  0.686500  1.0  0.116
  H  H364  1  0.331200  0.996600  0.897600  1.0  0.1185
  H  H365  1  0.042600  0.374400  0.223400  1.0  0.1268
  H  H366  1  0.460200  0.665800  0.946800  1.0  0.1214
  H  H367  1  0.457400  0.140400  0.276600  1.0  0.1274
  H  H368  1  0.723400  0.542600  0.859600  1.0  0.1254
  H  H369  1  0.042600  0.359600  0.374400  1.0  0.1271
  H  H370  1  0.851600  0.447600  0.312400  1.0  0.1265
  H  H371  1  0.897600  0.774600  0.331200  1.0  0.1168
  H  H372  1  0.798700  0.438900  0.768500  1.0  0.1283
  H  H373  1  0.999700  0.659100  0.542300  1.0  0.0886
  H  H374  1  0.250300  0.994700  0.457300  1.0  0.102
  H  H375  1  0.374400  0.359600  0.223400  1.0  0.1269
  H  H376  1  0.833300  0.993100  0.770900  1.0  0.1017
  H  H377  1  0.702300  0.542700  0.005300  1.0  0.1042
  H  H378  1  0.351600  0.888400  0.812400  1.0  0.126
  H  H379  1  0.298900  0.042300  0.499700  1.0  0.0894
  H  H380  1  0.749700  0.542700  0.702300  1.0  0.1036
  H  H381  1  0.947600  0.812400  0.888400  1.0  0.1284
  H  H382  1  0.427200  0.165800  0.446800  1.0  0.1213
  H  H383  1  0.499700  0.159100  0.298900  1.0  0.0895
  H  H384  1  0.397600  0.496600  0.831200  1.0  0.1194
  H  H385  1  0.276600  0.140400  0.125600  1.0  0.1277
  H  H386  1  0.994700  0.297700  0.457300  1.0  0.1062
  H  H387  1  0.493100  0.333333  0.270900  1.0  0.1027
  H  H388  1  0.493100  0.270900  0.902700  1.0  0.1021
  H  H389  1  0.602400  0.725400  0.503400  1.0  0.1169
  H  H390  1  0.052000  0.068600  0.642400  1.0  0.1216
  H  H391  1  0.957300  0.797700  0.494700  1.0  0.1032
  H  H392  1  0.611600  0.687600  0.552400  1.0  0.1283
  H  H393  1  0.798700  0.768500  0.993900  1.0  0.1288
  H  H394  1  0.552000  0.142400  0.568600  1.0  0.1219
  H  H395  1  0.719000  0.904400  0.569200  1.0  0.1278
  H  H396  1  0.192600  0.095600  0.281000  1.0  0.1266
  H  H397  1  0.539800  0.053200  0.072800  1.0  0.1212
  H  H398  1  0.278600  0.123600  0.006600  1.0  0.1038
  H  H399  1  0.993100  0.770900  0.833300  1.0  0.1026
  H  H400  1  0.506600  0.778600  0.091200  1.0  0.105
  H  H401  1  0.542600  0.859600  0.723400  1.0  0.1273
  H  H402  1  0.731500  0.506100  0.061100  1.0  0.1264
  H  H403  1  0.666667  0.729100  0.506900  1.0  0.1018
  H  H404  1  0.276600  0.457400  0.140400  1.0  0.1269
  H  H405  1  0.097300  0.506900  0.729100  1.0  0.1024
  H  H406  1  0.701100  0.957700  0.500300  1.0  0.0888
  H  H407  1  0.274600  0.397600  0.831200  1.0  0.1163
  H  H408  1  0.938900  0.298700  0.268500  1.0  0.1281
  H  H409  1  0.039800  0.572800  0.553200  1.0  0.1214
  H  H410  1  0.812400  0.351600  0.888400  1.0  0.1163
  H  H411  1  0.561100  0.231500  0.201300  1.0  0.1271
  H  H412  1  0.334200  0.053200  0.539800  1.0  0.1215
  H  H413  1  0.388400  0.312400  0.447600  1.0  0.128
  H  H414  1  0.993900  0.798700  0.768500  1.0  0.1264
  H  H415  1  0.552400  0.611600  0.687600  1.0  0.1271
  H  H416  1  0.927200  0.946800  0.665800  1.0  0.1213
  H  H417  1  0.270500  0.376500  0.313500  1.0  0.1177
  H  H418  1  0.673800  0.811200  0.054200  1.0  0.1088
  H  H419  1  0.876500  0.770500  0.813500  1.0  0.1181
  H  H420  1  0.798900  0.999700  0.542300  1.0  0.0896
  H  H421  1  0.702300  0.749700  0.542700  1.0  0.1026
  H  H422  1  0.506100  0.701300  0.061100  1.0  0.126
  H  H423  1  0.993900  0.768500  0.438900  1.0  0.1269
  H  H424  1  0.000300  0.340900  0.457700  1.0  0.0885
  H  H425  1  0.897600  0.996600  0.774600  1.0  0.1169
  H  H426  1  0.186500  0.229500  0.460500  1.0  0.118
  H  H427  1  0.298700  0.493900  0.268500  1.0  0.1243
  H  H428  1  0.340900  0.000300  0.201100  1.0  0.0874
  H  H429  1  0.945800  0.326200  0.188800  1.0  0.1096
  H  H430  1  0.493900  0.938900  0.268500  1.0  0.1261
  H  H431  1  0.505300  0.202300  0.249700  1.0  0.1025
  H  H432  1  0.725400  0.602400  0.168800  1.0  0.1176
  H  H433  1  0.623600  0.091200  0.778600  1.0  0.104
  H  H434  1  0.648400  0.111600  0.187600  1.0  0.1277
  H  H435  1  0.750300  0.494700  0.797700  1.0  0.1028
  H  H436  1  0.770900  0.402700  0.833300  1.0  0.1032
  H  H437  1  0.857600  0.431400  0.448000  1.0  0.1211
  H  H438  1  0.457300  0.297700  0.250300  1.0  0.1031
  H  H439  1  0.039500  0.313500  0.376500  1.0  0.1172
  H  H440  1  0.993900  0.438900  0.798700  1.0  0.1274
  H  H441  1  0.729500  0.686500  0.960500  1.0  0.115
  H  H442  1  0.404400  0.069200  0.307400  1.0  0.1257
  H  H443  1  0.159100  0.499700  0.042300  1.0  0.0872
  H  H444  1  0.173800  0.311200  0.960800  1.0  0.1089
  H  H445  1  0.278600  0.591200  0.123600  1.0  0.1068
  H  H446  1  0.503400  0.168800  0.602400  1.0  0.1182
  H  H447  1  0.688800  0.445800  0.039200  1.0  0.1127
  H  H448  1  0.140400  0.276600  0.457400  1.0  0.1231
  H  H449  1  0.506100  0.061100  0.731500  1.0  0.1276
  H  H450  1  0.231500  0.561100  0.006100  1.0  0.1266
  H  H451  1  0.446800  0.165800  0.960200  1.0  0.1216
  H  H452  1  0.333333  0.902700  0.270900  1.0  0.1012
  H  H453  1  0.505300  0.249700  0.042700  1.0  0.1031
  H  H454  1  0.945800  0.188800  0.539200  1.0  0.1113
  H  H455  1  0.408800  0.993400  0.876400  1.0  0.1071
  H  H456  1  0.123500  0.229500  0.186500  1.0  0.1183
  H  H457  1  0.999700  0.798900  0.659100  1.0  0.0846
  H  H458  1  0.668800  0.102400  0.225400  1.0  0.1176
  H  H459  1  0.811200  0.054200  0.673800  1.0  0.1128
  H  H460  1  0.223400  0.374400  0.359600  1.0  0.1259
  H  H461  1  0.500300  0.840900  0.701100  1.0  0.0883
  H  H462  1  0.552000  0.737000  0.142400  1.0  0.1223
  H  H463  1  0.813500  0.539500  0.876500  1.0  0.1176
  H  H464  1  0.506600  0.091200  0.623600  1.0  0.113
  H  H465  1  0.778600  0.091200  0.506600  1.0  0.1071
  H  H466  1  0.229100  0.006900  0.597300  1.0  0.1032
  H  H467  1  0.140400  0.125600  0.276600  1.0  0.1256
  H  H468  1  0.095600  0.430800  0.281000  1.0  0.1262
  H  H469  1  0.340900  0.457700  0.000300  1.0  0.0884
  H  H470  1  0.054200  0.460800  0.673800  1.0  0.1084
  H  H471  1  0.263000  0.431400  0.857600  1.0  0.1219
  H  H472  1  0.554200  0.173800  0.960800  1.0  0.1097
  H  H473  1  0.111600  0.052400  0.187600  1.0  0.1271
  H  H474  1  0.427200  0.960200  0.165800  1.0  0.1218
  H  H475  1  0.957300  0.750300  0.797700  1.0  0.1026
  H  H476  1  0.249700  0.202300  0.042700  1.0  0.1022
  H  H477  1  0.496600  0.397600  0.274600  1.0  0.1156
  H  H478  1  0.276600  0.125600  0.457400  1.0  0.1266
  H  H479  1  0.003400  0.102400  0.668800  1.0  0.1165
  H  H480  1  0.430800  0.095600  0.192600  1.0  0.1271
  H  H481  1  0.427200  0.446800  0.960200  1.0  0.1208
  H  H482  1  0.774600  0.996600  0.331200  1.0  0.1186
  H  H483  1  0.460800  0.811200  0.673800  1.0  0.1088
  H  H484  1  0.692600  0.595600  0.930800  1.0  0.1272
  H  H485  1  0.568600  0.737000  0.552000  1.0  0.1192
  H  H486  1  0.123600  0.591200  0.006600  1.0  0.105
  H  H487  1  0.448000  0.263000  0.857600  1.0  0.1242
  H  H488  1  0.834200  0.553200  0.572800  1.0  0.1212
  H  H489  1  0.221400  0.376400  0.908800  1.0  0.0975
  H  H490  1  0.797700  0.494700  0.957300  1.0  0.1015
  H  H491  1  0.039500  0.270500  0.313500  1.0  0.1169
  H  H492  1  0.326200  0.539200  0.188800  1.0  0.1092
  H  H493  1  0.340900  0.201100  0.457700  1.0  0.0852
  H  H494  1  0.493100  0.902700  0.333333  1.0  0.1041
  H  H495  1  0.768500  0.798700  0.438900  1.0  0.1293
  H  H496  1  0.813500  0.770500  0.539500  1.0  0.119
  H  H497  1  0.948000  0.357600  0.763000  1.0  0.1206
  H  H498  1  0.357600  0.948000  0.931400  1.0  0.122
  H  H499  1  0.457700  0.000300  0.340900  1.0  0.0874
  H  H500  1  0.457700  0.340900  0.201100  1.0  0.0885
  H  H501  1  0.725400  0.168800  0.503400  1.0  0.1176
  H  H502  1  0.445800  0.039200  0.688800  1.0  0.1076
  H  H503  1  0.054200  0.673800  0.811200  1.0  0.1099
  H  H504  1  0.219000  0.069200  0.404400  1.0  0.1253
  H  H505  1  0.993400  0.408800  0.721400  1.0  0.1065
  H  H506  1  0.798900  0.659100  0.999700  1.0  0.0924
  H  H507  1  0.625600  0.957400  0.640400  1.0  0.1272
  H  H508  1  0.000300  0.201100  0.340900  1.0  0.0829
  H  H509  1  0.166700  0.006900  0.229100  1.0  0.101
  H  H510  1  0.402700  0.993100  0.833300  1.0  0.1025
  H  H511  1  0.960200  0.165800  0.427200  1.0  0.1211
  H  H512  1  0.623600  0.778600  0.506600  1.0  0.1034
  H  H513  1  0.776600  0.640400  0.957400  1.0  0.1269
  H  H514  1  0.493400  0.908800  0.376400  1.0  0.1127
  H  H515  1  0.687600  0.611600  0.148400  1.0  0.1278
  H  H516  1  0.729100  0.666667  0.097300  1.0  0.102
  H  H517  1  0.686500  0.960500  0.729500  1.0  0.117
  H  H518  1  0.763000  0.931400  0.948000  1.0  0.1198
  H  H519  1  0.996600  0.331200  0.774600  1.0  0.118
  H  H520  1  0.957700  0.701100  0.840900  1.0  0.0851
  H  H521  1  0.006900  0.597300  0.229100  1.0  0.1041
  H  H522  1  0.931400  0.357600  0.948000  1.0  0.1224
  H  H523  1  0.165800  0.960200  0.446800  1.0  0.1215
  H  H524  1  0.447600  0.388400  0.312400  1.0  0.1298
  H  H525  1  0.840900  0.957700  0.701100  1.0  0.0877
  H  H526  1  0.166700  0.229100  0.597300  1.0  0.1035
  H  H527  1  0.595600  0.692600  0.781000  1.0  0.1269
  H  H528  1  0.552400  0.148400  0.611600  1.0  0.1268
  H  H529  1  0.187600  0.111600  0.052400  1.0  0.1247
  H  H530  1  0.430800  0.192600  0.281000  1.0  0.1258
  H  H531  1  0.857600  0.263000  0.431400  1.0  0.123
  H  H532  1  0.505300  0.042700  0.202300  1.0  0.1026
  H  H533  1  0.611600  0.148400  0.687600  1.0  0.1272
  H  H534  1  0.448000  0.857600  0.431400  1.0  0.1217
  H  H535  1  0.201300  0.561100  0.231500  1.0  0.1284
  H  H536  1  0.274600  0.496600  0.397600  1.0  0.1166
  H  H537  1  0.201100  0.000300  0.457700  1.0  0.087
  H  H538  1  0.225400  0.003400  0.668800  1.0  0.1171
  H  H539  1  0.831200  0.274600  0.397600  1.0  0.114
  H  H540  1  0.701100  0.500300  0.840900  1.0  0.0866
  H  H541  1  0.250300  0.297700  0.994700  1.0  0.1025
  H  H542  1  0.006100  0.561100  0.201300  1.0  0.1277
  H  H543  1  0.640400  0.625600  0.957400  1.0  0.1254
  H  H544  1  0.053200  0.539800  0.334200  1.0  0.1209
  H  H545  1  0.404400  0.307400  0.219000  1.0  0.1268
  H  H546  1  0.201100  0.340900  0.000300  1.0  0.089
  H  H547  1  0.447600  0.312400  0.851600  1.0  0.1298
  H  H548  1  0.737000  0.568600  0.142400  1.0  0.1208
  H  H549  1  0.572800  0.834200  0.553200  1.0  0.121
  H  H550  1  0.097300  0.729100  0.666667  1.0  0.1034
  H  H551  1  0.125600  0.457400  0.276600  1.0  0.1275
  H  H552  1  0.770500  0.876500  0.539500  1.0  0.1198
  H  H553  1  0.307400  0.069200  0.219000  1.0  0.1267
  H  H554  1  0.993400  0.721400  0.876400  1.0  0.1051
  H  H555  1  0.359600  0.223400  0.374400  1.0  0.1228
  H  H556  1  0.334200  0.539800  0.072800  1.0  0.1213
  H  H557  1  0.625600  0.776600  0.957400  1.0  0.1302
  H  H558  1  0.142400  0.568600  0.552000  1.0  0.1212
  H  H559  1  0.005300  0.702300  0.542700  1.0  0.1052
  H  H560  1  0.188800  0.945800  0.326200  1.0  0.1112
  H  H561  1  0.431400  0.263000  0.448000  1.0  0.122
  H  H562  1  0.719000  0.569200  0.807400  1.0  0.1266
  H  H563  1  0.072800  0.053200  0.334200  1.0  0.1209
  H  H564  1  0.665800  0.460200  0.927200  1.0  0.1214
  H  H565  1  0.859600  0.542600  0.874400  1.0  0.1267
  H  H566  1  0.938900  0.493900  0.298700  1.0  0.1293
  H  H567  1  0.039500  0.376500  0.270500  1.0  0.1184
  H  H568  1  0.068600  0.237000  0.642400  1.0  0.121
  H  H569  1  0.430800  0.281000  0.095600  1.0  0.126
  H  H570  1  0.665800  0.927200  0.946800  1.0  0.1213
  H  H571  1  0.904400  0.569200  0.719000  1.0  0.1259
  H  H572  1  0.281000  0.095600  0.430800  1.0  0.1271
  H  H573  1  0.778600  0.623600  0.091200  1.0  0.1033
  H  H574  1  0.499700  0.298900  0.042300  1.0  0.084
  H  H575  1  0.611600  0.552400  0.148400  1.0  0.1292
  H  H576  1  0.927200  0.665800  0.460200  1.0  0.1213
  H  H577  1  0.496600  0.274600  0.831200  1.0  0.1179
  H  H578  1  0.506900  0.666667  0.729100  1.0  0.1028
  H  H579  1  0.376500  0.313500  0.270500  1.0  0.1137
  H  H580  1  0.947600  0.888400  0.351600  1.0  0.1315
  H  H581  1  0.539800  0.334200  0.053200  1.0  0.1219
  H  H582  1  0.142400  0.737000  0.568600  1.0  0.123
  H  H583  1  0.374400  0.223400  0.042600  1.0  0.128
  H  H584  1  0.776600  0.625600  0.640400  1.0  0.1257
  H  H585  1  0.539200  0.326200  0.945800  1.0  0.1096
  H  H586  1  0.781000  0.930800  0.595600  1.0  0.1247
  H  H587  1  0.457700  0.201100  0.000300  1.0  0.0842
  H  H588  1  0.798900  0.542300  0.659100  1.0  0.0888
  H  H589  1  0.219000  0.404400  0.307400  1.0  0.1266
  H  H590  1  0.723400  0.859600  0.874400  1.0  0.1259
  H  H591  1  0.006100  0.231500  0.561100  1.0  0.1277
  H  H592  1  0.904400  0.807400  0.569200  1.0  0.1273
  H  H593  1  0.659100  0.798900  0.542300  1.0  0.0852
  H  H594  1  0.778600  0.506600  0.623600  1.0  0.1019
  H  H595  1  0.902700  0.333333  0.493100  1.0  0.1029
  H  H596  1  0.457400  0.276600  0.125600  1.0  0.1257
  H  H597  1  0.402700  0.833300  0.770900  1.0  0.1015
  H  H598  1  0.053200  0.072800  0.539800  1.0  0.1208
  H  H599  1  0.737000  0.552000  0.568600  1.0  0.1201
  H  H600  1  0.493400  0.221400  0.908800  1.0  0.1052
  H  H601  1  0.666667  0.097300  0.729100  1.0  0.1012
  H  H602  1  0.931400  0.948000  0.763000  1.0  0.1221
  H  H603  1  0.542700  0.702300  0.749700  1.0  0.1032
  H  H604  1  0.946800  0.665800  0.927200  1.0  0.1218
  H  H605  1  0.568600  0.552000  0.142400  1.0  0.1218
  H  H606  1  0.351600  0.947600  0.888400  1.0  0.1271
  H  H607  1  0.003400  0.668800  0.225400  1.0  0.1175
  H  H608  1  0.095600  0.192600  0.430800  1.0  0.1281
  H  H609  1  0.826200  0.445800  0.688800  1.0  0.1106
  H  H610  1  0.729500  0.960500  0.623500  1.0  0.1178
  H  H611  1  0.602400  0.503400  0.168800  1.0  0.1169
  H  H612  1  0.876400  0.721400  0.408800  1.0  0.1031
  H  H613  1  0.723400  0.874400  0.542600  1.0  0.1264
  H  H614  1  0.499700  0.042300  0.159100  1.0  0.0876
  H  H615  1  0.623600  0.506600  0.091200  1.0  0.1124
  H  H616  1  0.006900  0.229100  0.166700  1.0  0.102
  H  H617  1  0.554200  0.960800  0.311200  1.0  0.1086
  H  H618  1  0.494700  0.957300  0.797700  1.0  0.1038
  H  H619  1  0.930800  0.692600  0.595600  1.0  0.1265
  H  H620  1  0.876400  0.993400  0.721400  1.0  0.106
  H  H621  1  0.686500  0.623500  0.960500  1.0  0.1182
  H  H622  1  0.069200  0.219000  0.307400  1.0  0.1258
  H  H623  1  0.597300  0.166700  0.229100  1.0  0.1019
  H  H624  1  0.006600  0.278600  0.123600  1.0  0.1055
  H  H625  1  0.297700  0.250300  0.457300  1.0  0.1009
  H  H626  1  0.201300  0.231500  0.006100  1.0  0.1298
  H  H627  1  0.721400  0.408800  0.876400  1.0  0.1045
  H  H628  1  0.225400  0.102400  0.003400  1.0  0.1169
  H  H629  1  0.572800  0.039800  0.834200  1.0  0.1213
  H  H630  1  0.797700  0.957300  0.750300  1.0  0.1039
  H  H631  1  0.888400  0.812400  0.351600  1.0  0.1297
  H  H632  1  0.876500  0.813500  0.539500  1.0  0.1164
  H  H633  1  0.237000  0.068600  0.052000  1.0  0.1224
  H  H634  1  0.460800  0.054200  0.811200  1.0  0.1124
  H  H635  1  0.263000  0.448000  0.431400  1.0  0.1221
  H  H636  1  0.597300  0.006900  0.166700  1.0  0.104
  H  H637  1  0.503400  0.602400  0.725400  1.0  0.115
  H  H638  1  0.834200  0.039800  0.553200  1.0  0.1212
  H  H639  1  0.052400  0.648400  0.187600  1.0  0.1281
  H  H640  1  0.888400  0.351600  0.947600  1.0  0.1273
  H  H641  1  0.719000  0.807400  0.904400  1.0  0.1249
  H  H642  1  0.729500  0.623500  0.686500  1.0  0.1164
  H  H643  1  0.725400  0.503400  0.602400  1.0  0.1163
  H  H644  1  0.123500  0.460500  0.229500  1.0  0.1174
  H  H645  1  0.311200  0.960800  0.173800  1.0  0.1086
  H  H646  1  0.005300  0.749700  0.702300  1.0  0.1022
  H  H647  1  0.701300  0.061100  0.506100  1.0  0.1287
  H  H648  1  0.229500  0.460500  0.186500  1.0  0.1177
  C  C649  1  0.036980  0.596640  0.882540  1.0  0.6903
  C  C650  1  0.617460  0.903360  0.463020  1.0  0.6836
  C  C651  1  0.812610  0.894390  0.849170  1.0  -0.0842
  C  C652  1  0.904350  0.474010  0.255630  1.0  -0.154
  C  C653  1  0.145640  0.190220  0.555760  1.0  -0.0442
  C  C654  1  0.583360  0.559340  0.813540  1.0  -0.1139
  C  C655  1  0.474010  0.904350  0.366010  1.0  -0.1509
  C  C656  1  0.265040  0.503260  0.169780  1.0  -0.1519
  C  C657  1  0.655090  0.052070  0.493250  1.0  -0.0413
  C  C658  1  0.142980  0.534180  0.721600  1.0  -0.3084
  C  C659  1  0.633990  0.744370  0.525990  1.0  -0.1536
  C  C660  1  0.672580  0.762880  0.605480  1.0  -0.2964
  C  C661  1  0.747890  0.443570  0.980010  1.0  -0.0916
  C  C662  1  0.741020  0.050660  0.572280  1.0  0.0514
  C  C663  1  0.857020  0.465820  0.278400  1.0  -0.3089
  C  C664  1  0.072280  0.550660  0.241020  1.0  0.0518
  C  C665  1  0.400660  0.414060  0.234100  1.0  -0.0114
  C  C666  1  0.244370  0.595650  0.133990  1.0  -0.1595
  C  C667  1  0.414060  0.234100  0.400660  1.0  -0.0146
  C  C668  1  0.043760  0.559340  0.583360  1.0  -0.1142
  C  C669  1  0.556430  0.171470  0.019990  1.0  -0.0913
  C  C670  1  0.595650  0.133990  0.244370  1.0  -0.1607
  C  C671  1  0.686460  0.940660  0.916640  1.0  -0.1142
  C  C672  1  0.438080  0.996740  0.330220  1.0  -0.1456
  C  C673  1  0.655090  0.799590  0.052070  1.0  -0.0456
  C  C674  1  0.099340  0.265900  0.085940  1.0  -0.0113
  C  C675  1  0.617460  0.463020  0.016160  1.0  0.6861
  C  C676  1  0.255630  0.474010  0.366010  1.0  -0.1575
  C  C677  1  0.150830  0.105610  0.556170  1.0  -0.0844
  C  C678  1  0.312610  0.943830  0.349170  1.0  -0.0841
  C  C679  1  0.894390  0.812610  0.443830  1.0  -0.0853
  C  C680  1  0.244370  0.025990  0.595650  1.0  -0.1535
  C  C681  1  0.894390  0.849170  0.812610  1.0  -0.0852
  C  C682  1  0.927720  0.863960  0.449340  1.0  0.0512
  C  C683  1  0.947930  0.200410  0.506750  1.0  -0.0452
  C  C684  1  0.446140  0.856080  0.932580  1.0  -0.0141
  C  C685  1  0.605480  0.762880  0.959060  1.0  -0.296
  C  C686  1  0.974010  0.404350  0.755630  1.0  -0.1513
  C  C687  1  0.642980  0.034180  0.101240  1.0  -0.3084
  C  C688  1  0.996740  0.330220  0.438080  1.0  -0.1481
  C  C689  1  0.056430  0.752110  0.519990  1.0  -0.0922
  C  C690  1  0.444240  0.891620  0.854360  1.0  -0.0437
  C  C691  1  0.480010  0.247890  0.328530  1.0  -0.0929
  C  C692  1  0.048820  0.585940  0.599340  1.0  -0.0114
  C  C693  1  0.778400  0.965820  0.357020  1.0  -0.3093
  C  C694  1  0.096640  0.536980  0.382540  1.0  0.688
  C  C695  1  0.854360  0.809780  0.444240  1.0  -0.0412
  C  C696  1  0.938080  0.496740  0.734960  1.0  -0.1459
  C  C697  1  0.605610  0.650830  0.056170  1.0  -0.0851
  C  C698  1  0.095650  0.525990  0.744370  1.0  -0.1522
  C  C699  1  0.993250  0.299590  0.552070  1.0  -0.0442
  C  C700  1  0.741020  0.572280  0.636040  1.0  0.0507
  C  C701  1  0.938080  0.830220  0.496740  1.0  -0.1489
  C  C702  1  0.187390  0.105610  0.150830  1.0  -0.0842
  C  C703  1  0.055760  0.608380  0.690220  1.0  -0.045
  C  C704  1  0.142980  0.721600  0.601240  1.0  -0.3092
  C  C705  1  0.143920  0.067420  0.553860  1.0  -0.0229
  C  C706  1  0.357020  0.898760  0.778400  1.0  -0.3116
  C  C707  1  0.169780  0.503260  0.061920  1.0  -0.1484
  C  C708  1  0.449340  0.758980  0.927720  1.0  0.0499
  C  C709  1  0.503260  0.265040  0.061920  1.0  -0.1488
  C  C710  1  0.169270  0.955330  0.388250  1.0  -0.1425
  C  C711  1  0.016160  0.463020  0.903360  1.0  0.6884
  C  C712  1  0.101240  0.642980  0.034180  1.0  -0.3093
  C  C713  1  0.265200  0.356080  0.432580  1.0  -0.0193
  C  C714  1  0.382540  0.536980  0.983840  1.0  0.6861
  C  C715  1  0.247890  0.480010  0.943570  1.0  -0.0886
  C  C716  1  0.403360  0.516160  0.117460  1.0  0.6876
  C  C717  1  0.366010  0.255630  0.474010  1.0  -0.1555
  C  C718  1  0.012850  0.330730  0.544670  1.0  -0.1407
  C  C719  1  0.447930  0.700410  0.844910  1.0  -0.0453
  C  C720  1  0.548820  0.265900  0.099340  1.0  -0.0117
  C  C721  1  0.525990  0.095650  0.633990  1.0  -0.1538
  C  C722  1  0.044670  0.611750  0.830730  1.0  -0.1425
  C  C723  1  0.734960  0.496740  0.830220  1.0  -0.151
  C  C724  1  0.117460  0.963020  0.403360  1.0  0.6851
  C  C725  1  0.155090  0.993250  0.552070  1.0  -0.0446
  C  C726  1  0.234800  0.553860  0.067420  1.0  -0.018
  C  C727  1  0.349170  0.312610  0.943830  1.0  -0.0839
  C  C728  1  0.105610  0.187390  0.556170  1.0  -0.0837
  C  C729  1  0.043760  0.813540  0.559340  1.0  -0.1131
  C  C730  1  0.940660  0.686460  0.456240  1.0  -0.1136
  C  C731  1  0.085940  0.265900  0.548820  1.0  -0.0055
  C  C732  1  0.006750  0.844910  0.700410  1.0  -0.0456
  C  C733  1  0.944240  0.391620  0.309780  1.0  -0.0444
  C  C734  1  0.605610  0.056170  0.687390  1.0  -0.0842
  C  C735  1  0.734960  0.830220  0.938080  1.0  -0.1497
  C  C736  1  0.050660  0.572280  0.741020  1.0  0.0503
  C  C737  1  0.550660  0.072280  0.136040  1.0  0.0498
  C  C738  1  0.105610  0.150830  0.187390  1.0  -0.0841
  C  C739  1  0.882540  0.036980  0.596640  1.0  0.6866
  C  C740  1  0.543760  0.059340  0.313540  1.0  -0.113
  C  C741  1  0.916640  0.940660  0.456240  1.0  -0.1125
  C  C742  1  0.241020  0.072280  0.550660  1.0  0.0517
  C  C743  1  0.155090  0.299590  0.993250  1.0  -0.0428
  C  C744  1  0.830220  0.734960  0.496740  1.0  -0.1464
  C  C745  1  0.519990  0.671470  0.056430  1.0  -0.0944
  C  C746  1  0.932580  0.856080  0.765200  1.0  -0.0193
  C  C747  1  0.258980  0.363960  0.949340  1.0  0.052
  C  C748  1  0.596640  0.036980  0.483840  1.0  0.689
  C  C749  1  0.516160  0.117460  0.403360  1.0  0.6889
  C  C750  1  0.006750  0.700410  0.447930  1.0  -0.0432
  C  C751  1  0.556170  0.187390  0.150830  1.0  -0.0854
  C  C752  1  0.752110  0.056430  0.671470  1.0  -0.0925
  C  C753  1  0.363960  0.427720  0.949340  1.0  0.0508
  C  C754  1  0.427720  0.949340  0.363960  1.0  0.0516
  C  C755  1  0.221600  0.101240  0.034180  1.0  -0.3125
  C  C756  1  0.414060  0.400660  0.951180  1.0  -0.012
  C  C757  1  0.959060  0.672580  0.605480  1.0  -0.2966
  C  C758  1  0.894520  0.737120  0.827420  1.0  -0.299
  C  C759  1  0.765040  0.669780  0.003260  1.0  -0.1494
  C  C760  1  0.187390  0.556170  0.105610  1.0  -0.0841
  C  C761  1  0.944240  0.309780  0.354360  1.0  -0.0411
  C  C762  1  0.391620  0.309780  0.944240  1.0  -0.0413
  C  C763  1  0.262880  0.459060  0.172580  1.0  -0.2966
  C  C764  1  0.200410  0.506750  0.947930  1.0  -0.0444
  C  C765  1  0.388250  0.169270  0.955330  1.0  -0.1411
  C  C766  1  0.812610  0.849170  0.443830  1.0  -0.0838
  C  C767  1  0.891620  0.854360  0.444240  1.0  -0.0375
  C  C768  1  0.003260  0.669780  0.561920  1.0  -0.1487
  C  C769  1  0.403360  0.963020  0.516160  1.0  0.6893
  C  C770  1  0.117460  0.516160  0.963020  1.0  0.6831
  C  C771  1  0.599340  0.585940  0.765900  1.0  -0.0136
  C  C772  1  0.949340  0.363960  0.427720  1.0  0.0512
  C  C773  1  0.105480  0.172580  0.459060  1.0  -0.2969
  C  C774  1  0.237120  0.327420  0.040940  1.0  -0.2966
  C  C775  1  0.914060  0.734100  0.451180  1.0  -0.0074
  C  C776  1  0.278400  0.465820  0.398760  1.0  -0.3091
  C  C777  1  0.111750  0.012850  0.544670  1.0  -0.1425
  C  C778  1  0.111750  0.330730  0.012850  1.0  -0.1395
  C  C779  1  0.943570  0.328530  0.247890  1.0  -0.0932
  C  C780  1  0.894520  0.827420  0.540940  1.0  -0.2992
  C  C781  1  0.690220  0.608380  0.645640  1.0  -0.0445
  C  C782  1  0.636040  0.050660  0.741020  1.0  0.0523
  C  C783  1  0.536980  0.382540  0.096640  1.0  0.6871
  C  C784  1  0.585940  0.048820  0.765900  1.0  -0.0119
  C  C785  1  0.904350  0.366010  0.474010  1.0  -0.1633
  C  C786  1  0.459060  0.262880  0.105480  1.0  -0.2981
  C  C787  1  0.830730  0.044670  0.611750  1.0  -0.1428
  C  C788  1  0.963020  0.117460  0.516160  1.0  0.6875
  C  C789  1  0.187390  0.150830  0.556170  1.0  -0.0856
  C  C790  1  0.544670  0.111750  0.012850  1.0  -0.1409
  C  C791  1  0.827420  0.737120  0.540940  1.0  -0.2969
  C  C792  1  0.813540  0.583360  0.559340  1.0  -0.1132
  C  C793  1  0.534180  0.142980  0.601240  1.0  -0.3087
  C  C794  1  0.737120  0.894520  0.540940  1.0  -0.2991
  C  C795  1  0.943830  0.394390  0.349170  1.0  -0.0841
  C  C796  1  0.555760  0.145640  0.190220  1.0  -0.0436
  C  C797  1  0.095650  0.633990  0.525990  1.0  -0.1626
  C  C798  1  0.993250  0.155090  0.299590  1.0  -0.0453
  C  C799  1  0.553860  0.234800  0.143920  1.0  -0.02
  C  C800  1  0.844910  0.006750  0.447930  1.0  -0.0448
  C  C801  1  0.451180  0.914060  0.734100  1.0  -0.0102
  C  C802  1  0.686460  0.456240  0.940660  1.0  -0.112
  C  C803  1  0.965820  0.357020  0.778400  1.0  -0.3091
  C  C804  1  0.356080  0.946140  0.432580  1.0  -0.0169
  C  C805  1  0.328530  0.480010  0.247890  1.0  -0.0923
  C  C806  1  0.552070  0.299590  0.155090  1.0  -0.0459
  C  C807  1  0.903360  0.617460  0.016160  1.0  0.6876
  C  C808  1  0.440660  0.416640  0.956240  1.0  -0.1114
  C  C809  1  0.252110  0.556430  0.019990  1.0  -0.0927
  C  C810  1  0.221600  0.034180  0.642980  1.0  -0.31
  C  C811  1  0.567420  0.734800  0.643920  1.0  -0.0133
  C  C812  1  0.827420  0.894520  0.737120  1.0  -0.2988
  C  C813  1  0.443570  0.828530  0.980010  1.0  -0.0952
  C  C814  1  0.111750  0.544670  0.330730  1.0  -0.1423
  C  C815  1  0.828530  0.443570  0.747890  1.0  -0.091
  C  C816  1  0.927720  0.758980  0.863960  1.0  0.0516
  C  C817  1  0.611750  0.830730  0.044670  1.0  -0.1422
  C  C818  1  0.003260  0.561920  0.765040  1.0  -0.1487
  C  C819  1  0.946140  0.356080  0.265200  1.0  -0.0179
  C  C820  1  0.556430  0.019990  0.252110  1.0  -0.0961
  C  C821  1  0.642980  0.221600  0.034180  1.0  -0.3084
  C  C822  1  0.483840  0.596640  0.036980  1.0  0.6852
  C  C823  1  0.737120  0.540940  0.827420  1.0  -0.2954
  C  C824  1  0.765200  0.856080  0.446140  1.0  -0.0185
  C  C825  1  0.391620  0.354360  0.309780  1.0  -0.0423
  C  C826  1  0.025990  0.595650  0.244370  1.0  -0.1539
  C  C827  1  0.061920  0.503260  0.265040  1.0  -0.1467
  C  C828  1  0.849170  0.894390  0.443830  1.0  -0.0843
  C  C829  1  0.143920  0.234800  0.067420  1.0  -0.02
  C  C830  1  0.096640  0.983840  0.536980  1.0  0.6887
  C  C831  1  0.443830  0.894390  0.812610  1.0  -0.0841
  C  C832  1  0.190220  0.555760  0.145640  1.0  -0.0446
  C  C833  1  0.388250  0.955330  0.487150  1.0  -0.1426
  C  C834  1  0.951180  0.234100  0.414060  1.0  -0.011
  C  C835  1  0.480010  0.328530  0.943570  1.0  -0.0921
  C  C836  1  0.155090  0.552070  0.299590  1.0  -0.0407
  C  C837  1  0.083360  0.543760  0.313540  1.0  -0.1115
  C  C838  1  0.067420  0.553860  0.143920  1.0  -0.0179
  C  C839  1  0.888250  0.987150  0.455330  1.0  -0.1421
  C  C840  1  0.548820  0.099340  0.085940  1.0  -0.0088
  C  C841  1  0.857020  0.398760  0.465820  1.0  -0.3117
  C  C842  1  0.943570  0.480010  0.328530  1.0  -0.0935
  C  C843  1  0.143920  0.553860  0.234800  1.0  -0.0212
  C  C844  1  0.721600  0.534180  0.601240  1.0  -0.3115
  C  C845  1  0.690220  0.055760  0.608380  1.0  -0.0456
  C  C846  1  0.866010  0.755630  0.404350  1.0  -0.1544
  C  C847  1  0.778400  0.357020  0.898760  1.0  -0.3077
  C  C848  1  0.672580  0.605480  0.959060  1.0  -0.2976
  C  C849  1  0.356080  0.432580  0.265200  1.0  -0.0185
  C  C850  1  0.404350  0.755630  0.974010  1.0  -0.1609
  C  C851  1  0.721600  0.601240  0.142980  1.0  -0.3117
  C  C852  1  0.234960  0.996740  0.438080  1.0  -0.1524
  C  C853  1  0.898760  0.965820  0.778400  1.0  -0.3111
  C  C854  1  0.145640  0.555760  0.108380  1.0  -0.0454
  C  C855  1  0.827420  0.540940  0.894520  1.0  -0.2945
  C  C856  1  0.914060  0.900660  0.734100  1.0  -0.0126
  C  C857  1  0.687390  0.650830  0.605610  1.0  -0.0836
  C  C858  1  0.050660  0.636040  0.572280  1.0  0.051
  C  C859  1  0.186460  0.440660  0.956240  1.0  -0.1136
  C  C860  1  0.040940  0.394520  0.237120  1.0  -0.2984
  C  C861  1  0.456240  0.940660  0.686460  1.0  -0.1146
  C  C862  1  0.540940  0.894520  0.827420  1.0  -0.2985
  C  C863  1  0.247890  0.328530  0.480010  1.0  -0.0963
  C  C864  1  0.553860  0.143920  0.067420  1.0  -0.0179
  C  C865  1  0.536980  0.096640  0.983840  1.0  0.6896
  C  C866  1  0.755630  0.974010  0.404350  1.0  -0.1558
  C  C867  1  0.669270  0.987150  0.888250  1.0  -0.1432
  C  C868  1  0.996740  0.234960  0.330220  1.0  -0.1484
  C  C869  1  0.765040  0.561920  0.669780  1.0  -0.1499
  C  C870  1  0.169780  0.061920  0.265040  1.0  -0.1491
  C  C871  1  0.671470  0.519990  0.752110  1.0  -0.0917
  C  C872  1  0.655090  0.493250  0.799590  1.0  -0.0453
  C  C873  1  0.465820  0.857020  0.398760  1.0  -0.3097
  C  C874  1  0.048820  0.765900  0.585940  1.0  -0.0102
  C  C875  1  0.601240  0.142980  0.721600  1.0  -0.3096
  C  C876  1  0.561920  0.765040  0.003260  1.0  -0.1494
  C  C877  1  0.237120  0.040940  0.394520  1.0  -0.2954
  C  C878  1  0.099340  0.085940  0.548820  1.0  -0.0142
  C  C879  1  0.150830  0.556170  0.187390  1.0  -0.0852
  C  C880  1  0.363960  0.258980  0.427720  1.0  0.0515
  C  C881  1  0.327420  0.040940  0.237120  1.0  -0.2945
  C  C882  1  0.799590  0.493250  0.052070  1.0  -0.0437
  C  C883  1  0.440660  0.186460  0.416640  1.0  -0.1131
  C  C884  1  0.572280  0.050660  0.636040  1.0  0.0518
  C  C885  1  0.463020  0.903360  0.016160  1.0  0.6882
  C  C886  1  0.904350  0.255630  0.366010  1.0  -0.1561
  C  C887  1  0.330220  0.234960  0.438080  1.0  -0.1488
  C  C888  1  0.357020  0.778400  0.965820  1.0  -0.3097
  C  C889  1  0.506750  0.344910  0.947930  1.0  -0.0446
  C  C890  1  0.955330  0.487150  0.388250  1.0  -0.1411
  C  C891  1  0.947930  0.506750  0.344910  1.0  -0.0437
  C  C892  1  0.480010  0.943570  0.247890  1.0  -0.0899
  C  C893  1  0.830220  0.938080  0.734960  1.0  -0.15
  C  C894  1  0.262880  0.105480  0.459060  1.0  -0.2974
  C  C895  1  0.309780  0.354360  0.944240  1.0  -0.0414
  C  C896  1  0.512850  0.044670  0.830730  1.0  -0.1408
  C  C897  1  0.914060  0.451180  0.900660  1.0  -0.0134
  C  C898  1  0.744370  0.525990  0.633990  1.0  -0.1534
  C  C899  1  0.812610  0.443830  0.894390  1.0  -0.0836
  C  C900  1  0.636040  0.741020  0.572280  1.0  0.0515
  C  C901  1  0.016160  0.617460  0.463020  1.0  0.6882
  C  C902  1  0.025990  0.244370  0.133990  1.0  -0.1569
  C  C903  1  0.171470  0.252110  0.019990  1.0  -0.0922
  C  C904  1  0.344910  0.200410  0.947930  1.0  -0.0405
  C  C905  1  0.863960  0.449340  0.927720  1.0  0.0515
  C  C906  1  0.344910  0.506750  0.200410  1.0  -0.0456
  C  C907  1  0.145640  0.108380  0.190220  1.0  -0.0399
  C  C908  1  0.105480  0.459060  0.262880  1.0  -0.2971
  C  C909  1  0.611750  0.512850  0.830730  1.0  -0.1417
  C  C910  1  0.136040  0.072280  0.241020  1.0  0.0503
  C  C911  1  0.190220  0.108380  0.555760  1.0  -0.0431
  C  C912  1  0.512850  0.830730  0.611750  1.0  -0.1403
  C  C913  1  0.556170  0.150830  0.105610  1.0  -0.0857
  C  C914  1  0.690220  0.645640  0.055760  1.0  -0.0431
  C  C915  1  0.142980  0.601240  0.534180  1.0  -0.3116
  C  C916  1  0.398760  0.857020  0.278400  1.0  -0.3099
  C  C917  1  0.734100  0.451180  0.914060  1.0  -0.0127
  C  C918  1  0.605480  0.672580  0.762880  1.0  -0.2975
  C  C919  1  0.534180  0.601240  0.721600  1.0  -0.3132
  C  C920  1  0.813540  0.559340  0.043760  1.0  -0.1123
  C  C921  1  0.003260  0.765040  0.669780  1.0  -0.1498
  C  C922  1  0.247890  0.943570  0.328530  1.0  -0.0903
  C  C923  1  0.799590  0.655090  0.493250  1.0  -0.0431
  C  C924  1  0.059340  0.313540  0.543760  1.0  -0.1138
  C  C925  1  0.327420  0.394520  0.040940  1.0  -0.299
  C  C926  1  0.617460  0.016160  0.903360  1.0  0.6828
  C  C927  1  0.056170  0.687390  0.605610  1.0  -0.0855
  C  C928  1  0.459060  0.105480  0.172580  1.0  -0.2987
  C  C929  1  0.312610  0.394390  0.943830  1.0  -0.0849
  C  C930  1  0.438080  0.330220  0.234960  1.0  -0.149
  C  C931  1  0.863960  0.758980  0.449340  1.0  0.0507
  C  C932  1  0.459060  0.172580  0.262880  1.0  -0.2968
  C  C933  1  0.443830  0.812610  0.849170  1.0  -0.0848
  C  C934  1  0.099340  0.548820  0.265900  1.0  -0.0149
  C  C935  1  0.799590  0.052070  0.655090  1.0  -0.0459
  C  C936  1  0.330220  0.438080  0.996740  1.0  -0.1488
  C  C937  1  0.447930  0.844910  0.006750  1.0  -0.0443
  C  C938  1  0.391620  0.944240  0.354360  1.0  -0.0452
  C  C939  1  0.059340  0.543760  0.083360  1.0  -0.1134
  C  C940  1  0.394390  0.312610  0.349170  1.0  -0.0847
  C  C941  1  0.398760  0.465820  0.857020  1.0  -0.3117
  C  C942  1  0.734800  0.643920  0.567420  1.0  -0.0207
  C  C943  1  0.595650  0.025990  0.133990  1.0  -0.1527
  C  C944  1  0.136040  0.241020  0.550660  1.0  0.0521
  C  C945  1  0.171470  0.019990  0.556430  1.0  -0.0918
  C  C946  1  0.394390  0.349170  0.943830  1.0  -0.0843
  C  C947  1  0.932580  0.446140  0.856080  1.0  -0.021
  C  C948  1  0.828530  0.747890  0.980010  1.0  -0.0917
  C  C949  1  0.172580  0.459060  0.105480  1.0  -0.2954
  C  C950  1  0.363960  0.949340  0.258980  1.0  0.0517
  C  C951  1  0.898760  0.778400  0.357020  1.0  -0.311
  C  C952  1  0.133990  0.025990  0.244370  1.0  -0.1535
  C  C953  1  0.463020  0.016160  0.617460  1.0  0.6885
  C  C954  1  0.734960  0.938080  0.496740  1.0  -0.1501
  C  C955  1  0.067420  0.143920  0.234800  1.0  -0.0188
  C  C956  1  0.747890  0.980010  0.828530  1.0  -0.0953
  C  C957  1  0.525990  0.633990  0.744370  1.0  -0.1555
  C  C958  1  0.650830  0.056170  0.605610  1.0  -0.0849
  C  C959  1  0.388250  0.487150  0.169270  1.0  -0.142
  C  C960  1  0.866010  0.974010  0.755630  1.0  -0.1589
  C  C961  1  0.955330  0.388250  0.169270  1.0  -0.1402
  C  C962  1  0.993250  0.552070  0.155090  1.0  -0.044
  C  C963  1  0.255630  0.904350  0.474010  1.0  -0.1568
  C  C964  1  0.534180  0.721600  0.142980  1.0  -0.3101
  C  C965  1  0.449340  0.863960  0.758980  1.0  0.0512
  C  C966  1  0.633990  0.095650  0.744370  1.0  -0.1544
  C  C967  1  0.943830  0.312610  0.394390  1.0  -0.0843
  C  C968  1  0.052070  0.655090  0.799590  1.0  -0.0438
  C  C969  1  0.536980  0.983840  0.382540  1.0  0.6906
  C  C970  1  0.828530  0.980010  0.443570  1.0  -0.0927
  C  C971  1  0.765040  0.003260  0.561920  1.0  -0.1505
  C  C972  1  0.645640  0.690220  0.608380  1.0  -0.0438
  C  C973  1  0.067420  0.234800  0.553860  1.0  -0.0199
  C  C974  1  0.900660  0.734100  0.914060  1.0  -0.0159
  C  C975  1  0.072280  0.136040  0.550660  1.0  0.0509
  C  C976  1  0.234800  0.143920  0.553860  1.0  -0.0211
  C  C977  1  0.496740  0.734960  0.938080  1.0  -0.1495
  C  C978  1  0.645640  0.608380  0.055760  1.0  -0.0428
  C  C979  1  0.762880  0.959060  0.605480  1.0  -0.2958
  C  C980  1  0.169780  0.265040  0.503260  1.0  -0.1485
  C  C981  1  0.019990  0.556430  0.171470  1.0  -0.0926
  C  C982  1  0.012850  0.544670  0.111750  1.0  -0.1398
  C  C983  1  0.237120  0.394520  0.327420  1.0  -0.2993
  C  C984  1  0.700410  0.844910  0.447930  1.0  -0.0418
  C  C985  1  0.019990  0.171470  0.252110  1.0  -0.0938
  C  C986  1  0.601240  0.721600  0.534180  1.0  -0.3132
  C  C987  1  0.438080  0.234960  0.996740  1.0  -0.1476
  C  C988  1  0.900660  0.914060  0.451180  1.0  -0.011
  C  C989  1  0.747890  0.828530  0.443570  1.0  -0.0941
  C  C990  1  0.382540  0.096640  0.536980  1.0  0.6863
  C  C991  1  0.427720  0.258980  0.949340  1.0  0.0508
  C  C992  1  0.567420  0.643920  0.053860  1.0  -0.0167
  C  C993  1  0.487150  0.169270  0.388250  1.0  -0.1404
  C  C994  1  0.752110  0.671470  0.519990  1.0  -0.0946
  C  C995  1  0.951180  0.414060  0.400660  1.0  -0.0125
  C  C996  1  0.687390  0.056170  0.650830  1.0  -0.0838
  C  C997  1  0.446140  0.932580  0.765200  1.0  -0.0211
  C  C998  1  0.963020  0.516160  0.403360  1.0  0.6881
  C  C999  1  0.083360  0.313540  0.059340  1.0  -0.1146
  C  C1000  1  0.540940  0.737120  0.894520  1.0  -0.2962
  C  C1001  1  0.055760  0.690220  0.645640  1.0  -0.0422
  C  C1002  1  0.327420  0.237120  0.394520  1.0  -0.2963
  C  C1003  1  0.512850  0.611750  0.044670  1.0  -0.1423
  C  C1004  1  0.700410  0.006750  0.844910  1.0  -0.0437
  C  C1005  1  0.894390  0.443830  0.849170  1.0  -0.0844
  C  C1006  1  0.946140  0.432580  0.356080  1.0  -0.0196
  C  C1007  1  0.465820  0.398760  0.278400  1.0  -0.3125
  C  C1008  1  0.446140  0.765200  0.856080  1.0  -0.0194
  C  C1009  1  0.813540  0.043760  0.583360  1.0  -0.1128
  C  C1010  1  0.036980  0.882540  0.483840  1.0  0.6864
  C  C1011  1  0.278400  0.398760  0.857020  1.0  -0.3106
  C  C1012  1  0.938080  0.734960  0.830220  1.0  -0.1484
  C  C1013  1  0.550660  0.136040  0.241020  1.0  0.0509
  C  C1014  1  0.595650  0.244370  0.025990  1.0  -0.1615
  C  C1015  1  0.755630  0.866010  0.974010  1.0  -0.1539
  C  C1016  1  0.671470  0.752110  0.056430  1.0  -0.0937
  C  C1017  1  0.136040  0.550660  0.072280  1.0  0.0519
  C  C1018  1  0.550660  0.241020  0.072280  1.0  0.0515
  C  C1019  1  0.354360  0.391620  0.944240  1.0  -0.0426
  C  C1020  1  0.006750  0.447930  0.844910  1.0  -0.0457
  C  C1021  1  0.451180  0.734100  0.900660  1.0  -0.0126
  C  C1022  1  0.765200  0.446140  0.932580  1.0  -0.0232
  C  C1023  1  0.809780  0.891620  0.444240  1.0  -0.0414
  C  C1024  1  0.965820  0.898760  0.357020  1.0  -0.3121
  C  C1025  1  0.474010  0.366010  0.255630  1.0  -0.1554
  C  C1026  1  0.444240  0.854360  0.809780  1.0  -0.0472
  C  C1027  1  0.543760  0.313540  0.083360  1.0  -0.114
  C  C1028  1  0.959060  0.762880  0.672580  1.0  -0.2975
  C  C1029  1  0.496740  0.938080  0.830220  1.0  -0.148
  C  C1030  1  0.891620  0.444240  0.809780  1.0  -0.0453
  C  C1031  1  0.105480  0.262880  0.172580  1.0  -0.2962
  C  C1032  1  0.299590  0.552070  0.993250  1.0  -0.0461
  C  C1033  1  0.449340  0.927720  0.863960  1.0  0.0498
  C  C1034  1  0.544670  0.330730  0.111750  1.0  -0.1419
  C  C1035  1  0.866010  0.404350  0.974010  1.0  -0.1575
  C  C1036  1  0.744370  0.633990  0.095650  1.0  -0.1476
  C  C1037  1  0.404350  0.866010  0.755630  1.0  -0.1614
  C  C1038  1  0.328530  0.943570  0.480010  1.0  -0.0905
  C  C1039  1  0.974010  0.755630  0.866010  1.0  -0.1563
  C  C1040  1  0.519990  0.752110  0.671470  1.0  -0.0915
  C  C1041  1  0.553860  0.067420  0.234800  1.0  -0.0187
  C  C1042  1  0.394520  0.237120  0.040940  1.0  -0.2983
  C  C1043  1  0.444240  0.809780  0.891620  1.0  -0.0416
  C  C1044  1  0.241020  0.550660  0.136040  1.0  0.0517
  C  C1045  1  0.755630  0.404350  0.866010  1.0  -0.1559
  C  C1046  1  0.330730  0.012850  0.111750  1.0  -0.143
  C  C1047  1  0.669780  0.561920  0.003260  1.0  -0.1503
  C  C1048  1  0.328530  0.247890  0.943570  1.0  -0.0924
  C  C1049  1  0.313540  0.059340  0.083360  1.0  -0.113
  C  C1050  1  0.034180  0.101240  0.642980  1.0  -0.3116
  C  C1051  1  0.633990  0.525990  0.095650  1.0  -0.1537
  C  C1052  1  0.043760  0.583360  0.813540  1.0  -0.1106
  C  C1053  1  0.956240  0.440660  0.416640  1.0  -0.1126
  C  C1054  1  0.056430  0.671470  0.752110  1.0  -0.096
  C  C1055  1  0.605610  0.687390  0.650830  1.0  -0.0849
  C  C1056  1  0.330730  0.544670  0.012850  1.0  -0.1424
  C  C1057  1  0.044670  0.830730  0.512850  1.0  -0.1416
  C  C1058  1  0.059340  0.083360  0.313540  1.0  -0.1103
  C  C1059  1  0.946140  0.265200  0.432580  1.0  -0.0198
  C  C1060  1  0.313540  0.083360  0.543760  1.0  -0.1119
  C  C1061  1  0.487150  0.955330  0.169270  1.0  -0.1401
  C  C1062  1  0.596640  0.483840  0.882540  1.0  0.6895
  C  C1063  1  0.849170  0.443830  0.812610  1.0  -0.0857
  C  C1064  1  0.854360  0.444240  0.891620  1.0  -0.0488
  C  C1065  1  0.443830  0.849170  0.894390  1.0  -0.0856
  C  C1066  1  0.258980  0.949340  0.427720  1.0  0.0508
  C  C1067  1  0.133990  0.595650  0.025990  1.0  -0.1584
  C  C1068  1  0.830220  0.496740  0.938080  1.0  -0.1509
  C  C1069  1  0.636040  0.572280  0.050660  1.0  0.0507
  C  C1070  1  0.101240  0.221600  0.642980  1.0  -0.3122
  C  C1071  1  0.559340  0.043760  0.813540  1.0  -0.1125
  C  C1072  1  0.687390  0.605610  0.056170  1.0  -0.0834
  C  C1073  1  0.643920  0.053860  0.567420  1.0  -0.0204
  C  C1074  1  0.608380  0.645640  0.690220  1.0  -0.0453
  C  C1075  1  0.540940  0.827420  0.737120  1.0  -0.2945
  C  C1076  1  0.312610  0.349170  0.394390  1.0  -0.0852
  C  C1077  1  0.061920  0.169780  0.503260  1.0  -0.1503
  C  C1078  1  0.844910  0.447930  0.700410  1.0  -0.0425
  C  C1079  1  0.741020  0.636040  0.050660  1.0  0.0528
  C  C1080  1  0.758980  0.927720  0.449340  1.0  0.0517
  C  C1081  1  0.744370  0.095650  0.525990  1.0  -0.1581
  C  C1082  1  0.474010  0.255630  0.904350  1.0  -0.1563
  C  C1083  1  0.734800  0.567420  0.053860  1.0  -0.0219
  C  C1084  1  0.947930  0.344910  0.200410  1.0  -0.0456
  C  C1085  1  0.050660  0.741020  0.636040  1.0  0.0507
  C  C1086  1  0.608380  0.690220  0.055760  1.0  -0.0432
  C  C1087  1  0.432580  0.946140  0.265200  1.0  -0.0139
  C  C1088  1  0.455330  0.888250  0.987150  1.0  -0.1422
  C  C1089  1  0.916640  0.686460  0.940660  1.0  -0.1125
  C  C1090  1  0.758980  0.449340  0.863960  1.0  0.0508
  C  C1091  1  0.055760  0.645640  0.608380  1.0  -0.043
  C  C1092  1  0.117460  0.403360  0.516160  1.0  0.6828
  C  C1093  1  0.516160  0.403360  0.963020  1.0  0.6867
  C  C1094  1  0.200410  0.947930  0.344910  1.0  -0.0448
  C  C1095  1  0.366010  0.474010  0.904350  1.0  -0.1564
  C  C1096  1  0.642980  0.101240  0.221600  1.0  -0.3104
  C  C1097  1  0.053860  0.643920  0.734800  1.0  -0.0191
  C  C1098  1  0.572280  0.741020  0.050660  1.0  0.0518
  C  C1099  1  0.987150  0.888250  0.669270  1.0  -0.1417
  C  C1100  1  0.669780  0.003260  0.765040  1.0  -0.1489
  C  C1101  1  0.555760  0.190220  0.108380  1.0  -0.0415
  C  C1102  1  0.309780  0.391620  0.354360  1.0  -0.043
  C  C1103  1  0.016160  0.903360  0.617460  1.0  0.6858
  C  C1104  1  0.313540  0.543760  0.059340  1.0  -0.1122
  C  C1105  1  0.186460  0.416640  0.440660  1.0  -0.1138
  C  C1106  1  0.898760  0.357020  0.965820  1.0  -0.3093
  C  C1107  1  0.309780  0.944240  0.391620  1.0  -0.0446
  C  C1108  1  0.856080  0.932580  0.446140  1.0  -0.0205
  C  C1109  1  0.752110  0.519990  0.056430  1.0  -0.0919
  C  C1110  1  0.085940  0.099340  0.265900  1.0  -0.01
  C  C1111  1  0.455330  0.669270  0.888250  1.0  -0.1411
  C  C1112  1  0.555760  0.108380  0.145640  1.0  -0.047
  C  C1113  1  0.583360  0.043760  0.559340  1.0  -0.1109
  C  C1114  1  0.916640  0.456240  0.686460  1.0  -0.112
  C  C1115  1  0.265200  0.946140  0.356080  1.0  -0.019
  C  C1116  1  0.552070  0.993250  0.299590  1.0  -0.0456
  C  C1117  1  0.493250  0.655090  0.052070  1.0  -0.045
  C  C1118  1  0.544670  0.012850  0.330730  1.0  -0.1407
  C  C1119  1  0.169270  0.388250  0.487150  1.0  -0.1435
  C  C1120  1  0.400660  0.951180  0.414060  1.0  -0.0145
  C  C1121  1  0.983840  0.096640  0.382540  1.0  0.686
  C  C1122  1  0.404350  0.974010  0.866010  1.0  -0.1543
  C  C1123  1  0.882540  0.483840  0.036980  1.0  0.6862
  C  C1124  1  0.447930  0.006750  0.700410  1.0  -0.0438
  C  C1125  1  0.169270  0.487150  0.955330  1.0  -0.1425
  C  C1126  1  0.949340  0.258980  0.363960  1.0  0.0492
  C  C1127  1  0.056170  0.605610  0.650830  1.0  -0.0854
  C  C1128  1  0.040940  0.327420  0.394520  1.0  -0.2954
  C  C1129  1  0.019990  0.252110  0.556430  1.0  -0.0936
  C  C1130  1  0.987150  0.669270  0.455330  1.0  -0.1409
  C  C1131  1  0.940660  0.916640  0.686460  1.0  -0.1129
  C  C1132  1  0.959060  0.605480  0.762880  1.0  -0.2985
  C  C1133  1  0.980010  0.747890  0.443570  1.0  -0.0899
  C  C1134  1  0.061920  0.265040  0.169780  1.0  -0.148
  C  C1135  1  0.996740  0.438080  0.234960  1.0  -0.1484
  C  C1136  1  0.416640  0.440660  0.186460  1.0  -0.1138
  C  C1137  1  0.354360  0.944240  0.309780  1.0  -0.0428
  C  C1138  1  0.956240  0.416640  0.186460  1.0  -0.1137
  C  C1139  1  0.095650  0.744370  0.633990  1.0  -0.1563
  C  C1140  1  0.556430  0.252110  0.171470  1.0  -0.0938
  C  C1141  1  0.856080  0.765200  0.932580  1.0  -0.0183
  C  C1142  1  0.987150  0.455330  0.888250  1.0  -0.1412
  C  C1143  1  0.394520  0.327420  0.237120  1.0  -0.2994
  C  C1144  1  0.561920  0.003260  0.669780  1.0  -0.1467
  C  C1145  1  0.382540  0.983840  0.096640  1.0  0.685
  C  C1146  1  0.265040  0.061920  0.503260  1.0  -0.1507
  C  C1147  1  0.052070  0.493250  0.655090  1.0  -0.0446
  C  C1148  1  0.949340  0.427720  0.258980  1.0  0.0498
  C  C1149  1  0.543760  0.083360  0.059340  1.0  -0.1121
  C  C1150  1  0.432580  0.356080  0.946140  1.0  -0.0177
  C  C1151  1  0.044670  0.512850  0.611750  1.0  -0.14
  C  C1152  1  0.400660  0.234100  0.951180  1.0  -0.0126
  C  C1153  1  0.456240  0.686460  0.916640  1.0  -0.1139
  C  C1154  1  0.965820  0.778400  0.898760  1.0  -0.3103
  C  C1155  1  0.503260  0.061920  0.169780  1.0  -0.1486
  C  C1156  1  0.585940  0.599340  0.048820  1.0  -0.0115
  C  C1157  1  0.072280  0.241020  0.136040  1.0  0.052
  C  C1158  1  0.830730  0.512850  0.044670  1.0  -0.1423
  C  C1159  1  0.234800  0.067420  0.143920  1.0  -0.0223
  C  C1160  1  0.503260  0.169780  0.265040  1.0  -0.1489
  C  C1161  1  0.643920  0.734800  0.053860  1.0  -0.0177
  C  C1162  1  0.053860  0.734800  0.567420  1.0  -0.0196
  C  C1163  1  0.443570  0.747890  0.828530  1.0  -0.0939
  C  C1164  1  0.432580  0.265200  0.356080  1.0  -0.0203
  C  C1165  1  0.983840  0.536980  0.096640  1.0  0.6862
  C  C1166  1  0.608380  0.055760  0.645640  1.0  -0.0455
  C  C1167  1  0.643920  0.567420  0.734800  1.0  -0.022
  C  C1168  1  0.944240  0.354360  0.391620  1.0  -0.047
  C  C1169  1  0.525990  0.744370  0.095650  1.0  -0.1562
  C  C1170  1  0.830730  0.611750  0.512850  1.0  -0.1419
  C  C1171  1  0.903360  0.463020  0.617460  1.0  0.6893
  C  C1172  1  0.241020  0.136040  0.072280  1.0  0.0514
  C  C1173  1  0.778400  0.898760  0.965820  1.0  -0.311
  C  C1174  1  0.737120  0.827420  0.894520  1.0  -0.2953
  C  C1175  1  0.299590  0.993250  0.155090  1.0  -0.0453
  C  C1176  1  0.190220  0.145640  0.108380  1.0  -0.0447
  C  C1177  1  0.721600  0.142980  0.534180  1.0  -0.3074
  C  C1178  1  0.258980  0.427720  0.363960  1.0  0.0517
  C  C1179  1  0.955330  0.169270  0.487150  1.0  -0.1412
  C  C1180  1  0.888250  0.455330  0.669270  1.0  -0.1412
  C  C1181  1  0.052070  0.799590  0.493250  1.0  -0.0462
  C  C1182  1  0.963020  0.403360  0.117460  1.0  0.6891
  C  C1183  1  0.765900  0.585940  0.048820  1.0  -0.0066
  C  C1184  1  0.483840  0.882540  0.596640  1.0  0.6871
  C  C1185  1  0.506750  0.200410  0.344910  1.0  -0.0439
  C  C1186  1  0.567420  0.053860  0.734800  1.0  -0.0206
  C  C1187  1  0.262880  0.172580  0.105480  1.0  -0.2959
  C  C1188  1  0.465820  0.278400  0.857020  1.0  -0.3104
  C  C1189  1  0.956240  0.186460  0.440660  1.0  -0.1144
  C  C1190  1  0.583360  0.813540  0.043760  1.0  -0.1137
  C  C1191  1  0.265040  0.169780  0.061920  1.0  -0.1478
  C  C1192  1  0.354360  0.309780  0.391620  1.0  -0.039
  C  C1193  1  0.463020  0.617460  0.903360  1.0  0.6876
  C  C1194  1  0.034180  0.642980  0.221600  1.0  -0.3087
  C  C1195  1  0.083360  0.059340  0.543760  1.0  -0.1151
  C  C1196  1  0.234100  0.400660  0.414060  1.0  -0.0146
  C  C1197  1  0.561920  0.669780  0.765040  1.0  -0.1494
  C  C1198  1  0.572280  0.636040  0.741020  1.0  0.0501
  C  C1199  1  0.894520  0.540940  0.737120  1.0  -0.294
  C  C1200  1  0.519990  0.056430  0.752110  1.0  -0.0954
  C  C1201  1  0.552070  0.155090  0.993250  1.0  -0.0446
  C  C1202  1  0.455330  0.987150  0.669270  1.0  -0.14
  C  C1203  1  0.265200  0.432580  0.946140  1.0  -0.0165
  C  C1204  1  0.493250  0.799590  0.655090  1.0  -0.0445
  C  C1205  1  0.427720  0.363960  0.258980  1.0  0.0512
  C  C1206  1  0.585940  0.765900  0.599340  1.0  -0.0114
  C  C1207  1  0.888250  0.669270  0.987150  1.0  -0.14
  C  C1208  1  0.252110  0.171470  0.556430  1.0  -0.0963
  C  C1209  1  0.234960  0.438080  0.330220  1.0  -0.1508
  C  C1210  1  0.548820  0.085940  0.265900  1.0  -0.0139
  C  C1211  1  0.108380  0.555760  0.190220  1.0  -0.0448
  C  C1212  1  0.487150  0.388250  0.955330  1.0  -0.1421
  C  C1213  1  0.357020  0.965820  0.898760  1.0  -0.3091
  C  C1214  1  0.556170  0.105610  0.187390  1.0  -0.0851
  C  C1215  1  0.599340  0.048820  0.585940  1.0  -0.0132
  C  C1216  1  0.330220  0.996740  0.234960  1.0  -0.151
  C  C1217  1  0.849170  0.812610  0.894390  1.0  -0.0852
  C  C1218  1  0.036980  0.483840  0.596640  1.0  0.6892
  C  C1219  1  0.611750  0.044670  0.512850  1.0  -0.1402
  C  C1220  1  0.252110  0.019990  0.171470  1.0  -0.0884
  C  C1221  1  0.048820  0.599340  0.765900  1.0  -0.0133
  C  C1222  1  0.234100  0.414060  0.951180  1.0  -0.0102
  C  C1223  1  0.927720  0.449340  0.758980  1.0  0.0517
  C  C1224  1  0.758980  0.863960  0.927720  1.0  0.0534
  C  C1225  1  0.265900  0.085940  0.099340  1.0  -0.0111
  C  C1226  1  0.496740  0.830220  0.734960  1.0  -0.1477
  C  C1227  1  0.133990  0.244370  0.595650  1.0  -0.1548
  C  C1228  1  0.330730  0.111750  0.544670  1.0  -0.1418
  C  C1229  1  0.172580  0.262880  0.459060  1.0  -0.2951
  C  C1230  1  0.493250  0.052070  0.799590  1.0  -0.0442
  C  C1231  1  0.943830  0.349170  0.312610  1.0  -0.0853
  C  C1232  1  0.299590  0.155090  0.552070  1.0  -0.0444
  C  C1233  1  0.559340  0.813540  0.583360  1.0  -0.1137
  C  C1234  1  0.645640  0.055760  0.690220  1.0  -0.0441
  C  C1235  1  0.278400  0.857020  0.465820  1.0  -0.3074
  C  C1236  1  0.034180  0.221600  0.101240  1.0  -0.3118
  C  C1237  1  0.762880  0.605480  0.672580  1.0  -0.2968
  C  C1238  1  0.108380  0.190220  0.145640  1.0  -0.0459
  C  C1239  1  0.056430  0.519990  0.671470  1.0  -0.0964
  C  C1240  1  0.943570  0.247890  0.480010  1.0  -0.0963
  C  C1241  1  0.265900  0.099340  0.548820  1.0  -0.0142
  C  C1242  1  0.601240  0.534180  0.142980  1.0  -0.3126
  C  C1243  1  0.951180  0.400660  0.234100  1.0  -0.0114
  C  C1244  1  0.516160  0.963020  0.117460  1.0  0.6873
  C  C1245  1  0.734800  0.053860  0.643920  1.0  -0.0174
  C  C1246  1  0.403360  0.117460  0.963020  1.0  0.687
  C  C1247  1  0.394520  0.040940  0.327420  1.0  -0.2939
  C  C1248  1  0.394390  0.943830  0.312610  1.0  -0.0845
  C  C1249  1  0.344910  0.947930  0.506750  1.0  -0.0407
  C  C1250  1  0.265900  0.548820  0.085940  1.0  -0.013
  C  C1251  1  0.234100  0.951180  0.400660  1.0  -0.0129
  C  C1252  1  0.980010  0.828530  0.747890  1.0  -0.0944
  C  C1253  1  0.974010  0.866010  0.404350  1.0  -0.1558
  C  C1254  1  0.025990  0.133990  0.595650  1.0  -0.1576
  C  C1255  1  0.765900  0.048820  0.599340  1.0  -0.0134
  C  C1256  1  0.349170  0.394390  0.312610  1.0  -0.0852
  C  C1257  1  0.443570  0.980010  0.747890  1.0  -0.0951
  C  C1258  1  0.456240  0.916640  0.940660  1.0  -0.1119
  C  C1259  1  0.234960  0.330220  0.996740  1.0  -0.1479
  C  C1260  1  0.416640  0.956240  0.440660  1.0  -0.11
  C  C1261  1  0.221600  0.642980  0.101240  1.0  -0.3075
  C  C1262  1  0.672580  0.959060  0.762880  1.0  -0.2962
  C  C1263  1  0.599340  0.765900  0.048820  1.0  -0.0133
  C  C1264  1  0.506750  0.947930  0.200410  1.0  -0.0443
  C  C1265  1  0.700410  0.447930  0.006750  1.0  -0.0452
  C  C1266  1  0.053860  0.567420  0.643920  1.0  -0.0211
  C  C1267  1  0.734100  0.914060  0.900660  1.0  -0.0111
  C  C1268  1  0.186460  0.956240  0.416640  1.0  -0.1119
  C  C1269  1  0.040940  0.237120  0.327420  1.0  -0.2955
  C  C1270  1  0.891620  0.809780  0.854360  1.0  -0.0415
  C  C1271  1  0.012850  0.111750  0.330730  1.0  -0.1414
  C  C1272  1  0.882540  0.596640  0.483840  1.0  0.6854
  C  C1273  1  0.650830  0.605610  0.687390  1.0  -0.0841
  C  C1274  1  0.762880  0.672580  0.959060  1.0  -0.2946
  C  C1275  1  0.559340  0.583360  0.043760  1.0  -0.111
  C  C1276  1  0.150830  0.187390  0.105610  1.0  -0.0842
  C  C1277  1  0.056170  0.650830  0.687390  1.0  -0.086
  C  C1278  1  0.244370  0.133990  0.025990  1.0  -0.1523
  C  C1279  1  0.451180  0.900660  0.914060  1.0  -0.0134
  C  C1280  1  0.096640  0.382540  0.983840  1.0  0.6869
  C  C1281  1  0.809780  0.854360  0.891620  1.0  -0.0409
  C  C1282  1  0.416640  0.186460  0.956240  1.0  -0.1143
  C  C1283  1  0.980010  0.443570  0.828530  1.0  -0.0915
  C  C1284  1  0.863960  0.927720  0.758980  1.0  0.0509
  C  C1285  1  0.605480  0.959060  0.672580  1.0  -0.2969
  C  C1286  1  0.765900  0.599340  0.585940  1.0  -0.0113
  C  C1287  1  0.940660  0.456240  0.916640  1.0  -0.1125
  C  C1288  1  0.669780  0.765040  0.561920  1.0  -0.147
  C  C1289  1  0.809780  0.444240  0.854360  1.0  -0.0449
  C  C1290  1  0.105610  0.556170  0.150830  1.0  -0.0842
  C  C1291  1  0.101240  0.034180  0.221600  1.0  -0.3136
  C  C1292  1  0.857020  0.278400  0.398760  1.0  -0.3101
  C  C1293  1  0.172580  0.105480  0.262880  1.0  -0.2984
  C  C1294  1  0.671470  0.056430  0.519990  1.0  -0.092
  C  C1295  1  0.366010  0.904350  0.255630  1.0  -0.1516
  C  C1296  1  0.414060  0.951180  0.234100  1.0  -0.0102
  C  C1297  1  0.171470  0.556430  0.252110  1.0  -0.0942
  C  C1298  1  0.650830  0.687390  0.056170  1.0  -0.0856
  C  C1299  1  0.398760  0.278400  0.465820  1.0  -0.3105
  C  C1300  1  0.356080  0.265200  0.946140  1.0  -0.0171
  C  C1301  1  0.200410  0.344910  0.506750  1.0  -0.0448
  C  C1302  1  0.734100  0.900660  0.451180  1.0  -0.0123
  C  C1303  1  0.983840  0.382540  0.536980  1.0  0.6876
  C  C1304  1  0.903360  0.016160  0.463020  1.0  0.688
  C  C1305  1  0.932580  0.765200  0.446140  1.0  -0.0206
  C  C1306  1  0.255630  0.366010  0.904350  1.0  -0.1481
  C  C1307  1  0.765200  0.932580  0.856080  1.0  -0.0208
  C  C1308  1  0.856080  0.446140  0.765200  1.0  -0.0183
  C  C1309  1  0.900660  0.451180  0.734100  1.0  -0.0056
  C  C1310  1  0.854360  0.891620  0.809780  1.0  -0.0417
  C  C1311  1  0.596640  0.882540  0.036980  1.0  0.6866
  C  C1312  1  0.686460  0.916640  0.456240  1.0  -0.115
  C  C1313  1  0.483840  0.036980  0.882540  1.0  0.6854
  C  C1314  1  0.844910  0.700410  0.006750  1.0  -0.0426
  C  C1315  1  0.349170  0.943830  0.394390  1.0  -0.086
  C  C1316  1  0.440660  0.956240  0.186460  1.0  -0.1129
  C  C1317  1  0.085940  0.548820  0.099340  1.0  -0.0123
  C  C1318  1  0.669270  0.888250  0.455330  1.0  -0.141
  C  C1319  1  0.669270  0.455330  0.987150  1.0  -0.1428
  C  C1320  1  0.108380  0.145640  0.555760  1.0  -0.043
  O  O1321  1  0.969580  0.443400  0.089240  1.0  -0.6903
  O  O1322  1  0.443110  0.897990  0.624090  1.0  -0.6134
  O  O1323  1  0.602010  0.465190  0.056890  1.0  -0.6177
  O  O1324  1  0.030420  0.502220  0.556600  1.0  -0.6931
  O  O1325  1  0.124090  0.534810  0.397990  1.0  -0.6199
  O  O1326  1  0.034810  0.897990  0.443110  1.0  -0.6169
  O  O1327  1  0.530420  0.056600  0.002220  1.0  -0.691
  O  O1328  1  0.056600  0.530420  0.410760  1.0  -0.6938
  O  O1329  1  0.465190  0.602010  0.875910  1.0  -0.6158
  O  O1330  1  0.443400  0.089240  0.969580  1.0  -0.6934
  O  O1331  1  0.910760  0.556600  0.502220  1.0  -0.6923
  O  O1332  1  0.997780  0.469580  0.943400  1.0  -0.6936
  O  O1333  1  0.030420  0.556600  0.910760  1.0  -0.6907
  O  O1334  1  0.910760  0.030420  0.556600  1.0  -0.6942
  O  O1335  1  0.965190  0.556890  0.375910  1.0  -0.617
  O  O1336  1  0.397990  0.124090  0.534810  1.0  -0.6196
  O  O1337  1  0.124090  0.397990  0.943110  1.0  -0.617
  O  O1338  1  0.410760  0.002220  0.056600  1.0  -0.6932
  O  O1339  1  0.502220  0.556600  0.030420  1.0  -0.6945
  O  O1340  1  0.556600  0.030420  0.502220  1.0  -0.6935
  O  O1341  1  0.497780  0.969580  0.089240  1.0  -0.693
  O  O1342  1  0.056890  0.465190  0.875910  1.0  -0.6195
  O  O1343  1  0.002220  0.530420  0.056600  1.0  -0.6943
  O  O1344  1  0.469580  0.997780  0.589240  1.0  -0.6936
  O  O1345  1  0.465190  0.875910  0.056890  1.0  -0.6197
  O  O1346  1  0.969580  0.497780  0.443400  1.0  -0.6936
  O  O1347  1  0.002220  0.410760  0.530420  1.0  -0.6922
  O  O1348  1  0.443400  0.497780  0.089240  1.0  -0.6935
  O  O1349  1  0.534810  0.124090  0.943110  1.0  -0.6205
  O  O1350  1  0.534810  0.397990  0.124090  1.0  -0.6181
  O  O1351  1  0.034810  0.443110  0.624090  1.0  -0.6179
  O  O1352  1  0.624090  0.034810  0.443110  1.0  -0.6207
  O  O1353  1  0.624090  0.443110  0.897990  1.0  -0.6155
  O  O1354  1  0.375910  0.102010  0.965190  1.0  -0.617
  O  O1355  1  0.556890  0.965190  0.102010  1.0  -0.6192
  O  O1356  1  0.556890  0.102010  0.375910  1.0  -0.6169
  O  O1357  1  0.943400  0.589240  0.997780  1.0  -0.6933
  O  O1358  1  0.497780  0.089240  0.443400  1.0  -0.6919
  O  O1359  1  0.056890  0.602010  0.465190  1.0  -0.6172
  O  O1360  1  0.897990  0.034810  0.624090  1.0  -0.6166
  O  O1361  1  0.089240  0.497780  0.969580  1.0  -0.6932
  O  O1362  1  0.102010  0.965190  0.375910  1.0  -0.6175
  O  O1363  1  0.897990  0.624090  0.443110  1.0  -0.6169
  O  O1364  1  0.410760  0.530420  0.002220  1.0  -0.6944
  O  O1365  1  0.443110  0.624090  0.034810  1.0  -0.6129
  O  O1366  1  0.875910  0.465190  0.602010  1.0  -0.6203
  O  O1367  1  0.556890  0.375910  0.965190  1.0  -0.6156
  O  O1368  1  0.556600  0.910760  0.030420  1.0  -0.6919
  O  O1369  1  0.997780  0.589240  0.469580  1.0  -0.6923
  O  O1370  1  0.465190  0.056890  0.602010  1.0  -0.6186
  O  O1371  1  0.530420  0.410760  0.056600  1.0  -0.6938
  O  O1372  1  0.943110  0.124090  0.397990  1.0  -0.6126
  O  O1373  1  0.624090  0.897990  0.034810  1.0  -0.6175
  O  O1374  1  0.943400  0.469580  0.589240  1.0  -0.6933
  O  O1375  1  0.102010  0.556890  0.965190  1.0  -0.6117
  O  O1376  1  0.375910  0.965190  0.556890  1.0  -0.6204
  O  O1377  1  0.943110  0.534810  0.124090  1.0  -0.6153
  O  O1378  1  0.469580  0.589240  0.943400  1.0  -0.6954
  O  O1379  1  0.589240  0.469580  0.997780  1.0  -0.6935
  O  O1380  1  0.102010  0.375910  0.556890  1.0  -0.6176
  O  O1381  1  0.397990  0.534810  0.943110  1.0  -0.6196
  O  O1382  1  0.502220  0.030420  0.910760  1.0  -0.6944
  O  O1383  1  0.965190  0.375910  0.102010  1.0  -0.6193
  O  O1384  1  0.943110  0.397990  0.534810  1.0  -0.6135
  O  O1385  1  0.943400  0.997780  0.469580  1.0  -0.6937
  O  O1386  1  0.602010  0.056890  0.875910  1.0  -0.6136
  O  O1387  1  0.056600  0.410760  0.002220  1.0  -0.6934
  O  O1388  1  0.589240  0.943400  0.469580  1.0  -0.692
  O  O1389  1  0.897990  0.443110  0.034810  1.0  -0.6155
  O  O1390  1  0.602010  0.875910  0.465190  1.0  -0.6174
  O  O1391  1  0.056600  0.002220  0.530420  1.0  -0.6928
  O  O1392  1  0.397990  0.943110  0.124090  1.0  -0.6131
  O  O1393  1  0.002220  0.056600  0.410760  1.0  -0.6943
  O  O1394  1  0.443400  0.969580  0.497780  1.0  -0.6933
  O  O1395  1  0.030420  0.910760  0.502220  1.0  -0.696
  O  O1396  1  0.443110  0.034810  0.897990  1.0  -0.6155
  O  O1397  1  0.534810  0.943110  0.397990  1.0  -0.6193
  O  O1398  1  0.910760  0.502220  0.030420  1.0  -0.6927
  O  O1399  1  0.469580  0.943400  0.997780  1.0  -0.6903
  O  O1400  1  0.965190  0.102010  0.556890  1.0  -0.616
  O  O1401  1  0.497780  0.443400  0.969580  1.0  -0.695
  O  O1402  1  0.875910  0.056890  0.465190  1.0  -0.6155
  O  O1403  1  0.089240  0.443400  0.497780  1.0  -0.6903
  O  O1404  1  0.530420  0.002220  0.410760  1.0  -0.6936
  O  O1405  1  0.969580  0.089240  0.497780  1.0  -0.6952
  O  O1406  1  0.589240  0.997780  0.943400  1.0  -0.6931
  O  O1407  1  0.556600  0.502220  0.910760  1.0  -0.6932
  O  O1408  1  0.375910  0.556890  0.102010  1.0  -0.618
  O  O1409  1  0.089240  0.969580  0.443400  1.0  -0.6936
  O  O1410  1  0.124090  0.943110  0.534810  1.0  -0.6158
  O  O1411  1  0.997780  0.943400  0.589240  1.0  -0.6927
  O  O1412  1  0.034810  0.624090  0.897990  1.0  -0.6215
  O  O1413  1  0.875910  0.602010  0.056890  1.0  -0.6179
  O  O1414  1  0.502220  0.910760  0.556600  1.0  -0.6921
  O  O1415  1  0.056890  0.875910  0.602010  1.0  -0.6141
  O  O1416  1  0.410760  0.056600  0.530420  1.0  -0.6922
